data_PCOD8041285
_publ_section_title
;
Structure prediction by ZEFSAII (Michael W. Deem and Ramdas Pophale) SiO2 
 PCOD8041285
Probable space group: P -1
;
_chemical_formula_sum "Si O2"
_cell_formula_units_Z 16
_cell_length_a 8.905562
_cell_length_b 23.459952
_cell_length_c 15.604950
_cell_angle_alpha 26.103324
_cell_angle_beta 141.674938
_cell_angle_gamma 145.088543
_cell_volume 805.844976
_symmetry_space_group_name_H-M "P -1"
_symmetry_group_IT_number 2
_symmetry_cell_setting 'triclinic'
loop_
_space_group_symop_operation_xyz
x,y,z
-x,-y,-z
loop_
_atom_site_type_symbol
_atom_site_label
_atom_site_fract_x
_atom_site_fract_y
_atom_site_fract_z
Si Si1 0.352043 0.009474 0.292693
Si Si2 0.142148 0.917995 0.040610
Si Si3 0.725346 0.210994 0.579124
Si Si4 0.869007 0.705973 0.888595
Si Si5 0.754268 0.108227 0.066407
Si Si6 0.190717 0.156213 0.482650
Si Si7 0.268774 0.599918 0.818918
Si Si8 0.789592 0.216984 0.317546
O O1 0.590582 0.162685 0.218784
O O2 0.418263 0.943677 0.324764
O O3 0.328866 0.900183 0.504171
O O4 0.073533 0.018451 0.141026
O O5 0.067559 0.799562 0.243466
O O6 0.435546 0.045200 0.018911
O O7 0.155459 0.848554 0.049330
O O8 0.509241 0.241221 0.498365
O O9 0.857356 0.337487 0.397933
O O10 0.937907 0.838484 0.674677
O O11 0.588393 0.668311 0.860837
O O12 0.103731 0.749230 0.005694
O O13 0.861723 0.570480 0.015613
O O14 0.882150 0.001656 0.300794
O O15 0.085000 0.237104 0.395168
O O16 0.196167 0.636778 0.831594
#
# Coordination Sequence:
#
# PCOD8041285 Si02
#       8
#     2   2   2   2   2   2   2   2
#     4  10  19  32  51  82 110 136 168 219 267 307
#     4  10  19  33  51  80 107 138 173 216 261 308
#     4   9  20  33  53  77 106 142 177 210 258 311
#     4  10  20  35  57  75 109 140 175 214 262 316
#     4  10  20  32  54  83 107 133 173 221 263 306
#     4  10  20  32  55  83 105 132 171 221 272 305
#     4   9  20  37  52  79 107 142 174 213 260 312
#     4  10  20  31  55  81 111 132 167 223 267 308
#
# _framework density 19.854935999999999
#
# number of rings (size 3 to 8) (size 9 to 14) (size 15 to 20)
#    0.000    2.250    1.250    1.500    8.750    0.500 
#    0.000    0.625    0.000    6.000    0.000    0.000 
#    0.000    0.000    0.000    0.000    0.000    0.000 
#
# Total GULP energy -198278.760453 kJ/mol
# GULP energy per Si atom -12392.422528 kJ/mol
# Density = 1.980975 g / cm^3
# Si number density = 19.854936 Si / 1000 Ang^3
#
#
#
# Elastic Constant Matrix: (Units=GPa)
#
#
# Indices 1 2 3 4 5 6 
#
# 1 82.7479 31.7830 19.0345 -4.2272 24.7557 -16.8156
# 2 31.7830 96.0654 46.3509 7.7842 11.5914 -15.5608
# 3 19.0345 46.3509 73.5607 11.8628 7.8689 -9.1897
# 4 -4.2272 7.7842 11.8628 20.4011 -7.2698 0.7462
# 5 24.7557 11.5914 7.8689 -7.2698 39.0668 1.5070
# 6 -16.8156 -15.5608 -9.1897 0.7462 1.5070 21.6163
#
#
#
# Elastic Compliance Matrix: (Units=1/GPa)
#
#
# Indices 1 2 3 4 5 6 
#
# 1 0.019681 -0.002579 -0.000513 0.000555 -0.012041 0.014055
# 2 -0.002579 0.017017 -0.008360 -0.003357 -0.002625 0.006989
# 3 -0.000513 -0.008360 0.021572 -0.010902 -0.003699 0.003388
# 4 0.000555 -0.003357 -0.010902 0.062395 0.014830 -0.009808
# 5 -0.012041 -0.002625 -0.003699 0.014830 0.038128 -0.016000
# 6 0.014055 0.006989 0.003388 -0.009808 -0.016000 0.065121
#
#
# Mechanical properties :
#
#
# Convention : Reuss Voigt Hill
#
# Bulk Modulus (GPa) = 28.27616 49.63453 38.95535
# Shear Modulus (GPa) = 19.33439 26.56387 22.94913
#
# Velocity S-wave (km/s) = 3.12393 3.66170 3.40345
# Velocity P-wave (km/s) = 5.22343 6.55212 5.92514
#
# Compressibility (1/GPa) = 0.03536547
#
# Stress axis : x y z
#
# Youngs Moduli (GPa) = 50.81147 58.76338 46.35716
#
# Poissons Ratio (x) = 0.15156 0.02378
# Poissons Ratio (y) = 0.13105 0.38755
# Poissons Ratio (z) = 0.02606 0.49126
#
# Static dielectric constant tensor:
#      x y z
#    x 3.722930 -0.355230 -0.019980 
#    y -0.355230 3.461530 0.209860 
#    z -0.019980 0.209860 3.668830 
# 
# 
# High freq. dielectric constant tensor:
#      x y z
#    x 1.783190 -0.023560 0.002530 
#    y -0.023560 1.736220 0.020310 
#    z 0.002530 0.020310 1.761450 
# 
# From -- ./inp_files/252275.got.cif
#   From: 2010.06.25/outbox.cif.g09.slc.cpg/sg2_127_cif.got.tgz:252275.got - 2010.06.27 13:26:56.
