data_PCOD8041395
_publ_section_title
;
Structure prediction by ZEFSAII (Michael W. Deem and Ramdas Pophale) SiO2 
 PCOD8041395
Probable space group: P -1
;
_chemical_formula_sum "Si O2"
_cell_formula_units_Z 16
_cell_length_a 11.493668
_cell_length_b 8.888901
_cell_length_c 11.450294
_cell_angle_alpha 103.973204
_cell_angle_beta 124.925564
_cell_angle_gamma 106.799419
_cell_volume 785.164413
_symmetry_space_group_name_H-M "P -1"
_symmetry_group_IT_number 2
_symmetry_cell_setting 'triclinic'
loop_
_space_group_symop_operation_xyz
x,y,z
-x,-y,-z
loop_
_atom_site_type_symbol
_atom_site_label
_atom_site_fract_x
_atom_site_fract_y
_atom_site_fract_z
Si Si1 0.088994 0.237215 0.155908
Si Si2 0.615678 0.142656 0.720932
Si Si3 0.756391 0.046769 0.510575
Si Si4 0.414579 0.329641 0.064595
Si Si5 0.754595 0.368271 0.622636
Si Si6 0.404431 0.209981 0.289426
Si Si7 0.041758 0.116795 0.859833
Si Si8 0.463420 0.264153 0.829657
O O1 0.105345 0.415435 0.257626
O O2 0.270504 0.258931 0.261818
O O3 0.022438 0.216842 0.980781
O O4 0.958281 0.060156 0.123951
O O5 0.747690 0.293082 0.735352
O O6 0.612889 0.249408 0.856129
O O7 0.422096 0.032886 0.535709
O O8 0.670484 0.003912 0.767398
O O9 0.810030 0.256729 0.548534
O O10 0.891227 0.045129 0.669382
O O11 0.717214 0.914994 0.351404
O O12 0.216705 0.253088 0.920818
O O13 0.473461 0.262497 0.974988
O O14 0.446742 0.249888 0.183964
O O15 0.522016 0.550904 0.172593
O O16 0.577539 0.340919 0.481516
#
# Coordination Sequence:
#
# PCOD8041395 Si02
#       8
#     2   2   2   2   2   2   2   2
#     4  10  21  31  52  83 112 142 174 217 272 323
#     4   9  18  33  53  82 109 139 177 218 263 316
#     4   9  20  34  55  78 108 143 175 218 269 320
#     4  10  21  38  57  81 106 139 185 227 266 309
#     4  11  19  33  56  84 111 141 179 218 266 322
#     4  10  19  32  56  82 108 141 175 224 266 310
#     4  10  20  36  51  78 116 138 174 221 274 319
#     4   9  21  38  57  82 101 142 190 221 261 315
#
# _framework density 20.377897000000001
#
# number of rings (size 3 to 8) (size 9 to 14) (size 15 to 20)
#    0.750    1.500    0.000    4.875    1.750    1.500 
#    0.000    3.750    0.000    0.750    0.000    0.000 
#    0.000    0.000    0.000    0.000    0.000    0.000 
#
# Total GULP energy -198284.325778 kJ/mol
# GULP energy per Si atom -12392.770361 kJ/mol
# Density = 2.033152 g / cm^3
# Si number density = 20.377897 Si / 1000 Ang^3
#
#
#
# Elastic Constant Matrix: (Units=GPa)
#
#
# Indices 1 2 3 4 5 6 
#
# 1 38.0020 25.2407 23.4396 6.1426 -14.5917 -3.3785
# 2 25.2407 97.5872 51.0688 10.9719 -20.2233 -8.4961
# 3 23.4396 51.0688 78.0354 15.3325 -20.7404 -12.7661
# 4 6.1426 10.9719 15.3325 38.6756 -10.5542 -7.0656
# 5 -14.5917 -20.2233 -20.7404 -10.5542 22.5073 5.3463
# 6 -3.3785 -8.4961 -12.7661 -7.0656 5.3463 23.0112
#
#
#
# Elastic Compliance Matrix: (Units=1/GPa)
#
#
# Indices 1 2 3 4 5 6 
#
# 1 0.038464 -0.004081 -0.004714 0.001459 0.018142 -0.002242
# 2 -0.004081 0.016699 -0.008571 0.000588 0.004764 -0.000115
# 3 -0.004714 -0.008571 0.023616 -0.002767 0.008164 0.006499
# 4 0.001459 0.000588 -0.002767 0.030867 0.012076 0.005568
# 5 0.018142 0.004764 0.008164 0.012076 0.074777 -0.004714
# 6 -0.002242 -0.000115 0.006499 0.005568 -0.004714 0.049496
#
#
# Mechanical properties :
#
#
# Convention : Reuss Voigt Hill
#
# Bulk Modulus (GPa) = 22.70301 45.90255 34.30278
# Shear Modulus (GPa) = 17.64702 24.43050 21.03876
#
# Velocity S-wave (km/s) = 2.94596 3.46623 3.21663
# Velocity P-wave (km/s) = 4.76831 6.21243 5.53764
#
# Compressibility (1/GPa) = 0.04404702
#
# Stress axis : x y z
#
# Youngs Moduli (GPa) = 25.99855 59.88334 42.34360
#
# Poissons Ratio (x) = 0.24439 0.19961
# Poissons Ratio (y) = 0.10610 0.36292
# Poissons Ratio (z) = 0.12256 0.51324
#
# Static dielectric constant tensor:
#      x y z
#    x 3.385110 -0.108070 -0.152230 
#    y -0.108070 3.711900 0.169330 
#    z -0.152230 0.169330 3.681140 
# 
# 
# High freq. dielectric constant tensor:
#      x y z
#    x 1.754460 -0.013850 -0.006340 
#    y -0.013850 1.793170 0.010900 
#    z -0.006340 0.010900 1.798130 
# 
# From -- ./inp_files/445993.got.cif
#   From: 2010.06.25/outbox.cif.g09.slc.cpg/sg2_223_cif.got.tgz:445993.got - 2010.06.27 13:26:56.
