data_PCOD8041488
_publ_section_title
;
Structure prediction by ZEFSAII (Michael W. Deem and Ramdas Pophale) SiO2 
 PCOD8041488
Probable space group: P -1
;
_chemical_formula_sum "Si O2"
_cell_formula_units_Z 16
_cell_length_a 7.960716
_cell_length_b 14.038302
_cell_length_c 8.210113
_cell_angle_alpha 104.757393
_cell_angle_beta 104.950761
_cell_angle_gamma 56.412482
_cell_volume 731.273100
_symmetry_space_group_name_H-M "P -1"
_symmetry_group_IT_number 2
_symmetry_cell_setting 'triclinic'
loop_
_space_group_symop_operation_xyz
x,y,z
-x,-y,-z
loop_
_atom_site_type_symbol
_atom_site_label
_atom_site_fract_x
_atom_site_fract_y
_atom_site_fract_z
Si Si1 0.853300 0.153165 0.863055
Si Si2 0.266178 0.971717 0.975475
Si Si3 0.118093 0.383716 0.144809
Si Si4 0.757993 0.619671 0.167986
Si Si5 0.612272 0.373393 0.046470
Si Si6 0.629450 0.863590 0.778902
Si Si7 0.505804 0.224707 0.560159
Si Si8 0.482283 0.399804 0.369520
O O1 0.715491 0.155682 0.681714
O O2 0.804227 0.107835 0.995757
O O3 0.817097 0.280057 0.958541
O O4 0.092660 0.064937 0.847746
O O5 0.470590 0.888422 0.893745
O O6 0.303021 0.043011 0.156982
O O7 0.180464 0.266778 0.204088
O O8 0.261040 0.435338 0.254772
O O9 0.886094 0.481564 0.184059
O O10 0.115784 0.364302 0.939106
O O11 0.702761 0.695872 0.351929
O O12 0.537488 0.671202 0.057303
O O13 0.642036 0.363573 0.243915
O O14 0.500000 0.500000 0.000000
O O15 0.529005 0.868655 0.581355
O O16 0.545667 0.299211 0.471736
O O17 0.500000 0.500000 0.500000
#
# Coordination Sequence:
#
# PCOD8041488 Si02
#       8
#     2   2   2   2   2   2   2   2
#     4  10  21  39  60  82 113 152 199 239 289 348
#     4  10  22  40  59  81 113 157 202 239 283 350
#     4   9  19  35  56  77 116 152 189 231 284 355
#     4   9  18  34  54  84 112 152 184 229 289 350
#     4  10  20  35  59  83 114 151 187 232 287 354
#     4  10  21  37  58  83 111 152 193 250 288 334
#     4  10  20  36  60  84 118 147 186 249 293 342
#     4  10  19  33  50  82 120 149 181 229 289 341
#
# _framework density 21.879652
#
# number of rings (size 3 to 8) (size 9 to 14) (size 15 to 20)
#    0.000    2.250    0.000    4.500    1.750    3.000 
#    4.500    0.000    0.000    0.000    0.000    0.000 
#    0.000    0.000    0.000    0.000    0.000    0.000 
#
# Total GULP energy -198225.172878 kJ/mol
# GULP energy per Si atom -12389.073305 kJ/mol
# Density = 2.182985 g / cm^3
# Si number density = 21.879652 Si / 1000 Ang^3
#
#
#
# Elastic Constant Matrix: (Units=GPa)
#
#
# Indices 1 2 3 4 5 6 
#
# 1 30.3224 4.9269 9.9246 -0.1380 -3.9230 -5.3397
# 2 4.9269 86.2189 32.9944 -3.2185 8.1862 -11.4934
# 3 9.9246 32.9944 129.2984 7.8339 5.9237 -4.0438
# 4 -0.1380 -3.2185 7.8339 37.9491 4.0649 7.8268
# 5 -3.9230 8.1862 5.9237 4.0649 16.3499 -6.5123
# 6 -5.3397 -11.4934 -4.0438 7.8268 -6.5123 26.8133
#
#
#
# Elastic Compliance Matrix: (Units=1/GPa)
#
#
# Indices 1 2 3 4 5 6 
#
# 1 0.038246 -0.001248 -0.002786 -0.003548 0.016339 0.011665
# 2 -0.001248 0.013914 -0.003211 0.001665 -0.005122 0.003501
# 3 -0.002786 -0.003211 0.008954 -0.001791 -0.002084 -0.000564
# 4 -0.003548 0.001665 -0.001791 0.030928 -0.013756 -0.012632
# 5 0.016339 -0.005122 -0.002084 -0.013756 0.081613 0.024582
# 6 0.011665 0.003501 -0.000564 -0.012632 0.024582 0.050691
#
#
# Mechanical properties :
#
#
# Convention : Reuss Voigt Hill
#
# Bulk Modulus (GPa) = 21.44906 37.94794 29.69850
# Shear Modulus (GPa) = 19.65584 29.42206 24.53895
#
# Velocity S-wave (km/s) = 3.00052 3.67102 3.35258
# Velocity P-wave (km/s) = 4.67211 5.94560 5.34691
#
# Compressibility (1/GPa) = 0.04662208
#
# Stress axis : x y z
#
# Youngs Moduli (GPa) = 26.14683 71.87083 111.68520
#
# Poissons Ratio (x) = 0.08971 0.31115
# Poissons Ratio (y) = 0.03264 0.35867
# Poissons Ratio (z) = 0.07284 0.23081
#
# Static dielectric constant tensor:
#      x y z
#    x 4.106300 -0.316290 0.082990 
#    y -0.316290 4.107840 0.109190 
#    z 0.082990 0.109190 4.152400 
# 
# 
# High freq. dielectric constant tensor:
#      x y z
#    x 1.835670 -0.009770 0.004980 
#    y -0.009770 1.864990 0.002630 
#    z 0.004980 0.002630 1.857160 
# 
# From -- ./inp_files/208484.got.cif
#   From: 2010.06.25/outbox.cif.g09.slc.cpg/sg2_105_cif.got.tgz:208484.got - 2010.06.27 13:26:56.
