data_PCOD8041299
_publ_section_title
;
Structure prediction by ZEFSAII (Michael W. Deem and Ramdas Pophale) SiO2 
 PCOD8041299
Probable space group: P -1
;
_chemical_formula_sum "Si O2"
_cell_formula_units_Z 16
_cell_length_a 5.035288
_cell_length_b 28.031177
_cell_length_c 9.647598
_cell_angle_alpha 131.201469
_cell_angle_beta 97.313030
_cell_angle_gamma 59.413491
_cell_volume 835.332098
_symmetry_space_group_name_H-M "P -1"
_symmetry_group_IT_number 2
_symmetry_cell_setting 'triclinic'
loop_
_space_group_symop_operation_xyz
x,y,z
-x,-y,-z
loop_
_atom_site_type_symbol
_atom_site_label
_atom_site_fract_x
_atom_site_fract_y
_atom_site_fract_z
Si Si1 0.322216 0.876669 0.224324
Si Si2 0.114550 0.963535 0.634853
Si Si3 0.818193 0.470161 0.060507
Si Si4 0.765917 0.620011 0.309317
Si Si5 0.555050 0.009439 0.864341
Si Si6 0.121372 0.170352 0.011586
Si Si7 0.684356 0.517117 0.435973
Si Si8 0.801034 0.328645 0.450426
O O1 0.699680 0.825978 0.106283
O O2 0.265772 0.885456 0.403901
O O3 0.165452 0.836411 0.068871
O O4 0.176560 0.962703 0.324988
O O5 0.942130 0.961073 0.759890
O O6 0.407175 0.972401 0.694632
O O7 0.916697 0.531389 0.191246
O O8 0.757204 0.461486 0.200942
O O9 0.500000 0.500000 0.000000
O O10 0.128953 0.388531 0.863259
O O11 0.380082 0.670326 0.416716
O O12 0.929876 0.654568 0.470987
O O13 0.375171 0.099741 0.992841
O O14 0.500000 0.000000 0.000000
O O15 0.974402 0.246140 0.236220
O O16 0.500000 0.500000 0.500000
O O17 0.470145 0.606606 0.546608
O O18 0.000000 0.500000 0.500000
#
# Coordination Sequence:
#
# PCOD8041299 Si02
#       8
#     2   2   2   2   2   2   2   2
#     4   9  17  31  51  78  99 135 180 218 257 302
#     4   9  17  30  51  76 104 131 178 222 253 310
#     4  10  19  35  59  82 107 138 188 229 265 325
#     4  10  19  32  57  80 102 139 188 226 257 314
#     4  10  19  32  52  80 107 136 172 224 272 302
#     4  10  20  33  54  77 108 140 176 217 262 322
#     4  11  23  35  55  84 111 136 176 234 283 308
#     4  11  21  36  54  80 110 143 179 223 273 335
#
# _framework density 19.154059
#
# number of rings (size 3 to 8) (size 9 to 14) (size 15 to 20)
#    0.000    2.000    2.500    3.375    1.750    3.000 
#    0.000    0.000    0.000    9.000    0.000    0.000 
#    0.000    0.000    0.000    0.000    0.000    0.000 
#
# Total GULP energy -198250.328274 kJ/mol
# GULP energy per Si atom -12390.645517 kJ/mol
# Density = 1.911046 g / cm^3
# Si number density = 19.154059 Si / 1000 Ang^3
#
#
#
# Elastic Constant Matrix: (Units=GPa)
#
#
# Indices 1 2 3 4 5 6 
#
# 1 124.8726 22.2512 55.1536 0.3065 -13.4643 18.0153
# 2 22.2512 42.5352 38.8416 -8.9675 -5.6310 7.6630
# 3 55.1536 38.8416 163.8758 1.1849 -19.0532 16.8031
# 4 0.3065 -8.9675 1.1849 27.8693 6.5120 -3.6321
# 5 -13.4643 -5.6310 -19.0532 6.5120 43.0351 -8.6656
# 6 18.0153 7.6630 16.8031 -3.6321 -8.6656 20.0686
#
#
#
# Elastic Compliance Matrix: (Units=1/GPa)
#
#
# Indices 1 2 3 4 5 6 
#
# 1 0.010463 -0.002671 -0.002088 -0.001969 0.000977 -0.006559
# 2 -0.002671 0.034203 -0.007162 0.011343 -0.001943 -0.003452
# 3 -0.002088 -0.007162 0.009078 -0.003576 0.002450 -0.002581
# 4 -0.001969 0.011343 -0.003576 0.041803 -0.005948 0.005428
# 5 0.000977 -0.001943 0.002450 -0.005948 0.026960 0.008378
# 6 -0.006559 -0.003452 -0.002581 0.005428 0.008378 0.063796
#
#
# Mechanical properties :
#
#
# Convention : Reuss Voigt Hill
#
# Bulk Modulus (GPa) = 33.44204 62.64182 48.04193
# Shear Modulus (GPa) = 22.71583 32.53041 27.62312
#
# Velocity S-wave (km/s) = 3.44750 4.12558 3.80169
# Velocity P-wave (km/s) = 5.77447 7.44776 6.66384
#
# Compressibility (1/GPa) = 0.02990248
#
# Stress axis : x y z
#
# Youngs Moduli (GPa) = 95.57805 29.23697 110.15937
#
# Poissons Ratio (x) = 0.07809 0.23001
# Poissons Ratio (y) = 0.25527 0.78895
# Poissons Ratio (z) = 0.19956 0.20939
#
# Static dielectric constant tensor:
#      x y z
#    x 3.952530 0.215080 -0.306300 
#    y 0.215080 3.052490 -0.210320 
#    z -0.306300 -0.210320 3.822500 
# 
# 
# High freq. dielectric constant tensor:
#      x y z
#    x 1.773040 0.018500 -0.009160 
#    y 0.018500 1.668540 -0.014550 
#    z -0.009160 -0.014550 1.763740 
# 
# From -- ./inp_files/142861.got.cif
#   From: 2010.06.25/outbox.cif.g09.slc.cpg/sg2_72_cif.got.tgz:142861.got - 2010.06.27 13:26:56.
