data_PCOD8041693
_publ_section_title
;
Structure prediction by ZEFSAII (Michael W. Deem and Ramdas Pophale) SiO2 
 PCOD8041693
Probable space group: P -1
;
_chemical_formula_sum "Si O2"
_cell_formula_units_Z 16
_cell_length_a 15.145060
_cell_length_b 8.903426
_cell_length_c 12.348193
_cell_angle_alpha 107.816196
_cell_angle_beta 31.648519
_cell_angle_gamma 114.736319
_cell_volume 789.083238
_symmetry_space_group_name_H-M "P -1"
_symmetry_group_IT_number 2
_symmetry_cell_setting 'triclinic'
loop_
_space_group_symop_operation_xyz
x,y,z
-x,-y,-z
loop_
_atom_site_type_symbol
_atom_site_label
_atom_site_fract_x
_atom_site_fract_y
_atom_site_fract_z
Si Si1 0.287772 0.291177 0.116820
Si Si2 0.196428 0.809776 0.622433
Si Si3 0.919974 0.606466 0.030943
Si Si4 0.420967 0.602463 0.775088
Si Si5 0.926396 0.309329 0.505632
Si Si6 0.591712 0.316529 0.957459
Si Si7 0.304158 0.182086 0.624354
Si Si8 0.554250 0.737817 0.276338
O O1 0.406180 0.233340 0.069204
O O2 0.078703 0.223135 0.354394
O O3 0.342216 0.489786 0.097981
O O4 0.313977 0.221920 0.955616
O O5 0.107806 0.702218 0.588738
O O6 0.389786 0.797493 0.434916
O O7 0.212127 0.001877 0.629745
O O8 0.076799 0.740348 0.835140
O O9 0.783738 0.486809 0.062156
O O10 0.825121 0.707081 0.228249
O O11 0.000000 0.500000 0.000000
O O12 0.435808 0.712571 0.891966
O O13 0.515402 0.723380 0.606457
O O14 0.512073 0.459322 0.670238
O O15 0.000000 0.500000 0.500000
O O16 0.739331 0.230490 0.746918
O O17 0.343437 0.159961 0.704975
#
# Coordination Sequence:
#
# PCOD8041693 Si02
#       8
#     2   2   2   2   2   2   2   2
#     4   9  17  31  55  87 112 147 203 260 295 345
#     4  12  22  36  61  93 122 159 200 259 315 360
#     4  11  22  39  60  90 121 159 209 253 301 367
#     4  10  21  39  59  85 120 161 205 252 302 369
#     4  10  19  33  56  89 118 156 210 254 297 363
#     4   9  17  33  54  83 113 152 203 253 300 340
#     4  11  23  39  57  89 128 161 197 251 317 368
#     4  10  19  36  61  86 117 160 208 245 304 374
#
# _framework density 20.276693000000002
#
# number of rings (size 3 to 8) (size 9 to 14) (size 15 to 20)
#    0.000    1.750    1.250    6.750    1.750    0.000 
#    2.250    0.625    0.000    0.750    0.000    0.000 
#    0.000    0.000    0.000    0.000    0.000    0.000 
#
# Total GULP energy -198383.553854 kJ/mol
# GULP energy per Si atom -12398.972116 kJ/mol
# Density = 2.023054 g / cm^3
# Si number density = 20.276693 Si / 1000 Ang^3
#
#
#
# Elastic Constant Matrix: (Units=GPa)
#
#
# Indices 1 2 3 4 5 6 
#
# 1 115.5126 44.8500 51.9917 24.4465 -4.2682 0.0858
# 2 44.8500 63.7528 35.5948 -1.6958 -1.4149 3.0382
# 3 51.9917 35.5948 138.2676 25.0094 -11.7892 -5.4745
# 4 24.4465 -1.6958 25.0094 16.3006 -4.4938 -0.3115
# 5 -4.2682 -1.4149 -11.7892 -4.4938 34.9095 11.0496
# 6 0.0858 3.0382 -5.4745 -0.3115 11.0496 19.7695
#
#
#
# Elastic Compliance Matrix: (Units=1/GPa)
#
#
# Indices 1 2 3 4 5 6 
#
# 1 0.025207 -0.022186 0.004929 -0.048780 -0.004453 0.006385
# 2 -0.022186 0.040594 -0.012615 0.058272 0.005993 -0.012067
# 3 0.004929 -0.012615 0.014371 -0.030890 -0.000904 0.005916
# 4 -0.048780 0.058272 -0.030890 0.192605 0.018557 -0.024635
# 5 -0.004453 0.005993 -0.000904 0.018557 0.037298 -0.021706
# 6 0.006385 -0.012067 0.005916 -0.024635 -0.021706 0.065792
#
#
# Mechanical properties :
#
#
# Convention : Reuss Voigt Hill
#
# Bulk Modulus (GPa) = 48.94917 64.71177 56.83047
# Shear Modulus (GPa) = 11.30152 26.53568 18.91860
#
# Velocity S-wave (km/s) = 2.36342 3.62149 3.05785
# Velocity P-wave (km/s) = 5.62501 7.03353 6.36833
#
# Compressibility (1/GPa) = 0.02042935
#
# Stress axis : x y z
#
# Youngs Moduli (GPa) = 39.67217 24.63396 69.58618
#
# Poissons Ratio (x) = 0.54652 -0.34302
# Poissons Ratio (y) = 0.88015 0.87782
# Poissons Ratio (z) = -0.19556 0.31076
#
# Static dielectric constant tensor:
#      x y z
#    x 3.835980 0.108050 -0.144080 
#    y 0.108050 3.344900 0.327790 
#    z -0.144080 0.327790 4.102710 
# 
# 
# High freq. dielectric constant tensor:
#      x y z
#    x 1.795970 0.011900 -0.005300 
#    y 0.011900 1.751420 0.024700 
#    z -0.005300 0.024700 1.802870 
# 
# From -- ./inp_files/176093.got.cif
#   From: 2010.06.25/outbox.cif.g09.slc.cpg/sg2_89_cif.got.tgz:176093.got - 2010.06.27 13:26:56.
