data_PCOD8041897
_publ_section_title
;
Structure prediction by ZEFSAII (Michael W. Deem and Ramdas Pophale) SiO2 
 PCOD8041897
Probable space group: P -1
;
_chemical_formula_sum "Si O2"
_cell_formula_units_Z 16
_cell_length_a 13.086847
_cell_length_b 6.596055
_cell_length_c 18.479530
_cell_angle_alpha 122.023506
_cell_angle_beta 132.812011
_cell_angle_gamma 89.774517
_cell_volume 813.054932
_symmetry_space_group_name_H-M "P -1"
_symmetry_group_IT_number 2
_symmetry_cell_setting 'triclinic'
loop_
_space_group_symop_operation_xyz
x,y,z
-x,-y,-z
loop_
_atom_site_type_symbol
_atom_site_label
_atom_site_fract_x
_atom_site_fract_y
_atom_site_fract_z
Si Si1 0.881890 0.851882 0.272829
Si Si2 0.102720 0.606577 0.330030
Si Si3 0.728289 0.541356 0.995396
Si Si4 0.617244 0.763506 0.406753
Si Si5 0.179400 0.466945 0.490749
Si Si6 0.047930 0.700439 0.944963
Si Si7 0.237650 0.343544 0.125090
Si Si8 0.657604 0.878906 0.281671
O O1 0.743059 0.761866 0.250624
O O2 0.966083 0.678757 0.297618
O O3 0.790936 0.762056 0.133949
O O4 0.019173 0.200337 0.406087
O O5 0.129936 0.455138 0.381194
O O6 0.039726 0.381518 0.191528
O O7 0.279845 0.908919 0.449783
O O8 0.741621 0.704225 0.958570
O O9 0.535488 0.267406 0.864713
O O10 0.849879 0.438470 0.020184
O O11 0.667217 0.571894 0.437070
O O12 0.417800 0.610717 0.293436
O O13 0.666585 0.790886 0.350905
O O14 0.239918 0.773665 0.613432
O O15 0.899981 0.582775 0.911806
O O16 0.179297 0.047791 0.082175
#
# Coordination Sequence:
#
# PCOD8041897 Si02
#       8
#     2   2   2   2   2   2   2   2
#     4  10  20  33  52  77 103 134 170 205 245 297
#     4   9  20  35  51  75 105 133 166 208 249 295
#     4  10  20  36  54  74 104 134 164 208 256 296
#     4   9  20  35  51  75 105 133 166 208 249 295
#     4  10  19  34  53  72 104 138 167 204 249 292
#     4  10  20  35  55  77 100 130 169 209 252 302
#     4  10  20  35  55  77 100 130 169 209 252 302
#     4  10  20  33  52  77 103 134 170 205 245 297
#
# _framework density 19.678867
#
# number of rings (size 3 to 8) (size 9 to 14) (size 15 to 20)
#    0.000    2.250    0.000    2.625    0.000    6.000 
#    0.000    0.625    0.000    8.250    0.000    0.000 
#    0.000    0.000    0.000    0.000    0.000    0.000 
#
# Total GULP energy -198405.349539 kJ/mol
# GULP energy per Si atom -12400.334346 kJ/mol
# Density = 1.963408 g / cm^3
# Si number density = 19.678867 Si / 1000 Ang^3
#
#
#
# Elastic Constant Matrix: (Units=GPa)
#
#
# Indices 1 2 3 4 5 6 
#
# 1 85.0926 14.6805 36.9291 10.3484 11.9796 7.4990
# 2 14.6805 67.7884 14.1917 -6.5110 5.6383 0.6395
# 3 36.9291 14.1917 95.4740 0.5448 17.0343 -0.9392
# 4 10.3484 -6.5110 0.5448 25.9443 -2.8917 -0.8804
# 5 11.9796 5.6383 17.0343 -2.8917 20.6958 3.9818
# 6 7.4990 0.6395 -0.9392 -0.8804 3.9818 13.6805
#
#
#
# Elastic Compliance Matrix: (Units=1/GPa)
#
#
# Indices 1 2 3 4 5 6 
#
# 1 0.016949 -0.002894 -0.005463 -0.008114 -0.003947 -0.008904
# 2 -0.002894 0.016196 -0.001043 0.005130 -0.001452 0.001510
# 3 -0.005463 -0.001043 0.014546 0.000760 -0.009753 0.006929
# 4 -0.008114 0.005130 0.000760 0.044097 0.007913 0.004795
# 5 -0.003947 -0.001452 -0.009753 0.007913 0.063277 -0.016346
# 6 -0.008904 0.001510 0.006929 0.004795 -0.016346 0.083449
#
#
# Mechanical properties :
#
#
# Convention : Reuss Voigt Hill
#
# Bulk Modulus (GPa) = 34.61276 42.21753 38.41515
# Shear Modulus (GPa) = 18.73042 24.23435 21.48239
#
# Velocity S-wave (km/s) = 3.08848 3.51307 3.30759
# Velocity P-wave (km/s) = 5.50865 6.16079 5.84383
#
# Compressibility (1/GPa) = 0.02889108
#
# Stress axis : x y z
#
# Youngs Moduli (GPa) = 59.00036 61.74266 68.74668
#
# Poissons Ratio (x) = 0.17868 0.37555
# Poissons Ratio (y) = 0.17075 0.07173
# Poissons Ratio (z) = 0.32231 0.06442
#
# Static dielectric constant tensor:
#      x y z
#    x 3.412460 0.022150 0.102840 
#    y 0.022150 3.378340 -0.066630 
#    z 0.102840 -0.066630 3.826130 
# 
# 
# High freq. dielectric constant tensor:
#      x y z
#    x 1.753280 0.001980 0.009160 
#    y 0.001980 1.757540 -0.002730 
#    z 0.009160 -0.002730 1.782490 
# 
# From -- ./inp_files/81224.got.cif
#   From: 2010.06.25/outbox.cif.g09.slc.cpg/sg2_41_cif.got.tgz:81224.got - 2010.06.27 13:26:56.
