data_PCOD8041596
_publ_section_title
;
Structure prediction by ZEFSAII (Michael W. Deem and Ramdas Pophale) SiO2 
 PCOD8041596
Probable space group: P -1
;
_chemical_formula_sum "Si O2"
_cell_formula_units_Z 16
_cell_length_a 11.747314
_cell_length_b 12.772584
_cell_length_c 6.155254
_cell_angle_alpha 118.678454
_cell_angle_beta 91.907380
_cell_angle_gamma 88.682915
_cell_volume 809.785661
_symmetry_space_group_name_H-M "P -1"
_symmetry_group_IT_number 2
_symmetry_cell_setting 'triclinic'
loop_
_space_group_symop_operation_xyz
x,y,z
-x,-y,-z
loop_
_atom_site_type_symbol
_atom_site_label
_atom_site_fract_x
_atom_site_fract_y
_atom_site_fract_z
Si Si1 0.750053 0.707456 0.786034
Si Si2 0.663422 0.075246 0.195909
Si Si3 0.926390 0.787112 0.524497
Si Si4 0.861693 0.237092 0.232736
Si Si5 0.856925 0.482796 0.717553
Si Si6 0.745412 0.894614 0.349022
Si Si7 0.585299 0.857608 0.680591
Si Si8 0.048280 0.641910 0.025782
O O1 0.851109 0.720557 0.632217
O O2 0.751617 0.572146 0.743358
O O3 0.630289 0.739602 0.693072
O O4 0.771971 0.794278 0.074531
O O5 0.743902 0.168558 0.174425
O O6 0.550777 0.145286 0.337208
O O7 0.727055 0.021837 0.358663
O O8 0.632435 0.973298 0.922429
O O9 0.853381 0.896944 0.524388
O O10 0.040885 0.834637 0.696537
O O11 0.960041 0.692062 0.248741
O O12 0.849558 0.373348 0.443857
O O13 0.896411 0.248411 0.993289
O O14 0.851974 0.431630 0.914026
O O15 0.976078 0.555684 0.776503
O O16 0.631011 0.860880 0.440325
#
# Coordination Sequence:
#
# PCOD8041596 Si02
#       8
#     2   2   2   2   2   2   2   2
#     4  10  19  35  58  85 107 139 187 226 263 319
#     4  10  22  40  56  81 108 141 186 228 271 318
#     4  10  19  33  54  86 112 142 180 216 271 322
#     4  11  22  34  53  82 120 145 174 222 269 322
#     4  10  20  32  55  82 112 146 182 213 265 326
#     4  10  19  36  61  81 104 141 185 226 268 322
#     4   9  21  39  63  78 100 144 188 230 271 317
#     4  10  20  32  53  82 116 151 176 210 263 332
#
# _framework density 19.758313999999999
#
# number of rings (size 3 to 8) (size 9 to 14) (size 15 to 20)
#    0.000    2.000    2.500    0.750    3.500    2.500 
#    0.000    9.375    0.000    1.500    0.000    0.000 
#    0.000    0.000    0.000    0.000    0.000    0.000 
#
# Total GULP energy -198318.169583 kJ/mol
# GULP energy per Si atom -12394.885599 kJ/mol
# Density = 1.971334 g / cm^3
# Si number density = 19.758314 Si / 1000 Ang^3
#
#
#
# Elastic Constant Matrix: (Units=GPa)
#
#
# Indices 1 2 3 4 5 6 
#
# 1 119.0053 74.2443 37.0585 -5.6332 -12.0697 -6.1786
# 2 74.2443 121.5982 32.7702 -22.8428 -5.7206 -19.5175
# 3 37.0585 32.7702 62.8161 -16.7256 -16.0544 -1.7407
# 4 -5.6332 -22.8428 -16.7256 23.1457 1.1383 -3.7110
# 5 -12.0697 -5.7206 -16.0544 1.1383 21.0241 0.4952
# 6 -6.1786 -19.5175 -1.7407 -3.7110 0.4952 32.0441
#
#
#
# Elastic Compliance Matrix: (Units=1/GPa)
#
#
# Indices 1 2 3 4 5 6 
#
# 1 0.017641 -0.012377 -0.007447 -0.014402 0.002000 -0.006241
# 2 -0.012377 0.021408 0.001962 0.021728 -0.001272 0.013295
# 3 -0.007447 0.001962 0.029507 0.021151 0.017563 0.003540
# 4 -0.014402 0.021728 0.021151 0.079295 0.009016 0.020650
# 5 0.002000 -0.001272 0.017563 0.009016 0.061274 0.000662
# 6 -0.006241 0.013295 0.003540 0.020650 0.000662 0.040675
#
#
# Mechanical properties :
#
#
# Convention : Reuss Voigt Hill
#
# Bulk Modulus (GPa) = 30.45682 65.72951 48.09317
# Shear Modulus (GPa) = 16.86525 25.86588 21.36556
#
# Velocity S-wave (km/s) = 2.92477 3.62209 3.29195
# Velocity P-wave (km/s) = 5.18207 7.12964 6.23240
#
# Compressibility (1/GPa) = 0.03283337
#
# Stress axis : x y z
#
# Youngs Moduli (GPa) = 56.68684 46.71181 33.88969
#
# Poissons Ratio (x) = 0.57816 0.25237
# Poissons Ratio (y) = 0.70162 -0.06651
# Poissons Ratio (z) = 0.42213 -0.09167
#
# Static dielectric constant tensor:
#      x y z
#    x 3.519520 -0.440820 -0.132350 
#    y -0.440820 3.761580 -0.313110 
#    z -0.132350 -0.313110 3.522710 
# 
# 
# High freq. dielectric constant tensor:
#      x y z
#    x 1.742310 -0.031300 -0.015520 
#    y -0.031300 1.770570 -0.026100 
#    z -0.015520 -0.026100 1.766700 
# 
# From -- ./inp_files/69959.got.cif
#   From: 2010.06.25/outbox.cif.g09.slc.cpg/sg2_35_cif.got.tgz:69959.got - 2010.06.27 13:26:56.
