data_PCOD8041159
_publ_section_title
;
Structure prediction by ZEFSAII (Michael W. Deem and Ramdas Pophale) SiO2 
 PCOD8041159
Probable space group: P -1
;
_chemical_formula_sum "Si O2"
_cell_formula_units_Z 12
_cell_length_a 29.706819
_cell_length_b 14.936936
_cell_length_c 24.099995
_cell_angle_alpha 160.214211
_cell_angle_beta 10.274738
_cell_angle_gamma 160.692267
_cell_volume 616.715300
_symmetry_space_group_name_H-M "P -1"
_symmetry_group_IT_number 2
_symmetry_cell_setting 'triclinic'
loop_
_space_group_symop_operation_xyz
x,y,z
-x,-y,-z
loop_
_atom_site_type_symbol
_atom_site_label
_atom_site_fract_x
_atom_site_fract_y
_atom_site_fract_z
Si Si1 0.569210 0.091974 0.664193
Si Si2 0.828194 0.366042 0.183170
Si Si3 0.383120 0.074277 0.048246
Si Si4 0.709846 0.797957 0.424861
Si Si5 0.782117 0.660400 0.691416
Si Si6 0.840316 0.852235 0.528467
O O1 0.779519 0.350476 0.529459
O O2 0.445137 0.853937 0.631229
O O3 0.719707 0.974289 0.460023
O O4 0.331585 0.195216 0.036663
O O5 0.743199 0.595288 0.455141
O O6 0.000000 0.500000 0.000000
O O7 0.997931 0.219759 0.929779
O O8 0.397270 0.340764 0.147036
O O9 0.389699 0.153140 0.151222
O O10 0.105684 0.838218 0.231478
O O11 0.625181 0.954411 0.671113
O O12 0.500000 0.500000 0.500000
O O13 0.081908 0.856249 0.430355
#
# Coordination Sequence:
#
# PCOD8041159 Si02
#       6
#     2   2   2   2   2   2
#     4  10  19  31  52  78 106 128 169 215 252 294
#     4  12  19  32  55  81  98 130 177 214 246 297
#     4   8  16  32  53  75 100 139 171 199 251 313
#     4  11  18  32  54  80 100 131 173 213 249 294
#     4   8  15  32  52  72 103 142 158 205 265 295
#     4   9  16  31  58  72  99 143 166 202 259 300
#
# _framework density 19.457924999999999
#
# number of rings (size 3 to 8) (size 9 to 14) (size 15 to 20)
#    1.000    1.333    5.000    0.000    0.000    0.000 
#    0.000    9.167    0.000    4.000    0.000    0.000 
#    0.000    0.000    0.000    0.000    0.000    0.000 
#
# Total GULP energy -148705.938931 kJ/mol
# GULP energy per Si atom -12392.161578 kJ/mol
# Density = 1.941364 g / cm^3
# Si number density = 19.457925 Si / 1000 Ang^3
#
#
#
# Elastic Constant Matrix: (Units=GPa)
#
#
# Indices 1 2 3 4 5 6 
#
# 1 106.4385 75.6515 42.0781 12.5054 20.8924 1.2626
# 2 75.6515 130.9341 34.1505 20.6964 13.2679 -11.4910
# 3 42.0781 34.1505 46.9945 10.4835 7.7587 -2.6590
# 4 12.5054 20.6964 10.4835 14.3681 1.5963 -1.5355
# 5 20.8924 13.2679 7.7587 1.5963 33.5054 4.8579
# 6 1.2626 -11.4910 -2.6590 -1.5355 4.8579 34.7338
#
#
#
# Elastic Compliance Matrix: (Units=1/GPa)
#
#
# Indices 1 2 3 4 5 6 
#
# 1 0.022440 -0.009982 -0.012998 0.004649 -0.006675 -0.003974
# 2 -0.009982 0.015914 0.000914 -0.014316 -0.000348 0.005113
# 3 -0.012998 0.000914 0.036014 -0.015947 -0.000252 0.002862
# 4 0.004649 -0.014316 -0.015947 0.097346 0.002133 -0.002121
# 5 -0.006675 -0.000348 -0.000252 0.002133 0.034779 -0.004662
# 6 -0.003974 0.005113 0.002862 -0.002121 -0.004662 0.031404
#
#
# Mechanical properties :
#
#
# Convention : Reuss Voigt Hill
#
# Bulk Modulus (GPa) = 33.07429 65.34749 49.21089
# Shear Modulus (GPa) = 17.11707 25.35393 21.23550
#
# Velocity S-wave (km/s) = 2.96919 3.61364 3.30715
# Velocity P-wave (km/s) = 5.36558 7.14620 6.31893
#
# Compressibility (1/GPa) = 0.03023497
#
# Stress axis : x y z
#
# Youngs Moduli (GPa) = 44.56389 62.83935 27.76699
#
# Poissons Ratio (x) = 0.62729 0.36092
# Poissons Ratio (y) = 0.44485 -0.02539
# Poissons Ratio (z) = 0.57924 -0.05745
#
# Static dielectric constant tensor:
#      x y z
#    x 3.590540 -0.124690 0.070260 
#    y -0.124690 3.474970 0.174000 
#    z 0.070260 0.174000 3.162180 
# 
# 
# High freq. dielectric constant tensor:
#      x y z
#    x 1.757180 -0.006050 0.007940 
#    y -0.006050 1.737250 0.018180 
#    z 0.007940 0.018180 1.716230 
# 
# From -- ./inp_files/358676.got.cif
#   From: 2010.06.25/outbox.cif.g09.slc.cpg/sg2_180_cif.got.tgz:358676.got - 2010.06.27 13:26:56.
