data_PCOD8041052
_publ_section_title
;
Structure prediction by ZEFSAII (Michael W. Deem and Ramdas Pophale) SiO2 
 PCOD8041052
Probable space group: P -1
;
_chemical_formula_sum "Si O2"
_cell_formula_units_Z 16
_cell_length_a 11.950427
_cell_length_b 10.243905
_cell_length_c 12.461152
_cell_angle_alpha 64.673741
_cell_angle_beta 98.375584
_cell_angle_gamma 144.126235
_cell_volume 747.598434
_symmetry_space_group_name_H-M "P -1"
_symmetry_group_IT_number 2
_symmetry_cell_setting 'triclinic'
loop_
_space_group_symop_operation_xyz
x,y,z
-x,-y,-z
loop_
_atom_site_type_symbol
_atom_site_label
_atom_site_fract_x
_atom_site_fract_y
_atom_site_fract_z
Si Si1 0.092811 0.437865 0.443305
Si Si2 0.615995 0.261571 0.057039
Si Si3 0.724237 0.321841 0.824831
Si Si4 0.337397 0.921365 0.439526
Si Si5 0.565627 0.722878 0.818400
Si Si6 0.810569 0.858704 0.091392
Si Si7 0.993989 0.330792 0.881980
Si Si8 0.970172 0.810931 0.273913
O O1 0.191182 0.486676 0.327833
O O2 0.232013 0.724380 0.395077
O O3 0.854600 0.229313 0.461562
O O4 0.112726 0.337865 0.572675
O O5 0.466711 0.230039 0.088809
O O6 0.795496 0.431716 0.107524
O O7 0.496474 0.982061 0.129618
O O8 0.704152 0.395924 0.903838
O O9 0.893152 0.378176 0.845573
O O10 0.500000 0.000000 0.500000
O O11 0.458348 0.187442 0.313645
O O12 0.404946 0.420884 0.891288
O O13 0.789737 0.890083 0.790209
O O14 0.839101 0.816037 0.227942
O O15 0.833410 0.055745 0.022186
O O16 0.000000 0.000000 0.000000
O O17 0.053417 0.336154 0.769970
#
# Coordination Sequence:
#
# PCOD8041052 Si02
#       8
#     2   2   2   2   2   2   2   2
#     4  10  20  33  51  79 110 142 173 218 276 321
#     4  11  22  36  54  80 113 148 179 219 269 320
#     4  11  23  37  54  80 116 145 182 217 261 336
#     4  10  19  29  51  77 111 139 166 224 275 325
#     4  11  19  34  52  83 112 138 176 221 280 317
#     4  10  21  33  55  81 111 141 175 225 280 314
#     4  11  21  37  54  82 110 142 182 225 271 318
#     4  10  20  34  54  83 113 134 175 231 272 326
#
# _framework density 21.401864
#
# number of rings (size 3 to 8) (size 9 to 14) (size 15 to 20)
#    0.000    1.500    5.000    2.625    1.750    3.000 
#    0.000    0.000    0.000    0.750    0.000    7.000 
#    0.000    0.000    0.000    0.000    0.000    0.000 
#
# Total GULP energy -198359.676842 kJ/mol
# GULP energy per Si atom -12397.479803 kJ/mol
# Density = 2.135315 g / cm^3
# Si number density = 21.401864 Si / 1000 Ang^3
#
#
#
# Elastic Constant Matrix: (Units=GPa)
#
#
# Indices 1 2 3 4 5 6 
#
# 1 24.1480 1.4914 31.4415 6.9896 1.8075 -2.5717
# 2 1.4914 86.7031 22.8365 -1.2662 -2.0721 16.2747
# 3 31.4415 22.8365 153.7422 9.4961 -13.0483 2.3292
# 4 6.9896 -1.2662 9.4961 26.1323 3.1364 5.3093
# 5 1.8075 -2.0721 -13.0483 3.1364 28.2585 -2.5649
# 6 -2.5717 16.2747 2.3292 5.3093 -2.5649 12.1367
#
#
#
# Elastic Compliance Matrix: (Units=1/GPa)
#
#
# Indices 1 2 3 4 5 6 
#
# 1 0.067452 -0.003421 -0.013082 -0.018463 -0.005997 0.028200
# 2 -0.003421 0.017557 -0.002279 0.008712 -0.003081 -0.028293
# 3 -0.013082 -0.002279 0.010032 -0.000880 0.005389 -0.000117
# 4 -0.018463 0.008712 -0.000880 0.053131 -0.008150 -0.040391
# 5 -0.005997 -0.003081 0.005389 -0.008150 0.040198 0.013887
# 6 0.028200 -0.028293 -0.000117 -0.040391 0.013887 0.146936
#
#
# Mechanical properties :
#
#
# Convention : Reuss Voigt Hill
#
# Bulk Modulus (GPa) = 17.39842 41.79245 29.59543
# Shear Modulus (GPa) = 12.75411 27.22709 19.99060
#
# Velocity S-wave (km/s) = 2.44383 3.57064 3.05955
# Velocity P-wave (km/s) = 4.01374 6.04724 5.13221
#
# Compressibility (1/GPa) = 0.05747650
#
# Stress axis : x y z
#
# Youngs Moduli (GPa) = 14.82532 56.95690 99.68261
#
# Poissons Ratio (x) = 0.19484 1.30407
# Poissons Ratio (y) = 0.05071 0.22720
# Poissons Ratio (z) = 0.19395 0.12982
#
# Static dielectric constant tensor:
#      x y z
#    x 3.720740 0.231010 0.227310 
#    y 0.231010 3.890290 -0.123020 
#    z 0.227310 -0.123020 4.289150 
# 
# 
# High freq. dielectric constant tensor:
#      x y z
#    x 1.795700 0.035090 0.016960 
#    y 0.035090 1.840470 -0.008630 
#    z 0.016960 -0.008630 1.847100 
# 
# From -- ./inp_files/451345.got.cif
#   From: 2010.06.25/outbox.cif.g09.slc.cpg/sg2_226_cif.got.tgz:451345.got - 2010.06.27 13:26:56.
