data_PCOD8041237
_publ_section_title
;
Structure prediction by ZEFSAII (Michael W. Deem and Ramdas Pophale) SiO2 
 PCOD8041237
Probable space group: P -1
;
_chemical_formula_sum "Si O2"
_cell_formula_units_Z 14
_cell_length_a 9.045052
_cell_length_b 14.855474
_cell_length_c 8.553357
_cell_angle_alpha 52.009872
_cell_angle_beta 110.639978
_cell_angle_gamma 80.623161
_cell_volume 726.546089
_symmetry_space_group_name_H-M "P -1"
_symmetry_group_IT_number 2
_symmetry_cell_setting 'triclinic'
loop_
_space_group_symop_operation_xyz
x,y,z
-x,-y,-z
loop_
_atom_site_type_symbol
_atom_site_label
_atom_site_fract_x
_atom_site_fract_y
_atom_site_fract_z
Si Si1 0.401919 0.626802 0.524588
Si Si2 0.241006 0.454524 0.110989
Si Si3 0.913748 0.155091 0.319330
Si Si4 0.955630 0.674164 0.966495
Si Si5 0.850184 0.654883 0.285239
Si Si6 0.532716 0.324680 0.834942
Si Si7 0.085208 0.693868 0.555090
O O1 0.539925 0.630567 0.699022
O O2 0.470472 0.475180 0.679291
O O3 0.394503 0.709360 0.279933
O O4 0.201228 0.694030 0.450726
O O5 0.180412 0.346323 0.176359
O O6 0.184083 0.554166 0.835846
O O7 0.154290 0.537439 0.153499
O O8 0.943581 0.186201 0.474499
O O9 0.028466 0.199763 0.207237
O O10 0.697755 0.230446 0.114278
O O11 0.000000 0.000000 0.500000
O O12 0.880162 0.707971 0.076476
O O13 0.639441 0.694586 0.179059
O O14 0.000000 0.500000 0.500000
O O15 0.894156 0.719241 0.382019
#
# Coordination Sequence:
#
# PCOD8041237 Si02
#       7
#     2   2   2   2   2   2   2
#     4  11  20  34  60  99 128 149 195 257 326 364
#     4  10  19  31  59  95 125 154 193 252 317 363
#     4  11  26  47  62  81 121 176 218 245 285 364
#     4  10  20  35  60  85 126 158 201 244 310 355
#     4  12  21  34  60 101 132 151 184 255 329 374
#     4  11  23  36  61  92 133 157 195 252 313 368
#     4  11  22  35  63  93 125 160 199 251 313 368
#
# _framework density 19.269254
#
# number of rings (size 3 to 8) (size 9 to 14) (size 15 to 20)
#    0.000    1.143    5.714    2.143    6.000    0.000 
#    0.000    4.286    0.000    0.000    0.000    0.000 
#    0.000    0.000    0.000    0.000    0.000    0.000 
#
# Total GULP energy -173549.360017 kJ/mol
# GULP energy per Si atom -12396.382858 kJ/mol
# Density = 1.922540 g / cm^3
# Si number density = 19.269254 Si / 1000 Ang^3
#
#
#
# Elastic Constant Matrix: (Units=GPa)
#
#
# Indices 1 2 3 4 5 6 
#
# 1 142.0150 54.3595 45.8957 12.0059 -2.3004 8.9483
# 2 54.3595 109.0324 62.3876 9.8082 3.6390 17.5666
# 3 45.8957 62.3876 56.0773 9.7078 -5.6174 7.4878
# 4 12.0059 9.8082 9.7078 29.2814 6.7202 -3.4932
# 5 -2.3004 3.6390 -5.6174 6.7202 21.1150 10.9099
# 6 8.9483 17.5666 7.4878 -3.4932 10.9099 36.0054
#
#
#
# Elastic Compliance Matrix: (Units=1/GPa)
#
#
# Indices 1 2 3 4 5 6 
#
# 1 0.009682 -0.000743 -0.006610 -0.001761 0.000497 -0.000990
# 2 -0.000743 0.029614 -0.034383 0.004920 -0.014783 -0.002156
# 3 -0.006610 -0.034383 0.068694 -0.016939 0.032706 -0.007422
# 4 -0.001761 0.004920 -0.016939 0.047029 -0.028073 0.014629
# 5 0.000497 -0.014783 0.032706 -0.028073 0.081637 -0.027173
# 6 -0.000990 -0.002156 -0.007422 0.014629 -0.027173 0.040268
#
#
# Mechanical properties :
#
#
# Convention : Reuss Voigt Hill
#
# Bulk Modulus (GPa) = 40.78743 70.26782 55.52762
# Shear Modulus (GPa) = 13.56601 26.91247 20.23924
#
# Velocity S-wave (km/s) = 2.65622 3.74124 3.24441
# Velocity P-wave (km/s) = 5.53357 7.43020 6.55089
#
# Compressibility (1/GPa) = 0.02451736
#
# Stress axis : x y z
#
# Youngs Moduli (GPa) = 103.28966 33.76776 14.55738
#
# Poissons Ratio (x) = 0.02510 0.09622
# Poissons Ratio (y) = 0.07678 0.50052
# Poissons Ratio (z) = 0.68273 1.16103
#
# Static dielectric constant tensor:
#      x y z
#    x 4.559440 -0.563380 -0.089740 
#    y -0.563380 4.339520 0.633500 
#    z -0.089740 0.633500 3.309140 
# 
# 
# High freq. dielectric constant tensor:
#      x y z
#    x 1.774850 0.011310 -0.005010 
#    y 0.011310 1.734300 0.048540 
#    z -0.005010 0.048540 1.704660 
# 
# From -- ./inp_files/164339.got.cif
#   From: 2010.06.25/outbox.cif.g09.slc.cpg/sg2_83_cif.got.tgz:164339.got - 2010.06.27 13:26:56.
