data_PCOD8041255
_publ_section_title
;
Structure prediction by ZEFSAII (Michael W. Deem and Ramdas Pophale) SiO2 
 PCOD8041255
Probable space group: P -1
;
_chemical_formula_sum "Si O2"
_cell_formula_units_Z 16
_cell_length_a 11.769052
_cell_length_b 23.943483
_cell_length_c 5.390244
_cell_angle_alpha 109.724740
_cell_angle_beta 83.830084
_cell_angle_gamma 143.490327
_cell_volume 813.481232
_symmetry_space_group_name_H-M "P -1"
_symmetry_group_IT_number 2
_symmetry_cell_setting 'triclinic'
loop_
_space_group_symop_operation_xyz
x,y,z
-x,-y,-z
loop_
_atom_site_type_symbol
_atom_site_label
_atom_site_fract_x
_atom_site_fract_y
_atom_site_fract_z
Si Si1 0.486617 0.918930 0.114323
Si Si2 0.459277 0.271265 0.206550
Si Si3 0.291612 0.955480 0.243133
Si Si4 0.225912 0.097637 0.370610
Si Si5 0.006511 0.573723 0.136113
Si Si6 0.420117 0.778722 0.204009
Si Si7 0.925180 0.874750 0.176116
Si Si8 0.853706 0.494099 0.552435
O O1 0.312510 0.894186 0.092431
O O2 0.392281 0.814776 0.043703
O O3 0.623497 0.994211 0.429965
O O4 0.602262 0.964185 0.891179
O O5 0.366782 0.176801 0.234753
O O6 0.619054 0.378610 0.477786
O O7 0.583577 0.290962 0.993544
O O8 0.274028 0.230559 0.081278
O O9 0.057305 0.872466 0.182020
O O10 0.366874 0.119760 0.559283
O O11 0.134088 0.118475 0.542562
O O12 0.050348 0.978096 0.146182
O O13 0.879740 0.541163 0.357757
O O14 0.226758 0.696282 0.304840
O O15 0.913560 0.558661 0.875654
O O16 0.000000 0.500000 0.000000
O O17 0.000000 0.500000 0.500000
#
# Coordination Sequence:
#
# PCOD8041255 Si02
#       8
#     2   2   2   2   2   2   2   2
#     4  10  22  36  58  78  99 145 177 225 256 306
#     4  11  21  30  51  74 110 144 176 207 264 324
#     4  10  21  40  54  74 109 137 185 217 261 295
#     4  10  20  32  46  77 109 141 175 208 256 321
#     4  10  19  32  49  73 105 137 164 219 261 311
#     4  11  20  31  54  79 107 138 179 212 270 316
#     4  10  21  32  49  74 107 146 170 219 252 319
#     4  10  19  33  48  70 104 138 170 211 259 307
#
# _framework density 19.668552999999999
#
# number of rings (size 3 to 8) (size 9 to 14) (size 15 to 20)
#    0.000    1.750    3.750    2.625    3.500    0.000 
#    0.000    0.000    0.000    0.000    0.000    1.750 
#    0.000    0.000    0.000    0.000    0.000    0.000 
#
# Total GULP energy -198236.286214 kJ/mol
# GULP energy per Si atom -12389.767888 kJ/mol
# Density = 1.962379 g / cm^3
# Si number density = 19.668553 Si / 1000 Ang^3
#
#
#
# Elastic Constant Matrix: (Units=GPa)
#
#
# Indices 1 2 3 4 5 6 
#
# 1 89.7636 24.1750 14.9754 6.9514 13.1769 16.2512
# 2 24.1750 95.7322 26.2926 5.1628 12.6187 13.3953
# 3 14.9754 26.2926 76.6851 -11.9546 12.1387 13.9082
# 4 6.9514 5.1628 -11.9546 33.2888 -0.1845 12.6085
# 5 13.1769 12.6187 12.1387 -0.1845 16.4101 0.8329
# 6 16.2512 13.3953 13.9082 12.6085 0.8329 22.4465
#
#
#
# Elastic Compliance Matrix: (Units=1/GPa)
#
#
# Indices 1 2 3 4 5 6 
#
# 1 0.014887 -0.001152 0.001918 0.002285 -0.011846 -0.012123
# 2 -0.001152 0.013038 -0.002422 -0.000924 -0.007083 -0.004664
# 3 0.001918 -0.002422 0.022583 0.016600 -0.015043 -0.022702
# 4 0.002285 -0.000924 0.016600 0.050517 -0.010837 -0.039362
# 5 -0.011846 -0.007083 -0.015043 -0.010837 0.085632 0.025034
# 6 -0.012123 -0.004664 -0.022702 -0.039362 0.025034 0.091358
#
#
# Mechanical properties :
#
#
# Convention : Reuss Voigt Hill
#
# Bulk Modulus (GPa) = 21.18843 43.67408 32.43126
# Shear Modulus (GPa) = 16.83164 27.54493 22.18828
#
# Velocity S-wave (km/s) = 2.92852 3.74633 3.36238
# Velocity P-wave (km/s) = 4.71499 6.40051 5.62128
#
# Compressibility (1/GPa) = 0.04719556
#
# Stress axis : x y z
#
# Youngs Moduli (GPa) = 67.17056 76.69915 44.28135
#
# Poissons Ratio (x) = 0.08832 -0.08491
# Poissons Ratio (y) = 0.07735 0.10727
# Poissons Ratio (z) = -0.12881 0.18580
#
# Static dielectric constant tensor:
#      x y z
#    x 3.311460 0.338140 -0.081670 
#    y 0.338140 3.063320 0.764290 
#    z -0.081670 0.764290 2.020090 
# 
# 
# High freq. dielectric constant tensor:
#      x y z
#    x 1.714220 0.015910 0.025530 
#    y 0.015910 1.762650 -0.017050 
#    z 0.025530 -0.017050 1.767580 
# 
# From -- ./inp_files/73923.got.cif
#   From: 2010.06.25/outbox.cif.g09.slc.cpg/sg2_37_cif.got.tgz:73923.got - 2010.06.27 13:26:56.
