data_PCOD8041800
_publ_section_title
;
Structure prediction by ZEFSAII (Michael W. Deem and Ramdas Pophale) SiO2 
 PCOD8041800
Probable space group: P -1
;
_chemical_formula_sum "Si O2"
_cell_formula_units_Z 16
_cell_length_a 5.633390
_cell_length_b 19.011472
_cell_length_c 12.062140
_cell_angle_alpha 136.118223
_cell_angle_beta 54.200891
_cell_angle_gamma 118.222571
_cell_volume 723.263745
_symmetry_space_group_name_H-M "P -1"
_symmetry_group_IT_number 2
_symmetry_cell_setting 'triclinic'
loop_
_space_group_symop_operation_xyz
x,y,z
-x,-y,-z
loop_
_atom_site_type_symbol
_atom_site_label
_atom_site_fract_x
_atom_site_fract_y
_atom_site_fract_z
Si Si1 0.106125 0.094651 0.913534
Si Si2 0.970685 0.851784 0.254527
Si Si3 0.463010 0.864388 0.778112
Si Si4 0.265048 0.442612 0.225820
Si Si5 0.587204 0.960858 0.628740
Si Si6 0.348685 0.231356 0.186556
Si Si7 0.150636 0.651745 0.576364
Si Si8 0.176313 0.648400 0.927510
O O1 0.034264 0.141082 0.868118
O O2 0.251534 0.987863 0.737786
O O3 0.313784 0.183065 0.017877
O O4 0.818681 0.075299 0.047599
O O5 0.660383 0.875117 0.422129
O O6 0.214183 0.935019 0.331920
O O7 0.049647 0.738844 0.136872
O O8 0.640937 0.919302 0.690897
O O9 0.651705 0.865047 0.839765
O O10 0.398562 0.742371 0.639664
O O11 0.298384 0.564815 0.370314
O O12 0.595495 0.407810 0.119148
O O13 0.029960 0.392208 0.318570
O O14 0.114908 0.419268 0.118377
O O15 0.647309 0.306155 0.178159
O O16 0.087349 0.295772 0.373574
#
# Coordination Sequence:
#
# PCOD8041800 Si02
#       8
#     2   2   2   2   2   2   2   2
#     4  11  20  39  58  85 118 161 202 255 301 367
#     4  11  23  40  58  85 119 158 210 254 299 367
#     4  11  21  37  59  87 123 156 197 254 312 366
#     4  10  21  33  61  93 119 160 205 252 318 359
#     4  11  25  38  58  86 118 162 205 252 309 367
#     4  10  19  33  59  85 124 152 195 247 310 359
#     4   9  20  33  54  88 122 151 193 255 304 369
#     4  11  19  37  59  88 120 160 206 256 300 369
#
# _framework density 22.121943999999999
#
# number of rings (size 3 to 8) (size 9 to 14) (size 15 to 20)
#    0.000    1.500    3.750    2.250    1.750    5.500 
#    0.000    0.000    0.000    1.500    0.000    0.000 
#    0.000    0.000    0.000    0.000    0.000    0.000 
#
# Total GULP energy -198229.835423 kJ/mol
# GULP energy per Si atom -12389.364714 kJ/mol
# Density = 2.207159 g / cm^3
# Si number density = 22.121944 Si / 1000 Ang^3
#
#
#
# Elastic Constant Matrix: (Units=GPa)
#
#
# Indices 1 2 3 4 5 6 
#
# 1 103.7580 4.6403 46.3912 18.4048 -7.0352 -5.0962
# 2 4.6403 30.0980 31.0085 5.6383 -11.0064 1.3614
# 3 46.3912 31.0085 159.3751 29.9229 -25.7160 0.1860
# 4 18.4048 5.6383 29.9229 29.4159 -13.1670 -4.7477
# 5 -7.0352 -11.0064 -25.7160 -13.1670 28.3295 2.4355
# 6 -5.0962 1.3614 0.1860 -4.7477 2.4355 8.4462
#
#
#
# Elastic Compliance Matrix: (Units=1/GPa)
#
#
# Indices 1 2 3 4 5 6 
#
# 1 0.011931 0.001373 -0.003214 -0.004515 -0.001956 0.005074
# 2 0.001373 0.045562 -0.007640 0.002639 0.013076 -0.008635
# 3 -0.003214 -0.007640 0.010457 -0.006674 0.003104 -0.005584
# 4 -0.004515 0.002639 -0.006674 0.054463 0.017212 0.022649
# 5 -0.001956 0.013076 0.003104 0.017212 0.051443 -0.008515
# 6 0.005074 -0.008635 -0.005584 0.022649 -0.008515 0.138160
#
#
# Mechanical properties :
#
#
# Convention : Reuss Voigt Hill
#
# Bulk Modulus (GPa) = 20.41315 50.81235 35.61275
# Shear Modulus (GPa) = 14.39650 27.31772 20.85711
#
# Velocity S-wave (km/s) = 2.55380 3.51788 3.07388
# Velocity P-wave (km/s) = 4.23597 6.28647 5.36019
#
# Compressibility (1/GPa) = 0.04898803
#
# Stress axis : x y z
#
# Youngs Moduli (GPa) = 83.81632 21.94811 95.63207
#
# Poissons Ratio (x) = -0.03012 0.30733
# Poissons Ratio (y) = -0.11504 0.73060
# Poissons Ratio (z) = 0.26936 0.16768
#
# Static dielectric constant tensor:
#      x y z
#    x 4.180280 -0.124650 -0.220420 
#    y -0.124650 3.565580 0.323350 
#    z -0.220420 0.323350 4.183200 
# 
# 
# High freq. dielectric constant tensor:
#      x y z
#    x 1.877960 -0.008880 -0.009730 
#    y -0.008880 1.822670 0.029420 
#    z -0.009730 0.029420 1.865190 
# 
# From -- ./inp_files/94412.got.cif
#   From: 2010.06.25/outbox.cif.g09.slc.cpg/sg2_48_cif.got.tgz:94412.got - 2010.06.27 13:26:56.
