data_PCOD8041757
_publ_section_title
;
Structure prediction by ZEFSAII (Michael W. Deem and Ramdas Pophale) SiO2 
 PCOD8041757
Probable space group: P -1
;
_chemical_formula_sum "Si O2"
_cell_formula_units_Z 16
_cell_length_a 8.697229
_cell_length_b 25.652170
_cell_length_c 12.849558
_cell_angle_alpha 25.634570
_cell_angle_beta 114.166593
_cell_angle_gamma 131.021485
_cell_volume 776.087298
_symmetry_space_group_name_H-M "P -1"
_symmetry_group_IT_number 2
_symmetry_cell_setting 'triclinic'
loop_
_space_group_symop_operation_xyz
x,y,z
-x,-y,-z
loop_
_atom_site_type_symbol
_atom_site_label
_atom_site_fract_x
_atom_site_fract_y
_atom_site_fract_z
Si Si1 0.620591 0.436459 0.264644
Si Si2 0.372090 0.652607 0.149585
Si Si3 0.212656 0.781232 0.581354
Si Si4 0.833991 0.529899 0.379758
Si Si5 0.293136 0.879603 0.805721
Si Si6 0.844450 0.765880 0.615978
Si Si7 0.993037 0.457565 0.226331
Si Si8 0.148345 0.035820 0.375852
O O1 0.668938 0.434718 0.401843
O O2 0.332658 0.273187 0.452078
O O3 0.760940 0.415871 0.268351
O O4 0.700170 0.612724 0.938337
O O5 0.356253 0.559305 0.415901
O O6 0.142204 0.490165 0.308796
O O7 0.346908 0.780656 0.942604
O O8 0.624382 0.759751 0.963107
O O9 0.114067 0.713064 0.558897
O O10 0.057941 0.802827 0.554775
O O11 0.496006 0.970876 0.323575
O O12 0.183789 0.636251 0.889502
O O13 0.000000 0.500000 0.500000
O O14 0.031608 0.741074 0.044512
O O15 0.263729 0.962806 0.556997
O O16 0.964354 0.938214 0.402529
O O17 0.000000 0.000000 0.500000
#
# Coordination Sequence:
#
# PCOD8041757 Si02
#       8
#     2   2   2   2   2   2   2   2
#     4  10  19  35  59  86 122 157 198 245 300 362
#     4  11  21  39  66  87 120 159 207 249 302 360
#     4  10  20  33  59  87 121 153 198 254 303 349
#     4  10  20  37  66  90 116 165 207 243 294 372
#     4  11  19  39  64  87 117 160 207 247 290 363
#     4  10  21  36  57  86 122 160 195 248 311 351
#     4  10  19  33  57  93 117 151 200 257 298 344
#     4  12  24  36  61  94 119 153 208 260 298 351
#
# _framework density 20.616237000000002
#
# number of rings (size 3 to 8) (size 9 to 14) (size 15 to 20)
#    0.000    1.500    6.250    1.125    1.750    2.000 
#    0.000    1.875    0.000    0.000    0.000    0.000 
#    0.000    0.000    0.000    0.000    0.000    0.000 
#
# Total GULP energy -198347.075590 kJ/mol
# GULP energy per Si atom -12396.692224 kJ/mol
# Density = 2.056931 g / cm^3
# Si number density = 20.616237 Si / 1000 Ang^3
#
#
#
# Elastic Constant Matrix: (Units=GPa)
#
#
# Indices 1 2 3 4 5 6 
#
# 1 49.5656 39.8502 24.2585 -5.8946 -23.8642 -6.2650
# 2 39.8502 190.8275 54.0675 -17.3471 -6.9759 0.7507
# 3 24.2585 54.0675 77.6709 -1.5799 -30.3259 -1.1229
# 4 -5.8946 -17.3471 -1.5799 40.1495 -1.5412 -1.1328
# 5 -23.8642 -6.9759 -30.3259 -1.5412 26.3591 -0.1270
# 6 -6.2650 0.7507 -1.1229 -1.1328 -0.1270 33.7688
#
#
#
# Elastic Compliance Matrix: (Units=1/GPa)
#
#
# Indices 1 2 3 4 5 6 
#
# 1 0.062373 -0.016077 0.022866 0.006515 0.078966 0.013205
# 2 -0.016077 0.011589 -0.013710 0.000956 -0.027224 -0.003766
# 3 0.022866 -0.013710 0.040149 0.001621 0.063388 0.006175
# 4 0.006515 0.000956 0.001621 0.026770 0.009591 0.002175
# 5 0.078966 -0.027224 0.063388 0.009591 0.175800 0.018346
# 6 0.013205 -0.003766 0.006175 0.002175 0.018346 0.032494
#
#
# Mechanical properties :
#
#
# Convention : Reuss Voigt Hill
#
# Bulk Modulus (GPa) = 9.97331 61.60181 35.78756
# Shear Modulus (GPa) = 12.61225 33.38135 22.99680
#
# Velocity S-wave (km/s) = 2.47607 4.02827 3.34349
# Velocity P-wave (km/s) = 3.60869 7.18199 5.68347
#
# Compressibility (1/GPa) = 0.10026763
#
# Stress axis : x y z
#
# Youngs Moduli (GPa) = 16.03251 86.29139 24.90752
#
# Poissons Ratio (x) = 1.38729 -0.56952
# Poissons Ratio (y) = 0.25775 0.34148
# Poissons Ratio (z) = -0.36659 1.18306
#
# Static dielectric constant tensor:
#      x y z
#    x 3.535570 0.027120 -0.286500 
#    y 0.027120 3.916220 -0.043100 
#    z -0.286500 -0.043100 4.014520 
# 
# 
# High freq. dielectric constant tensor:
#      x y z
#    x 1.785690 0.001750 -0.019480 
#    y 0.001750 1.817210 -0.012770 
#    z -0.019480 -0.012770 1.779190 
# 
# From -- ./inp_files/278224.got.cif
#   From: 2010.06.25/outbox.cif.g09.slc.cpg/sg2_140_cif.got.tgz:278224.got - 2010.06.27 13:26:56.
