data_PCOD8041943
_publ_section_title
;
Structure prediction by ZEFSAII (Michael W. Deem and Ramdas Pophale) SiO2 
 PCOD8041943
Probable space group: P -1
;
_chemical_formula_sum "Si O2"
_cell_formula_units_Z 16
_cell_length_a 5.298756
_cell_length_b 9.679355
_cell_length_c 16.899036
_cell_angle_alpha 124.512894
_cell_angle_beta 64.742607
_cell_angle_gamma 105.414703
_cell_volume 645.569760
_symmetry_space_group_name_H-M "P -1"
_symmetry_group_IT_number 2
_symmetry_cell_setting 'triclinic'
loop_
_space_group_symop_operation_xyz
x,y,z
-x,-y,-z
loop_
_atom_site_type_symbol
_atom_site_label
_atom_site_fract_x
_atom_site_fract_y
_atom_site_fract_z
Si Si1 0.493940 0.625501 0.718171
Si Si2 0.987396 0.180891 0.880851
Si Si3 0.941141 0.206423 0.272968
Si Si4 0.286262 0.669220 0.492114
Si Si5 0.467946 0.302231 0.936894
Si Si6 0.305037 0.846336 0.301602
Si Si7 0.769419 0.687966 0.267752
Si Si8 0.162321 0.154792 0.487039
O O1 0.260802 0.748921 0.757676
O O2 0.645645 0.526330 0.593577
O O3 0.332340 0.500745 0.760205
O O4 0.740301 0.728310 0.764784
O O5 0.141762 0.239805 0.961266
O O6 0.069862 0.304570 0.835991
O O7 0.656077 0.211940 0.948643
O O8 0.055017 0.994043 0.784131
O O9 0.821005 0.294887 0.395005
O O10 0.587757 0.762868 0.466933
O O11 0.051842 0.711722 0.472872
O O12 0.552549 0.231182 0.817577
O O13 0.500000 0.500000 0.000000
O O14 0.492223 0.799146 0.337478
O O15 0.990439 0.762604 0.328475
O O16 0.300015 0.050467 0.360903
O O17 0.000000 0.000000 0.500000
#
# Coordination Sequence:
#
# PCOD8041943 Si02
#       8
#     2   2   2   2   2   2   2   2
#     4  12  24  39  57  83 114 157 202 237 284 345
#     4  10  21  38  60  88 116 147 188 236 291 345
#     4  12  24  40  58  82 118 158 192 241 292 342
#     4  12  23  37  53  77 114 157 199 241 285 338
#     4  10  19  34  59  92 120 145 184 242 295 343
#     4  10  19  34  54  85 116 148 188 239 293 340
#     4  10  20  37  58  82 112 145 193 241 279 339
#     4  12  22  35  57  85 118 155 193 243 289 336
#
# _framework density 24.784306999999998
#
# number of rings (size 3 to 8) (size 9 to 14) (size 15 to 20)
#    0.000    1.000    0.000    9.750    0.000    0.000 
#    0.000    0.000    0.000    0.000    0.000   70.000 
#    0.000    0.000    0.000    0.000    0.000    0.000 
#
# Total GULP energy -198288.416686 kJ/mol
# GULP energy per Si atom -12393.026043 kJ/mol
# Density = 2.472790 g / cm^3
# Si number density = 24.784307 Si / 1000 Ang^3
#
#
#
# Elastic Constant Matrix: (Units=GPa)
#
#
# Indices 1 2 3 4 5 6 
#
# 1 259.9010 35.6371 12.4545 20.4140 -10.2013 -0.1468
# 2 35.6371 69.8361 -4.5039 12.5894 -1.9308 5.5573
# 3 12.4545 -4.5039 51.1962 33.0016 0.5241 -1.7917
# 4 20.4140 12.5894 33.0016 28.8241 1.4191 -1.3381
# 5 -10.2013 -1.9308 0.5241 1.4191 24.9517 17.1193
# 6 -0.1468 5.5573 -1.7917 -1.3381 17.1193 32.6735
#
#
#
# Elastic Compliance Matrix: (Units=1/GPa)
#
#
# Indices 1 2 3 4 5 6 
#
# 1 0.004428 -0.000741 0.002787 -0.006233 0.003152 -0.001608
# 2 -0.000741 0.030072 0.042650 -0.062649 0.013050 -0.012183
# 3 0.002787 0.042650 0.138731 -0.181688 0.026094 -0.020747
# 4 -0.006233 -0.062649 -0.181688 0.278229 -0.043213 0.034701
# 5 0.003152 0.013050 0.026094 -0.043213 0.071866 -0.040198
# 6 -0.001608 -0.012183 -0.020747 0.034701 -0.040198 0.054016
#
#
# Mechanical properties :
#
#
# Convention : Reuss Voigt Hill
#
# Bulk Modulus (GPa) = 3.80772 52.01207 27.90990
# Shear Modulus (GPa) = 8.68823 39.77956 24.23390
#
# Velocity S-wave (km/s) = 1.87434 4.01063 3.13036
# Velocity P-wave (km/s) = 2.49477 6.51754 4.93468
#
# Compressibility (1/GPa) = 0.26262438
#
# Stress axis : x y z
#
# Youngs Moduli (GPa) = 225.83043 33.25332 7.20817
#
# Poissons Ratio (x) = 0.02464 -0.02009
# Poissons Ratio (y) = 0.16736 -0.30743
# Poissons Ratio (z) = -0.62940 -1.41827
#
# Static dielectric constant tensor:
#      x y z
#    x 6.606460 0.353230 -0.244550 
#    y 0.353230 4.203700 0.328230 
#    z -0.244550 0.328230 4.588700 
# 
# 
# High freq. dielectric constant tensor:
#      x y z
#    x 2.034720 0.015400 -0.013820 
#    y 0.015400 1.955980 0.021980 
#    z -0.013820 0.021980 1.961350 
# 
# From -- ./inp_files/84482.got.cif
#   From: 2010.06.25/outbox.cif.g09.slc.cpg/sg2_43_cif.got.tgz:84482.got - 2010.06.27 13:26:56.
