data_PCOD8041551
_publ_section_title
;
Structure prediction by ZEFSAII (Michael W. Deem and Ramdas Pophale) SiO2 
 PCOD8041551
Probable space group: P -1
;
_chemical_formula_sum "Si O2"
_cell_formula_units_Z 10
_cell_length_a 6.924767
_cell_length_b 11.383516
_cell_length_c 9.324318
_cell_angle_alpha 82.327274
_cell_angle_beta 61.783736
_cell_angle_gamma 118.055751
_cell_volume 508.196791
_symmetry_space_group_name_H-M "P -1"
_symmetry_group_IT_number 2
_symmetry_cell_setting 'triclinic'
loop_
_space_group_symop_operation_xyz
x,y,z
-x,-y,-z
loop_
_atom_site_type_symbol
_atom_site_label
_atom_site_fract_x
_atom_site_fract_y
_atom_site_fract_z
Si Si1 0.973526 0.175226 0.531566
Si Si2 0.693271 0.662221 0.339522
Si Si3 0.947524 0.394940 0.906684
Si Si4 0.233975 0.667771 0.574693
Si Si5 0.554635 0.835992 0.720659
O O1 0.938678 0.292212 0.455577
O O2 0.065699 0.217997 0.656087
O O3 0.207153 0.184341 0.357078
O O4 0.684646 0.009609 0.654040
O O5 0.500000 0.500000 0.500000
O O6 0.484773 0.703514 0.377125
O O7 0.849073 0.654406 0.149511
O O8 0.016382 0.489989 0.720472
O O9 0.631523 0.245907 0.057601
O O10 0.000000 0.500000 0.000000
O O11 0.366850 0.765755 0.656176
#
# Coordination Sequence:
#
# PCOD8041551 Si02
#       5
#     2   2   2   2   2
#     4  10  19  33  54  75  99 134 166 199 247 296
#     4   9  19  34  51  73 102 131 165 206 246 290
#     4   9  18  34  52  71 101 132 162 208 249 284
#     4   9  18  34  55  74  98 133 167 199 243 299
#     4   9  19  34  51  76 105 128 161 206 247 290
#
# _framework density 19.677416000000001
#
# number of rings (size 3 to 8) (size 9 to 14) (size 15 to 20)
#    0.000    2.800    0.000    1.800    0.000    4.800 
#    0.000    5.000    0.000    0.000    0.000    0.000 
#    0.000    0.000    0.000    0.000    0.000    0.000 
#
# Total GULP energy -123898.029568 kJ/mol
# GULP energy per Si atom -12389.802957 kJ/mol
# Density = 1.963263 g / cm^3
# Si number density = 19.677416 Si / 1000 Ang^3
#
#
#
# Elastic Constant Matrix: (Units=GPa)
#
#
# Indices 1 2 3 4 5 6 
#
# 1 81.1439 -2.0818 37.4426 1.6956 -9.2746 -20.6031
# 2 -2.0818 52.5473 33.5000 -1.4980 -15.2232 -2.6701
# 3 37.4426 33.5000 114.2584 -6.2622 -35.1764 -13.9813
# 4 1.6956 -1.4980 -6.2622 33.3630 -3.4879 -9.1910
# 5 -9.2746 -15.2232 -35.1764 -3.4879 24.6937 0.5492
# 6 -20.6031 -2.6701 -13.9813 -9.1910 0.5492 29.0328
#
#
#
# Elastic Compliance Matrix: (Units=1/GPa)
#
#
# Indices 1 2 3 4 5 6 
#
# 1 0.017986 0.005421 -0.005165 0.001753 0.002737 0.011278
# 2 0.005421 0.026087 -0.005696 0.001977 0.010196 0.003936
# 3 -0.005165 -0.005696 0.022077 0.009444 0.027133 0.008919
# 4 0.001753 0.001977 0.009444 0.038803 0.020414 0.017872
# 5 0.002737 0.010196 0.027133 0.020414 0.088884 0.020728
# 6 0.011278 0.003936 0.008919 0.017872 0.020728 0.052370
#
#
# Mechanical properties :
#
#
# Convention : Reuss Voigt Hill
#
# Bulk Modulus (GPa) = 18.09285 42.85234 30.47259
# Shear Modulus (GPa) = 18.14815 29.35714 23.75265
#
# Velocity S-wave (km/s) = 3.04021 3.86673 3.47811
# Velocity P-wave (km/s) = 4.64096 6.46221 5.62577
#
# Compressibility (1/GPa) = 0.05527047
#
# Stress axis : x y z
#
# Youngs Moduli (GPa) = 55.59922 38.33368 45.29571
#
# Poissons Ratio (x) = -0.20781 0.23394
# Poissons Ratio (y) = -0.30141 0.25801
# Poissons Ratio (z) = 0.28715 0.21835
#
# Static dielectric constant tensor:
#      x y z
#    x 3.541410 -0.286160 -0.648770 
#    y -0.286160 4.012380 0.036740 
#    z -0.648770 0.036740 4.061240 
# 
# 
# High freq. dielectric constant tensor:
#      x y z
#    x 1.744580 -0.011420 -0.037750 
#    y -0.011420 1.778500 -0.001970 
#    z -0.037750 -0.001970 1.748590 
# 
# From -- ./inp_files/15464.got.cif
#   From: 2010.06.25/outbox.cif.g09.slc.cpg/sg2_8_cif.got.tgz:15464.got - 2010.06.27 13:26:56.
