data_PCOD8041129
_publ_section_title
;
Structure prediction by ZEFSAII (Michael W. Deem and Ramdas Pophale) SiO2 
 PCOD8041129
Probable space group: P -1
;
_chemical_formula_sum "Si O2"
_cell_formula_units_Z 16
_cell_length_a 22.174299
_cell_length_b 5.252790
_cell_length_c 23.945647
_cell_angle_alpha 73.198658
_cell_angle_beta 15.876071
_cell_angle_gamma 77.109589
_cell_volume 714.158632
_symmetry_space_group_name_H-M "P -1"
_symmetry_group_IT_number 2
_symmetry_cell_setting 'triclinic'
loop_
_space_group_symop_operation_xyz
x,y,z
-x,-y,-z
loop_
_atom_site_type_symbol
_atom_site_label
_atom_site_fract_x
_atom_site_fract_y
_atom_site_fract_z
Si Si1 0.366364 0.775522 0.908064
Si Si2 0.874828 0.442560 0.753346
Si Si3 0.365538 0.067460 0.062713
Si Si4 0.760270 0.014215 0.104594
Si Si5 0.166331 0.551779 0.899949
Si Si6 0.616882 0.161403 0.470626
Si Si7 0.606494 0.285844 0.724200
Si Si8 0.650574 0.725008 0.400676
O O1 0.223232 0.840672 0.978889
O O2 0.476196 0.522776 0.810151
O O3 0.552868 0.045085 0.741352
O O4 0.189767 0.689997 0.120510
O O5 0.744783 0.679881 0.839163
O O6 0.134175 0.578206 0.514354
O O7 0.820703 0.201950 0.770882
O O8 0.541157 0.152936 0.850891
O O9 0.500000 0.000000 0.000000
O O10 0.904315 0.222908 0.008892
O O11 0.838479 0.730925 0.046002
O O12 0.493605 0.954694 0.365395
O O13 0.415182 0.675425 0.647976
O O14 0.000000 0.500000 0.000000
O O15 0.770049 0.467479 0.318314
O O16 0.399114 0.207404 0.623264
O O17 0.778988 0.987834 0.305365
#
# Coordination Sequence:
#
# PCOD8041129 Si02
#       8
#     2   2   2   2   2   2   2   2
#     4  10  21  38  58  82 113 152 200 243 287 343
#     4  10  21  38  59  85 123 160 194 243 287 332
#     4  10  21  36  59  92 123 157 199 237 284 342
#     4  10  19  33  51  69  96 134 176 227 278 336
#     4  10  19  31  48  70  97 128 165 217 288 351
#     4   8  14  25  42  60  79 110 146 188 246 302
#     4  10  21  38  59  83 117 159 196 240 292 334
#     4   8  14  25  40  59  83 108 141 185 242 314
#
# _framework density 22.403986
#
# number of rings (size 3 to 8) (size 9 to 14) (size 15 to 20)
#    0.000    2.500    0.000    2.250    0.000    1.000 
#    0.000    2.500    0.000    3.000    0.000    0.000 
#    0.000    0.000    0.000    0.000    0.000    0.000 
#
# Total GULP energy -198324.851122 kJ/mol
# GULP energy per Si atom -12395.303195 kJ/mol
# Density = 2.235299 g / cm^3
# Si number density = 22.403986 Si / 1000 Ang^3
#
#
#
# Elastic Constant Matrix: (Units=GPa)
#
#
# Indices 1 2 3 4 5 6 
#
# 1 96.9992 35.6685 5.7803 -11.0380 -5.6668 -14.2714
# 2 35.6685 156.3617 -1.3088 -16.2673 7.2087 13.5682
# 3 5.7803 -1.3088 74.4921 -26.8619 -6.9105 2.2689
# 4 -11.0380 -16.2673 -26.8619 26.6078 4.4226 -1.5499
# 5 -5.6668 7.2087 -6.9105 4.4226 15.9159 -4.9926
# 6 -14.2714 13.5682 2.2689 -1.5499 -4.9926 37.1632
#
#
#
# Elastic Compliance Matrix: (Units=1/GPa)
#
#
# Indices 1 2 3 4 5 6 
#
# 1 0.013706 -0.003921 0.000408 0.002740 0.008561 0.007935
# 2 -0.003921 0.008966 0.002573 0.007484 -0.008217 -0.005728
# 3 0.000408 0.002573 0.022220 0.023836 0.001717 -0.000914
# 4 0.002740 0.007484 0.023836 0.069226 -0.011880 -0.001845
# 5 0.008561 -0.008217 0.001717 -0.011880 0.078749 0.016267
# 6 0.007935 -0.005728 -0.000914 -0.001845 0.016267 0.034211
#
#
# Mechanical properties :
#
#
# Convention : Reuss Voigt Hill
#
# Bulk Modulus (GPa) = 23.24958 45.34812 34.29885
# Shear Modulus (GPa) = 20.55102 35.11825 27.83464
#
# Velocity S-wave (km/s) = 3.03197 3.96346 3.52859
# Velocity P-wave (km/s) = 4.75995 6.42109 5.65188
#
# Compressibility (1/GPa) = 0.04301154
#
# Stress axis : x y z
#
# Youngs Moduli (GPa) = 72.95880 111.53244 45.00398
#
# Poissons Ratio (x) = 0.43737 -0.01836
# Poissons Ratio (y) = 0.28610 -0.11579
# Poissons Ratio (z) = -0.02976 -0.28696
#
# Static dielectric constant tensor:
#      x y z
#    x 3.763730 0.409800 0.204340 
#    y 0.409800 5.186560 -0.371960 
#    z 0.204340 -0.371960 4.114650 
# 
# 
# High freq. dielectric constant tensor:
#      x y z
#    x 1.848500 0.015510 0.016230 
#    y 0.015510 1.919990 -0.022550 
#    z 0.016230 -0.022550 1.890690 
# 
# From -- ./inp_files/613392.got.cif
#   From: 2010.06.25/outbox.cif.g09.slc.cpg/sg2_307_cif.got.tgz:613392.got - 2010.06.27 13:26:56.
