data_PCOD8041893
_publ_section_title
;
Structure prediction by ZEFSAII (Michael W. Deem and Ramdas Pophale) SiO2 
 PCOD8041893
Probable space group: P -1
;
_chemical_formula_sum "Si O2"
_cell_formula_units_Z 14
_cell_length_a 6.618494
_cell_length_b 8.715644
_cell_length_c 20.109929
_cell_angle_alpha 38.965611
_cell_angle_beta 82.839648
_cell_angle_gamma 80.904318
_cell_volume 720.313672
_symmetry_space_group_name_H-M "P -1"
_symmetry_group_IT_number 2
_symmetry_cell_setting 'triclinic'
loop_
_space_group_symop_operation_xyz
x,y,z
-x,-y,-z
loop_
_atom_site_type_symbol
_atom_site_label
_atom_site_fract_x
_atom_site_fract_y
_atom_site_fract_z
Si Si1 0.766959 0.781536 0.044611
Si Si2 0.047447 0.840498 0.372766
Si Si3 0.399212 0.761353 0.276111
Si Si4 0.662390 0.690671 0.933260
Si Si5 0.348090 0.689928 0.155220
Si Si6 0.701536 0.551883 0.435102
Si Si7 0.890446 0.614975 0.817620
O O1 0.572697 0.755057 0.107036
O O2 0.946773 0.612732 0.129667
O O3 0.755701 0.670283 0.009128
O O4 0.805035 0.068776 0.940541
O O5 0.206203 0.761376 0.333496
O O6 0.133730 0.689360 0.485988
O O7 0.819187 0.775112 0.385370
O O8 0.033192 0.127112 0.294332
O O9 0.336528 0.634830 0.252975
O O10 0.613230 0.622559 0.341602
O O11 0.448341 0.038853 0.166720
O O12 0.838560 0.623572 0.894692
O O13 0.500000 0.500000 0.000000
O O14 0.301894 0.445943 0.199277
O O15 0.500000 0.500000 0.500000
#
# Coordination Sequence:
#
# PCOD8041893 Si02
#       7
#     2   2   2   2   2   2   2
#     4  10  21  35  52  75 112 157 184 217 266 309
#     4   9  20  35  59  86 102 133 185 230 268 325
#     4   9  20  35  56  78 111 147 175 220 273 319
#     4  10  19  34  52  81 112 142 187 227 253 313
#     4  10  21  37  50  79 115 149 185 215 262 330
#     4   9  18  37  60  81 105 134 176 229 282 319
#     4  11  21  34  56  81 113 143 184 227 267 314
#
# _framework density 19.435976
#
# number of rings (size 3 to 8) (size 9 to 14) (size 15 to 20)
#    0.000    2.286    1.429    0.857    2.000    2.286 
#    0.000    0.714    0.000    8.571    0.000    0.000 
#    0.000    0.000    0.000    0.000    0.000    0.000 
#
# Total GULP energy -173500.657389 kJ/mol
# GULP energy per Si atom -12392.904099 kJ/mol
# Density = 1.939174 g / cm^3
# Si number density = 19.435976 Si / 1000 Ang^3
#
#
#
# Elastic Constant Matrix: (Units=GPa)
#
#
# Indices 1 2 3 4 5 6 
#
# 1 66.5352 17.2583 35.1422 -9.3184 0.9487 7.9901
# 2 17.2583 81.4715 26.4632 -4.5517 -4.3678 6.3519
# 3 35.1422 26.4632 89.6811 -8.4983 5.1482 9.2951
# 4 -9.3184 -4.5517 -8.4983 26.2073 9.3637 -5.6795
# 5 0.9487 -4.3678 5.1482 9.3637 31.7598 -10.7859
# 6 7.9901 6.3519 9.2951 -5.6795 -10.7859 24.4813
#
#
#
# Elastic Compliance Matrix: (Units=1/GPa)
#
#
# Indices 1 2 3 4 5 6 
#
# 1 0.019979 -0.001754 -0.006335 0.004842 -0.002470 -0.003625
# 2 -0.001754 0.013957 -0.003527 -0.000360 0.002400 -0.000736
# 3 -0.006335 -0.003527 0.015760 0.003155 -0.005352 -0.004627
# 4 0.004842 -0.000360 0.003155 0.046145 -0.013625 0.002018
# 5 -0.002470 0.002400 -0.005352 -0.013625 0.042868 0.017941
# 6 -0.003625 -0.000736 -0.004627 0.002018 0.017941 0.052351
#
#
# Mechanical properties :
#
#
# Convention : Reuss Voigt Hill
#
# Bulk Modulus (GPa) = 37.78655 43.93500 40.86078
# Shear Modulus (GPa) = 22.41021 27.07796 24.74408
#
# Velocity S-wave (km/s) = 3.39931 3.73659 3.57193
# Velocity P-wave (km/s) = 5.90685 6.42419 6.17094
#
# Compressibility (1/GPa) = 0.02646444
#
# Stress axis : x y z
#
# Youngs Moduli (GPa) = 50.05186 71.64736 63.45356
#
# Poissons Ratio (x) = 0.12565 0.40199
# Poissons Ratio (y) = 0.08778 0.22379
# Poissons Ratio (z) = 0.31709 0.25269
#
# Static dielectric constant tensor:
#      x y z
#    x 3.882960 0.437240 0.447960 
#    y 0.437240 3.794490 0.343510 
#    z 0.447960 0.343510 4.147660 
# 
# 
# High freq. dielectric constant tensor:
#      x y z
#    x 1.752750 0.011570 0.001120 
#    y 0.011570 1.737040 -0.004750 
#    z 0.001120 -0.004750 1.760790 
# 
# From -- ./inp_files/34570.got.cif
#   From: 2010.06.25/outbox.cif.g09.slc.cpg/sg2_18_cif.got.tgz:34570.got - 2010.06.27 13:26:56.
