data_PCOD8041116
_publ_section_title
;
Structure prediction by ZEFSAII (Michael W. Deem and Ramdas Pophale) SiO2 
 PCOD8041116
Probable space group: P -1
;
_chemical_formula_sum "Si O2"
_cell_formula_units_Z 14
_cell_length_a 14.664178
_cell_length_b 13.669710
_cell_length_c 13.121654
_cell_angle_alpha 42.405192
_cell_angle_beta 38.641287
_cell_angle_gamma 21.415155
_cell_volume 598.974191
_symmetry_space_group_name_H-M "P -1"
_symmetry_group_IT_number 2
_symmetry_cell_setting 'triclinic'
loop_
_space_group_symop_operation_xyz
x,y,z
-x,-y,-z
loop_
_atom_site_type_symbol
_atom_site_label
_atom_site_fract_x
_atom_site_fract_y
_atom_site_fract_z
Si Si1 0.879049 0.755659 0.393003
Si Si2 0.415976 0.692441 0.662850
Si Si3 0.354744 0.280778 0.724942
Si Si4 0.417854 0.417920 0.181868
Si Si5 0.095401 0.910376 0.322562
Si Si6 0.567411 0.005459 0.281192
Si Si7 0.134315 0.115454 0.289997
O O1 0.617074 0.972618 0.528636
O O2 0.000000 0.500000 0.500000
O O3 0.102491 0.688032 0.285704
O O4 0.824256 0.814326 0.275809
O O5 0.541645 0.692012 0.469706
O O6 0.396739 0.778076 0.729257
O O7 0.118755 0.889647 0.736184
O O8 0.614039 0.388710 0.740499
O O9 0.056509 0.582642 0.787519
O O10 0.338871 0.131194 0.805771
O O11 0.559299 0.098504 0.782016
O O12 0.431160 0.279816 0.189854
O O13 0.500000 0.500000 0.000000
O O14 0.139435 0.030264 0.242993
O O15 0.980929 0.893249 0.516821
#
# Coordination Sequence:
#
# PCOD8041116 Si02
#       7
#     2   2   2   2   2   2   2
#     4   9  19  35  57  77 115 145 196 236 291 341
#     4  10  20  33  55  79 113 160 191 232 296 351
#     4  10  19  30  56  85 116 148 189 234 303 348
#     4  11  25  39  55  83 118 159 203 244 286 346
#     4   9  18  33  51  79 118 148 189 234 297 354
#     4  10  21  35  56  85 113 156 191 243 292 353
#     4   9  18  30  51  85 116 145 183 243 293 353
#
# _framework density 23.373294999999999
#
# number of rings (size 3 to 8) (size 9 to 14) (size 15 to 20)
#    0.000    2.286    0.000    3.429   12.000    4.000 
#    0.000    0.000    0.000    0.000    0.000    6.000 
#    0.000    0.000    0.000    0.000    0.000    0.000 
#
# Total GULP energy -173483.322992 kJ/mol
# GULP energy per Si atom -12391.665928 kJ/mol
# Density = 2.332010 g / cm^3
# Si number density = 23.373295 Si / 1000 Ang^3
#
#
#
# Elastic Constant Matrix: (Units=GPa)
#
#
# Indices 1 2 3 4 5 6 
#
# 1 152.9949 80.9637 7.4023 -3.2749 -18.8879 -5.6746
# 2 80.9637 160.1607 10.2442 -13.5627 -11.9935 -16.4327
# 3 7.4023 10.2442 61.5515 -4.7069 -17.7880 -9.6170
# 4 -3.2749 -13.5627 -4.7069 10.5867 0.0713 -3.2392
# 5 -18.8879 -11.9935 -17.7880 0.0713 17.2506 -7.0236
# 6 -5.6746 -16.4327 -9.6170 -3.2392 -7.0236 50.9626
#
#
#
# Elastic Compliance Matrix: (Units=1/GPa)
#
#
# Indices 1 2 3 4 5 6 
#
# 1 0.010271 -0.004242 0.003506 -0.000112 0.012807 0.002195
# 2 -0.004242 0.010721 0.003256 0.015574 0.008445 0.005753
# 3 0.003506 0.003256 0.032987 0.024385 0.046371 0.015606
# 4 -0.000112 0.015574 0.024385 0.132333 0.045176 0.024248
# 5 0.012807 0.008445 0.046371 0.045176 0.139755 0.035032
# 6 0.002195 0.005753 0.015606 0.024248 0.035032 0.031036
#
#
# Mechanical properties :
#
#
# Convention : Reuss Voigt Hill
#
# Bulk Modulus (GPa) = 16.94312 63.54752 40.24532
# Shear Modulus (GPa) = 13.45040 34.16642 23.80841
#
# Velocity S-wave (km/s) = 2.40148 3.82746 3.19504
# Velocity P-wave (km/s) = 3.86706 6.83957 5.55580
#
# Compressibility (1/GPa) = 0.05902100
#
# Stress axis : x y z
#
# Youngs Moduli (GPa) = 97.35800 93.27238 30.31503
#
# Poissons Ratio (x) = 0.39564 -0.10629
# Poissons Ratio (y) = 0.41298 -0.09871
# Poissons Ratio (z) = -0.34137 -0.30371
#
# Static dielectric constant tensor:
#      x y z
#    x 4.468770 -0.333550 -0.291220 
#    y -0.333550 4.673980 0.173360 
#    z -0.291220 0.173360 3.680710 
# 
# 
# High freq. dielectric constant tensor:
#      x y z
#    x 1.933240 0.000440 -0.014610 
#    y 0.000440 1.946550 -0.020410 
#    z -0.014610 -0.020410 1.854330 
# 
# From -- ./inp_files/89757.got.cif
#   From: 2010.06.25/outbox.cif.g09.slc.cpg/sg2_45_cif.got.tgz:89757.got - 2010.06.27 13:26:56.
