data_PCOD8041829
_publ_section_title
;
Structure prediction by ZEFSAII (Michael W. Deem and Ramdas Pophale) SiO2 
 PCOD8041829
Probable space group: P -1
;
_chemical_formula_sum "Si O2"
_cell_formula_units_Z 16
_cell_length_a 13.941662
_cell_length_b 11.257468
_cell_length_c 12.090036
_cell_angle_alpha 53.686181
_cell_angle_beta 117.905478
_cell_angle_gamma 149.626930
_cell_volume 768.796130
_symmetry_space_group_name_H-M "P -1"
_symmetry_group_IT_number 2
_symmetry_cell_setting 'triclinic'
loop_
_space_group_symop_operation_xyz
x,y,z
-x,-y,-z
loop_
_atom_site_type_symbol
_atom_site_label
_atom_site_fract_x
_atom_site_fract_y
_atom_site_fract_z
Si Si1 0.096671 0.735222 0.994674
Si Si2 0.229196 0.099390 0.689019
Si Si3 0.581074 0.303342 0.782679
Si Si4 0.704036 0.495148 0.516812
Si Si5 0.037639 0.370728 0.582235
Si Si6 0.527235 0.135502 0.067633
Si Si7 0.254853 0.978252 0.548227
Si Si8 0.830830 0.454779 0.212782
O O1 0.107094 0.889591 0.836517
O O2 0.000000 0.500000 0.000000
O O3 0.978165 0.642372 0.089908
O O4 0.306129 0.926769 0.049216
O O5 0.452550 0.306498 0.709176
O O6 0.202546 0.244220 0.605442
O O7 0.165046 0.974339 0.601484
O O8 0.741520 0.497227 0.666538
O O9 0.442609 0.008293 0.843931
O O10 0.657449 0.357565 0.918040
O O11 0.790834 0.466292 0.501825
O O12 0.479052 0.248337 0.509573
O O13 0.096015 0.374658 0.733145
O O14 0.000000 0.500000 0.500000
O O15 0.847285 0.081067 0.588321
O O16 0.624829 0.290849 0.151059
O O17 0.192045 0.740715 0.662209
#
# Coordination Sequence:
#
# PCOD8041829 Si02
#       8
#     2   2   2   2   2   2   2   2
#     4  11  21  36  63  92 124 153 197 260 305 353
#     4  10  20  38  62  95 121 156 198 249 315 371
#     4   9  17  32  58  92 116 147 192 246 303 358
#     4  11  22  40  63  85 129 162 194 250 315 362
#     4  10  26  39  58  90 121 164 215 244 291 361
#     4  10  19  33  60  90 122 149 196 248 309 350
#     4  10  20  39  61  91 124 151 201 258 299 360
#     4  11  21  38  58  89 121 157 208 253 288 357
#
# _framework density 20.811758999999999
#
# number of rings (size 3 to 8) (size 9 to 14) (size 15 to 20)
#    0.000    1.750    3.750    3.000    3.500    4.500 
#    0.000    4.375    0.000    3.750    0.000    0.000 
#    0.000    0.000    0.000    0.000    0.000    0.000 
#
# Total GULP energy -198235.876202 kJ/mol
# GULP energy per Si atom -12389.742263 kJ/mol
# Density = 2.076439 g / cm^3
# Si number density = 20.811759 Si / 1000 Ang^3
#
#
#
# Elastic Constant Matrix: (Units=GPa)
#
#
# Indices 1 2 3 4 5 6 
#
# 1 66.4699 20.6762 47.9356 -3.5989 -6.3994 -3.3774
# 2 20.6762 104.2171 52.0441 23.3978 -7.0562 1.9696
# 3 47.9356 52.0441 128.1200 4.6882 -11.6438 -10.2588
# 4 -3.5989 23.3978 4.6882 41.7505 -2.2915 -4.4103
# 5 -6.3994 -7.0562 -11.6438 -2.2915 29.5676 -0.4857
# 6 -3.3774 1.9696 -10.2588 -4.4103 -0.4857 22.1536
#
#
#
# Elastic Compliance Matrix: (Units=1/GPa)
#
#
# Indices 1 2 3 4 5 6 
#
# 1 0.021081 -0.001207 -0.007319 0.003477 0.001673 0.000661
# 2 -0.001207 0.014621 -0.005618 -0.008256 0.000282 -0.005723
# 3 -0.007319 -0.005618 0.013483 0.001786 0.002622 0.006040
# 4 0.003477 -0.008256 0.001786 0.029632 0.001914 0.008032
# 5 0.001673 0.000282 0.002622 0.001914 0.035474 0.002603
# 6 0.000661 -0.005723 0.006040 0.008032 0.002603 0.050202
#
#
# Mechanical properties :
#
#
# Convention : Reuss Voigt Hill
#
# Bulk Modulus (GPa) = 47.85737 60.01320 53.93528
# Shear Modulus (GPa) = 25.03161 30.57108 27.80134
#
# Velocity S-wave (km/s) = 3.47185 3.83682 3.65889
# Velocity P-wave (km/s) = 6.25435 6.96614 6.61982
#
# Compressibility (1/GPa) = 0.02089542
#
# Stress axis : x y z
#
# Youngs Moduli (GPa) = 47.43546 68.39293 74.16991
#
# Poissons Ratio (x) = 0.08256 0.54288
# Poissons Ratio (y) = 0.05726 0.41671
# Poissons Ratio (z) = 0.34720 0.38425
#
# Static dielectric constant tensor:
#      x y z
#    x 3.494710 -0.007630 -0.216220 
#    y -0.007630 4.058130 0.548770 
#    z -0.216220 0.548770 4.198780 
# 
# 
# High freq. dielectric constant tensor:
#      x y z
#    x 1.783990 0.018880 -0.008780 
#    y 0.018880 1.808090 0.022780 
#    z -0.008780 0.022780 1.818990 
# 
# From -- ./inp_files/451125.got.cif
#   From: 2010.06.25/outbox.cif.g09.slc.cpg/sg2_226_cif.got.tgz:451125.got - 2010.06.27 13:26:56.
