data_PCOD8041025
_publ_section_title
;
Structure prediction by ZEFSAII (Michael W. Deem and Ramdas Pophale) SiO2 
 PCOD8041025
Probable space group: P -1
;
_chemical_formula_sum "Si O2"
_cell_formula_units_Z 14
_cell_length_a 11.973135
_cell_length_b 10.273403
_cell_length_c 9.562831
_cell_angle_alpha 139.664465
_cell_angle_beta 125.357146
_cell_angle_gamma 61.564733
_cell_volume 619.562937
_symmetry_space_group_name_H-M "P -1"
_symmetry_group_IT_number 2
_symmetry_cell_setting 'triclinic'
loop_
_space_group_symop_operation_xyz
x,y,z
-x,-y,-z
loop_
_atom_site_type_symbol
_atom_site_label
_atom_site_fract_x
_atom_site_fract_y
_atom_site_fract_z
Si Si1 0.914446 0.329943 0.361061
Si Si2 0.529388 0.204333 0.767366
Si Si3 0.541405 0.722003 0.689998
Si Si4 0.827186 0.069691 0.845619
Si Si5 0.925822 0.927236 0.524287
Si Si6 0.631258 0.894059 0.170904
Si Si7 0.306030 0.337952 0.526234
O O1 0.764088 0.439047 0.365739
O O2 0.000000 0.500000 0.500000
O O3 0.976078 0.256796 0.494427
O O4 0.918147 0.139398 0.099867
O O5 0.691570 0.225160 0.881962
O O6 0.487060 0.191324 0.887888
O O7 0.430657 0.375481 0.756985
O O8 0.500000 0.000000 0.500000
O O9 0.500000 0.500000 0.500000
O O10 0.634938 0.749826 0.646788
O O11 0.404119 0.869604 0.694499
O O12 0.634761 0.776128 0.932041
O O13 0.901881 0.094539 0.769046
O O14 0.795598 0.831677 0.634020
O O15 0.777865 0.854125 0.316771
O O16 0.000000 0.000000 0.500000
#
# Coordination Sequence:
#
# PCOD8041025 Si02
#       7
#     2   2   2   2   2   2   2
#     4  12  27  45  70 100 135 186 238 273 328 420
#     4  10  18  43  73  98 126 170 222 289 334 403
#     4  11  26  41  70 104 137 173 218 287 353 402
#     4  11  23  46  75  95 136 184 229 283 350 397
#     4  12  27  46  69  99 141 188 227 278 343 407
#     4  11  23  47  67  97 140 172 221 279 351 397
#     4  11  23  45  68 102 136 171 235 280 339 412
#
# _framework density 22.596574
#
# number of rings (size 3 to 8) (size 9 to 14) (size 15 to 20)
#    0.000    0.857    7.143    0.429    6.000    0.571 
#    7.714    1.429    0.000    0.000    0.000    0.000 
#    0.000    0.000    0.000    0.000    0.000    0.000 
#
# Total GULP energy -173587.837708 kJ/mol
# GULP energy per Si atom -12399.131265 kJ/mol
# Density = 2.254514 g / cm^3
# Si number density = 22.596574 Si / 1000 Ang^3
#
#
#
# Elastic Constant Matrix: (Units=GPa)
#
#
# Indices 1 2 3 4 5 6 
#
# 1 104.8308 50.7575 34.2576 -10.1946 -16.3397 13.5801
# 2 50.7575 165.1550 52.0588 -18.9609 -6.6713 -14.1542
# 3 34.2576 52.0588 100.2915 -20.7852 -16.0209 1.2297
# 4 -10.1946 -18.9609 -20.7852 39.6223 3.9112 -6.8052
# 5 -16.3397 -6.6713 -16.0209 3.9112 30.1290 -6.5640
# 6 13.5801 -14.1542 1.2297 -6.8052 -6.5640 46.7832
#
#
#
# Elastic Compliance Matrix: (Units=1/GPa)
#
#
# Indices 1 2 3 4 5 6 
#
# 1 0.013156 -0.003694 -0.001939 -0.000583 0.004414 -0.004351
# 2 -0.003694 0.008706 -0.002976 0.002449 -0.001107 0.003985
# 3 -0.001939 -0.002976 0.014061 0.005065 0.005277 0.000770
# 4 -0.000583 0.002449 0.005065 0.029782 0.000171 0.005133
# 5 0.004414 -0.001107 0.005277 0.000171 0.038936 0.003733
# 6 -0.004351 0.003985 0.000770 0.005133 0.003733 0.025094
#
#
# Mechanical properties :
#
#
# Convention : Reuss Voigt Hill
#
# Bulk Modulus (GPa) = 53.45717 71.60279 62.52998
# Shear Modulus (GPa) = 32.63991 38.85381 35.74686
#
# Velocity S-wave (km/s) = 3.80473 4.15113 3.98170
# Velocity P-wave (km/s) = 6.55819 7.39811 6.99078
#
# Compressibility (1/GPa) = 0.01870657
#
# Stress axis : x y z
#
# Youngs Moduli (GPa) = 76.01017 114.86360 71.11902
#
# Poissons Ratio (x) = 0.42426 0.13790
# Poissons Ratio (y) = 0.28075 0.21163
# Poissons Ratio (z) = 0.14738 0.34180
#
# Static dielectric constant tensor:
#      x y z
#    x 3.566740 0.011320 0.680500 
#    y 0.011320 3.642170 -0.168980 
#    z 0.680500 -0.168980 3.011690 
# 
# 
# High freq. dielectric constant tensor:
#      x y z
#    x 1.897230 -0.018870 -0.013300 
#    y -0.018870 1.897010 -0.020030 
#    z -0.013300 -0.020030 1.887300 
# 
# From -- ./inp_files/246165.got.cif
#   From: 2010.06.25/outbox.cif.g09.slc.cpg/sg2_124_cif.got.tgz:246165.got - 2010.06.27 13:26:56.
