data_PCOD8041956
_publ_section_title
;
Structure prediction by ZEFSAII (Michael W. Deem and Ramdas Pophale) SiO2 
 PCOD8041956
Probable space group: P -1
;
_chemical_formula_sum "Si O2"
_cell_formula_units_Z 14
_cell_length_a 11.771864
_cell_length_b 15.312826
_cell_length_c 17.352823
_cell_angle_alpha 26.432395
_cell_angle_beta 135.794557
_cell_angle_gamma 151.128957
_cell_volume 638.486513
_symmetry_space_group_name_H-M "P -1"
_symmetry_group_IT_number 2
_symmetry_cell_setting 'triclinic'
loop_
_space_group_symop_operation_xyz
x,y,z
-x,-y,-z
loop_
_atom_site_type_symbol
_atom_site_label
_atom_site_fract_x
_atom_site_fract_y
_atom_site_fract_z
Si Si1 0.202569 0.870705 0.137295
Si Si2 0.268014 0.499396 0.874456
Si Si3 0.011743 0.854123 0.829457
Si Si4 0.229131 0.018442 0.204802
Si Si5 0.742498 0.697074 0.280136
Si Si6 0.214252 0.265030 0.339914
Si Si7 0.627571 0.148291 0.025991
O O1 0.927532 0.545730 0.234037
O O2 0.227310 0.902740 0.215230
O O3 0.419274 0.925669 0.167034
O O4 0.233466 0.111496 0.923465
O O5 0.540306 0.848061 0.735310
O O6 0.280599 0.297850 0.998343
O O7 0.176331 0.395558 0.000307
O O8 0.149454 0.801666 0.893842
O O9 0.859002 0.833804 0.706728
O O10 0.215189 0.179721 0.710764
O O11 0.960947 0.736759 0.337627
O O12 0.463055 0.361299 0.402684
O O13 0.264779 0.537081 0.166839
O O14 0.000000 0.000000 0.500000
O O15 0.500000 0.000000 0.000000
#
# Coordination Sequence:
#
# PCOD8041956 Si02
#       7
#     2   2   2   2   2   2   2
#     4   9  16  26  46  72 106 129 165 213 260 299
#     4   9  15  25  45  73 103 129 167 208 265 305
#     4  10  19  34  55  77 107 140 170 217 267 305
#     4   9  16  25  42  72 104 133 161 213 263 299
#     4   9  18  32  48  71 111 133 170 216 266 300
#     4  11  23  35  53  80 107 140 179 211 259 318
#     4  11  18  37  54  78 112 137 170 220 262 306
#
# _framework density 21.926852
#
# number of rings (size 3 to 8) (size 9 to 14) (size 15 to 20)
#    0.000    2.571    4.286    3.857    0.000    2.857 
#    0.000    0.000    0.000    0.000    0.000    5.000 
#    0.000    0.000    0.000    0.000    0.000    0.000 
#
# Total GULP energy -173478.065112 kJ/mol
# GULP energy per Si atom -12391.290365 kJ/mol
# Density = 2.187695 g / cm^3
# Si number density = 21.926852 Si / 1000 Ang^3
#
#
#
# Elastic Constant Matrix: (Units=GPa)
#
#
# Indices 1 2 3 4 5 6 
#
# 1 153.4734 68.4601 16.2769 -12.5725 -17.5106 10.5074
# 2 68.4601 171.7448 36.8898 -32.3293 -22.1279 9.9004
# 3 16.2769 36.8898 13.4692 -10.4425 -8.2501 3.5040
# 4 -12.5725 -32.3293 -10.4425 16.1926 10.9077 -11.8273
# 5 -17.5106 -22.1279 -8.2501 10.9077 14.2091 -7.1100
# 6 10.5074 9.9004 3.5040 -11.8273 -7.1100 46.6783
#
#
#
# Elastic Compliance Matrix: (Units=1/GPa)
#
#
# Indices 1 2 3 4 5 6 
#
# 1 0.008865 -0.003610 -0.001308 -0.010394 0.011517 -0.002011
# 2 -0.003610 0.016267 -0.034736 0.016068 -0.010388 0.002459
# 3 -0.001308 -0.034736 0.248088 0.073398 0.038771 0.013542
# 4 -0.010394 0.016068 0.073398 0.228163 -0.102496 0.035621
# 5 0.011517 -0.010388 0.038771 -0.102496 0.167722 -0.003723
# 6 -0.002011 0.002459 0.013542 0.035621 -0.003723 0.028797
#
#
# Mechanical properties :
#
#
# Convention : Reuss Voigt Hill
#
# Bulk Modulus (GPa) = 5.15692 64.66012 34.90852
# Shear Modulus (GPa) = 5.93934 29.88670 17.91302
#
# Velocity S-wave (km/s) = 1.64760 3.69591 2.86132
# Velocity P-wave (km/s) = 2.44467 6.91130 5.18375
#
# Compressibility (1/GPa) = 0.19391429
#
# Stress axis : x y z
#
# Youngs Moduli (GPa) = 112.80544 61.47451 4.03082
#
# Poissons Ratio (x) = 0.22190 0.00527
# Poissons Ratio (y) = 0.40718 0.14001
# Poissons Ratio (z) = 0.14751 2.13535
#
# Static dielectric constant tensor:
#      x y z
#    x 4.338730 0.483280 -0.196600 
#    y 0.483280 4.806810 -0.367820 
#    z -0.196600 -0.367820 3.136900 
# 
# 
# High freq. dielectric constant tensor:
#      x y z
#    x 1.872990 0.009310 -0.017060 
#    y 0.009310 1.893240 -0.021430 
#    z -0.017060 -0.021430 1.770460 
# 
# From -- ./inp_files/296681.got.cif
#   From: 2010.06.25/outbox.cif.g09.slc.cpg/sg2_149_cif.got.tgz:296681.got - 2010.06.27 13:26:56.
