data_PCOD8041500
_publ_section_title
;
Structure prediction by ZEFSAII (Michael W. Deem and Ramdas Pophale) SiO2 
 PCOD8041500
Probable space group: P -1
;
_chemical_formula_sum "Si O2"
_cell_formula_units_Z 16
_cell_length_a 13.343013
_cell_length_b 11.411768
_cell_length_c 24.954163
_cell_angle_alpha 33.140364
_cell_angle_beta 157.307544
_cell_angle_gamma 145.469773
_cell_volume 777.298274
_symmetry_space_group_name_H-M "P -1"
_symmetry_group_IT_number 2
_symmetry_cell_setting 'triclinic'
loop_
_space_group_symop_operation_xyz
x,y,z
-x,-y,-z
loop_
_atom_site_type_symbol
_atom_site_label
_atom_site_fract_x
_atom_site_fract_y
_atom_site_fract_z
Si Si1 0.579713 0.905131 0.302205
Si Si2 0.117765 0.632413 0.875189
Si Si3 0.160777 0.640034 0.072647
Si Si4 0.814582 0.939089 0.029558
Si Si5 0.036517 0.685315 0.613040
Si Si6 0.339159 0.103239 0.837723
Si Si7 0.900391 0.374758 0.764457
Si Si8 0.679118 0.623214 0.183289
O O1 0.807404 0.791455 0.434874
O O2 0.394555 0.728936 0.318686
O O3 0.421896 0.976368 0.148109
O O4 0.716888 0.126474 0.316476
O O5 0.848855 0.517939 0.819667
O O6 0.086406 0.543011 0.833353
O O7 0.147896 0.898301 0.790008
O O8 0.354854 0.547977 0.055816
O O9 0.468534 0.739573 0.169645
O O10 0.020012 0.839869 0.943220
O O11 0.000000 0.500000 0.000000
O O12 0.695570 0.765168 0.082875
O O13 0.978070 0.837257 0.105598
O O14 0.896489 0.511047 0.656190
O O15 0.163454 0.566697 0.673922
O O16 0.191682 0.249167 0.747372
O O17 0.500000 0.000000 0.000000
#
# Coordination Sequence:
#
# PCOD8041500 Si02
#       8
#     2   2   2   2   2   2   2   2
#     4  11  22  39  55  83 118 149 186 222 281 338
#     4  11  20  32  55  86 112 143 180 237 283 320
#     4  12  20  32  53  87 114 143 178 232 286 324
#     4  11  21  35  58  91 113 140 188 235 275 331
#     4  10  24  38  57  81 115 155 183 223 279 339
#     4  10  19  33  51  82 113 143 181 228 279 325
#     4  11  23  36  59  87 113 144 185 235 280 328
#     4  10  19  37  57  84 114 145 185 233 275 328
#
# _framework density 20.584116999999999
#
# number of rings (size 3 to 8) (size 9 to 14) (size 15 to 20)
#    0.000    1.250    6.250    2.250    1.750    2.000 
#    0.000    0.000    0.000    1.500    3.250    0.000 
#    0.000    0.125    0.000    0.000    0.000    0.000 
#
# Total GULP energy -198255.404906 kJ/mol
# GULP energy per Si atom -12390.962807 kJ/mol
# Density = 2.053727 g / cm^3
# Si number density = 20.584117 Si / 1000 Ang^3
#
#
#
# Elastic Constant Matrix: (Units=GPa)
#
#
# Indices 1 2 3 4 5 6 
#
# 1 93.7390 48.8079 24.7243 -10.4416 24.6212 -16.7860
# 2 48.8079 136.4688 34.7952 -16.5780 24.3945 -16.6358
# 3 24.7243 34.7952 74.1701 -17.7426 17.4826 -16.4580
# 4 -10.4416 -16.5780 -17.7426 21.9144 -5.3283 13.9903
# 5 24.6212 24.3945 17.4826 -5.3283 24.6312 -9.2433
# 6 -16.7860 -16.6358 -16.4580 13.9903 -9.2433 52.1843
#
#
#
# Elastic Compliance Matrix: (Units=1/GPa)
#
#
# Indices 1 2 3 4 5 6 
#
# 1 0.015887 -0.003177 -0.000498 0.000896 -0.011567 0.001651
# 2 -0.003177 0.010225 -0.001705 0.003746 -0.005002 -0.000190
# 3 -0.000498 -0.001705 0.019478 0.011607 -0.008842 0.000761
# 4 0.000896 0.003746 0.011607 0.065811 -0.003534 -0.013126
# 5 -0.011567 -0.005002 -0.008842 -0.003534 0.064208 0.004217
# 6 0.001651 -0.000190 0.000761 -0.013126 0.004217 0.024139
#
#
# Mechanical properties :
#
#
# Convention : Reuss Voigt Hill
#
# Bulk Modulus (GPa) = 28.71112 57.89253 43.30182
# Shear Modulus (GPa) = 22.51046 32.81602 27.66324
#
# Velocity S-wave (km/s) = 3.31053 3.99712 3.66992
# Velocity P-wave (km/s) = 5.34708 7.03481 6.24819
#
# Compressibility (1/GPa) = 0.03482971
#
# Stress axis : x y z
#
# Youngs Moduli (GPa) = 62.94329 97.80360 51.34000
#
# Poissons Ratio (x) = 0.31074 0.02558
# Poissons Ratio (y) = 0.19998 0.08752
# Poissons Ratio (z) = 0.03136 0.16673
#
# Static dielectric constant tensor:
#      x y z
#    x 4.224710 -0.171070 0.342460 
#    y -0.171070 4.326670 -0.252170 
#    z 0.342460 -0.252170 3.360660 
# 
# 
# High freq. dielectric constant tensor:
#      x y z
#    x 1.821630 -0.003960 0.016290 
#    y -0.003960 1.829230 -0.012350 
#    z 0.016290 -0.012350 1.743780 
# 
# From -- ./inp_files/623515.got.cif
#   From: 2010.06.25/outbox.cif.g09.slc.cpg/sg2_312_cif.got.tgz:623515.got - 2010.06.27 13:26:56.
