data_PCOD8041378
_publ_section_title
;
Structure prediction by ZEFSAII (Michael W. Deem and Ramdas Pophale) SiO2 
 PCOD8041378
Probable space group: P -1
;
_chemical_formula_sum "Si O2"
_cell_formula_units_Z 16
_cell_length_a 15.055055
_cell_length_b 25.221160
_cell_length_c 13.921922
_cell_angle_alpha 25.591584
_cell_angle_beta 28.453980
_cell_angle_gamma 20.838369
_cell_volume 789.293017
_symmetry_space_group_name_H-M "P -1"
_symmetry_group_IT_number 2
_symmetry_cell_setting 'triclinic'
loop_
_space_group_symop_operation_xyz
x,y,z
-x,-y,-z
loop_
_atom_site_type_symbol
_atom_site_label
_atom_site_fract_x
_atom_site_fract_y
_atom_site_fract_z
Si Si1 0.892883 0.013597 0.278987
Si Si2 0.450809 0.724714 0.182367
Si Si3 0.157157 0.628721 0.103752
Si Si4 0.565058 0.906796 0.189585
Si Si5 0.752190 0.826707 0.783155
Si Si6 0.654887 0.441991 0.302072
Si Si7 0.171614 0.889036 0.607268
Si Si8 0.447439 0.604980 0.031211
O O1 0.770144 0.931976 0.517592
O O2 0.161217 0.904605 0.144539
O O3 0.960632 0.006056 0.339503
O O4 0.694964 0.204184 0.115829
O O5 0.538103 0.609690 0.195193
O O6 0.441403 0.641141 0.421900
O O7 0.653342 0.744750 0.965159
O O8 0.221580 0.723520 0.829912
O O9 0.249951 0.601537 0.170153
O O10 0.325838 0.458067 0.157444
O O11 0.858285 0.739441 0.202971
O O12 0.445226 0.827547 0.436207
O O13 0.455340 0.047431 0.144152
O O14 0.500000 0.000000 0.000000
O O15 0.037306 0.682213 0.791605
O O16 0.551076 0.490035 0.214183
O O17 0.000000 0.000000 0.500000
#
# Coordination Sequence:
#
# PCOD8041378 Si02
#       8
#     2   2   2   2   2   2   2   2
#     4   9  21  38  55  82 115 150 191 232 285 342
#     4  10  21  39  62  85 109 148 197 246 283 339
#     4  10  21  37  55  81 120 156 185 232 286 345
#     4  11  20  31  55  87 110 147 196 229 278 341
#     4  10  20  37  59  82 115 146 188 248 286 331
#     4  10  22  38  60  87 114 145 193 243 292 338
#     4  10  19  32  55  83 113 144 187 237 278 327
#     4  10  21  40  57  80 124 158 183 237 294 338
#
# _framework density 20.271305000000002
#
# number of rings (size 3 to 8) (size 9 to 14) (size 15 to 20)
#    0.000    2.000    1.250    2.625    3.500    0.500 
#    0.000   16.875    0.000    0.000    0.000    0.000 
#    0.000    0.000    0.000    0.000    0.000    0.000 
#
# Total GULP energy -198310.218699 kJ/mol
# GULP energy per Si atom -12394.388669 kJ/mol
# Density = 2.022517 g / cm^3
# Si number density = 20.271305 Si / 1000 Ang^3
#
#
#
# Elastic Constant Matrix: (Units=GPa)
#
#
# Indices 1 2 3 4 5 6 
#
# 1 71.2754 27.3079 24.9360 8.9878 -4.7704 -13.3793
# 2 27.3079 129.4370 16.3056 8.2848 -10.7034 -18.6908
# 3 24.9360 16.3056 79.9500 0.4979 -20.7594 -7.4221
# 4 8.9878 8.2848 0.4979 29.5398 -2.3216 -6.3943
# 5 -4.7704 -10.7034 -20.7594 -2.3216 27.2863 3.0644
# 6 -13.3793 -18.6908 -7.4221 -6.3943 3.0644 23.4956
#
#
#
# Elastic Compliance Matrix: (Units=1/GPa)
#
#
# Indices 1 2 3 4 5 6 
#
# 1 0.018216 -0.002263 -0.005339 -0.003684 -0.002780 0.006246
# 2 -0.002263 0.009256 0.000009 -0.000492 0.002570 0.005608
# 3 -0.005339 0.000009 0.017539 0.002653 0.012459 0.001604
# 4 -0.003684 -0.000492 0.002653 0.037066 0.003438 0.007988
# 5 -0.002780 0.002570 0.012459 0.003438 0.047032 -0.000801
# 6 0.006246 0.005608 0.001604 0.007988 -0.000801 0.053365
#
#
# Mechanical properties :
#
#
# Convention : Reuss Voigt Hill
#
# Bulk Modulus (GPa) = 33.52839 46.41794 39.97317
# Shear Modulus (GPa) = 24.08481 30.20521 27.14501
#
# Velocity S-wave (km/s) = 3.45066 3.86430 3.66332
# Velocity P-wave (km/s) = 5.69665 6.54664 6.13638
#
# Compressibility (1/GPa) = 0.02982547
#
# Stress axis : x y z
#
# Youngs Moduli (GPa) = 54.89728 108.03971 57.01707
#
# Poissons Ratio (x) = 0.24445 0.30441
# Poissons Ratio (y) = 0.12421 -0.00052
# Poissons Ratio (z) = 0.29309 -0.00099
#
# Static dielectric constant tensor:
#      x y z
#    x 3.397910 0.123670 -0.139350 
#    y 0.123670 3.754460 0.017960 
#    z -0.139350 0.017960 3.689650 
# 
# 
# High freq. dielectric constant tensor:
#      x y z
#    x 1.768780 -0.000890 -0.005470 
#    y -0.000890 1.814950 -0.005500 
#    z -0.005470 -0.005500 1.784440 
# 
# From -- ./inp_files/535401.got.cif
#   From: 2010.06.25/outbox.cif.g09.slc.cpg/sg2_268_cif.got.tgz:535401.got - 2010.06.27 13:26:56.
