data_PCOD8041644
_publ_section_title
;
Structure prediction by ZEFSAII (Michael W. Deem and Ramdas Pophale) SiO2 
 PCOD8041644
Probable space group: P -1
;
_chemical_formula_sum "Si O2"
_cell_formula_units_Z 14
_cell_length_a 11.142453
_cell_length_b 21.486771
_cell_length_c 9.077291
_cell_angle_alpha 105.349308
_cell_angle_beta 41.450379
_cell_angle_gamma 136.780573
_cell_volume 772.182869
_symmetry_space_group_name_H-M "P -1"
_symmetry_group_IT_number 2
_symmetry_cell_setting 'triclinic'
loop_
_space_group_symop_operation_xyz
x,y,z
-x,-y,-z
loop_
_atom_site_type_symbol
_atom_site_label
_atom_site_fract_x
_atom_site_fract_y
_atom_site_fract_z
Si Si1 0.085642 0.752439 0.709823
Si Si2 0.239746 0.017220 0.846146
Si Si3 0.583513 0.212257 0.822100
Si Si4 0.923303 0.459442 0.377319
Si Si5 0.075610 0.406063 0.703442
Si Si6 0.226079 0.437760 0.914575
Si Si7 0.264955 0.225344 0.939794
O O1 0.443394 0.890646 0.495742
O O2 0.122824 0.709234 0.519900
O O3 0.836518 0.735035 0.878021
O O4 0.947178 0.677645 0.936161
O O5 0.369170 0.081933 0.928875
O O6 0.041479 0.891830 0.949051
O O7 0.000000 0.000000 0.000000
O O8 0.749223 0.272272 0.864826
O O9 0.360355 0.207652 0.978144
O O10 0.928121 0.523593 0.312665
O O11 0.000000 0.500000 0.500000
O O12 0.566337 0.321529 0.610720
O O13 0.186080 0.486565 0.090857
O O14 0.055091 0.403474 0.895954
O O15 0.391282 0.460580 0.393367
#
# Coordination Sequence:
#
# PCOD8041644 Si02
#       7
#     2   2   2   2   2   2   2
#     4  10  19  33  56  80 104 142 177 223 266 314
#     4   8  17  33  54  83 107 132 176 230 270 307
#     4   9  20  34  54  81 105 138 178 231 255 317
#     4  12  22  35  58  84 107 139 183 230 265 319
#     4  11  23  37  53  79 114 147 180 215 273 325
#     4  11  23  37  52  79 114 150 176 217 272 328
#     4  11  18  33  57  83 107 134 180 227 275 305
#
# _framework density 18.130420000000001
#
# number of rings (size 3 to 8) (size 9 to 14) (size 15 to 20)
#    0.857    0.857    4.286    0.857    2.000    1.143 
#    0.000    0.000    0.000    8.571    0.000    0.000 
#    0.000    0.000    0.000    0.000    0.000    0.000 
#
# Total GULP energy -173436.764310 kJ/mol
# GULP energy per Si atom -12388.340308 kJ/mol
# Density = 1.808915 g / cm^3
# Si number density = 18.130420 Si / 1000 Ang^3
#
#
#
# Elastic Constant Matrix: (Units=GPa)
#
#
# Indices 1 2 3 4 5 6 
#
# 1 88.0761 47.9692 25.0304 11.5350 -6.7270 -1.0782
# 2 47.9692 109.8948 29.4520 -4.6923 1.5393 14.2530
# 3 25.0304 29.4520 67.1051 15.0713 -11.8470 -0.4746
# 4 11.5350 -4.6923 15.0713 31.3609 -6.1841 -10.2120
# 5 -6.7270 1.5393 -11.8470 -6.1841 26.3151 4.3286
# 6 -1.0782 14.2530 -0.4746 -10.2120 4.3286 24.0297
#
#
#
# Elastic Compliance Matrix: (Units=1/GPa)
#
#
# Indices 1 2 3 4 5 6 
#
# 1 0.016758 -0.007561 -0.001265 -0.005392 0.002483 0.002473
# 2 -0.007561 0.014973 -0.005416 0.004841 -0.003003 -0.006729
# 3 -0.001265 -0.005416 0.021254 -0.009682 0.007600 -0.001908
# 4 -0.005392 0.004841 -0.009682 0.044615 0.001947 0.015305
# 5 0.002483 -0.003003 0.007600 0.001947 0.043508 -0.004967
# 6 0.002473 -0.006729 -0.001908 0.015305 -0.004967 0.053079
#
#
# Mechanical properties :
#
#
# Convention : Reuss Voigt Hill
#
# Bulk Modulus (GPa) = 40.81780 52.21993 46.51887
# Shear Modulus (GPa) = 21.66020 27.18277 24.42149
#
# Velocity S-wave (km/s) = 3.46018 3.87627 3.67412
# Velocity P-wave (km/s) = 6.20694 6.99277 6.61154
#
# Compressibility (1/GPa) = 0.02449911
#
# Stress axis : x y z
#
# Youngs Moduli (GPa) = 59.67410 66.78565 47.05043
#
# Poissons Ratio (x) = 0.50500 0.05953
# Poissons Ratio (y) = 0.45122 0.25483
# Poissons Ratio (z) = 0.07550 0.36172
#
# Static dielectric constant tensor:
#      x y z
#    x 3.179000 -0.031800 -0.249940 
#    y -0.031800 3.950180 -0.323850 
#    z -0.249940 -0.323850 3.520880 
# 
# 
# High freq. dielectric constant tensor:
#      x y z
#    x 1.680090 -0.010310 -0.035100 
#    y -0.010310 1.707150 -0.003030 
#    z -0.035100 -0.003030 1.692840 
# 
# From -- ./inp_files/284849.got.cif
#   From: 2010.06.25/outbox.cif.g09.slc.cpg/sg2_143_cif.got.tgz:284849.got - 2010.06.27 13:26:56.
