data_PCOD8041817
_publ_section_title
;
Structure prediction by ZEFSAII (Michael W. Deem and Ramdas Pophale) SiO2 
 PCOD8041817
Probable space group: P -1
;
_chemical_formula_sum "Si O2"
_cell_formula_units_Z 16
_cell_length_a 12.471594
_cell_length_b 6.563313
_cell_length_c 11.002423
_cell_angle_alpha 104.344342
_cell_angle_beta 102.147697
_cell_angle_gamma 103.423008
_cell_volume 813.661633
_symmetry_space_group_name_H-M "P -1"
_symmetry_group_IT_number 2
_symmetry_cell_setting 'triclinic'
loop_
_space_group_symop_operation_xyz
x,y,z
-x,-y,-z
loop_
_atom_site_type_symbol
_atom_site_label
_atom_site_fract_x
_atom_site_fract_y
_atom_site_fract_z
Si Si1 0.672506 0.463375 0.993524
Si Si2 0.418985 0.211197 0.826356
Si Si3 0.971151 0.168463 0.884436
Si Si4 0.871175 0.558360 0.862685
Si Si5 0.905329 0.016592 0.295482
Si Si6 0.849929 0.767123 0.662086
Si Si7 0.726924 0.249370 0.209510
Si Si8 0.734964 0.705701 0.386823
O O1 0.553594 0.314908 0.886230
O O2 0.760564 0.532722 0.915367
O O3 0.654343 0.678516 0.085312
O O4 0.716339 0.314786 0.077269
O O5 0.382035 0.256379 0.686652
O O6 0.385426 0.951308 0.809091
O O7 0.926338 0.366244 0.862776
O O8 0.079724 0.166209 0.823964
O O9 0.862740 0.952236 0.799610
O O10 0.025968 0.214797 0.040855
O O11 0.834749 0.552673 0.711173
O O12 0.841709 0.890150 0.378991
O O13 0.839025 0.171703 0.240382
O O14 0.033021 0.177662 0.382742
O O15 0.744309 0.742681 0.540885
O O16 0.736577 0.457278 0.328957
#
# Coordination Sequence:
#
# PCOD8041817 Si02
#       8
#     2   2   2   2   2   2   2   2
#     4  10  21  36  60  84 109 137 179 229 276 319
#     4   9  20  39  59  84 107 134 180 236 275 310
#     4   9  22  35  51  76 116 144 178 221 261 321
#     4  11  21  35  54  79 112 147 180 214 270 330
#     4   9  21  34  54  80 112 143 180 222 265 312
#     4  10  23  35  53  79 116 151 177 214 269 321
#     4  10  19  33  60  82 107 139 179 229 275 317
#     4  10  20  37  56  81 109 145 184 226 262 319
#
# _framework density 19.664194999999999
#
# number of rings (size 3 to 8) (size 9 to 14) (size 15 to 20)
#    0.750    1.500    0.000    3.375    5.250    3.500 
#    0.000    0.625    0.000    1.500    0.000    0.000 
#    0.000    0.000    0.000    0.000    0.000    0.000 
#
# Total GULP energy -198229.404441 kJ/mol
# GULP energy per Si atom -12389.337778 kJ/mol
# Density = 1.961944 g / cm^3
# Si number density = 19.664195 Si / 1000 Ang^3
#
#
#
# Elastic Constant Matrix: (Units=GPa)
#
#
# Indices 1 2 3 4 5 6 
#
# 1 39.2087 37.7183 22.3408 1.1321 6.6482 -4.7988
# 2 37.7183 74.1739 35.7329 -4.4055 8.5349 4.9579
# 3 22.3408 35.7329 135.0081 -17.7547 19.2838 4.7443
# 4 1.1321 -4.4055 -17.7547 21.5750 -0.7139 1.1277
# 5 6.6482 8.5349 19.2838 -0.7139 19.4969 1.3372
# 6 -4.7988 4.9579 4.7443 1.1277 1.3372 17.1155
#
#
#
# Elastic Compliance Matrix: (Units=1/GPa)
#
#
# Indices 1 2 3 4 5 6 
#
# 1 0.065338 -0.033469 -0.004194 -0.015521 -0.006152 0.030680
# 2 -0.033469 0.032954 -0.001420 0.008314 0.000005 -0.019085
# 3 -0.004194 -0.001420 0.010944 0.008860 -0.008191 -0.003742
# 4 -0.015521 0.008314 0.008860 0.056676 -0.004169 -0.012625
# 5 -0.006152 0.000005 -0.008191 -0.004169 0.061609 -0.003995
# 6 0.030680 -0.019085 -0.003742 -0.012625 -0.003995 0.074738
#
#
# Mechanical properties :
#
#
# Convention : Reuss Voigt Hill
#
# Bulk Modulus (GPa) = 32.18708 48.88609 40.53658
# Shear Modulus (GPa) = 12.79488 21.81073 17.30280
#
# Velocity S-wave (km/s) = 2.55359 3.33402 2.96955
# Velocity P-wave (km/s) = 5.00982 6.30360 5.69358
#
# Compressibility (1/GPa) = 0.03106837
#
# Stress axis : x y z
#
# Youngs Moduli (GPa) = 15.30513 30.34489 91.37768
#
# Poissons Ratio (x) = 1.01562 0.38325
# Poissons Ratio (y) = 0.51225 0.12979
# Poissons Ratio (z) = 0.06419 0.04310
#
# Static dielectric constant tensor:
#      x y z
#    x 3.302990 0.031700 0.189920 
#    y 0.031700 3.725410 -0.040780 
#    z 0.189920 -0.040780 3.588000 
# 
# 
# High freq. dielectric constant tensor:
#      x y z
#    x 1.732630 -0.003830 0.023020 
#    y -0.003830 1.777820 -0.007430 
#    z 0.023020 -0.007430 1.761600 
# 
# From -- ./inp_files/440533.got.cif
#   From: 2010.06.25/outbox.cif.g09.slc.cpg/sg2_221_cif.got.tgz:440533.got - 2010.06.27 13:26:56.
