data_PCOD8041842
_publ_section_title
;
Structure prediction by ZEFSAII (Michael W. Deem and Ramdas Pophale) SiO2 
 PCOD8041842
Probable space group: P -1
;
_chemical_formula_sum "Si O2"
_cell_formula_units_Z 16
_cell_length_a 11.862078
_cell_length_b 8.840694
_cell_length_c 19.626682
_cell_angle_alpha 134.524787
_cell_angle_beta 37.237772
_cell_angle_gamma 113.530448
_cell_volume 825.439178
_symmetry_space_group_name_H-M "P -1"
_symmetry_group_IT_number 2
_symmetry_cell_setting 'triclinic'
loop_
_space_group_symop_operation_xyz
x,y,z
-x,-y,-z
loop_
_atom_site_type_symbol
_atom_site_label
_atom_site_fract_x
_atom_site_fract_y
_atom_site_fract_z
Si Si1 0.325082 0.017530 0.937995
Si Si2 0.184498 0.406834 0.597910
Si Si3 0.221863 0.545522 0.150024
Si Si4 0.504294 0.433548 0.862074
Si Si5 0.093131 0.902995 0.787716
Si Si6 0.580378 0.997241 0.266955
Si Si7 0.328718 0.348652 0.264702
Si Si8 0.922040 0.354742 0.408994
O O1 0.523063 0.867242 0.835017
O O2 0.355384 0.962298 0.826491
O O3 0.286980 0.279570 0.055382
O O4 0.134912 0.958200 0.035182
O O5 0.177297 0.653803 0.706368
O O6 0.128613 0.430565 0.551386
O O7 0.018416 0.335017 0.694754
O O8 0.398909 0.218078 0.450313
O O9 0.319171 0.659816 0.195864
O O10 0.298941 0.573472 0.046143
O O11 0.484143 0.219329 0.765431
O O12 0.547727 0.594469 0.837027
O O13 0.100555 0.859595 0.688315
O O14 0.231598 0.042906 0.785815
O O15 0.232954 0.568873 0.429569
O O16 0.150558 0.278250 0.299397
#
# Coordination Sequence:
#
# PCOD8041842 Si02
#       8
#     2   2   2   2   2   2   2   2
#     4  10  19  33  61  79 103 141 186 221 263 307
#     4   9  17  35  55  79 102 139 179 225 256 301
#     4   9  19  37  51  80 110 138 179 225 262 314
#     4  10  21  34  52  78 116 140 170 220 271 324
#     4   9  19  35  53  83 105 136 188 228 246 309
#     4  11  20  34  56  81 106 147 178 215 267 317
#     4  11  19  37  56  84 107 140 173 225 273 314
#     4   9  20  34  57  79 112 132 180 227 257 310
#
# _framework density 19.383620000000001
#
# number of rings (size 3 to 8) (size 9 to 14) (size 15 to 20)
#    0.750    1.500    2.500    0.750    0.000    2.500 
#    0.000    3.750    0.000    0.000    0.000    0.000 
#    0.000    0.000    0.000    0.000    0.000    0.000 
#
# Total GULP energy -198336.013715 kJ/mol
# GULP energy per Si atom -12396.000857 kJ/mol
# Density = 1.933950 g / cm^3
# Si number density = 19.383620 Si / 1000 Ang^3
#
#
#
# Elastic Constant Matrix: (Units=GPa)
#
#
# Indices 1 2 3 4 5 6 
#
# 1 97.5797 34.0745 41.5156 -1.6960 -7.6301 13.6230
# 2 34.0745 34.4614 23.4618 -6.1110 2.7054 13.1116
# 3 41.5156 23.4618 97.3670 -15.3569 -6.7980 6.1503
# 4 -1.6960 -6.1110 -15.3569 21.6374 -3.5524 1.5606
# 5 -7.6301 2.7054 -6.7980 -3.5524 31.3629 -6.1541
# 6 13.6230 13.1116 6.1503 1.5606 -6.1541 30.6334
#
#
#
# Elastic Compliance Matrix: (Units=1/GPa)
#
#
# Indices 1 2 3 4 5 6 
#
# 1 0.017987 -0.016659 -0.004320 -0.005714 0.004462 0.001186
# 2 -0.016659 0.059741 -0.005146 0.011240 -0.013036 -0.020320
# 3 -0.004320 -0.005146 0.015028 0.009428 0.003999 0.001430
# 4 -0.005714 0.011240 0.009428 0.056882 0.004936 -0.006069
# 5 0.004462 -0.013036 0.003999 0.004936 0.037497 0.010074
# 6 0.001186 -0.020320 0.001430 -0.006069 0.010074 0.042860
#
#
# Mechanical properties :
#
#
# Convention : Reuss Voigt Hill
#
# Bulk Modulus (GPa) = 24.68732 47.50131 36.09431
# Shear Modulus (GPa) = 16.90625 25.41714 21.16170
#
# Velocity S-wave (km/s) = 2.95649 3.62507 3.30772
# Velocity P-wave (km/s) = 4.94149 6.48696 5.76624
#
# Compressibility (1/GPa) = 0.04050663
#
# Stress axis : x y z
#
# Youngs Moduli (GPa) = 55.59483 16.73880 66.54180
#
# Poissons Ratio (x) = 0.27886 0.28745
# Poissons Ratio (y) = 0.92617 0.34243
# Poissons Ratio (z) = 0.24016 0.08614
#
# Static dielectric constant tensor:
#      x y z
#    x 3.380190 0.133020 0.124200 
#    y 0.133020 3.115870 -0.219050 
#    z 0.124200 -0.219050 3.687010 
# 
# 
# High freq. dielectric constant tensor:
#      x y z
#    x 1.743380 0.016420 0.006270 
#    y 0.016420 1.710040 -0.016000 
#    z 0.006270 -0.016000 1.767660 
# 
# From -- ./inp_files/594170.got.cif
#   From: 2010.06.25/outbox.cif.g09.slc.cpg/sg2_298_cif.got.tgz:594170.got - 2010.06.27 13:26:56.
