data_PCOD8041945
_publ_section_title
;
Structure prediction by ZEFSAII (Michael W. Deem and Ramdas Pophale) SiO2 
 PCOD8041945
Probable space group: P -1
;
_chemical_formula_sum "Si O2"
_cell_formula_units_Z 12
_cell_length_a 18.037464
_cell_length_b 7.556646
_cell_length_c 8.885533
_cell_angle_alpha 54.160928
_cell_angle_beta 31.848327
_cell_angle_gamma 53.835426
_cell_volume 505.752733
_symmetry_space_group_name_H-M "P -1"
_symmetry_group_IT_number 2
_symmetry_cell_setting 'triclinic'
loop_
_space_group_symop_operation_xyz
x,y,z
-x,-y,-z
loop_
_atom_site_type_symbol
_atom_site_label
_atom_site_fract_x
_atom_site_fract_y
_atom_site_fract_z
Si Si1 0.486216 0.144294 0.638310
Si Si2 0.151951 0.613942 0.872061
Si Si3 0.336249 0.514845 0.897631
Si Si4 0.075771 0.632137 0.494867
Si Si5 0.273488 0.173722 0.737301
Si Si6 0.972204 0.052659 0.309764
O O1 0.426171 0.258792 0.843309
O O2 0.555523 0.323811 0.333452
O O3 0.352887 0.092784 0.799077
O O4 0.610566 0.915040 0.552836
O O5 0.259640 0.611002 0.824787
O O6 0.218344 0.441871 0.708079
O O7 0.110149 0.860291 0.746503
O O8 0.004753 0.553506 0.214441
O O9 0.226939 0.509207 0.224468
O O10 0.104436 0.794836 0.497485
O O11 0.972938 0.790656 0.469015
O O12 0.140663 0.055980 0.006180
#
# Coordination Sequence:
#
# PCOD8041945 Si02
#       6
#     2   2   2   2   2   2
#     4   9  18  31  55  80 109 149 190 217 264 332
#     4  10  21  35  59  86 113 139 178 234 284 321
#     4  10  19  34  54  86 111 144 185 227 275 323
#     4  10  19  34  56  87 110 143 184 223 278 326
#     4   9  16  33  54  81 104 147 189 216 264 332
#     4  10  20  35  59  86 110 142 182 230 278 326
#
# _framework density 23.727008000000001
#
# number of rings (size 3 to 8) (size 9 to 14) (size 15 to 20)
#    0.000    2.333    1.667    2.500    0.000    0.667 
#    0.000    0.000    0.000   20.000    0.000    0.000 
#    0.000    0.000    0.000    0.000    0.000    0.000 
#
# Total GULP energy -148686.214785 kJ/mol
# GULP energy per Si atom -12390.517899 kJ/mol
# Density = 2.367300 g / cm^3
# Si number density = 23.727008 Si / 1000 Ang^3
#
#
#
# Elastic Constant Matrix: (Units=GPa)
#
#
# Indices 1 2 3 4 5 6 
#
# 1 39.7184 4.1649 9.0486 7.3498 -3.3356 -5.0380
# 2 4.1649 82.6978 58.4208 32.2062 18.2218 -3.1186
# 3 9.0486 58.4208 88.0263 41.2427 6.8134 -12.3720
# 4 7.3498 32.2062 41.2427 51.8413 -4.4373 7.7037
# 5 -3.3356 18.2218 6.8134 -4.4373 19.6709 -1.4165
# 6 -5.0380 -3.1186 -12.3720 7.7037 -1.4165 27.2661
#
#
#
# Elastic Compliance Matrix: (Units=1/GPa)
#
#
# Indices 1 2 3 4 5 6 
#
# 1 0.027184 -0.000626 0.000041 -0.004038 0.004722 0.006356
# 2 -0.000626 0.032806 -0.014700 -0.010774 -0.027938 -0.001441
# 3 0.000041 -0.014700 0.033528 -0.020516 -0.001229 0.019272
# 4 -0.004038 -0.010774 -0.020516 0.048593 0.025658 -0.023684
# 5 0.004722 -0.027938 -0.001229 0.025658 0.083313 -0.005802
# 6 0.006356 -0.001441 0.019272 -0.023684 -0.005802 0.052820
#
#
# Mechanical properties :
#
#
# Convention : Reuss Voigt Hill
#
# Bulk Modulus (GPa) = 15.88651 39.30125 27.59388
# Shear Modulus (GPa) = 15.16083 29.00953 22.08518
#
# Velocity S-wave (km/s) = 2.53053 3.50042 3.05422
# Velocity P-wave (km/s) = 3.90489 5.73909 4.90842
#
# Compressibility (1/GPa) = 0.06294650
#
# Stress axis : x y z
#
# Youngs Moduli (GPa) = 36.78695 30.48230 29.82539
#
# Poissons Ratio (x) = 0.01909 -0.00122
# Poissons Ratio (y) = 0.02304 0.43844
# Poissons Ratio (z) = -0.00150 0.44810
#
# Static dielectric constant tensor:
#      x y z
#    x 3.979250 0.138870 -0.076150 
#    y 0.138870 4.584350 0.523370 
#    z -0.076150 0.523370 4.169260 
# 
# 
# High freq. dielectric constant tensor:
#      x y z
#    x 1.909290 0.018830 -0.017500 
#    y 0.018830 1.944580 0.040960 
#    z -0.017500 0.040960 1.916760 
# 
# From -- ./inp_files/147285.got.cif
#   From: 2010.06.25/outbox.cif.g09.slc.cpg/sg2_74_cif.got.tgz:147285.got - 2010.06.27 13:26:56.
