data_PCOD8041292
_publ_section_title
;
Structure prediction by ZEFSAII (Michael W. Deem and Ramdas Pophale) SiO2 
 PCOD8041292
Probable space group: P -1
;
_chemical_formula_sum "Si O2"
_cell_formula_units_Z 16
_cell_length_a 14.095235
_cell_length_b 9.879361
_cell_length_c 11.010774
_cell_angle_alpha 95.065606
_cell_angle_beta 63.060376
_cell_angle_gamma 43.866387
_cell_volume 701.775263
_symmetry_space_group_name_H-M "P -1"
_symmetry_group_IT_number 2
_symmetry_cell_setting 'triclinic'
loop_
_space_group_symop_operation_xyz
x,y,z
-x,-y,-z
loop_
_atom_site_type_symbol
_atom_site_label
_atom_site_fract_x
_atom_site_fract_y
_atom_site_fract_z
Si Si1 0.568682 0.080901 0.276534
Si Si2 0.140529 0.502022 0.687261
Si Si3 0.075617 0.014131 0.573394
Si Si4 0.655037 0.685748 0.200869
Si Si5 0.556549 0.549883 0.787729
Si Si6 0.872327 0.980195 0.720102
Si Si7 0.601675 0.531991 0.021481
Si Si8 0.772509 0.893402 0.385854
O O1 0.344610 0.316200 0.482364
O O2 0.564517 0.191679 0.178561
O O3 0.727010 0.962538 0.275626
O O4 0.643504 0.851644 0.168274
O O5 0.168078 0.516478 0.813489
O O6 0.952045 0.782496 0.752915
O O7 0.099732 0.385626 0.692382
O O8 0.299313 0.691609 0.408059
O O9 0.089506 0.132283 0.655974
O O10 0.918476 0.086254 0.749148
O O11 0.995074 0.146425 0.494664
O O12 0.704779 0.531142 0.048362
O O13 0.437747 0.881279 0.398992
O O14 0.371598 0.652982 0.956369
O O15 0.681804 0.463205 0.829362
O O16 0.648822 0.179736 0.817634
#
# Coordination Sequence:
#
# PCOD8041292 Si02
#       8
#     2   2   2   2   2   2   2   2
#     4   9  18  31  54  80 103 127 178 220 250 300
#     4   9  18  31  55  80 105 129 168 221 266 297
#     4  10  19  32  52  77 107 134 175 213 253 306
#     4   9  17  34  51  79 104 134 172 216 254 307
#     4  10  19  34  52  76 103 144 174 208 249 309
#     4  10  19  33  50  79 107 135 167 219 260 302
#     4  10  21  35  53  75 109 139 172 210 256 310
#     4   9  17  32  51  82 103 131 171 221 254 303
#
# _framework density 22.799320999999999
#
# number of rings (size 3 to 8) (size 9 to 14) (size 15 to 20)
#    0.000    2.500    3.750    1.500    0.000    2.500 
#    0.000    0.000    0.000   16.500    0.000    0.000 
#    0.000    0.000    0.000    0.000    0.000    0.000 
#
# Total GULP energy -198255.489940 kJ/mol
# GULP energy per Si atom -12390.968121 kJ/mol
# Density = 2.274743 g / cm^3
# Si number density = 22.799321 Si / 1000 Ang^3
#
#
#
# Elastic Constant Matrix: (Units=GPa)
#
#
# Indices 1 2 3 4 5 6 
#
# 1 110.0887 19.5921 19.5357 -9.0891 29.0433 23.9916
# 2 19.5921 142.5881 31.1689 -30.5279 7.0006 8.3170
# 3 19.5357 31.1689 62.5369 -16.6423 6.8119 5.8378
# 4 -9.0891 -30.5279 -16.6423 18.1015 1.5850 -1.1918
# 5 29.0433 7.0006 6.8119 1.5850 34.6674 8.3511
# 6 23.9916 8.3170 5.8378 -1.1918 8.3511 22.2009
#
#
#
# Elastic Compliance Matrix: (Units=1/GPa)
#
#
# Indices 1 2 3 4 5 6 
#
# 1 0.015116 0.001254 -0.000631 0.009213 -0.010254 -0.012287
# 2 0.001254 0.011517 -0.000116 0.020037 -0.003486 -0.003252
# 3 -0.000631 -0.000116 0.022305 0.020193 -0.004153 -0.002493
# 4 0.009213 0.020037 0.020193 0.113214 -0.018569 -0.009709
# 5 -0.010254 -0.003486 -0.004153 -0.018569 0.040465 -0.002739
# 6 -0.012287 -0.003252 -0.002493 -0.009709 -0.002739 0.060704
#
#
# Mechanical properties :
#
#
# Convention : Reuss Voigt Hill
#
# Bulk Modulus (GPa) = 20.02016 50.64523 35.33270
# Shear Modulus (GPa) = 17.92379 31.32175 24.62277
#
# Velocity S-wave (km/s) = 2.80689 3.71050 3.28987
# Velocity P-wave (km/s) = 4.39374 6.37329 5.47374
#
# Compressibility (1/GPa) = 0.04994965
#
# Stress axis : x y z
#
# Youngs Moduli (GPa) = 66.15471 86.82748 44.83391
#
# Poissons Ratio (x) = -0.10884 0.02830
# Poissons Ratio (y) = -0.08293 0.00521
# Poissons Ratio (z) = 0.04176 0.01010
#
# Static dielectric constant tensor:
#      x y z
#    x 4.116840 0.104300 -0.072540 
#    y 0.104300 4.278350 -0.202250 
#    z -0.072540 -0.202250 4.452550 
# 
# 
# High freq. dielectric constant tensor:
#      x y z
#    x 1.892090 0.005710 -0.009580 
#    y 0.005710 1.891530 -0.000160 
#    z -0.009580 -0.000160 1.913370 
# 
# From -- ./inp_files/404705.got.cif
#   From: 2010.06.25/outbox.cif.g09.slc.cpg/sg2_203_cif.got.tgz:404705.got - 2010.06.27 13:26:56.
