data_PCOD8041218
_publ_section_title
;
Structure prediction by ZEFSAII (Michael W. Deem and Ramdas Pophale) SiO2 
 PCOD8041218
Probable space group: P -1
;
_chemical_formula_sum "Si O2"
_cell_formula_units_Z 16
_cell_length_a 9.056621
_cell_length_b 11.700633
_cell_length_c 11.189592
_cell_angle_alpha 130.061384
_cell_angle_beta 66.295892
_cell_angle_gamma 98.400813
_cell_volume 820.145103
_symmetry_space_group_name_H-M "P -1"
_symmetry_group_IT_number 2
_symmetry_cell_setting 'triclinic'
loop_
_space_group_symop_operation_xyz
x,y,z
-x,-y,-z
loop_
_atom_site_type_symbol
_atom_site_label
_atom_site_fract_x
_atom_site_fract_y
_atom_site_fract_z
Si Si1 0.935143 0.831493 0.221114
Si Si2 0.809617 0.790142 0.476426
Si Si3 0.527315 0.670199 0.614649
Si Si4 0.558229 0.843311 0.947406
Si Si5 0.272278 0.854850 0.222458
Si Si6 0.145046 0.812378 0.479487
Si Si7 0.884928 0.838112 0.982794
Si Si8 0.187552 0.812980 0.727494
O O1 0.844236 0.750982 0.299482
O O2 0.879790 0.766017 0.068906
O O3 0.131343 0.799733 0.150895
O O4 0.885374 0.008668 0.378016
O O5 0.674425 0.692047 0.494139
O O6 0.978830 0.746072 0.463827
O O7 0.745435 0.965505 0.638367
O O8 0.500000 0.500000 0.500000
O O9 0.576003 0.705332 0.756521
O O10 0.362353 0.784498 0.714301
O O11 0.440879 0.805662 0.065971
O O12 0.733660 0.834107 0.943537
O O13 0.500000 0.000000 0.000000
O O14 0.270728 0.776757 0.302423
O O15 0.213105 0.743110 0.537951
O O16 0.890593 0.011383 0.131500
O O17 0.047635 0.747280 0.804282
#
# Coordination Sequence:
#
# PCOD8041218 Si02
#       8
#     2   2   2   2   2   2   2   2
#     4   8  16  28  52  85 113 136 172 229 284 319
#     4   9  16  33  53  78 112 146 179 220 272 331
#     4  12  25  38  53  78 115 154 183 219 274 329
#     4  12  21  34  55  80 108 143 186 231 270 313
#     4   9  16  30  55  84 112 134 177 229 281 320
#     4   8  16  29  53  84 109 140 172 229 283 318
#     4  10  19  31  56  87 109 137 181 235 277 315
#     4  10  19  33  54  82 114 142 181 228 273 322
#
# _framework density 19.508742999999999
#
# number of rings (size 3 to 8) (size 9 to 14) (size 15 to 20)
#    0.000    2.250    2.500    3.000    3.500    1.000 
#    0.000    6.250    0.000    9.750    0.000    0.000 
#    0.000    0.000    0.000    0.000    0.000    0.000 
#
# Total GULP energy -198244.644422 kJ/mol
# GULP energy per Si atom -12390.290276 kJ/mol
# Density = 1.946434 g / cm^3
# Si number density = 19.508743 Si / 1000 Ang^3
#
#
#
# Elastic Constant Matrix: (Units=GPa)
#
#
# Indices 1 2 3 4 5 6 
#
# 1 122.8403 46.8249 44.6888 -37.7562 13.3471 3.9409
# 2 46.8249 73.4442 50.3655 -34.2005 6.0514 16.0162
# 3 44.6888 50.3655 73.9414 -39.8509 11.6127 6.1049
# 4 -37.7562 -34.2005 -39.8509 41.2726 2.6198 0.9868
# 5 13.3471 6.0514 11.6127 2.6198 34.5126 -15.1000
# 6 3.9409 16.0162 6.1049 0.9868 -15.1000 29.7996
#
#
#
# Elastic Compliance Matrix: (Units=1/GPa)
#
#
# Indices 1 2 3 4 5 6 
#
# 1 0.013556 -0.000991 0.003210 0.015553 -0.010785 -0.007898
# 2 -0.000991 0.040427 -0.004211 0.030712 -0.022018 -0.032908
# 3 0.003210 -0.004211 0.046657 0.047033 -0.030619 -0.024792
# 4 0.015553 0.030712 0.047033 0.114936 -0.064182 -0.064527
# 5 -0.010785 -0.022018 -0.030619 -0.064182 0.079220 0.061801
# 6 -0.007898 -0.032908 -0.024792 -0.064527 0.061801 0.090820
#
#
# Mechanical properties :
#
#
# Convention : Reuss Voigt Hill
#
# Bulk Modulus (GPa) = 10.34588 61.55382 35.94985
# Shear Modulus (GPa) = 11.85340 29.67341 20.76340
#
# Velocity S-wave (km/s) = 2.46762 3.90427 3.26592
# Velocity P-wave (km/s) = 3.66518 7.20728 5.71745
#
# Compressibility (1/GPa) = 0.09665685
#
# Stress axis : x y z
#
# Youngs Moduli (GPa) = 73.76772 24.73567 21.43298
#
# Poissons Ratio (x) = 0.02450 -0.06880
# Poissons Ratio (y) = 0.07307 0.09026
# Poissons Ratio (z) = -0.23679 0.10417
#
# Static dielectric constant tensor:
#      x y z
#    x 3.610820 -0.122740 0.206220 
#    y -0.122740 3.491120 -0.712070 
#    z 0.206220 -0.712070 3.672120 
# 
# 
# High freq. dielectric constant tensor:
#      x y z
#    x 1.761680 0.000920 0.007990 
#    y 0.000920 1.725510 -0.052050 
#    z 0.007990 -0.052050 1.743250 
# 
# From -- ./inp_files/262670.got.cif
#   From: 2010.06.25/outbox.cif.g09.slc.cpg/sg2_132_cif.got.tgz:262670.got - 2010.06.27 13:26:56.
