data_PCOD8041258
_publ_section_title
;
Structure prediction by ZEFSAII (Michael W. Deem and Ramdas Pophale) SiO2 
 PCOD8041258
Probable space group: P -1
;
_chemical_formula_sum "Si O2"
_cell_formula_units_Z 16
_cell_length_a 16.203289
_cell_length_b 5.142105
_cell_length_c 15.200253
_cell_angle_alpha 90.350128
_cell_angle_beta 38.002107
_cell_angle_gamma 94.266590
_cell_volume 774.743267
_symmetry_space_group_name_H-M "P -1"
_symmetry_group_IT_number 2
_symmetry_cell_setting 'triclinic'
loop_
_space_group_symop_operation_xyz
x,y,z
-x,-y,-z
loop_
_atom_site_type_symbol
_atom_site_label
_atom_site_fract_x
_atom_site_fract_y
_atom_site_fract_z
Si Si1 0.869951 0.426544 0.794804
Si Si2 0.903865 0.948408 0.998509
Si Si3 0.249666 0.593252 0.914227
Si Si4 0.438913 0.282243 0.986748
Si Si5 0.976114 0.029204 0.292146
Si Si6 0.701346 0.044087 0.604989
Si Si7 0.286773 0.880080 0.215622
Si Si8 0.480092 0.499241 0.255478
O O1 0.945743 0.715388 0.728096
O O2 0.771559 0.378134 0.790989
O O3 0.979610 0.220813 0.694194
O O4 0.783083 0.375050 0.955398
O O5 0.994415 0.994388 0.835589
O O6 0.837061 0.651481 0.058197
O O7 0.787432 0.143111 0.100968
O O8 0.000000 0.000000 0.000000
O O9 0.408988 0.560575 0.764582
O O10 0.558911 0.098752 0.876949
O O11 0.417363 0.407443 0.910614
O O12 0.500000 0.500000 0.000000
O O13 0.296393 0.126739 0.139634
O O14 0.815889 0.030640 0.435576
O O15 0.614313 0.764163 0.686324
O O16 0.783702 0.100705 0.629741
O O17 0.611934 0.269248 0.646422
#
# Coordination Sequence:
#
# PCOD8041258 Si02
#       8
#     2   2   2   2   2   2   2   2
#     4  10  22  35  57  80 114 150 195 246 279 318
#     4  10  21  40  66  90 112 141 180 237 292 346
#     4  10  21  36  60  93 114 138 188 237 292 328
#     4  10  19  32  49  76 115 149 198 242 283 315
#     4  10  23  40  57  82 113 155 190 231 286 352
#     4  11  23  38  54  80 118 163 198 223 283 337
#     4  10  22  31  50  80 111 158 197 241 278 321
#     4  11  22  35  59  82 117 154 190 243 276 334
#
# _framework density 20.652002
#
# number of rings (size 3 to 8) (size 9 to 14) (size 15 to 20)
#    0.000    1.750    1.250    2.625   10.500    1.000 
#    0.000    0.000    0.000    4.500    0.000    0.000 
#    0.000    0.000    0.000    0.000    0.000    0.000 
#
# Total GULP energy -198265.381358 kJ/mol
# GULP energy per Si atom -12391.586335 kJ/mol
# Density = 2.060500 g / cm^3
# Si number density = 20.652002 Si / 1000 Ang^3
#
#
#
# Elastic Constant Matrix: (Units=GPa)
#
#
# Indices 1 2 3 4 5 6 
#
# 1 101.8615 42.0391 42.7473 7.3456 -16.7292 6.6783
# 2 42.0391 124.9824 32.5297 9.4441 -5.5489 -7.4417
# 3 42.7473 32.5297 55.7563 5.6185 -10.5367 -5.1593
# 4 7.3456 9.4441 5.6185 21.7598 -8.3252 -7.0928
# 5 -16.7292 -5.5489 -10.5367 -8.3252 18.9718 8.6214
# 6 6.6783 -7.4417 -5.1593 -7.0928 8.6214 33.0975
#
#
#
# Elastic Compliance Matrix: (Units=1/GPa)
#
#
# Indices 1 2 3 4 5 6 
#
# 1 0.018608 -0.003499 -0.010486 0.000132 0.014080 -0.009815
# 2 -0.003499 0.010342 -0.003669 -0.003245 -0.004905 0.003042
# 3 -0.010486 -0.003669 0.029256 0.000724 0.003989 0.004967
# 4 0.000132 -0.003245 0.000724 0.057527 0.022122 0.005922
# 5 0.014080 -0.004905 0.003989 0.022122 0.085035 -0.020732
# 6 -0.009815 0.003042 0.004967 0.005922 -0.020732 0.040322
#
#
# Mechanical properties :
#
#
# Convention : Reuss Voigt Hill
#
# Bulk Modulus (GPa) = 43.67376 57.47028 50.57202
# Shear Modulus (GPa) = 17.60369 25.78475 21.69422
#
# Velocity S-wave (km/s) = 2.92275 3.53729 3.24460
# Velocity P-wave (km/s) = 5.70818 6.67620 6.21108
#
# Compressibility (1/GPa) = 0.02289704
#
# Stress axis : x y z
#
# Youngs Moduli (GPa) = 53.73939 96.69615 34.18118
#
# Poissons Ratio (x) = 0.33836 0.35842
# Poissons Ratio (y) = 0.18804 0.12542
# Poissons Ratio (z) = 0.56351 0.35481
#
# Static dielectric constant tensor:
#      x y z
#    x 4.055380 -0.374870 -0.527090 
#    y -0.374870 4.023270 0.138660 
#    z -0.527090 0.138660 3.992250 
# 
# 
# High freq. dielectric constant tensor:
#      x y z
#    x 1.787830 -0.011050 -0.023100 
#    y -0.011050 1.832120 0.003440 
#    z -0.023100 0.003440 1.776840 
# 
# From -- ./inp_files/367847.got.cif
#   From: 2010.06.25/outbox.cif.g09.slc.cpg/sg2_184_cif.got.tgz:367847.got - 2010.06.27 13:26:56.
