data_PCOD8041911
_publ_section_title
;
Structure prediction by ZEFSAII (Michael W. Deem and Ramdas Pophale) SiO2 
 PCOD8041911
Probable space group: P -1
;
_chemical_formula_sum "Si O2"
_cell_formula_units_Z 16
_cell_length_a 11.780696
_cell_length_b 23.304358
_cell_length_c 11.049481
_cell_angle_alpha 35.451358
_cell_angle_beta 25.921537
_cell_angle_gamma 44.875947
_cell_volume 765.684498
_symmetry_space_group_name_H-M "P -1"
_symmetry_group_IT_number 2
_symmetry_cell_setting 'triclinic'
loop_
_space_group_symop_operation_xyz
x,y,z
-x,-y,-z
loop_
_atom_site_type_symbol
_atom_site_label
_atom_site_fract_x
_atom_site_fract_y
_atom_site_fract_z
Si Si1 0.142886 0.384791 0.827232
Si Si2 0.418640 0.346370 0.857559
Si Si3 0.886207 0.060638 0.705977
Si Si4 0.033603 0.188014 0.134959
Si Si5 0.670551 0.482426 0.196364
Si Si6 0.632054 0.139411 0.035489
Si Si7 0.522403 0.889067 0.302196
Si Si8 0.731626 0.054310 0.325350
O O1 0.186523 0.330154 0.008242
O O2 0.413397 0.448418 0.420333
O O3 0.051867 0.303414 0.953953
O O4 0.924805 0.461785 0.913154
O O5 0.656949 0.417981 0.445705
O O6 0.317971 0.401208 0.979167
O O7 0.515587 0.243597 0.982313
O O8 0.086144 0.119739 0.319241
O O9 0.806009 0.138612 0.749208
O O10 0.014473 0.967367 0.803690
O O11 0.630721 0.005895 0.975302
O O12 0.739105 0.150266 0.448340
O O13 0.248486 0.177726 0.843344
O O14 0.805577 0.119168 0.022791
O O15 0.395815 0.054083 0.404253
O O16 0.459107 0.883999 0.515783
#
# Coordination Sequence:
#
# PCOD8041911 Si02
#       8
#     2   2   2   2   2   2   2   2
#     4  10  19  34  53  84 116 141 175 225 289 347
#     4   9  19  32  55  83 117 145 181 225 291 345
#     4  11  22  36  58  80 121 145 199 236 289 323
#     4  12  23  34  60  85 112 152 192 230 291 335
#     4   9  19  33  55  82 123 138 173 231 293 349
#     4  10  21  37  58  85 113 159 190 236 274 344
#     4  11  24  38  55  81 114 154 194 239 272 333
#     4  10  22  39  55  81 118 158 198 231 274 326
#
# _framework density 20.896334
#
# number of rings (size 3 to 8) (size 9 to 14) (size 15 to 20)
#    0.750    1.000    1.250    3.750    5.250    0.000 
#    0.000    0.000    0.000    0.000    0.000    5.250 
#    0.000    0.000    0.000    0.000    0.000    0.000 
#
# Total GULP energy -198254.612296 kJ/mol
# GULP energy per Si atom -12390.913268 kJ/mol
# Density = 2.084877 g / cm^3
# Si number density = 20.896334 Si / 1000 Ang^3
#
#
#
# Elastic Constant Matrix: (Units=GPa)
#
#
# Indices 1 2 3 4 5 6 
#
# 1 62.4223 42.1997 27.0446 -7.1072 -15.1987 10.3204
# 2 42.1997 157.0517 35.4288 -1.0921 -9.5739 19.0207
# 3 27.0446 35.4288 41.2298 5.1392 -12.7005 1.9929
# 4 -7.1072 -1.0921 5.1392 29.3035 -3.9321 -9.4341
# 5 -15.1987 -9.5739 -12.7005 -3.9321 21.2850 1.5508
# 6 10.3204 19.0207 1.9929 -9.4341 1.5508 31.9018
#
#
#
# Elastic Compliance Matrix: (Units=1/GPa)
#
#
# Indices 1 2 3 4 5 6 
#
# 1 0.029080 -0.003487 -0.012875 0.009608 0.013606 -0.004344
# 2 -0.003487 0.008952 -0.005598 -0.001078 -0.001704 -0.004095
# 3 -0.012875 -0.005598 0.042095 -0.008576 0.011693 0.001769
# 4 0.009608 -0.001078 -0.008576 0.042315 0.008335 0.010178
# 5 0.013606 -0.001704 0.011693 0.008335 0.064797 -0.004801
# 6 -0.004344 -0.004095 0.001769 0.010178 -0.004801 0.038326
#
#
# Mechanical properties :
#
#
# Convention : Reuss Voigt Hill
#
# Bulk Modulus (GPa) = 27.61865 52.22779 39.92322
# Shear Modulus (GPa) = 17.75855 26.90012 22.32934
#
# Velocity S-wave (km/s) = 2.91837 3.59181 3.27246
# Velocity P-wave (km/s) = 4.95999 6.49996 5.78148
#
# Compressibility (1/GPa) = 0.03620742
#
# Stress axis : x y z
#
# Youngs Moduli (GPa) = 34.38732 111.71149 23.75558
#
# Poissons Ratio (x) = 0.38954 0.30586
# Poissons Ratio (y) = 0.11991 0.13297
# Poissons Ratio (z) = 0.44275 0.62531
#
# Static dielectric constant tensor:
#      x y z
#    x 3.791770 0.241540 -0.219810 
#    y 0.241540 3.669190 0.148830 
#    z -0.219810 0.148830 3.464270 
# 
# 
# High freq. dielectric constant tensor:
#      x y z
#    x 1.796140 0.022950 -0.034380 
#    y 0.022950 1.820410 0.016760 
#    z -0.034380 0.016760 1.785960 
# 
# From -- ./inp_files/439205.got.cif
#   From: 2010.06.25/outbox.cif.g09.slc.cpg/sg2_220_cif.got.tgz:439205.got - 2010.06.27 13:26:56.
