data_PCOD8041183
_publ_section_title
;
Structure prediction by ZEFSAII (Michael W. Deem and Ramdas Pophale) SiO2 
 PCOD8041183
Probable space group: P -1
;
_chemical_formula_sum "Si O2"
_cell_formula_units_Z 16
_cell_length_a 16.863459
_cell_length_b 8.560375
_cell_length_c 9.096677
_cell_angle_alpha 62.900901
_cell_angle_beta 49.076075
_cell_angle_gamma 60.030044
_cell_volume 842.863355
_symmetry_space_group_name_H-M "P -1"
_symmetry_group_IT_number 2
_symmetry_cell_setting 'triclinic'
loop_
_space_group_symop_operation_xyz
x,y,z
-x,-y,-z
loop_
_atom_site_type_symbol
_atom_site_label
_atom_site_fract_x
_atom_site_fract_y
_atom_site_fract_z
Si Si1 0.499999 0.645711 0.318117
Si Si2 0.739500 0.235686 0.447957
Si Si3 0.879342 0.136964 0.599442
Si Si4 0.712013 0.863524 0.630467
Si Si5 0.260502 0.475180 0.926961
Si Si6 0.120658 0.516303 0.358132
Si Si7 0.712010 0.924471 0.945501
Si Si8 0.500001 0.988152 0.679296
O O1 0.500000 0.500000 0.500000
O O2 0.382868 0.688505 0.356251
O O3 0.617130 0.571376 0.121987
O O4 0.499998 0.821931 0.333436
O O5 0.833411 0.215532 0.462758
O O6 0.755967 0.372021 0.244030
O O7 0.751176 0.034710 0.448198
O O8 0.879188 0.310409 0.620807
O O9 0.000000 0.000000 0.500000
O O10 0.806999 0.019561 0.810069
O O11 0.807003 0.673445 0.575923
O O12 0.609304 0.838187 0.672514
O O13 0.679622 0.910194 0.820373
O O14 0.248826 0.285879 0.950558
O O15 0.166591 0.548942 0.129584
O O16 0.000000 0.500000 0.500000
O O17 0.609300 0.052513 0.108875
O O18 0.500000 0.000000 0.500000
#
# Coordination Sequence:
#
# PCOD8041183 Si02
#       8
#     2   2   2   2   2   2   2   2
#     4   8  16  31  53  80 115 145 172 215 270 319
#     4   9  18  36  60  85 111 146 183 221 270 326
#     4  11  23  40  58  79 108 144 186 232 278 327
#     4   9  19  36  56  79 114 152 181 219 274 328
#     4   9  18  36  60  85 111 146 183 221 270 326
#     4  11  23  40  58  79 108 144 186 232 278 327
#     4   9  19  36  56  79 114 152 181 219 274 328
#     4  10  19  31  53  86 117 145 181 223 265 319
#
# _framework density 18.98291
#
# number of rings (size 3 to 8) (size 9 to 14) (size 15 to 20)
#    0.000    2.500    0.000    2.625    0.000    9.000 
#    0.000    7.500    0.000    0.000    0.000    0.000 
#    0.000    0.000    0.000    0.000    0.000    0.000 
#
# Total GULP energy -198216.636407 kJ/mol
# GULP energy per Si atom -12388.539775 kJ/mol
# Density = 1.893970 g / cm^3
# Si number density = 18.982910 Si / 1000 Ang^3
#
#
#
# Elastic Constant Matrix: (Units=GPa)
#
#
# Indices 1 2 3 4 5 6 
#
# 1 136.8804 61.5063 77.7775 11.3638 -22.1941 -15.5580
# 2 61.5063 125.8671 64.2702 -10.4207 -12.4586 -15.2236
# 3 77.7775 64.2702 120.8813 0.1801 -21.8534 -11.2161
# 4 11.3638 -10.4207 0.1801 39.4538 -1.1071 -4.0157
# 5 -22.1941 -12.4586 -21.8534 -1.1071 28.6041 1.5552
# 6 -15.5580 -15.2236 -11.2161 -4.0157 1.5552 30.2867
#
#
#
# Elastic Compliance Matrix: (Units=1/GPa)
#
#
# Indices 1 2 3 4 5 6 
#
# 1 0.013426 -0.003177 -0.005975 -0.004328 0.004176 0.002299
# 2 -0.003177 0.012499 -0.004331 0.004600 -0.000351 0.003675
# 3 -0.005975 -0.004331 0.015393 0.000682 0.005249 0.000275
# 4 -0.004328 0.004600 0.000682 0.028221 0.000037 0.004082
# 5 0.004176 -0.000351 0.005249 0.000037 0.041964 0.001763
# 6 0.002299 0.003675 0.000275 0.004082 0.001763 0.036599
#
#
# Mechanical properties :
#
#
# Convention : Reuss Voigt Hill
#
# Bulk Modulus (GPa) = 69.67016 87.85965 78.76491
# Shear Modulus (GPa) = 27.80086 31.67390 29.73738
#
# Velocity S-wave (km/s) = 3.83106 4.08922 3.96224
# Velocity P-wave (km/s) = 7.50670 8.28732 7.90665
#
# Compressibility (1/GPa) = 0.01435335
#
# Stress axis : x y z
#
# Youngs Moduli (GPa) = 74.48415 80.00436 64.96446
#
# Poissons Ratio (x) = 0.25415 0.38813
# Poissons Ratio (y) = 0.23661 0.28137
# Poissons Ratio (z) = 0.44501 0.34650
#
# Static dielectric constant tensor:
#      x y z
#    x 3.579580 -0.203360 -0.374810 
#    y -0.203360 3.775310 -0.150560 
#    z -0.374810 -0.150560 3.558360 
# 
# 
# High freq. dielectric constant tensor:
#      x y z
#    x 1.724510 -0.012320 -0.023520 
#    y -0.012320 1.748910 -0.016930 
#    z -0.023520 -0.016930 1.727850 
# 
# From -- ./inp_files/327415.got.cif
#   From: 2010.06.25/outbox.cif.g09.slc.cpg/sg2_164_cif.got.tgz:327415.got - 2010.06.27 13:26:56.
