data_PCOD8041177
_publ_section_title
;
Structure prediction by ZEFSAII (Michael W. Deem and Ramdas Pophale) SiO2 
 PCOD8041177
Probable space group: P -1
;
_chemical_formula_sum "Si O2"
_cell_formula_units_Z 16
_cell_length_a 9.188450
_cell_length_b 10.880996
_cell_length_c 13.533199
_cell_angle_alpha 102.639657
_cell_angle_beta 82.065834
_cell_angle_gamma 40.663995
_cell_volume 755.589737
_symmetry_space_group_name_H-M "P -1"
_symmetry_group_IT_number 2
_symmetry_cell_setting 'triclinic'
loop_
_space_group_symop_operation_xyz
x,y,z
-x,-y,-z
loop_
_atom_site_type_symbol
_atom_site_label
_atom_site_fract_x
_atom_site_fract_y
_atom_site_fract_z
Si Si1 0.262830 0.980438 0.477605
Si Si2 0.180661 0.223242 0.362024
Si Si3 0.809359 0.220336 0.666800
Si Si4 0.908263 0.926284 0.024864
Si Si5 0.441206 0.460804 0.902954
Si Si6 0.190388 0.875069 0.740228
Si Si7 0.761954 0.000113 0.849429
Si Si8 0.359342 0.349927 0.448668
O O1 0.285249 0.827073 0.400792
O O2 0.469556 0.842753 0.520726
O O3 0.322906 0.045258 0.403207
O O4 0.969932 0.208442 0.584308
O O5 0.256170 0.316100 0.376487
O O6 0.876339 0.416838 0.435785
O O7 0.263525 0.111858 0.227688
O O8 0.565231 0.443124 0.790632
O O9 0.013253 0.032867 0.693962
O O10 0.795018 0.020536 0.162249
O O11 0.138822 0.664282 0.956557
O O12 0.707881 0.018816 0.975670
O O13 0.000000 0.000000 0.000000
O O14 0.561751 0.238212 0.863384
O O15 0.500000 0.500000 0.000000
O O16 0.476643 0.661253 0.631613
O O17 0.058769 0.840736 0.789158
#
# Coordination Sequence:
#
# PCOD8041177 Si02
#       8
#     2   2   2   2   2   2   2   2
#     4  10  19  37  54  78 112 141 177 224 271 317
#     4  11  22  40  54  80 109 143 189 218 269 324
#     4   9  18  31  54  87 109 135 178 223 269 317
#     4  10  19  31  53  81 108 141 175 213 276 320
#     4  11  17  32  52  79 116 137 165 225 268 313
#     4   9  17  37  52  81 112 134 176 227 267 312
#     4  10  21  34  55  82 107 139 181 222 264 319
#     4  10  24  37  57  77 108 150 179 224 270 322
#
# _framework density 21.175511
#
# number of rings (size 3 to 8) (size 9 to 14) (size 15 to 20)
#    0.000    2.000    6.250    0.375    1.750    2.500 
#    0.000    0.625    0.000    0.750    0.000    0.000 
#    0.000    0.000    0.000    0.000    0.000    0.000 
#
# Total GULP energy -198222.401697 kJ/mol
# GULP energy per Si atom -12388.900106 kJ/mol
# Density = 2.112731 g / cm^3
# Si number density = 21.175511 Si / 1000 Ang^3
#
#
#
# Elastic Constant Matrix: (Units=GPa)
#
#
# Indices 1 2 3 4 5 6 
#
# 1 34.3536 0.7638 9.4156 -3.6625 14.0581 -3.2427
# 2 0.7638 50.1193 8.4095 8.9497 4.5962 -14.3838
# 3 9.4156 8.4095 91.3522 0.7188 23.7684 -15.2915
# 4 -3.6625 8.9497 0.7188 28.4777 -5.1568 7.6091
# 5 14.0581 4.5962 23.7684 -5.1568 32.0290 2.4723
# 6 -3.2427 -14.3838 -15.2915 7.6091 2.4723 13.1920
#
#
#
# Elastic Compliance Matrix: (Units=1/GPa)
#
#
# Indices 1 2 3 4 5 6 
#
# 1 0.002111 -0.077927 -0.050556 0.097854 0.080086 -0.214502
# 2 -0.077927 -0.162187 -0.120352 0.218302 0.220747 -0.502787
# 3 -0.050556 -0.120352 -0.063656 0.144543 0.135146 -0.326140
# 4 0.097854 0.218302 0.144543 -0.237824 -0.267451 0.616925
# 5 0.080086 0.220747 0.135146 -0.267451 -0.226330 0.613713
# 6 -0.214502 -0.502787 -0.326140 0.616925 0.613713 -1.374036
#
#
# Mechanical properties :
#
#
# Convention : Reuss Voigt Hill
#
# Bulk Modulus (GPa) = -1.38619 23.66700 11.14041
# Shear Modulus (GPa) = -2.77051 25.22214 11.22582
#
# Velocity S-wave (km/s) = -1.14508 3.45498 2.30496
# Velocity P-wave (km/s) = 1.55058 5.20737 3.51514
#
# Compressibility (1/GPa) = -0.72140441
#
# Stress axis : x y z
#
# Youngs Moduli (GPa) = 473.78129 -6.16573 -15.70935
#
# Poissons Ratio (x) = -0.48048 -0.79421
# Poissons Ratio (y) = 36.92045 -1.89066
# Poissons Ratio (z) = 23.95272 -0.74206
#
# Static dielectric constant tensor:
#      x y z
#    x 3.441300 -0.264040 -0.120100 
#    y -0.264040 4.091410 -0.103600 
#    z -0.120100 -0.103600 4.613560 
# 
# 
# High freq. dielectric constant tensor:
#      x y z
#    x 1.775130 -0.019760 0.014660 
#    y -0.019760 1.824640 -0.012910 
#    z 0.014660 -0.012910 1.848010 
# 
# From -- ./inp_files/314132.got.cif
#   From: 2010.06.25/outbox.cif.g09.slc.cpg/sg2_158_cif.got.tgz:314132.got - 2010.06.27 13:26:56.
