data_PCOD8041713
_publ_section_title
;
Structure prediction by ZEFSAII (Michael W. Deem and Ramdas Pophale) SiO2 
 PCOD8041713
Probable space group: P -1
;
_chemical_formula_sum "Si O2"
_cell_formula_units_Z 16
_cell_length_a 11.247586
_cell_length_b 20.454432
_cell_length_c 15.063248
_cell_angle_alpha 28.839668
_cell_angle_beta 127.639319
_cell_angle_gamma 146.573056
_cell_volume 820.915754
_symmetry_space_group_name_H-M "P -1"
_symmetry_group_IT_number 2
_symmetry_cell_setting 'triclinic'
loop_
_space_group_symop_operation_xyz
x,y,z
-x,-y,-z
loop_
_atom_site_type_symbol
_atom_site_label
_atom_site_fract_x
_atom_site_fract_y
_atom_site_fract_z
Si Si1 0.727069 0.027093 0.591242
Si Si2 0.262271 0.747597 0.808811
Si Si3 0.631463 0.854604 0.373908
Si Si4 0.464855 0.017416 0.169628
Si Si5 0.560091 0.191524 0.832827
Si Si6 0.158773 0.158179 0.215840
Si Si7 0.597908 0.405768 0.249772
Si Si8 0.110597 0.652372 0.566663
O O1 0.755412 0.111907 0.404230
O O2 0.866865 0.223767 0.490350
O O3 0.442893 0.802343 0.755044
O O4 0.850455 0.967343 0.713120
O O5 0.388489 0.822559 0.871210
O O6 0.000000 0.500000 0.000000
O O7 0.541642 0.772839 0.327638
O O8 0.460607 0.649843 0.606276
O O9 0.622977 0.006396 0.215244
O O10 0.901227 0.989408 0.346552
O O11 0.199698 0.783253 0.359326
O O12 0.436639 0.114593 0.965958
O O13 0.842633 0.413729 0.711525
O O14 0.500000 0.000000 0.000000
O O15 0.353799 0.261123 0.257013
O O16 0.217182 0.339183 0.977271
O O17 0.720396 0.357282 0.323373
#
# Coordination Sequence:
#
# PCOD8041713 Si02
#       8
#     2   2   2   2   2   2   2   2
#     4  10  21  35  54  84 113 146 181 221 279 325
#     4  10  19  33  57  82 111 144 183 227 268 323
#     4  10  21  35  53  78 109 144 181 223 272 324
#     4   9  19  33  54  83 107 139 184 231 277 312
#     4  10  20  34  57  83 106 140 187 234 274 314
#     4  11  22  36  54  82 119 145 175 219 271 341
#     4  10  21  35  57  82 109 146 179 222 277 320
#     4  10  20  38  58  81 111 139 185 236 269 321
#
# _framework density 19.490428999999999
#
# number of rings (size 3 to 8) (size 9 to 14) (size 15 to 20)
#    0.000    2.000    0.000    5.625    0.000    8.500 
#    0.000    0.625    0.000    3.750    0.000    0.000 
#    0.000    0.000    0.000    0.000    0.000    0.000 
#
# Total GULP energy -198282.075473 kJ/mol
# GULP energy per Si atom -12392.629717 kJ/mol
# Density = 1.944607 g / cm^3
# Si number density = 19.490429 Si / 1000 Ang^3
#
#
#
# Elastic Constant Matrix: (Units=GPa)
#
#
# Indices 1 2 3 4 5 6 
#
# 1 69.7608 9.5483 36.6360 3.0354 3.3774 -12.0128
# 2 9.5483 70.3698 38.9694 7.0205 -7.3641 -15.1874
# 3 36.6360 38.9694 116.3094 3.4889 -17.8332 -17.0867
# 4 3.0354 7.0205 3.4889 39.4992 -4.2632 -8.3918
# 5 3.3774 -7.3641 -17.8332 -4.2632 25.4666 2.4526
# 6 -12.0128 -15.1874 -17.0867 -8.3918 2.4526 24.3310
#
#
#
# Elastic Compliance Matrix: (Units=1/GPa)
#
#
# Indices 1 2 3 4 5 6 
#
# 1 0.019169 0.001841 -0.006861 -0.000664 -0.007534 0.006326
# 2 0.001841 0.019051 -0.005649 -0.001215 0.000298 0.008385
# 3 -0.006861 -0.005649 0.014478 0.001900 0.009448 0.002956
# 4 -0.000664 -0.001215 0.001900 0.027934 0.004839 0.009395
# 5 -0.007534 0.000298 0.009448 0.004839 0.047783 -0.000047
# 6 0.006326 0.008385 0.002956 0.009395 -0.000047 0.054778
#
#
# Mechanical properties :
#
#
# Convention : Reuss Voigt Hill
#
# Bulk Modulus (GPa) = 31.88755 47.41639 39.65197
# Shear Modulus (GPa) = 23.25756 29.27844 26.26800
#
# Velocity S-wave (km/s) = 3.45814 3.88002 3.67514
# Velocity P-wave (km/s) = 5.68692 6.66735 6.19656
#
# Compressibility (1/GPa) = 0.03136020
#
# Stress axis : x y z
#
# Youngs Moduli (GPa) = 52.16819 52.49017 69.07253
#
# Poissons Ratio (x) = -0.09666 0.47390
# Poissons Ratio (y) = -0.09607 0.39021
# Poissons Ratio (z) = 0.35792 0.29653
#
# Static dielectric constant tensor:
#      x y z
#    x 3.491870 -0.147960 -0.359650 
#    y -0.147960 3.663630 0.266460 
#    z -0.359650 0.266460 4.110250 
# 
# 
# High freq. dielectric constant tensor:
#      x y z
#    x 1.737770 -0.009890 -0.024190 
#    y -0.009890 1.751820 0.002090 
#    z -0.024190 0.002090 1.768490 
# 
# From -- ./inp_files/523895.got.cif
#   From: 2010.06.25/outbox.cif.g09.slc.cpg/sg2_262_cif.got.tgz:523895.got - 2010.06.27 13:26:56.
