data_PCOD8041431
_publ_section_title
;
Structure prediction by ZEFSAII (Michael W. Deem and Ramdas Pophale) SiO2 
 PCOD8041431
Probable space group: P -1
;
_chemical_formula_sum "Si O2"
_cell_formula_units_Z 12
_cell_length_a 15.056669
_cell_length_b 13.429982
_cell_length_c 14.881510
_cell_angle_alpha 37.797924
_cell_angle_beta 160.534791
_cell_angle_gamma 143.194955
_cell_volume 591.307931
_symmetry_space_group_name_H-M "P -1"
_symmetry_group_IT_number 2
_symmetry_cell_setting 'triclinic'
loop_
_space_group_symop_operation_xyz
x,y,z
-x,-y,-z
loop_
_atom_site_type_symbol
_atom_site_label
_atom_site_fract_x
_atom_site_fract_y
_atom_site_fract_z
Si Si1 0.623068 0.094700 0.907778
Si Si2 0.531849 0.520776 0.910092
Si Si3 0.032905 0.674801 0.578500
Si Si4 0.719377 0.901211 0.756880
Si Si5 0.163083 0.044403 0.374474
Si Si6 0.160543 0.856388 0.741508
O O1 0.399723 0.154843 0.590352
O O2 0.453573 0.925874 0.919011
O O3 0.774522 0.218176 0.046322
O O4 0.858326 0.060327 0.093130
O O5 0.618306 0.716965 0.832116
O O6 0.247696 0.432609 0.654489
O O7 0.500000 0.500000 0.000000
O O8 0.757787 0.438073 0.145760
O O9 0.156487 0.848084 0.517229
O O10 0.979839 0.711487 0.607078
O O11 0.500000 0.000000 0.500000
O O12 0.754470 0.887311 0.694009
O O13 0.000000 0.000000 0.000000
O O14 0.000000 0.000000 0.500000
#
# Coordination Sequence:
#
# PCOD8041431 Si02
#       6
#     2   2   2   2   2   2
#     4  10  19  32  57  92 126 157 202 260 287 359
#     4  12  25  42  62  92 127 155 206 264 315 364
#     4  11  22  37  64  93 123 161 199 262 314 351
#     4  12  25  44  66  87 121 168 213 257 310 382
#     4  11  21  37  61  92 123 163 210 247 312 368
#     4  10  19  34  60  97 131 157 212 252 305 361
#
# _framework density 20.293994999999999
#
# number of rings (size 3 to 8) (size 9 to 14) (size 15 to 20)
#    0.000    1.000    3.333    6.500    2.333    0.000 
#    0.000    0.000    0.000    6.000    0.000    0.000 
#    0.000    0.000    0.000    0.000    0.000    0.000 
#
# Total GULP energy -148735.067837 kJ/mol
# GULP energy per Si atom -12394.588986 kJ/mol
# Density = 2.024780 g / cm^3
# Si number density = 20.293995 Si / 1000 Ang^3
#
#
#
# Elastic Constant Matrix: (Units=GPa)
#
#
# Indices 1 2 3 4 5 6 
#
# 1 159.0563 60.5757 64.2434 12.5751 -11.7142 -11.1887
# 2 60.5757 116.9235 60.9470 8.4012 -14.9472 -11.8031
# 3 64.2434 60.9470 161.6452 25.0301 5.5781 -16.3207
# 4 12.5751 8.4012 25.0301 40.8932 -16.3726 -11.8087
# 5 -11.7142 -14.9472 5.5781 -16.3726 48.3915 0.6031
# 6 -11.1887 -11.8031 -16.3207 -11.8087 0.6031 36.9730
#
#
#
# Elastic Compliance Matrix: (Units=1/GPa)
#
#
# Indices 1 2 3 4 5 6 
#
# 1 0.008469 -0.002978 -0.002250 0.000142 0.001430 0.000641
# 2 -0.002978 0.012861 -0.004123 0.003437 0.004860 0.002403
# 3 -0.002250 -0.004123 0.009847 -0.006435 -0.005135 0.000378
# 4 0.000142 0.003437 -0.006435 0.035963 0.013886 0.009559
# 5 0.001430 0.004860 -0.005135 0.013886 0.027756 0.003700
# 6 0.000641 0.002403 0.000378 0.009559 0.003700 0.031168
#
#
# Mechanical properties :
#
#
# Convention : Reuss Voigt Hill
#
# Bulk Modulus (GPa) = 80.15219 89.90636 85.02927
# Shear Modulus (GPa) = 33.57422 42.04213 37.80818
#
# Velocity S-wave (km/s) = 4.07183 4.55648 4.32096
# Velocity P-wave (km/s) = 7.85415 8.49000 8.17826
#
# Compressibility (1/GPa) = 0.01247627
#
# Stress axis : x y z
#
# Youngs Moduli (GPa) = 118.07853 77.75228 101.55441
#
# Poissons Ratio (x) = 0.23151 0.22847
# Poissons Ratio (y) = 0.35159 0.41872
# Poissons Ratio (z) = 0.26565 0.32058
#
# Static dielectric constant tensor:
#      x y z
#    x 4.027750 -0.327560 -0.172130 
#    y -0.327560 3.619300 0.314700 
#    z -0.172130 0.314700 4.102630 
# 
# 
# High freq. dielectric constant tensor:
#      x y z
#    x 1.808010 -0.025930 -0.001020 
#    y -0.025930 1.752400 0.026820 
#    z -0.001020 0.026820 1.819750 
# 
# From -- ./inp_files/88621.got.cif
#   From: 2010.06.25/outbox.cif.g09.slc.cpg/sg2_45_cif.got.tgz:88621.got - 2010.06.27 13:26:56.
