data_PCOD8041511
_publ_section_title
;
Structure prediction by ZEFSAII (Michael W. Deem and Ramdas Pophale) SiO2 
 PCOD8041511
Probable space group: P -1
;
_chemical_formula_sum "Si O2"
_cell_formula_units_Z 14
_cell_length_a 13.549994
_cell_length_b 10.166216
_cell_length_c 7.540924
_cell_angle_alpha 131.384332
_cell_angle_beta 71.500078
_cell_angle_gamma 104.787395
_cell_volume 737.601397
_symmetry_space_group_name_H-M "P -1"
_symmetry_group_IT_number 2
_symmetry_cell_setting 'triclinic'
loop_
_space_group_symop_operation_xyz
x,y,z
-x,-y,-z
loop_
_atom_site_type_symbol
_atom_site_label
_atom_site_fract_x
_atom_site_fract_y
_atom_site_fract_z
Si Si1 0.196773 0.294469 0.586762
Si Si2 0.109411 0.838812 0.756807
Si Si3 0.745856 0.445003 0.666165
Si Si4 0.888142 0.049495 0.543351
Si Si5 0.762146 0.355219 0.973132
Si Si6 0.620961 0.485966 0.444843
Si Si7 0.122263 0.217433 0.188495
O O1 0.166869 0.465435 0.867340
O O2 0.315357 0.328156 0.473514
O O3 0.117212 0.267259 0.443195
O O4 0.189592 0.125377 0.566948
O O5 0.179243 0.674523 0.599634
O O6 0.101010 0.872558 0.585072
O O7 0.991692 0.784153 0.841240
O O8 0.158867 0.016967 0.979750
O O9 0.641950 0.443765 0.602909
O O10 0.800145 0.641595 0.832057
O O11 0.719446 0.362734 0.800908
O O12 0.835303 0.194849 0.824377
O O13 0.000000 0.000000 0.500000
O O14 0.663879 0.340761 0.153613
O O15 0.500000 0.500000 0.500000
#
# Coordination Sequence:
#
# PCOD8041511 Si02
#       7
#     2   2   2   2   2   2   2
#     4   9  20  36  55  83 115 148 190 230 279 333
#     4  10  21  32  52  81 114 155 189 218 280 329
#     4  10  20  37  57  80 114 144 187 238 277 339
#     4  11  20  35  55  83 120 153 184 224 278 343
#     4   9  22  37  58  84 113 150 190 233 280 336
#     4   9  21  41  62  82 108 148 194 244 291 323
#     4  10  19  33  52  80 115 156 184 227 268 334
#
# _framework density 18.980442
#
# number of rings (size 3 to 8) (size 9 to 14) (size 15 to 20)
#    0.857    1.429    1.429    1.286    2.000    1.143 
#    2.571    0.714    0.000    1.714    0.000    0.000 
#    0.000    0.000    0.000    0.000    0.000    0.000 
#
# Total GULP energy -173455.644837 kJ/mol
# GULP energy per Si atom -12389.688917 kJ/mol
# Density = 1.893724 g / cm^3
# Si number density = 18.980442 Si / 1000 Ang^3
#
#
#
# Elastic Constant Matrix: (Units=GPa)
#
#
# Indices 1 2 3 4 5 6 
#
# 1 109.9000 30.9817 45.4383 11.8455 -8.4581 -8.2755
# 2 30.9817 48.2097 16.2455 12.8237 -5.9527 -0.4630
# 3 45.4383 16.2455 117.3162 18.8075 -3.8936 -4.3333
# 4 11.8455 12.8237 18.8075 33.6524 1.6761 4.2827
# 5 -8.4581 -5.9527 -3.8936 1.6761 20.4238 -1.7248
# 6 -8.2755 -0.4630 -4.3333 4.2827 -1.7248 19.5984
#
#
#
# Elastic Compliance Matrix: (Units=1/GPa)
#
#
# Indices 1 2 3 4 5 6 
#
# 1 0.013243 -0.006541 -0.003785 -0.000868 0.003357 0.005086
# 2 -0.006541 0.027991 0.000311 -0.008911 0.006280 0.000468
# 3 -0.003785 0.000311 0.010896 -0.005198 0.001201 0.002060
# 4 -0.000868 -0.008911 -0.005198 0.038087 -0.007981 -0.010752
# 5 0.003357 0.006280 0.001201 -0.007981 0.053769 0.008308
# 6 0.005086 0.000468 0.002060 -0.010752 0.008308 0.056719
#
#
# Mechanical properties :
#
#
# Convention : Reuss Voigt Hill
#
# Bulk Modulus (GPa) = 31.15116 51.19520 41.17318
# Shear Modulus (GPa) = 21.60442 26.91896 24.26169
#
# Velocity S-wave (km/s) = 3.37745 3.77005 3.57914
# Velocity P-wave (km/s) = 5.62649 6.78102 6.23055
#
# Compressibility (1/GPa) = 0.03210153
#
# Stress axis : x y z
#
# Youngs Moduli (GPa) = 75.51253 35.72544 91.77614
#
# Poissons Ratio (x) = 0.23367 0.34737
# Poissons Ratio (y) = 0.49391 -0.02858
# Poissons Ratio (z) = 0.28582 -0.01113
#
# Static dielectric constant tensor:
#      x y z
#    x 3.102780 -0.104240 0.053450 
#    y -0.104240 3.712590 0.241720 
#    z 0.053450 0.241720 3.792010 
# 
# 
# High freq. dielectric constant tensor:
#      x y z
#    x 1.693980 -0.009320 0.016200 
#    y -0.009320 1.739560 -0.001230 
#    z 0.016200 -0.001230 1.742590 
# 
# From -- ./inp_files/134087.got.cif
#   From: 2010.06.25/outbox.cif.g09.slc.cpg/sg2_68_cif.got.tgz:134087.got - 2010.06.27 13:26:56.
