data_PCOD8041931
_publ_section_title
;
Structure prediction by ZEFSAII (Michael W. Deem and Ramdas Pophale) SiO2 
 PCOD8041931
Probable space group: P -1
;
_chemical_formula_sum "Si O2"
_cell_formula_units_Z 14
_cell_length_a 16.896482
_cell_length_b 5.131229
_cell_length_c 22.562781
_cell_angle_alpha 84.073636
_cell_angle_beta 29.592501
_cell_angle_gamma 68.691647
_cell_volume 797.987032
_symmetry_space_group_name_H-M "P -1"
_symmetry_group_IT_number 2
_symmetry_cell_setting 'triclinic'
loop_
_space_group_symop_operation_xyz
x,y,z
-x,-y,-z
loop_
_atom_site_type_symbol
_atom_site_label
_atom_site_fract_x
_atom_site_fract_y
_atom_site_fract_z
Si Si1 0.558489 0.224733 0.168294
Si Si2 0.773516 0.194958 0.135194
Si Si3 0.248934 0.497195 0.149571
Si Si4 0.393000 0.893853 0.996656
Si Si5 0.151194 0.758758 0.453806
Si Si6 0.862127 0.761257 0.459366
Si Si7 0.441185 0.105702 0.716998
O O1 0.720363 0.246884 0.098224
O O2 0.357833 0.566081 0.291353
O O3 0.530989 0.977066 0.228302
O O4 0.626073 0.101461 0.061422
O O5 0.673869 0.523195 0.227213
O O6 0.685504 0.012231 0.226963
O O7 0.000000 0.000000 0.000000
O O8 0.264087 0.782218 0.111565
O O9 0.029749 0.633089 0.305005
O O10 0.314104 0.246541 0.060226
O O11 0.384110 0.336255 0.123135
O O12 0.090893 0.525748 0.521471
O O13 0.156013 0.950065 0.501078
O O14 0.000000 0.000000 0.500000
O O15 0.658320 0.910139 0.553548
#
# Coordination Sequence:
#
# PCOD8041931 Si02
#       7
#     2   2   2   2   2   2   2
#     4   9  21  32  54  76 110 130 172 214 262 305
#     4  10  19  34  54  81 107 128 161 210 280 329
#     4  10  22  34  50  70 101 149 184 207 245 284
#     4  10  21  35  48  72 104 140 183 217 238 297
#     4  11  21  31  51  76 106 139 169 211 266 306
#     4  11  19  36  49  73 106 135 180 210 252 308
#     4   9  19  33  52  80 103 129 165 214 268 318
#
# _framework density 17.544143999999999
#
# number of rings (size 3 to 8) (size 9 to 14) (size 15 to 20)
#    0.857    1.143    1.429    2.571    2.000    3.429 
#    0.000    0.000    0.000    0.000    0.000    6.000 
#    0.000    0.000    0.000    0.000    0.000    0.000 
#
# Total GULP energy -173527.272706 kJ/mol
# GULP energy per Si atom -12394.805193 kJ/mol
# Density = 1.750421 g / cm^3
# Si number density = 17.544144 Si / 1000 Ang^3
#
#
#
# Elastic Constant Matrix: (Units=GPa)
#
#
# Indices 1 2 3 4 5 6 
#
# 1 57.1944 15.3567 40.2574 1.2542 -14.5232 6.8721
# 2 15.3567 80.5388 28.0850 8.5103 -8.0455 19.5699
# 3 40.2574 28.0850 123.1309 -1.7182 -28.7466 0.3363
# 4 1.2542 8.5103 -1.7182 23.8623 1.5635 -2.3681
# 5 -14.5232 -8.0455 -28.7466 1.5635 31.1518 0.6236
# 6 6.8721 19.5699 0.3363 -2.3681 0.6236 21.7948
#
#
#
# Elastic Compliance Matrix: (Units=1/GPa)
#
#
# Indices 1 2 3 4 5 6 
#
# 1 0.024769 0.000807 -0.006984 -0.003352 0.005659 -0.008953
# 2 0.000807 0.019537 -0.004252 -0.009337 0.002344 -0.018813
# 3 -0.006984 -0.004252 0.013155 0.002925 0.007520 0.005920
# 4 -0.003352 -0.009337 0.002925 0.047336 -0.003944 0.014652
# 5 0.005659 0.002344 0.007520 -0.003944 0.042595 -0.005652
# 6 -0.008953 -0.018813 0.005920 0.014652 -0.005652 0.067261
#
#
# Mechanical properties :
#
#
# Convention : Reuss Voigt Hill
#
# Bulk Modulus (GPa) = 27.31847 47.58471 37.45159
# Shear Modulus (GPa) = 20.18480 27.17279 23.67879
#
# Velocity S-wave (km/s) = 3.39560 3.93978 3.67777
# Velocity P-wave (km/s) = 5.56584 6.91936 6.27918
#
# Compressibility (1/GPa) = 0.03660527
#
# Stress axis : x y z
#
# Youngs Moduli (GPa) = 40.37271 51.18414 76.01796
#
# Poissons Ratio (x) = -0.04133 0.53087
# Poissons Ratio (y) = -0.03260 0.32323
# Poissons Ratio (z) = 0.28194 0.21763
#
# Static dielectric constant tensor:
#      x y z
#    x 3.041490 0.254530 -0.384320 
#    y 0.254530 3.362720 0.050250 
#    z -0.384320 0.050250 3.597430 
# 
# 
# High freq. dielectric constant tensor:
#      x y z
#    x 1.640900 0.027910 -0.016450 
#    y 0.027910 1.686430 0.009120 
#    z -0.016450 0.009120 1.674620 
# 
# From -- ./inp_files/82359.got.cif
#   From: 2010.06.25/outbox.cif.g09.slc.cpg/sg2_42_cif.got.tgz:82359.got - 2010.06.27 13:26:56.
