data_PCOD8041257
_publ_section_title
;
Structure prediction by ZEFSAII (Michael W. Deem and Ramdas Pophale) SiO2 
 PCOD8041257
Probable space group: P -1
;
_chemical_formula_sum "Si O2"
_cell_formula_units_Z 16
_cell_length_a 17.623772
_cell_length_b 13.737591
_cell_length_c 8.552297
_cell_angle_alpha 87.056390
_cell_angle_beta 52.539727
_cell_angle_gamma 43.634737
_cell_volume 798.808129
_symmetry_space_group_name_H-M "P -1"
_symmetry_group_IT_number 2
_symmetry_cell_setting 'triclinic'
loop_
_space_group_symop_operation_xyz
x,y,z
-x,-y,-z
loop_
_atom_site_type_symbol
_atom_site_label
_atom_site_fract_x
_atom_site_fract_y
_atom_site_fract_z
Si Si1 0.082900 0.078414 0.861024
Si Si2 0.708694 0.773769 0.207326
Si Si3 0.621219 0.134248 0.750513
Si Si4 0.303635 0.734598 0.196336
Si Si5 0.252367 0.349868 0.161454
Si Si6 0.990428 0.374135 0.999286
Si Si7 0.164772 0.250021 0.460612
Si Si8 0.927248 0.056659 0.840214
O O1 0.962781 0.282483 0.042096
O O2 0.285987 0.922969 0.530709
O O3 0.133193 0.976142 0.964680
O O4 0.944728 0.140003 0.912201
O O5 0.878362 0.706120 0.012338
O O6 0.500000 0.000000 0.500000
O O7 0.683866 0.766690 0.060780
O O8 0.778583 0.616781 0.235403
O O9 0.659575 0.184685 0.822850
O O10 0.707679 0.957459 0.725949
O O11 0.388317 0.324243 0.011067
O O12 0.132205 0.847232 0.515409
O O13 0.243094 0.776353 0.087765
O O14 0.500000 0.500000 0.000000
O O15 0.275842 0.252073 0.281972
O O16 0.031690 0.585904 0.410058
O O17 0.117412 0.295783 0.698201
#
# Coordination Sequence:
#
# PCOD8041257 Si02
#       8
#     2   2   2   2   2   2   2   2
#     4   9  18  38  61  81 107 147 189 227 280 330
#     4  10  19  32  49  74 108 142 173 218 271 315
#     4  10  20  35  56  80 108 142 184 226 268 325
#     4  10  22  39  58  84 113 143 181 228 284 335
#     4  10  20  34  55  78 107 146 183 221 265 319
#     4   9  19  34  52  76 106 138 181 224 261 322
#     4   9  19  36  54  77 106 144 184 220 267 318
#     4   9  20  40  61  80 112 144 178 236 283 328
#
# _framework density 20.029841000000001
#
# number of rings (size 3 to 8) (size 9 to 14) (size 15 to 20)
#    0.000    2.500    0.000    1.875    0.000    6.000 
#    0.000   16.875    0.000    0.000    0.000    0.000 
#    0.000    0.000    0.000    0.000    0.000    0.000 
#
# Total GULP energy -198364.599780 kJ/mol
# GULP energy per Si atom -12397.787486 kJ/mol
# Density = 1.998425 g / cm^3
# Si number density = 20.029841 Si / 1000 Ang^3
#
#
#
# Elastic Constant Matrix: (Units=GPa)
#
#
# Indices 1 2 3 4 5 6 
#
# 1 94.0962 42.2942 25.7198 -4.7105 -7.0935 1.4993
# 2 42.2942 97.8349 38.7239 -1.2951 -8.0007 0.8205
# 3 25.7198 38.7239 60.5880 8.9730 -15.3848 -0.8936
# 4 -4.7105 -1.2951 8.9730 39.3525 6.0907 0.6610
# 5 -7.0935 -8.0007 -15.3848 6.0907 29.2695 -0.4854
# 6 1.4993 0.8205 -0.8936 0.6610 -0.4854 32.1351
#
#
#
# Elastic Compliance Matrix: (Units=1/GPa)
#
#
# Indices 1 2 3 4 5 6 
#
# 1 0.013702 -0.004615 -0.003244 0.002259 -0.000127 -0.000660
# 2 -0.004615 0.015596 -0.008866 0.002301 -0.002003 -0.000507
# 3 -0.003244 -0.008866 0.028428 -0.009308 0.013696 0.001567
# 4 0.002259 0.002301 -0.009308 0.029425 -0.009859 -0.001177
# 5 -0.000127 -0.002003 0.013696 -0.009859 0.042859 0.001288
# 6 -0.000660 -0.000507 0.001567 -0.001177 0.001288 0.031250
#
#
# Mechanical properties :
#
#
# Convention : Reuss Voigt Hill
#
# Bulk Modulus (GPa) = 41.18985 51.77721 46.48353
# Shear Modulus (GPa) = 24.65466 29.87015 27.26240
#
# Velocity S-wave (km/s) = 3.51222 3.86590 3.69330
# Velocity P-wave (km/s) = 6.08740 6.77001 6.43776
#
# Compressibility (1/GPa) = 0.02427782
#
# Stress axis : x y z
#
# Youngs Moduli (GPa) = 72.98093 64.11747 35.17689
#
# Poissons Ratio (x) = 0.29587 0.11410
# Poissons Ratio (y) = 0.33677 0.31188
# Poissons Ratio (z) = 0.23673 0.56847
#
# Static dielectric constant tensor:
#      x y z
#    x 3.724570 0.067520 0.038270 
#    y 0.067520 3.744540 0.020700 
#    z 0.038270 0.020700 3.683570 
# 
# 
# High freq. dielectric constant tensor:
#      x y z
#    x 1.785190 0.000890 0.003260 
#    y 0.000890 1.776800 0.004020 
#    z 0.003260 0.004020 1.768440 
# 
# From -- ./inp_files/334879.got.cif
#   From: 2010.06.25/outbox.cif.g09.slc.cpg/sg2_168_cif.got.tgz:334879.got - 2010.06.27 13:26:56.
