data_PCOD8041006
_publ_section_title
;
Structure prediction by ZEFSAII (Michael W. Deem and Ramdas Pophale) SiO2 
 PCOD8041006
Probable space group: P -1
;
_chemical_formula_sum "Si O2"
_cell_formula_units_Z 16
_cell_length_a 15.188227
_cell_length_b 9.305117
_cell_length_c 8.489133
_cell_angle_alpha 104.353871
_cell_angle_beta 42.379115
_cell_angle_gamma 113.604416
_cell_volume 738.783865
_symmetry_space_group_name_H-M "P -1"
_symmetry_group_IT_number 2
_symmetry_cell_setting 'triclinic'
loop_
_space_group_symop_operation_xyz
x,y,z
-x,-y,-z
loop_
_atom_site_type_symbol
_atom_site_label
_atom_site_fract_x
_atom_site_fract_y
_atom_site_fract_z
Si Si1 0.966475 0.613457 0.200235
Si Si2 0.877305 0.790695 0.115830
Si Si3 0.641021 0.992229 0.888495
Si Si4 0.366819 0.462354 0.777260
Si Si5 0.157457 0.919332 0.637146
Si Si6 0.547106 0.666696 0.068387
Si Si7 0.739650 0.278935 0.048680
Si Si8 0.272991 0.673694 0.559870
O O1 0.951923 0.765611 0.172610
O O2 0.819290 0.500275 0.433014
O O3 0.000000 0.500000 0.000000
O O4 0.091852 0.668286 0.176603
O O5 0.767026 0.625897 0.172686
O O6 0.795235 0.911477 0.293515
O O7 0.988679 0.855797 0.844275
O O8 0.773790 0.067567 0.621236
O O9 0.671695 0.098649 0.034681
O O10 0.500000 0.000000 0.000000
O O11 0.638475 0.814410 0.882472
O O12 0.500000 0.500000 0.500000
O O13 0.374641 0.351669 0.881605
O O14 0.333567 0.616427 0.927854
O O15 0.201161 0.800599 0.654355
O O16 0.416817 0.719584 0.293857
O O17 0.500000 0.500000 0.000000
O O18 0.698441 0.311093 0.288039
#
# Coordination Sequence:
#
# PCOD8041006 Si02
#       8
#     2   2   2   2   2   2   2   2
#     4  10  18  41  71 101 128 168 228 281 330 400
#     4  11  23  43  71 101 136 178 233 282 330 405
#     4  12  28  46  65  99 144 180 223 284 349 404
#     4  12  24  41  71 104 131 176 232 278 335 406
#     4  11  25  43  70  97 139 180 224 280 345 397
#     4  12  28  45  65 101 139 179 226 284 349 404
#     4  11  23  43  70 101 134 173 228 277 340 411
#     4  11  21  44  73  97 132 184 226 276 341 408
#
# _framework density 21.657215000000001
#
# number of rings (size 3 to 8) (size 9 to 14) (size 15 to 20)
#    0.000    0.750    7.500    0.750    7.000    0.500 
#    2.250    2.500    0.000    0.000    0.000    0.000 
#    0.000    0.000    0.000    0.000    0.000    0.000 
#
# Total GULP energy -198315.032769 kJ/mol
# GULP energy per Si atom -12394.689548 kJ/mol
# Density = 2.160792 g / cm^3
# Si number density = 21.657215 Si / 1000 Ang^3
#
#
#
# Elastic Constant Matrix: (Units=GPa)
#
#
# Indices 1 2 3 4 5 6 
#
# 1 91.4881 42.8905 25.5925 -4.9581 -7.6649 -4.2824
# 2 42.8905 144.3236 23.3577 -2.8918 -0.1614 -6.1066
# 3 25.5925 23.3577 88.0241 -7.2778 -5.6096 -0.9839
# 4 -4.9581 -2.8918 -7.2778 29.2077 -0.5666 6.2101
# 5 -7.6649 -0.1614 -5.6096 -0.5666 19.7319 -7.2470
# 6 -4.2824 -6.1066 -0.9839 6.2101 -7.2470 37.8794
#
#
#
# Elastic Compliance Matrix: (Units=1/GPa)
#
#
# Indices 1 2 3 4 5 6 
#
# 1 0.013953 -0.003616 -0.002650 0.001078 0.005317 0.001766
# 2 -0.003616 0.008224 -0.001240 -0.000275 -0.001458 0.000651
# 3 -0.002650 -0.001240 0.012851 0.002703 0.002655 -0.000101
# 4 0.001078 -0.000275 0.002703 0.036298 0.000103 -0.005783
# 5 0.005317 -0.001458 0.002655 0.000103 0.057698 0.011457
# 6 0.001766 0.000651 -0.000101 -0.005783 0.011457 0.029842
#
#
# Mechanical properties :
#
#
# Convention : Reuss Voigt Hill
#
# Bulk Modulus (GPa) = 49.95197 56.39082 53.17140
# Shear Modulus (GPa) = 27.69319 32.83012 30.26166
#
# Velocity S-wave (km/s) = 3.57978 3.89768 3.74210
# Velocity P-wave (km/s) = 6.34045 6.80810 6.57843
#
# Compressibility (1/GPa) = 0.02001923
#
# Stress axis : x y z
#
# Youngs Moduli (GPa) = 71.66849 121.58991 77.81284
#
# Poissons Ratio (x) = 0.43961 0.20618
# Poissons Ratio (y) = 0.25912 0.09646
# Poissons Ratio (z) = 0.18990 0.15072
#
# Static dielectric constant tensor:
#      x y z
#    x 4.005910 -0.107590 -0.367490 
#    y -0.107590 4.302350 -0.345460 
#    z -0.367490 -0.345460 4.174960 
# 
# 
# High freq. dielectric constant tensor:
#      x y z
#    x 1.836470 -0.018530 -0.020570 
#    y -0.018530 1.866110 -0.005420 
#    z -0.020570 -0.005420 1.844260 
# 
# From -- ./inp_files/298667.got.cif
#   From: 2010.06.25/outbox.cif.g09.slc.cpg/sg2_150_cif.got.tgz:298667.got - 2010.06.27 13:26:56.
