data_PCOD8041779
_publ_section_title
;
Structure prediction by ZEFSAII (Michael W. Deem and Ramdas Pophale) SiO2 
 PCOD8041779
Probable space group: P -1
;
_chemical_formula_sum "Si O2"
_cell_formula_units_Z 14
_cell_length_a 9.079929
_cell_length_b 10.561129
_cell_length_c 11.868973
_cell_angle_alpha 52.791108
_cell_angle_beta 102.919602
_cell_angle_gamma 127.143317
_cell_volume 704.387465
_symmetry_space_group_name_H-M "P -1"
_symmetry_group_IT_number 2
_symmetry_cell_setting 'triclinic'
loop_
_space_group_symop_operation_xyz
x,y,z
-x,-y,-z
loop_
_atom_site_type_symbol
_atom_site_label
_atom_site_fract_x
_atom_site_fract_y
_atom_site_fract_z
Si Si1 0.049164 0.835438 0.495147
Si Si2 0.205600 0.704057 0.432740
Si Si3 0.420351 0.368249 0.856749
Si Si4 0.148057 0.256475 0.267553
Si Si5 0.094369 0.211285 0.031615
Si Si6 0.801312 0.048290 0.889910
Si Si7 0.679391 0.560013 0.429650
O O1 0.208036 0.812645 0.488584
O O2 0.982130 0.743427 0.659243
O O3 0.867965 0.720427 0.444433
O O4 0.149726 0.069495 0.389291
O O5 0.348831 0.646584 0.491238
O O6 0.000000 0.500000 0.500000
O O7 0.253310 0.839118 0.258351
O O8 0.638431 0.548063 0.791401
O O9 0.312531 0.339319 0.738594
O O10 0.305182 0.391486 0.922936
O O11 0.390711 0.159248 0.985264
O O12 0.068503 0.251979 0.133593
O O13 0.076996 0.006597 0.130425
O O14 0.930597 0.190295 0.940247
O O15 0.500000 0.500000 0.500000
#
# Coordination Sequence:
#
# PCOD8041779 Si02
#       7
#     2   2   2   2   2   2   2
#     4  10  20  35  55  86 124 150 193 234 297 337
#     4  10  20  36  63  86 116 149 198 245 288 335
#     4  10  19  33  58  88 113 155 196 236 284 349
#     4  11  19  31  58  87 121 157 188 236 288 360
#     4   9  17  31  57  83 116 151 196 227 289 340
#     4   9  18  35  59  84 115 154 200 238 283 346
#     4  11  21  39  62  88 111 151 205 244 285 346
#
# _framework density 19.875423999999999
#
# number of rings (size 3 to 8) (size 9 to 14) (size 15 to 20)
#    0.857    1.143    2.857    3.000    0.000    0.000 
#    0.000    1.429    0.000    9.429    0.000    0.000 
#    0.000    0.000    0.000    0.000    0.000    0.000 
#
# Total GULP energy -173472.442016 kJ/mol
# GULP energy per Si atom -12390.888715 kJ/mol
# Density = 1.983019 g / cm^3
# Si number density = 19.875424 Si / 1000 Ang^3
#
#
#
# Elastic Constant Matrix: (Units=GPa)
#
#
# Indices 1 2 3 4 5 6 
#
# 1 93.2607 30.6495 45.9240 -4.9255 -12.4206 -13.3579
# 2 30.6495 75.2093 47.0708 2.0356 -10.6996 1.5242
# 3 45.9240 47.0708 148.9550 0.7648 -21.6319 -9.0586
# 4 -4.9255 2.0356 0.7648 42.5933 -9.1322 -8.1751
# 5 -12.4206 -10.6996 -21.6319 -9.1322 23.9597 -2.2886
# 6 -13.3579 1.5242 -9.0586 -8.1751 -2.2886 23.0419
#
#
#
# Elastic Compliance Matrix: (Units=1/GPa)
#
#
# Indices 1 2 3 4 5 6 
#
# 1 0.016303 -0.004897 -0.001539 0.006309 0.008449 0.012248
# 2 -0.004897 0.018451 -0.004777 -0.002768 -0.000332 -0.006953
# 3 -0.001539 -0.004777 0.010094 0.002462 0.007600 0.005021
# 4 0.006309 -0.002768 0.002462 0.031568 0.017989 0.017796
# 5 0.008449 -0.000332 0.007600 0.017989 0.061637 0.020413
# 6 0.012248 -0.006953 0.005021 0.017796 0.020413 0.061274
#
#
# Mechanical properties :
#
#
# Convention : Reuss Voigt Hill
#
# Bulk Modulus (GPa) = 44.60396 62.74594 53.67495
# Shear Modulus (GPa) = 21.81234 30.83770 26.32502
#
# Velocity S-wave (km/s) = 3.31638 3.94324 3.64332
# Velocity P-wave (km/s) = 6.09549 7.23674 6.69049
#
# Compressibility (1/GPa) = 0.02241953
#
# Stress axis : x y z
#
# Youngs Moduli (GPa) = 61.33911 54.19856 99.06794
#
# Poissons Ratio (x) = 0.26543 0.15248
# Poissons Ratio (y) = 0.30040 0.47329
# Poissons Ratio (z) = 0.09441 0.25893
#
# Static dielectric constant tensor:
#      x y z
#    x 3.432140 -0.173590 -0.436070 
#    y -0.173590 3.501920 0.183110 
#    z -0.436070 0.183110 3.554380 
# 
# 
# High freq. dielectric constant tensor:
#      x y z
#    x 1.733330 -0.004530 -0.024320 
#    y -0.004530 1.763850 -0.001220 
#    z -0.024320 -0.001220 1.788680 
# 
# From -- ./inp_files/392139.got.cif
#   From: 2010.06.25/outbox.cif.g09.slc.cpg/sg2_197_cif.got.tgz:392139.got - 2010.06.27 13:26:56.
