data_PCOD8041544
_publ_section_title
;
Structure prediction by ZEFSAII (Michael W. Deem and Ramdas Pophale) SiO2 
 PCOD8041544
Probable space group: P -1
;
_chemical_formula_sum "Si O2"
_cell_formula_units_Z 16
_cell_length_a 14.418951
_cell_length_b 13.869010
_cell_length_c 12.379002
_cell_angle_alpha 116.109699
_cell_angle_beta 43.797388
_cell_angle_gamma 149.143579
_cell_volume 758.067351
_symmetry_space_group_name_H-M "P -1"
_symmetry_group_IT_number 2
_symmetry_cell_setting 'triclinic'
loop_
_space_group_symop_operation_xyz
x,y,z
-x,-y,-z
loop_
_atom_site_type_symbol
_atom_site_label
_atom_site_fract_x
_atom_site_fract_y
_atom_site_fract_z
Si Si1 0.043083 0.682214 0.225427
Si Si2 0.482298 0.045805 0.892526
Si Si3 0.794951 0.972273 0.310533
Si Si4 0.329175 0.758834 0.734017
Si Si5 0.652330 0.674297 0.870116
Si Si6 0.811164 0.197628 0.308839
Si Si7 0.631978 0.467606 0.645388
Si Si8 0.688842 0.387146 0.783637
O O1 0.871346 0.481197 0.194210
O O2 0.853219 0.608999 0.435433
O O3 0.268578 0.771259 0.144041
O O4 0.199498 0.875667 0.110434
O O5 0.449466 0.899098 0.808395
O O6 0.551272 0.172839 0.796442
O O7 0.583332 0.890958 0.519293
O O8 0.662537 0.776250 0.268453
O O9 0.895660 0.130008 0.213581
O O10 0.034541 0.094566 0.244262
O O11 0.154667 0.729282 0.803229
O O12 0.628159 0.591940 0.737291
O O13 0.500000 0.500000 0.000000
O O14 0.496978 0.679152 0.003776
O O15 0.000243 0.397616 0.331097
O O16 0.500000 0.000000 0.500000
O O17 0.697544 0.441191 0.682681
#
# Coordination Sequence:
#
# PCOD8041544 Si02
#       8
#     2   2   2   2   2   2   2   2
#     4  10  22  38  58  84 114 147 192 229 281 350
#     4  11  22  37  57  85 116 149 183 235 290 331
#     4  10  19  35  54  86 115 146 191 227 284 339
#     4  10  20  36  58  81 115 150 183 234 282 339
#     4  10  20  36  55  82 118 148 188 236 276 331
#     4  10  19  33  53  86 121 144 183 234 279 340
#     4  10  21  37  61  82 111 155 187 235 278 333
#     4  11  22  38  57  87 120 146 191 235 281 334
#
# _framework density 21.106304999999999
#
# number of rings (size 3 to 8) (size 9 to 14) (size 15 to 20)
#    0.000    1.750    3.750    1.875    1.750    3.500 
#    2.250    0.625    0.000    3.000    0.000    0.000 
#    0.000    0.000    0.000    0.000    0.000    0.000 
#
# Total GULP energy -198249.585866 kJ/mol
# GULP energy per Si atom -12390.599117 kJ/mol
# Density = 2.105827 g / cm^3
# Si number density = 21.106305 Si / 1000 Ang^3
#
#
#
# Elastic Constant Matrix: (Units=GPa)
#
#
# Indices 1 2 3 4 5 6 
#
# 1 25.6453 15.2193 5.0652 -4.5478 -3.2632 6.8361
# 2 15.2193 137.8189 46.6120 -2.8506 -11.6935 20.3245
# 3 5.0652 46.6120 56.9074 -1.0987 -4.4272 3.7765
# 4 -4.5478 -2.8506 -1.0987 31.7077 -0.3769 0.1866
# 5 -3.2632 -11.6935 -4.4272 -0.3769 23.1817 -0.4098
# 6 6.8361 20.3245 3.7765 0.1866 -0.4098 22.9914
#
#
#
# Elastic Compliance Matrix: (Units=1/GPa)
#
#
# Indices 1 2 3 4 5 6 
#
# 1 0.045364 -0.002615 -0.000664 0.006371 0.004849 -0.011033
# 2 -0.002615 0.012109 -0.008812 0.000504 0.003916 -0.008413
# 3 -0.000664 -0.008812 0.024604 -0.000055 0.000229 0.003951
# 4 0.006371 0.000504 -0.000055 0.032530 0.001624 -0.002566
# 5 0.004849 0.003916 0.000229 0.001624 0.045793 -0.004138
# 6 -0.011033 -0.008413 0.003951 -0.002566 -0.004138 0.053510
#
#
# Mechanical properties :
#
#
# Convention : Reuss Voigt Hill
#
# Bulk Modulus (GPa) = 17.27263 39.35161 28.31212
# Shear Modulus (GPa) = 19.42577 25.80782 22.61679
#
# Velocity S-wave (km/s) = 3.03706 3.50058 3.27703
# Velocity P-wave (km/s) = 4.52766 5.91809 5.26894
#
# Compressibility (1/GPa) = 0.05789505
#
# Stress axis : x y z
#
# Youngs Moduli (GPa) = 22.04384 82.58586 40.64342
#
# Poissons Ratio (x) = 0.21595 0.02697
# Poissons Ratio (y) = 0.05764 0.35817
# Poissons Ratio (z) = 0.01463 0.72779
#
# Static dielectric constant tensor:
#      x y z
#    x 4.072870 -0.313650 -0.510060 
#    y -0.313650 4.619230 0.412150 
#    z -0.510060 0.412150 4.512680 
# 
# 
# High freq. dielectric constant tensor:
#      x y z
#    x 1.780480 0.011930 -0.003790 
#    y 0.011930 1.848180 -0.013120 
#    z -0.003790 -0.013120 1.819400 
# 
# From -- ./inp_files/433105.got.cif
#   From: 2010.06.25/outbox.cif.g09.slc.cpg/sg2_217_cif.got.tgz:433105.got - 2010.06.27 13:26:56.
