data_PCOD8041577
_publ_section_title
;
Structure prediction by ZEFSAII (Michael W. Deem and Ramdas Pophale) SiO2 
 PCOD8041577
Probable space group: P -1
;
_chemical_formula_sum "Si O2"
_cell_formula_units_Z 14
_cell_length_a 13.529903
_cell_length_b 9.789043
_cell_length_c 16.470291
_cell_angle_alpha 92.500115
_cell_angle_beta 155.483273
_cell_angle_gamma 75.704220
_cell_volume 783.227967
_symmetry_space_group_name_H-M "P -1"
_symmetry_group_IT_number 2
_symmetry_cell_setting 'triclinic'
loop_
_space_group_symop_operation_xyz
x,y,z
-x,-y,-z
loop_
_atom_site_type_symbol
_atom_site_label
_atom_site_fract_x
_atom_site_fract_y
_atom_site_fract_z
Si Si1 0.294389 0.060431 0.421940
Si Si2 0.577363 0.054618 0.310641
Si Si3 0.009946 0.614842 0.723625
Si Si4 0.770750 0.537101 0.396436
Si Si5 0.191886 0.816845 0.767532
Si Si6 0.706646 0.115609 0.988393
Si Si7 0.496176 0.338475 0.159420
O O1 0.230201 0.234612 0.405208
O O2 0.012433 0.066662 0.184972
O O3 0.500000 0.000000 0.500000
O O4 0.438021 0.945284 0.603160
O O5 0.478994 0.232149 0.214692
O O6 0.887981 0.936746 0.509582
O O7 0.378046 0.001103 0.119199
O O8 0.881177 0.536812 0.568345
O O9 0.190563 0.667987 0.805556
O O10 0.195662 0.487693 0.926121
O O11 0.709268 0.394192 0.345528
O O12 0.000000 0.500000 0.500000
O O13 0.499979 0.703712 0.183758
O O14 0.284407 0.900930 0.906946
O O15 0.406787 0.760795 0.854030
#
# Coordination Sequence:
#
# PCOD8041577 Si02
#       7
#     2   2   2   2   2   2   2
#     4  10  22  42  64  80 103 147 201 247 283 335
#     4  10  22  37  54  86 117 146 188 237 285 335
#     4  10  20  34  55  84 112 144 202 227 267 340
#     4  12  19  32  59  86 118 159 184 217 273 340
#     4  10  19  33  54  81 119 158 189 214 265 349
#     4  10  19  37  58  80 115 147 198 226 271 346
#     4  12  21  33  55  86 124 150 180 237 278 323
#
# _framework density 17.874744
#
# number of rings (size 3 to 8) (size 9 to 14) (size 15 to 20)
#    0.000    1.714    7.143    1.714    0.000    3.429 
#    0.000    0.714    0.000    1.714    0.000    0.000 
#    0.000    0.000    0.000    0.000    0.000    0.000 
#
# Total GULP energy -173601.938675 kJ/mol
# GULP energy per Si atom -12400.138477 kJ/mol
# Density = 1.783406 g / cm^3
# Si number density = 17.874744 Si / 1000 Ang^3
#
#
#
# Elastic Constant Matrix: (Units=GPa)
#
#
# Indices 1 2 3 4 5 6 
#
# 1 116.7511 52.6655 47.9375 -9.5932 1.7971 -6.3326
# 2 52.6655 104.3441 58.1531 3.2241 -9.8218 12.0029
# 3 47.9375 58.1531 109.4901 6.2785 -14.2956 6.7764
# 4 -9.5932 3.2241 6.2785 37.0360 0.2129 -9.0144
# 5 1.7971 -9.8218 -14.2956 0.2129 21.7777 -5.6677
# 6 -6.3326 12.0029 6.7764 -9.0144 -5.6677 22.2816
#
#
#
# Elastic Compliance Matrix: (Units=1/GPa)
#
#
# Indices 1 2 3 4 5 6 
#
# 1 0.014974 -0.006992 -0.004608 0.008109 -0.004484 0.011564
# 2 -0.006992 0.017582 -0.004958 -0.005317 0.002307 -0.011515
# 3 -0.004608 -0.004958 0.015169 -0.004118 0.007348 -0.003049
# 4 0.008109 -0.005317 -0.004118 0.035252 -0.000784 0.020484
# 5 -0.004484 0.002307 0.007348 -0.000784 0.054445 0.008780
# 6 0.011564 -0.011515 -0.003049 0.020484 0.008780 0.065817
#
#
# Mechanical properties :
#
#
# Convention : Reuss Voigt Hill
#
# Bulk Modulus (GPa) = 68.45983 72.01082 70.23532
# Shear Modulus (GPa) = 20.72737 27.67434 24.20085
#
# Velocity S-wave (km/s) = 3.40897 3.93903 3.68355
# Velocity P-wave (km/s) = 7.34014 7.81420 7.58088
#
# Compressibility (1/GPa) = 0.01460711
#
# Stress axis : x y z
#
# Youngs Moduli (GPa) = 66.78159 56.87531 65.92597
#
# Poissons Ratio (x) = 0.39770 0.30381
# Poissons Ratio (y) = 0.46697 0.32687
# Poissons Ratio (z) = 0.30775 0.28200
#
# Static dielectric constant tensor:
#      x y z
#    x 3.005120 -0.100250 -0.221160 
#    y -0.100250 3.336020 0.139040 
#    z -0.221160 0.139040 3.557760 
# 
# 
# High freq. dielectric constant tensor:
#      x y z
#    x 1.654110 -0.010260 -0.018240 
#    y -0.010260 1.685950 0.005480 
#    z -0.018240 0.005480 1.706230 
# 
# From -- ./inp_files/134365.got.cif
#   From: 2010.06.25/outbox.cif.g09.slc.cpg/sg2_68_cif.got.tgz:134365.got - 2010.06.27 13:26:56.
