data_PCOD8041125
_publ_section_title
;
Structure prediction by ZEFSAII (Michael W. Deem and Ramdas Pophale) SiO2 
 PCOD8041125
Probable space group: P -1
;
_chemical_formula_sum "Si O2"
_cell_formula_units_Z 16
_cell_length_a 25.009397
_cell_length_b 13.538460
_cell_length_c 22.458641
_cell_angle_alpha 144.447476
_cell_angle_beta 169.372945
_cell_angle_gamma 36.173045
_cell_volume 813.333423
_symmetry_space_group_name_H-M "P -1"
_symmetry_group_IT_number 2
_symmetry_cell_setting 'triclinic'
loop_
_space_group_symop_operation_xyz
x,y,z
-x,-y,-z
loop_
_atom_site_type_symbol
_atom_site_label
_atom_site_fract_x
_atom_site_fract_y
_atom_site_fract_z
Si Si1 0.639137 0.340696 0.262013
Si Si2 0.486668 0.053446 0.880789
Si Si3 0.694607 0.101851 0.720105
Si Si4 0.208473 0.515187 0.963928
Si Si5 0.094612 0.856456 0.438528
Si Si6 0.670238 0.145435 0.491087
Si Si7 0.693143 0.793479 0.761199
Si Si8 0.640796 0.411409 0.485788
O O1 0.765393 0.184198 0.364069
O O2 0.869549 0.482149 0.574178
O O3 0.558514 0.249150 0.066758
O O4 0.353892 0.431731 0.023507
O O5 0.264276 0.002310 0.663428
O O6 0.349508 0.031494 0.654093
O O7 0.765187 0.919506 0.120829
O O8 0.535132 0.114263 0.488319
O O9 0.500000 0.000000 0.500000
O O10 0.746469 0.286343 0.893035
O O11 0.000000 0.000000 0.000000
O O12 0.342460 0.433036 0.131387
O O13 0.112989 0.685111 0.333868
O O14 0.422209 0.164959 0.278807
O O15 0.604271 0.304758 0.453023
O O16 0.989530 0.137607 0.865716
O O17 0.742719 0.593271 0.704814
#
# Coordination Sequence:
#
# PCOD8041125 Si02
#       8
#     2   2   2   2   2   2   2   2
#     4  11  19  33  51  77 111 146 187 235 264 308
#     4  11  21  32  48  73 111 158 194 222 256 300
#     4  11  23  43  65  87 109 132 171 235 294 339
#     4  10  22  35  57  86 109 141 186 226 280 329
#     4  10  19  31  47  73 108 155 198 227 258 302
#     4  11  21  34  50  80 115 154 187 210 249 321
#     4  11  23  36  56  81 108 145 183 220 273 328
#     4   9  20  34  51  77 117 151 181 221 259 319
#
# _framework density 19.672129000000002
#
# number of rings (size 3 to 8) (size 9 to 14) (size 15 to 20)
#    0.000    1.500    0.000    7.500    0.000    8.000 
#    0.000    0.000    0.000    0.000    0.000   17.500 
#    0.000    0.000    0.000    0.000    0.000    0.000 
#
# Total GULP energy -198406.111313 kJ/mol
# GULP energy per Si atom -12400.381957 kJ/mol
# Density = 1.962735 g / cm^3
# Si number density = 19.672129 Si / 1000 Ang^3
#
#
#
# Elastic Constant Matrix: (Units=GPa)
#
#
# Indices 1 2 3 4 5 6 
#
# 1 73.1482 35.8609 23.0899 10.8706 -0.3559 -8.5689
# 2 35.8609 77.9328 29.9560 7.7832 -15.1573 -4.5475
# 3 23.0899 29.9560 84.5697 10.8518 -1.2138 -8.1079
# 4 10.8706 7.7832 10.8518 36.4012 -7.9794 -4.0828
# 5 -0.3559 -15.1573 -1.2138 -7.9794 30.7557 4.0803
# 6 -8.5689 -4.5475 -8.1079 -4.0828 4.0803 26.0064
#
#
#
# Elastic Compliance Matrix: (Units=1/GPa)
#
#
# Indices 1 2 3 4 5 6 
#
# 1 0.019670 -0.009035 -0.001239 -0.004361 -0.006039 0.004778
# 2 -0.009035 0.020744 -0.005196 0.001897 0.010718 -0.002354
# 3 -0.001239 -0.005196 0.014686 -0.003248 -0.003272 0.003265
# 4 -0.004361 0.001897 -0.003248 0.031409 0.008713 0.001446
# 5 -0.006039 0.010718 -0.003272 0.008713 0.040674 -0.006149
# 6 0.004778 -0.002354 0.003265 0.001446 -0.006149 0.041825
#
#
# Mechanical properties :
#
#
# Convention : Reuss Voigt Hill
#
# Bulk Modulus (GPa) = 41.39191 45.94049 43.66620
# Shear Modulus (GPa) = 24.03823 28.41560 26.22692
#
# Velocity S-wave (km/s) = 3.49942 3.80473 3.65526
# Velocity P-wave (km/s) = 6.11674 6.53491 6.32928
#
# Compressibility (1/GPa) = 0.02415931
#
# Stress axis : x y z
#
# Youngs Moduli (GPa) = 50.83928 48.20611 68.09028
#
# Poissons Ratio (x) = 0.43555 0.08437
# Poissons Ratio (y) = 0.45934 0.35382
# Poissons Ratio (z) = 0.06299 0.25050
#
# Static dielectric constant tensor:
#      x y z
#    x 3.647550 -0.204470 -0.097340 
#    y -0.204470 3.544190 0.118490 
#    z -0.097340 0.118490 3.738110 
# 
# 
# High freq. dielectric constant tensor:
#      x y z
#    x 1.757130 -0.033490 0.010940 
#    y -0.033490 1.741870 0.012400 
#    z 0.010940 0.012400 1.778320 
# 
# From -- ./inp_files/369375.got.cif
#   From: 2010.06.25/outbox.cif.g09.slc.cpg/sg2_185_cif.got.tgz:369375.got - 2010.06.27 13:26:56.
