data_PCOD8041043
_publ_section_title
;
Structure prediction by ZEFSAII (Michael W. Deem and Ramdas Pophale) SiO2 
 PCOD8041043
Probable space group: P -1
;
_chemical_formula_sum "Si O2"
_cell_formula_units_Z 14
_cell_length_a 13.581217
_cell_length_b 7.049867
_cell_length_c 11.508818
_cell_angle_alpha 66.927019
_cell_angle_beta 112.344681
_cell_angle_gamma 83.241958
_cell_volume 890.419416
_symmetry_space_group_name_H-M "P -1"
_symmetry_group_IT_number 2
_symmetry_cell_setting 'triclinic'
loop_
_space_group_symop_operation_xyz
x,y,z
-x,-y,-z
loop_
_atom_site_type_symbol
_atom_site_label
_atom_site_fract_x
_atom_site_fract_y
_atom_site_fract_z
Si Si1 0.351471 0.019280 0.012587
Si Si2 0.985784 0.993675 0.802690
Si Si3 0.058083 0.579141 0.778475
Si Si4 0.248194 0.402216 0.727951
Si Si5 0.140364 0.117731 0.025115
Si Si6 0.527295 0.665156 0.058346
Si Si7 0.084240 0.536462 0.434908
O O1 0.267830 0.153542 0.840000
O O2 0.275082 0.018841 0.090905
O O3 0.442234 0.146950 0.048168
O O4 0.417624 0.774414 0.061815
O O5 0.039635 0.800756 0.784286
O O6 0.933940 0.210243 0.653388
O O7 0.886581 0.946474 0.843009
O O8 0.082765 0.010177 0.928085
O O9 0.152332 0.563469 0.726600
O O10 0.099841 0.378561 0.934679
O O11 0.940473 0.573647 0.668671
O O12 0.365331 0.456938 0.782667
O O13 0.209556 0.427025 0.569453
O O14 0.500000 0.500000 0.000000
O O15 0.000000 0.500000 0.500000
#
# Coordination Sequence:
#
# PCOD8041043 Si02
#       7
#     2   2   2   2   2   2   2
#     4   8  17  31  46  66  93 116 145 198 240 259
#     4  10  19  29  46  71  94 129 160 178 229 278
#     4   9  17  30  46  68  95 124 157 186 223 278
#     4   8  16  30  44  66  95 119 143 192 234 266
#     4   9  18  31  47  67  98 124 152 197 226 270
#     4   9  17  30  47  73  87 111 158 193 233 279
#     4   9  18  32  42  66 101 124 156 186 223 279
#
# _framework density 15.722927
#
# number of rings (size 3 to 8) (size 9 to 14) (size 15 to 20)
#    0.857    2.286    0.000    1.286    2.000    2.286 
#    2.571    0.000    0.000    0.857    0.000    2.000 
#    0.000    0.000    0.000    0.000    0.000    0.000 
#
# Total GULP energy -173453.599002 kJ/mol
# GULP energy per Si atom -12389.542786 kJ/mol
# Density = 1.568714 g / cm^3
# Si number density = 15.722927 Si / 1000 Ang^3
#
#
#
# Elastic Constant Matrix: (Units=GPa)
#
#
# Indices 1 2 3 4 5 6 
#
# 1 73.2642 14.1445 25.8397 -2.0345 5.3363 -11.0711
# 2 14.1445 82.5761 21.1473 -0.7219 9.7867 -10.1080
# 3 25.8397 21.1473 65.1353 -4.7410 6.8489 -4.5389
# 4 -2.0345 -0.7219 -4.7410 14.0952 7.7270 -1.5881
# 5 5.3363 9.7867 6.8489 7.7270 25.8668 -2.2367
# 6 -11.0711 -10.1080 -4.5389 -1.5881 -2.2367 18.1089
#
#
#
# Elastic Compliance Matrix: (Units=1/GPa)
#
#
# Indices 1 2 3 4 5 6 
#
# 1 0.017301 -0.000111 -0.005792 0.002663 -0.002007 0.009049
# 2 -0.000111 0.014442 -0.003446 0.002978 -0.004831 0.006794
# 3 -0.005792 -0.003446 0.019935 0.008600 -0.005381 -0.000379
# 4 0.002663 0.002978 0.008600 0.092293 -0.030680 0.009750
# 5 -0.002007 -0.004831 -0.005381 -0.030680 0.051351 -0.001620
# 6 0.009049 0.006794 -0.000379 0.009750 -0.001620 0.065106
#
#
# Mechanical properties :
#
#
# Convention : Reuss Voigt Hill
#
# Bulk Modulus (GPa) = 30.32335 38.13763 34.23049
# Shear Modulus (GPa) = 17.23428 22.27044 19.75236
#
# Velocity S-wave (km/s) = 3.31437 3.76763 3.54825
# Velocity P-wave (km/s) = 5.82878 6.57537 6.21330
#
# Compressibility (1/GPa) = 0.03297789
#
# Stress axis : x y z
#
# Youngs Moduli (GPa) = 57.80003 69.24288 50.16386
#
# Poissons Ratio (x) = 0.00772 0.29054
# Poissons Ratio (y) = 0.00644 0.17289
# Poissons Ratio (z) = 0.33477 0.23865
#
# Static dielectric constant tensor:
#      x y z
#    x 3.099970 0.075550 0.159980 
#    y 0.075550 2.826630 0.000820 
#    z 0.159980 0.000820 3.047110 
# 
# 
# High freq. dielectric constant tensor:
#      x y z
#    x 1.593540 0.003250 0.005920 
#    y 0.003250 1.595000 -0.002830 
#    z 0.005920 -0.002830 1.574850 
# 
# From -- ./inp_files/72849.got.cif
#   From: 2010.06.25/outbox.cif.g09.slc.cpg/sg2_37_cif.got.tgz:72849.got - 2010.06.27 13:26:56.
