data_PCOD8041899
_publ_section_title
;
Structure prediction by ZEFSAII (Michael W. Deem and Ramdas Pophale) SiO2 
 PCOD8041899
Probable space group: P -1
;
_chemical_formula_sum "Si O2"
_cell_formula_units_Z 16
_cell_length_a 16.024370
_cell_length_b 6.277605
_cell_length_c 16.020209
_cell_angle_alpha 61.904244
_cell_angle_beta 133.366793
_cell_angle_gamma 86.177572
_cell_volume 820.368371
_symmetry_space_group_name_H-M "P -1"
_symmetry_group_IT_number 2
_symmetry_cell_setting 'triclinic'
loop_
_space_group_symop_operation_xyz
x,y,z
-x,-y,-z
loop_
_atom_site_type_symbol
_atom_site_label
_atom_site_fract_x
_atom_site_fract_y
_atom_site_fract_z
Si Si1 0.103697 0.170862 0.471265
Si Si2 0.139923 0.876978 0.710906
Si Si3 0.558141 0.539688 0.948449
Si Si4 0.020114 0.158953 0.746473
Si Si5 0.536662 0.855653 0.295949
Si Si6 0.534375 0.088828 0.422442
Si Si7 0.765795 0.175528 0.539746
Si Si8 0.340989 0.747594 0.099634
O O1 0.950539 0.232966 0.364281
O O2 0.074862 0.482344 0.366474
O O3 0.179308 0.026182 0.639448
O O4 0.208412 0.920320 0.521211
O O5 0.056785 0.126975 0.679974
O O6 0.282654 0.565537 0.901773
O O7 0.582347 0.325657 0.925869
O O8 0.454697 0.889972 0.785253
O O9 0.500000 0.500000 0.000000
O O10 0.918113 0.051565 0.712810
O O11 0.166224 0.957367 0.938663
O O12 0.667773 0.538590 0.406254
O O13 0.386028 0.917611 0.156327
O O14 0.554153 0.859386 0.407147
O O15 0.680531 0.060096 0.543805
O O16 0.398856 0.429168 0.241109
O O17 0.500000 0.000000 0.500000
#
# Coordination Sequence:
#
# PCOD8041899 Si02
#       8
#     2   2   2   2   2   2   2   2
#     4  10  19  34  53  76 115 153 196 234 273 326
#     4   9  20  32  48  79 110 156 201 229 268 328
#     4  10  21  33  52  79 120 152 193 234 273 331
#     4  10  19  36  56  79 117 154 188 237 279 330
#     4  10  21  39  58  82 115 151 186 239 289 336
#     4  10  22  42  65  86 111 142 187 242 296 352
#     4  10  22  35  59  86 111 149 195 231 291 340
#     4   9  21  38  57  87 112 151 192 227 292 342
#
# _framework density 19.503432
#
# number of rings (size 3 to 8) (size 9 to 14) (size 15 to 20)
#    0.000    2.250    0.000    1.875    7.000    3.500 
#    4.500    0.625    0.000    3.750    0.000    0.000 
#    0.000    0.000    0.000    0.000    0.000    0.000 
#
# Total GULP energy -198304.846323 kJ/mol
# GULP energy per Si atom -12394.052895 kJ/mol
# Density = 1.945904 g / cm^3
# Si number density = 19.503432 Si / 1000 Ang^3
#
#
#
# Elastic Constant Matrix: (Units=GPa)
#
#
# Indices 1 2 3 4 5 6 
#
# 1 122.6776 48.0959 50.5258 8.3441 -2.7590 -0.6734
# 2 48.0959 109.6610 39.7599 4.4147 4.0713 -5.4178
# 3 50.5258 39.7599 75.0538 11.3732 5.6744 -2.2407
# 4 8.3441 4.4147 11.3732 27.8077 4.2565 7.8672
# 5 -2.7590 4.0713 5.6744 4.2565 31.6275 7.1311
# 6 -0.6734 -5.4178 -2.2407 7.8672 7.1311 23.6681
#
#
#
# Elastic Compliance Matrix: (Units=1/GPa)
#
#
# Indices 1 2 3 4 5 6 
#
# 1 0.012276 -0.003088 -0.006870 -0.000345 0.003164 -0.001846
# 2 -0.003088 0.012187 -0.004192 0.000190 -0.001735 0.002764
# 3 -0.006870 -0.004192 0.021622 -0.006729 -0.004011 0.004337
# 4 -0.000345 0.000190 -0.006729 0.043104 -0.001375 -0.014517
# 5 0.003164 -0.001735 -0.004011 -0.001375 0.035485 -0.010921
# 6 -0.001846 0.002764 0.004337 -0.014517 -0.010921 0.051358
#
#
# Mechanical properties :
#
#
# Convention : Reuss Voigt Hill
#
# Bulk Modulus (GPa) = 56.23052 64.90617 60.56835
# Shear Modulus (GPa) = 23.77999 27.88806 25.83402
#
# Velocity S-wave (km/s) = 3.49560 3.78551 3.64344
# Velocity P-wave (km/s) = 6.72205 7.24282 6.98729
#
# Compressibility (1/GPa) = 0.01778394
#
# Stress axis : x y z
#
# Youngs Moduli (GPa) = 81.45826 82.05693 46.24878
#
# Poissons Ratio (x) = 0.25339 0.31775
# Poissons Ratio (y) = 0.25154 0.19388
# Poissons Ratio (z) = 0.55965 0.34400
#
# Static dielectric constant tensor:
#      x y z
#    x 3.336540 0.038060 0.325810 
#    y 0.038060 3.686100 0.207990 
#    z 0.325810 0.207990 3.796480 
# 
# 
# High freq. dielectric constant tensor:
#      x y z
#    x 1.731700 -0.000850 0.025330 
#    y -0.000850 1.765010 0.007390 
#    z 0.025330 0.007390 1.760090 
# 
# From -- ./inp_files/37540.got.cif
#   From: 2010.06.25/outbox.cif.g09.slc.cpg/sg2_19_cif.got.tgz:37540.got - 2010.06.27 13:26:56.
