data_PCOD8041571
_publ_section_title
;
Structure prediction by ZEFSAII (Michael W. Deem and Ramdas Pophale) SiO2 
 PCOD8041571
Probable space group: P -1
;
_chemical_formula_sum "Si O2"
_cell_formula_units_Z 16
_cell_length_a 8.557312
_cell_length_b 22.309399
_cell_length_c 9.900096
_cell_angle_alpha 50.497686
_cell_angle_beta 74.376393
_cell_angle_gamma 40.541200
_cell_volume 857.207702
_symmetry_space_group_name_H-M "P -1"
_symmetry_group_IT_number 2
_symmetry_cell_setting 'triclinic'
loop_
_space_group_symop_operation_xyz
x,y,z
-x,-y,-z
loop_
_atom_site_type_symbol
_atom_site_label
_atom_site_fract_x
_atom_site_fract_y
_atom_site_fract_z
Si Si1 0.787257 0.068406 0.836052
Si Si2 0.555145 0.402218 0.917674
Si Si3 0.046878 0.671553 0.587834
Si Si4 0.148190 0.558486 0.236394
Si Si5 0.922343 0.181648 0.957237
Si Si6 0.311870 0.725253 0.416232
Si Si7 0.915818 0.452982 0.020965
Si Si8 0.215747 0.228205 0.774793
O O1 0.721432 0.179359 0.634519
O O2 0.526350 0.124940 0.876241
O O3 0.000000 0.000000 0.000000
O O4 0.916189 0.959967 0.852445
O O5 0.756178 0.395467 0.911713
O O6 0.714211 0.271204 0.999416
O O7 0.407748 0.431239 0.048720
O O8 0.326632 0.522698 0.695943
O O9 0.841629 0.736957 0.420433
O O10 0.108686 0.739003 0.506256
O O11 0.939060 0.672794 0.750080
O O12 0.382967 0.415169 0.440356
O O13 0.942140 0.648130 0.277464
O O14 0.007384 0.573617 0.116357
O O15 0.752428 0.242052 0.773585
O O16 0.131801 0.173432 0.916089
O O17 0.000000 0.500000 0.000000
#
# Coordination Sequence:
#
# PCOD8041571 Si02
#       8
#     2   2   2   2   2   2   2   2
#     4  10  21  32  48  79 105 139 173 215 255 294
#     4   8  17  32  54  74 105 137 167 203 251 315
#     4   8  18  34  51  79 107 134 162 210 268 301
#     4  10  19  33  54  81 104 137 167 205 268 306
#     4   9  17  34  52  78 104 140 171 212 252 297
#     4   9  18  30  52  76 109 133 168 210 256 309
#     4  10  21  32  49  81 110 136 163 206 265 315
#     4  10  19  33  55  81 103 131 174 219 251 305
#
# _framework density 18.665254999999998
#
# number of rings (size 3 to 8) (size 9 to 14) (size 15 to 20)
#    0.750    2.000    0.000    1.500    1.750    5.500 
#    0.000    0.000    0.000    0.750    6.500    7.000 
#    0.000    0.000    0.000    0.000    0.000    0.000 
#
# Total GULP energy -198215.533146 kJ/mol
# GULP energy per Si atom -12388.470822 kJ/mol
# Density = 1.862277 g / cm^3
# Si number density = 18.665255 Si / 1000 Ang^3
#
#
#
# Elastic Constant Matrix: (Units=GPa)
#
#
# Indices 1 2 3 4 5 6 
#
# 1 76.1520 32.2919 26.9143 -9.8046 4.8701 12.6275
# 2 32.2919 80.9631 37.7189 -22.7847 -6.2306 19.6753
# 3 26.9143 37.7189 53.1337 -4.6130 -1.1763 11.0621
# 4 -9.8046 -22.7847 -4.6130 25.2491 5.5674 -5.1186
# 5 4.8701 -6.2306 -1.1763 5.5674 28.8698 -8.4451
# 6 12.6275 19.6753 11.0621 -5.1186 -8.4451 30.0112
#
#
#
# Elastic Compliance Matrix: (Units=1/GPa)
#
#
# Indices 1 2 3 4 5 6 
#
# 1 0.018051 -0.002543 -0.006155 0.003961 -0.005973 -0.004664
# 2 -0.002543 0.028058 -0.015145 0.019949 -0.000457 -0.008468
# 3 -0.006155 -0.015145 0.031962 -0.010576 0.000872 -0.000821
# 4 0.003961 0.019949 -0.010576 0.058522 -0.009080 -0.003421
# 5 -0.005973 -0.000457 0.000872 -0.009080 0.040983 0.012475
# 6 -0.004664 -0.008468 -0.000821 -0.003421 0.012475 0.044065
#
#
# Mechanical properties :
#
#
# Convention : Reuss Voigt Hill
#
# Bulk Modulus (GPa) = 32.91270 44.89990 38.90630
# Shear Modulus (GPa) = 17.89189 24.38093 21.13641
#
# Velocity S-wave (km/s) = 3.09943 3.61809 3.36876
# Velocity P-wave (km/s) = 5.52087 6.44683 6.00174
#
# Compressibility (1/GPa) = 0.03038341
#
# Stress axis : x y z
#
# Youngs Moduli (GPa) = 55.39864 35.63999 31.28757
#
# Poissons Ratio (x) = 0.09065 0.19258
# Poissons Ratio (y) = 0.14090 0.47385
# Poissons Ratio (z) = 0.34100 0.53977
#
# Static dielectric constant tensor:
#      x y z
#    x 3.580580 0.234720 -0.163430 
#    y 0.234720 3.415830 -0.227330 
#    z -0.163430 -0.227330 3.276760 
# 
# 
# High freq. dielectric constant tensor:
#      x y z
#    x 1.735540 0.012990 -0.003350 
#    y 0.012990 1.698230 -0.012860 
#    z -0.003350 -0.012860 1.693260 
# 
# From -- ./inp_files/223403.got.cif
#   From: 2010.06.25/outbox.cif.g09.slc.cpg/sg2_112_cif.got.tgz:223403.got - 2010.06.27 13:26:56.
