data_PCOD8041841
_publ_section_title
;
Structure prediction by ZEFSAII (Michael W. Deem and Ramdas Pophale) SiO2 
 PCOD8041841
Probable space group: P -1
;
_chemical_formula_sum "Si O2"
_cell_formula_units_Z 14
_cell_length_a 9.189283
_cell_length_b 13.940067
_cell_length_c 21.404957
_cell_angle_alpha 22.765233
_cell_angle_beta 126.475242
_cell_angle_gamma 113.544993
_cell_volume 749.453859
_symmetry_space_group_name_H-M "P -1"
_symmetry_group_IT_number 2
_symmetry_cell_setting 'triclinic'
loop_
_space_group_symop_operation_xyz
x,y,z
-x,-y,-z
loop_
_atom_site_type_symbol
_atom_site_label
_atom_site_fract_x
_atom_site_fract_y
_atom_site_fract_z
Si Si1 0.224886 0.154188 0.217833
Si Si2 0.693493 0.851950 0.352247
Si Si3 0.810633 0.301223 0.073250
Si Si4 0.993204 0.248070 0.768395
Si Si5 0.892594 0.231419 0.000795
Si Si6 0.606591 0.627085 0.588769
Si Si7 0.673496 0.120980 0.834736
O O1 0.061144 0.169701 0.219773
O O2 0.111319 0.215212 0.084542
O O3 0.419180 0.845194 0.452096
O O4 0.297441 0.386465 0.111856
O O5 0.887391 0.584406 0.530060
O O6 0.670706 0.786634 0.457623
O O7 0.485776 0.938184 0.209020
O O8 0.738120 0.113762 0.206707
O O9 0.747141 0.315397 0.975074
O O10 0.820038 0.173886 0.793782
O O11 0.073791 0.076345 0.827471
O O12 0.185181 0.150092 0.923849
O O13 0.798622 0.457587 0.785629
O O14 0.549463 0.403333 0.675632
#
# Coordination Sequence:
#
# PCOD8041841 Si02
#       7
#     2   2   2   2   2   2   2
#     4   9  19  41  55  69 104 150 168 216 259 320
#     4  11  20  34  52  87 104 134 171 227 246 308
#     4   9  22  38  53  73 112 134 179 212 270 295
#     4   9  17  32  54  78 110 137 169 202 268 312
#     4   9  18  36  55  77 100 144 171 210 252 328
#     4  10  19  33  61  76  99 138 185 200 263 310
#     4   9  18  32  52  82 109 137 164 214 258 318
#
# _framework density 18.680268999999999
#
# number of rings (size 3 to 8) (size 9 to 14) (size 15 to 20)
#    0.857    1.714    0.000    4.286    0.000    1.714 
#    2.571    2.143    0.000    0.000    0.000    0.000 
#    0.000    0.000    0.000    0.000    0.000    0.000 
#
# Total GULP energy -173507.075531 kJ/mol
# GULP energy per Si atom -12393.362538 kJ/mol
# Density = 1.863775 g / cm^3
# Si number density = 18.680269 Si / 1000 Ang^3
#
#
#
# Elastic Constant Matrix: (Units=GPa)
#
#
# Indices 1 2 3 4 5 6 
#
# 1 37.4321 6.9620 25.4636 -7.3363 3.4860 4.4208
# 2 6.9620 39.0083 24.2464 2.8578 0.7340 2.5717
# 3 25.4636 24.2464 64.6119 0.6152 10.1505 12.2813
# 4 -7.3363 2.8578 0.6152 23.3866 -3.4497 -3.1742
# 5 3.4860 0.7340 10.1505 -3.4497 31.0534 -7.3877
# 6 4.4208 2.5717 12.2813 -3.1742 -7.3877 25.1012
#
#
#
# Elastic Compliance Matrix: (Units=1/GPa)
#
#
# Indices 1 2 3 4 5 6 
#
# 1 0.040883 0.003064 -0.018988 0.014237 0.004277 0.004835
# 2 0.003064 0.034692 -0.015972 -0.001422 0.005098 0.005041
# 3 -0.018988 -0.015972 0.034481 -0.009285 -0.013873 -0.017147
# 4 0.014237 -0.001422 -0.009285 0.050651 0.009828 0.011479
# 5 0.004277 0.005098 -0.013873 0.009828 0.041759 0.019045
# 6 0.004835 0.005041 -0.017147 0.011479 0.019045 0.053917
#
#
# Mechanical properties :
#
#
# Convention : Reuss Voigt Hill
#
# Bulk Modulus (GPa) = 21.61513 28.26623 24.94068
# Shear Modulus (GPa) = 14.89877 21.53358 18.21618
#
# Velocity S-wave (km/s) = 2.82719 3.39889 3.12614
# Velocity P-wave (km/s) = 4.71737 5.52881 5.13913
#
# Compressibility (1/GPa) = 0.04626388
#
# Stress axis : x y z
#
# Youngs Moduli (GPa) = 24.45991 28.82488 29.00155
#
# Poissons Ratio (x) = -0.08831 0.55069
# Poissons Ratio (y) = -0.07494 0.46320
# Poissons Ratio (z) = 0.46445 0.46038
#
# Static dielectric constant tensor:
#      x y z
#    x 3.108810 -0.193500 0.219410 
#    y -0.193500 3.436500 -0.038100 
#    z 0.219410 -0.038100 3.358910 
# 
# 
# High freq. dielectric constant tensor:
#      x y z
#    x 1.693110 -0.015060 0.019070 
#    y -0.015060 1.722360 0.000140 
#    z 0.019070 0.000140 1.716580 
# 
# From -- ./inp_files/180822.got.cif
#   From: 2010.06.25/outbox.cif.g09.slc.cpg/sg2_91_cif.got.tgz:180822.got - 2010.06.27 13:26:56.
