data_PCOD8041519
_publ_section_title
;
Structure prediction by ZEFSAII (Michael W. Deem and Ramdas Pophale) SiO2 
 PCOD8041519
Probable space group: P -1
;
_chemical_formula_sum "Si O2"
_cell_formula_units_Z 16
_cell_length_a 13.938594
_cell_length_b 25.524467
_cell_length_c 25.584203
_cell_angle_alpha 11.253203
_cell_angle_beta 150.012426
_cell_angle_gamma 149.668140
_cell_volume 879.078724
_symmetry_space_group_name_H-M "P -1"
_symmetry_group_IT_number 2
_symmetry_cell_setting 'triclinic'
loop_
_space_group_symop_operation_xyz
x,y,z
-x,-y,-z
loop_
_atom_site_type_symbol
_atom_site_label
_atom_site_fract_x
_atom_site_fract_y
_atom_site_fract_z
Si Si1 0.327759 0.795596 0.778885
Si Si2 0.956194 0.991269 0.361369
Si Si3 0.855187 0.471955 0.243210
Si Si4 0.265547 0.751641 0.151360
Si Si5 0.779477 0.907967 0.703128
Si Si6 0.880630 0.218143 0.208159
Si Si7 0.490574 0.719179 0.669041
Si Si8 0.665090 0.772120 0.357995
O O1 0.317137 0.795327 0.837791
O O2 0.116336 0.823672 0.626769
O O3 0.488549 0.050496 0.590907
O O4 0.389004 0.517493 0.059366
O O5 0.770302 0.805610 0.430850
O O6 0.859630 0.175811 0.177327
O O7 0.065836 0.169206 0.191847
O O8 0.734469 0.393392 0.316221
O O9 0.070888 0.607397 0.228923
O O10 0.852406 0.215677 0.454265
O O11 0.758438 0.702404 0.942312
O O12 0.439767 0.826133 0.202601
O O13 0.333492 0.540453 0.349113
O O14 0.227681 0.021404 0.837739
O O15 0.570080 0.868239 0.614743
O O16 0.000000 0.000000 0.500000
O O17 0.000000 0.500000 0.000000
#
# Coordination Sequence:
#
# PCOD8041519 Si02
#       8
#     2   2   2   2   2   2   2   2
#     4  10  21  35  48  73 100 128 169 207 238 290
#     4  10  19  33  53  73  99 135 157 199 255 298
#     4  12  20  33  48  69  99 135 167 198 238 281
#     4  10  20  34  48  72  98 131 164 208 234 290
#     4  11  20  30  46  72 100 128 164 200 232 296
#     4  10  20  33  51  73  99 128 163 204 248 297
#     4  11  22  33  48  68  99 138 167 200 237 285
#     4  10  20  33  51  70 100 128 164 199 253 287
#
# _framework density 18.200872
#
# number of rings (size 3 to 8) (size 9 to 14) (size 15 to 20)
#    0.000    1.500    2.500    5.250    0.000    3.000 
#    0.000    0.000    0.000    0.000    0.000    1.750 
#    0.000    0.000    0.000    0.375    0.000    0.000 
#
# Total GULP energy -198265.059334 kJ/mol
# GULP energy per Si atom -12391.566208 kJ/mol
# Density = 1.815945 g / cm^3
# Si number density = 18.200872 Si / 1000 Ang^3
#
#
#
# Elastic Constant Matrix: (Units=GPa)
#
#
# Indices 1 2 3 4 5 6 
#
# 1 85.0883 24.9932 0.5542 -12.9241 -4.7752 10.5458
# 2 24.9932 76.1234 -2.5312 -11.2209 1.2726 12.8082
# 3 0.5542 -2.5312 69.4314 -21.5520 -2.0960 0.8212
# 4 -12.9241 -11.2209 -21.5520 22.3630 4.5361 -2.8258
# 5 -4.7752 1.2726 -2.0960 4.5361 24.9834 -8.4988
# 6 10.5458 12.8082 0.8212 -2.8258 -8.4988 24.8803
#
#
#
# Elastic Compliance Matrix: (Units=1/GPa)
#
#
# Indices 1 2 3 4 5 6 
#
# 1 0.014356 -0.002687 0.002620 0.008962 0.000216 -0.003697
# 2 -0.002687 0.017375 0.004050 0.011194 -0.006064 -0.008740
# 3 0.002620 0.004050 0.022367 0.025478 -0.003178 -0.002125
# 4 0.008962 0.011194 0.025478 0.082098 -0.013569 -0.005713
# 5 0.000216 -0.006064 -0.003178 -0.013569 0.048785 0.018258
# 6 -0.003697 -0.008740 -0.002125 -0.005713 0.018258 0.051917
#
#
# Mechanical properties :
#
#
# Convention : Reuss Voigt Hill
#
# Bulk Modulus (GPa) = 16.11232 30.74172 23.42702
# Shear Modulus (GPa) = 20.03037 28.28713 24.15875
#
# Velocity S-wave (km/s) = 3.32100 3.94656 3.64722
# Velocity P-wave (km/s) = 4.85563 6.13955 5.53494
#
# Compressibility (1/GPa) = 0.06206430
#
# Stress axis : x y z
#
# Youngs Moduli (GPa) = 69.65610 57.55266 44.70823
#
# Poissons Ratio (x) = 0.15464 -0.11712
# Poissons Ratio (y) = 0.18716 -0.18107
# Poissons Ratio (z) = -0.18247 -0.23309
#
# Static dielectric constant tensor:
#      x y z
#    x 3.693820 0.027480 -0.055440 
#    y 0.027480 3.395870 -0.144930 
#    z -0.055440 -0.144930 3.377470 
# 
# 
# High freq. dielectric constant tensor:
#      x y z
#    x 1.688270 0.020370 0.000240 
#    y 0.020370 1.670510 -0.022290 
#    z 0.000240 -0.022290 1.717310 
# 
# From -- ./inp_files/101434.got.cif
#   From: 2010.06.25/outbox.cif.g09.slc.cpg/sg2_51_cif.got.tgz:101434.got - 2010.06.27 13:26:56.
