data_PCOD8041350
_publ_section_title
;
Structure prediction by ZEFSAII (Michael W. Deem and Ramdas Pophale) SiO2 
 PCOD8041350
Probable space group: P -1
;
_chemical_formula_sum "Si O2"
_cell_formula_units_Z 16
_cell_length_a 17.147263
_cell_length_b 10.127479
_cell_length_c 14.473925
_cell_angle_alpha 58.631878
_cell_angle_beta 157.103115
_cell_angle_gamma 110.936817
_cell_volume 776.483268
_symmetry_space_group_name_H-M "P -1"
_symmetry_group_IT_number 2
_symmetry_cell_setting 'triclinic'
loop_
_space_group_symop_operation_xyz
x,y,z
-x,-y,-z
loop_
_atom_site_type_symbol
_atom_site_label
_atom_site_fract_x
_atom_site_fract_y
_atom_site_fract_z
Si Si1 0.053286 0.454431 0.215326
Si Si2 0.726464 0.415429 0.729990
Si Si3 0.308399 0.925546 0.205884
Si Si4 0.735390 0.802533 0.806934
Si Si5 0.950393 0.644200 0.557679
Si Si6 0.628865 0.636302 0.915443
Si Si7 0.872883 0.815410 0.231369
Si Si8 0.709119 0.406673 0.321746
O O1 0.260790 0.463247 0.384183
O O2 0.109457 0.323791 0.410117
O O3 0.912577 0.393774 0.014553
O O4 0.936789 0.644663 0.053009
O O5 0.500000 0.500000 0.500000
O O6 0.757921 0.232768 0.794096
O O7 0.568222 0.879339 0.512828
O O8 0.189834 0.062711 0.106322
O O9 0.239521 0.999417 0.000361
O O10 0.592778 0.746865 0.744804
O O11 0.872964 0.808468 0.347248
O O12 0.833876 0.523040 0.443033
O O13 0.208845 0.552486 0.860721
O O14 0.387745 0.650321 0.672973
O O15 0.740489 0.703085 0.094514
O O16 0.120546 0.747415 0.491095
O O17 0.500000 0.500000 0.000000
#
# Coordination Sequence:
#
# PCOD8041350 Si02
#       8
#     2   2   2   2   2   2   2   2
#     4  10  23  40  64  89 112 152 208 246 283 349
#     4  11  23  44  63  83 115 161 202 241 294 351
#     4  10  21  38  59  88 127 156 183 244 305 344
#     4   9  19  38  59  92 120 150 192 248 294 347
#     4  10  19  32  54  82 115 145 194 246 277 339
#     4   9  17  31  51  79 121 150 188 236 284 345
#     4  10  19  34  48  83 124 150 184 241 293 344
#     4  11  17  29  53  83 116 164 192 222 296 355
#
# _framework density 20.605723000000001
#
# number of rings (size 3 to 8) (size 9 to 14) (size 15 to 20)
#    0.000    2.000    3.750    1.500    1.750    0.500 
#    6.750    0.625    0.000    0.750    0.000    0.000 
#    0.000    0.000    0.000    0.000    0.000    0.000 
#
# Total GULP energy -198235.496040 kJ/mol
# GULP energy per Si atom -12389.718503 kJ/mol
# Density = 2.055882 g / cm^3
# Si number density = 20.605723 Si / 1000 Ang^3
#
#
#
# Elastic Constant Matrix: (Units=GPa)
#
#
# Indices 1 2 3 4 5 6 
#
# 1 137.0859 22.6814 48.8332 3.8721 -7.5886 25.5086
# 2 22.6814 74.1089 15.6369 8.1901 -0.0851 1.2051
# 3 48.8332 15.6369 82.2354 -4.2176 -7.8834 15.3433
# 4 3.8721 8.1901 -4.2176 16.9933 8.6327 -0.7241
# 5 -7.5886 -0.0851 -7.8834 8.6327 41.4292 0.7394
# 6 25.5086 1.2051 15.3433 -0.7241 0.7394 27.3982
#
#
#
# Elastic Compliance Matrix: (Units=1/GPa)
#
#
# Indices 1 2 3 4 5 6 
#
# 1 0.010928 -0.001749 -0.004752 -0.004222 0.002109 -0.007605
# 2 -0.001749 0.015438 -0.002637 -0.008032 0.000844 0.002191
# 3 -0.004752 -0.002637 0.016776 0.005699 0.001213 -0.004736
# 4 -0.004222 -0.008032 0.005699 0.072831 -0.014942 0.003421
# 5 0.002109 0.000844 0.001213 -0.014942 0.027939 -0.003829
# 6 -0.007605 0.002191 -0.004736 0.003421 -0.003829 0.046329
#
#
# Mechanical properties :
#
#
# Convention : Reuss Voigt Hill
#
# Bulk Modulus (GPa) = 40.21535 51.97035 46.09285
# Shear Modulus (GPa) = 23.06221 30.91604 26.98913
#
# Velocity S-wave (km/s) = 3.34909 3.87765 3.62303
# Velocity P-wave (km/s) = 5.87488 6.73233 6.31817
#
# Compressibility (1/GPa) = 0.02486613
#
# Stress axis : x y z
#
# Youngs Moduli (GPa) = 91.50800 64.77389 59.60960
#
# Poissons Ratio (x) = 0.11330 0.28327
# Poissons Ratio (y) = 0.16006 0.15717
# Poissons Ratio (z) = 0.43486 0.17079
#
# Static dielectric constant tensor:
#      x y z
#    x 4.334800 0.300920 -0.214900 
#    y 0.300920 3.632500 0.087370 
#    z -0.214900 0.087370 4.024960 
# 
# 
# High freq. dielectric constant tensor:
#      x y z
#    x 1.807220 0.019830 -0.015740 
#    y 0.019830 1.763920 0.010990 
#    z -0.015740 0.010990 1.803590 
# 
# From -- ./inp_files/538439.got.cif
#   From: 2010.06.25/outbox.cif.g09.slc.cpg/sg2_270_cif.got.tgz:538439.got - 2010.06.27 13:26:56.
