data_PCOD8041263
_publ_section_title
;
Structure prediction by ZEFSAII (Michael W. Deem and Ramdas Pophale) SiO2 
 PCOD8041263
Probable space group: P -1
;
_chemical_formula_sum "Si O2"
_cell_formula_units_Z 16
_cell_length_a 18.695177
_cell_length_b 17.198224
_cell_length_c 14.111101
_cell_angle_alpha 164.224070
_cell_angle_beta 39.972022
_cell_angle_gamma 138.438227
_cell_volume 790.925282
_symmetry_space_group_name_H-M "P -1"
_symmetry_group_IT_number 2
_symmetry_cell_setting 'triclinic'
loop_
_space_group_symop_operation_xyz
x,y,z
-x,-y,-z
loop_
_atom_site_type_symbol
_atom_site_label
_atom_site_fract_x
_atom_site_fract_y
_atom_site_fract_z
Si Si1 0.356618 0.516479 0.114561
Si Si2 0.431543 0.269941 0.364547
Si Si3 0.690047 0.084958 0.068056
Si Si4 0.789684 0.713889 0.695712
Si Si5 0.390514 0.168380 0.851554
Si Si6 0.975550 0.146205 0.297174
Si Si7 0.470596 0.390181 0.670736
Si Si8 0.894392 0.575800 0.760342
O O1 0.225112 0.530848 0.286696
O O2 0.413905 0.838938 0.420016
O O3 0.414437 0.371047 0.973753
O O4 0.378643 0.339729 0.788585
O O5 0.500000 0.500000 0.500000
O O6 0.407304 0.401320 0.646854
O O7 0.500000 0.000000 0.000000
O O8 0.318995 0.147102 0.281189
O O9 0.756325 0.380406 0.314159
O O10 0.563415 0.152266 0.305153
O O11 0.753057 0.934892 0.912489
O O12 0.920644 0.756253 0.628419
O O13 0.737339 0.808685 0.959759
O O14 0.465104 0.297727 0.014539
O O15 0.907290 0.426115 0.673896
O O16 0.000000 0.000000 0.000000
O O17 0.898281 0.919510 0.171040
O O18 0.000000 0.500000 0.500000
#
# Coordination Sequence:
#
# PCOD8041263 Si02
#       8
#     2   2   2   2   2   2   2   2
#     4  12  23  35  51  77 113 151 180 210 257 319
#     4  10  20  37  56  77 105 139 180 226 264 305
#     4  10  21  36  55  80 104 136 179 223 267 316
#     4  11  20  35  56  80 106 140 178 220 267 315
#     4  11  21  34  49  75 112 149 178 207 250 320
#     4  10  19  32  50  74 102 133 171 218 260 303
#     4  10  23  36  54  79 111 147 178 215 263 316
#     4  10  19  33  50  72 100 139 179 217 253 296
#
# _framework density 20.229471
#
# number of rings (size 3 to 8) (size 9 to 14) (size 15 to 20)
#    0.000    1.500    0.000    9.000    0.000    5.000 
#    0.000    0.000    0.000    0.000    0.000    5.250 
#    0.000    0.000    0.000    0.000    0.000    0.000 
#
# Total GULP energy -198285.434107 kJ/mol
# GULP energy per Si atom -12392.839632 kJ/mol
# Density = 2.018343 g / cm^3
# Si number density = 20.229471 Si / 1000 Ang^3
#
#
#
# Elastic Constant Matrix: (Units=GPa)
#
#
# Indices 1 2 3 4 5 6 
#
# 1 114.3300 39.7948 58.8025 15.9942 9.0458 -12.9627
# 2 39.7948 79.0570 51.9922 29.0881 2.5926 -14.0590
# 3 58.8025 51.9922 93.4662 28.0136 9.6017 -13.2831
# 4 15.9942 29.0881 28.0136 45.4022 -12.3673 -3.3741
# 5 9.0458 2.5926 9.6017 -12.3673 35.1819 3.1721
# 6 -12.9627 -14.0590 -13.2831 -3.3741 3.1721 34.8753
#
#
#
# Elastic Compliance Matrix: (Units=1/GPa)
#
#
# Indices 1 2 3 4 5 6 
#
# 1 0.013266 -0.001934 -0.007151 0.000773 -0.001190 0.001611
# 2 -0.001934 0.023413 -0.007781 -0.009977 -0.003069 0.005070
# 3 -0.007151 -0.007781 0.023254 -0.008595 -0.007216 0.002887
# 4 0.000773 -0.009977 -0.008595 0.037590 0.016535 -0.004875
# 5 -0.001190 -0.003069 -0.007216 0.016535 0.037299 -0.006221
# 6 0.001611 0.005070 0.002887 -0.004875 -0.006221 0.032510
#
#
# Mechanical properties :
#
#
# Convention : Reuss Voigt Hill
#
# Bulk Modulus (GPa) = 38.16674 65.33693 51.75183
# Shear Modulus (GPa) = 23.83253 32.17612 28.00433
#
# Velocity S-wave (km/s) = 3.43608 3.99251 3.72470
# Velocity P-wave (km/s) = 5.88643 7.32267 6.64348
#
# Compressibility (1/GPa) = 0.02620082
#
# Stress axis : x y z
#
# Youngs Moduli (GPa) = 75.37880 42.71118 43.00352
#
# Poissons Ratio (x) = 0.08260 0.30752
# Poissons Ratio (y) = 0.14579 0.33462
# Poissons Ratio (z) = 0.53904 0.33234
#
# Static dielectric constant tensor:
#      x y z
#    x 4.017320 -0.423640 -0.025850 
#    y -0.423640 4.190350 0.755810 
#    z -0.025850 0.755810 4.386130 
# 
# 
# High freq. dielectric constant tensor:
#      x y z
#    x 1.795210 -0.005640 -0.004940 
#    y -0.005640 1.774580 0.043580 
#    z -0.004940 0.043580 1.772230 
# 
# From -- ./inp_files/364744.got.cif
#   From: 2010.06.25/outbox.cif.g09.slc.cpg/sg2_183_cif.got.tgz:364744.got - 2010.06.27 13:26:56.
