data_PCOD8041538
_publ_section_title
;
Structure prediction by ZEFSAII (Michael W. Deem and Ramdas Pophale) SiO2 
 PCOD8041538
Probable space group: P -1
;
_chemical_formula_sum "Si O2"
_cell_formula_units_Z 16
_cell_length_a 16.902277
_cell_length_b 13.856194
_cell_length_c 19.508978
_cell_angle_alpha 150.008421
_cell_angle_beta 158.784977
_cell_angle_gamma 40.933179
_cell_volume 791.696242
_symmetry_space_group_name_H-M "P -1"
_symmetry_group_IT_number 2
_symmetry_cell_setting 'triclinic'
loop_
_space_group_symop_operation_xyz
x,y,z
-x,-y,-z
loop_
_atom_site_type_symbol
_atom_site_label
_atom_site_fract_x
_atom_site_fract_y
_atom_site_fract_z
Si Si1 0.833472 0.985667 0.560307
Si Si2 0.941265 0.482571 0.554462
Si Si3 0.315708 0.286631 0.143242
Si Si4 0.614652 0.236431 0.242094
Si Si5 0.799603 0.681813 0.448919
Si Si6 0.300679 0.404049 0.882746
Si Si7 0.281066 0.699021 0.420874
Si Si8 0.010883 0.230751 0.655602
O O1 0.691560 0.142412 0.522220
O O2 0.759809 0.891999 0.519785
O O3 0.783285 0.811320 0.355400
O O4 0.103466 0.090565 0.845907
O O5 0.700143 0.344377 0.305485
O O6 0.891854 0.680525 0.600880
O O7 0.008917 0.354550 0.469440
O O8 0.147939 0.542999 0.813716
O O9 0.432575 0.332394 0.190714
O O10 0.232406 0.475465 0.215048
O O11 0.493722 0.239514 0.312506
O O12 0.834200 0.284064 0.495380
O O13 0.500000 0.000000 0.000000
O O14 0.564134 0.504646 0.142563
O O15 0.254281 0.365217 0.903601
O O16 0.050004 0.709203 0.280581
O O17 0.000000 0.000000 0.500000
#
# Coordination Sequence:
#
# PCOD8041538 Si02
#       8
#     2   2   2   2   2   2   2   2
#     4  11  20  34  55  80 109 145 189 223 265 330
#     4   9  19  33  47  75 112 140 176 225 271 317
#     4  10  22  38  55  83 111 146 184 220 284 331
#     4  10  20  32  55  82 108 138 176 230 279 321
#     4  10  21  33  51  79 112 148 181 222 279 317
#     4  10  20  33  53  81 113 141 178 228 275 322
#     4  10  22  37  57  80 114 147 177 228 277 330
#     4  10  19  33  53  84 109 133 178 223 280 323
#
# _framework density 20.209769999999999
#
# number of rings (size 3 to 8) (size 9 to 14) (size 15 to 20)
#    0.000    2.000    1.250    4.125    1.750    4.000 
#    0.000    0.000    0.000    3.000    0.000    9.625 
#    0.000    0.000    0.000    0.000    0.000    0.000 
#
# Total GULP energy -198225.833438 kJ/mol
# GULP energy per Si atom -12389.114590 kJ/mol
# Density = 2.016377 g / cm^3
# Si number density = 20.209770 Si / 1000 Ang^3
#
#
#
# Elastic Constant Matrix: (Units=GPa)
#
#
# Indices 1 2 3 4 5 6 
#
# 1 112.6969 60.7752 35.1780 13.3257 26.4147 6.1114
# 2 60.7752 120.0025 28.5280 1.2762 12.7284 17.5221
# 3 35.1780 28.5280 89.1202 0.3808 22.7472 -4.4944
# 4 13.3257 1.2762 0.3808 18.1775 2.1513 1.7101
# 5 26.4147 12.7284 22.7472 2.1513 23.8390 5.5021
# 6 6.1114 17.5221 -4.4944 1.7101 5.5021 38.0945
#
#
#
# Elastic Compliance Matrix: (Units=1/GPa)
#
#
# Indices 1 2 3 4 5 6 
#
# 1 0.017783 -0.007652 -0.000577 -0.011038 -0.014818 0.003234
# 2 -0.007652 0.013183 -0.002840 0.004712 0.005139 -0.006125
# 3 -0.000577 -0.002840 0.016431 0.001533 -0.014912 0.005422
# 4 -0.011038 0.004712 0.001533 0.062670 0.003409 -0.003521
# 5 -0.014818 0.005139 -0.014912 0.003409 0.072397 -0.012355
# 6 0.003234 -0.006125 0.005422 -0.003521 -0.012355 0.031131
#
#
# Mechanical properties :
#
#
# Convention : Reuss Voigt Hill
#
# Bulk Modulus (GPa) = 39.59168 63.42023 51.50596
# Shear Modulus (GPa) = 20.47889 29.17809 24.82849
#
# Velocity S-wave (km/s) = 3.18672 3.80381 3.50885
# Velocity P-wave (km/s) = 5.75961 7.12328 6.47743
#
# Compressibility (1/GPa) = 0.02525783
#
# Stress axis : x y z
#
# Youngs Moduli (GPa) = 56.23244 75.85552 60.86082
#
# Poissons Ratio (x) = 0.58046 0.03514
# Poissons Ratio (y) = 0.43030 0.17285
# Poissons Ratio (z) = 0.03247 0.21543
#
# Static dielectric constant tensor:
#      x y z
#    x 4.145830 0.447050 0.249160 
#    y 0.447050 4.035100 -0.297770 
#    z 0.249160 -0.297770 3.501110 
# 
# 
# High freq. dielectric constant tensor:
#      x y z
#    x 1.782770 0.031710 0.020240 
#    y 0.031710 1.783560 -0.031260 
#    z 0.020240 -0.031260 1.772130 
# 
# From -- ./inp_files/425585.got.cif
#   From: 2010.06.25/outbox.cif.g09.slc.cpg/sg2_213_cif.got.tgz:425585.got - 2010.06.27 13:26:56.
