data_PCOD8041606
_publ_section_title
;
Structure prediction by ZEFSAII (Michael W. Deem and Ramdas Pophale) SiO2 
 PCOD8041606
Probable space group: P -1
;
_chemical_formula_sum "Si O2"
_cell_formula_units_Z 16
_cell_length_a 18.516234
_cell_length_b 12.411058
_cell_length_c 12.598798
_cell_angle_alpha 148.499885
_cell_angle_beta 45.302051
_cell_angle_gamma 143.060946
_cell_volume 906.921915
_symmetry_space_group_name_H-M "P -1"
_symmetry_group_IT_number 2
_symmetry_cell_setting 'triclinic'
loop_
_space_group_symop_operation_xyz
x,y,z
-x,-y,-z
loop_
_atom_site_type_symbol
_atom_site_label
_atom_site_fract_x
_atom_site_fract_y
_atom_site_fract_z
Si Si1 0.469966 0.701960 0.675387
Si Si2 0.659348 0.570276 0.804206
Si Si3 0.648237 0.253942 0.959158
Si Si4 0.834365 0.098231 0.005235
Si Si5 0.962312 0.171636 0.730920
Si Si6 0.084460 0.498950 0.062971
Si Si7 0.539102 0.315532 0.919774
Si Si8 0.354321 0.760000 0.642957
O O1 0.500000 0.500000 0.500000
O O2 0.395314 0.646952 0.597706
O O3 0.594911 0.965628 0.759353
O O4 0.386068 0.698997 0.851468
O O5 0.642330 0.457398 0.844011
O O6 0.683483 0.411779 0.564736
O O7 0.772757 0.848944 0.926404
O O8 0.540772 0.566030 0.888026
O O9 0.792224 0.414017 0.931461
O O10 0.598045 0.351387 0.003566
O O11 0.848050 0.035825 0.815974
O O12 0.758551 0.226647 0.191427
O O13 0.968670 0.290235 0.075152
O O14 0.926852 0.268543 0.746959
O O15 0.000000 0.000000 0.500000
O O16 0.077166 0.391121 0.860986
O O17 0.461912 0.031823 0.728364
#
# Coordination Sequence:
#
# PCOD8041606 Si02
#       8
#     2   2   2   2   2   2   2   2
#     4  10  21  33  51  81 103 139 174 205 268 321
#     4  10  19  34  58  77 104 135 182 223 253 306
#     4  10  20  37  52  71 116 138 165 219 262 314
#     4   9  20  32  50  81 102 133 178 215 260 307
#     4   9  19  33  51  74 104 138 175 211 254 310
#     4   9  20  34  49  76 106 139 170 209 264 314
#     4   9  20  36  53  80 101 141 179 215 264 305
#     4  10  19  33  55  77 109 134 171 223 264 307
#
# _framework density 17.642092000000002
#
# number of rings (size 3 to 8) (size 9 to 14) (size 15 to 20)
#    0.750    1.750    0.000    1.875    1.750    4.000 
#    0.000    0.625    0.000    0.750    0.000    0.000 
#    0.000    0.000    0.000    0.000    0.000    0.000 
#
# Total GULP energy -198314.342852 kJ/mol
# GULP energy per Si atom -12394.646428 kJ/mol
# Density = 1.760194 g / cm^3
# Si number density = 17.642092 Si / 1000 Ang^3
#
#
#
# Elastic Constant Matrix: (Units=GPa)
#
#
# Indices 1 2 3 4 5 6 
#
# 1 52.6429 39.2538 10.6056 4.8900 -4.2430 5.3041
# 2 39.2538 122.7464 24.0574 0.6229 -2.7039 4.8936
# 3 10.6056 24.0574 82.8967 -9.0931 -18.0572 -1.5035
# 4 4.8900 0.6229 -9.0931 21.8843 -2.1418 1.1330
# 5 -4.2430 -2.7039 -18.0572 -2.1418 21.5119 1.1296
# 6 5.3041 4.8936 -1.5035 1.1330 1.1296 32.0653
#
#
#
# Elastic Compliance Matrix: (Units=1/GPa)
#
#
# Indices 1 2 3 4 5 6 
#
# 1 0.026212 -0.007953 -0.001102 -0.005651 0.002845 -0.003074
# 2 -0.007953 0.011195 -0.002762 0.000094 -0.002448 -0.000440
# 3 -0.001102 -0.002762 0.017198 0.008882 0.014726 0.000578
# 4 -0.005651 0.000094 0.008882 0.051823 0.011560 -0.000902
# 5 0.002845 -0.002448 0.014726 0.011560 0.060353 -0.001941
# 6 -0.003074 -0.000440 0.000578 -0.000902 -0.001941 0.031889
#
#
# Mechanical properties :
#
#
# Convention : Reuss Voigt Hill
#
# Bulk Modulus (GPa) = 32.28732 45.12439 38.70586
# Shear Modulus (GPa) = 21.49365 27.38359 24.43862
#
# Velocity S-wave (km/s) = 3.49423 3.94404 3.72593
# Velocity P-wave (km/s) = 5.88392 6.80983 6.36374
#
# Compressibility (1/GPa) = 0.03097191
#
# Stress axis : x y z
#
# Youngs Moduli (GPa) = 38.15089 89.32891 58.14562
#
# Poissons Ratio (x) = 0.71040 0.06405
# Poissons Ratio (y) = 0.30340 0.16061
# Poissons Ratio (z) = 0.04202 0.24674
#
# Static dielectric constant tensor:
#      x y z
#    x 3.025600 -0.085850 -0.126630 
#    y -0.085850 3.518250 0.223640 
#    z -0.126630 0.223640 3.242830 
# 
# 
# High freq. dielectric constant tensor:
#      x y z
#    x 1.655850 -0.001050 -0.013930 
#    y -0.001050 1.685320 0.007260 
#    z -0.013930 0.007260 1.677620 
# 
# From -- ./inp_files/464946.got.cif
#   From: 2010.06.25/outbox.cif.g09.slc.cpg/sg2_233_cif.got.tgz:464946.got - 2010.06.27 13:26:56.
