data_PCOD8041454
_publ_section_title
;
Structure prediction by ZEFSAII (Michael W. Deem and Ramdas Pophale) SiO2 
 PCOD8041454
Probable space group: P -1
;
_chemical_formula_sum "Si O2"
_cell_formula_units_Z 16
_cell_length_a 10.806258
_cell_length_b 17.870635
_cell_length_c 11.480775
_cell_angle_alpha 64.049866
_cell_angle_beta 25.591118
_cell_angle_gamma 58.966315
_cell_volume 818.345222
_symmetry_space_group_name_H-M "P -1"
_symmetry_group_IT_number 2
_symmetry_cell_setting 'triclinic'
loop_
_space_group_symop_operation_xyz
x,y,z
-x,-y,-z
loop_
_atom_site_type_symbol
_atom_site_label
_atom_site_fract_x
_atom_site_fract_y
_atom_site_fract_z
Si Si1 0.947899 0.400770 0.342681
Si Si2 0.732453 0.705544 0.647611
Si Si3 0.841083 0.342838 0.891275
Si Si4 0.308476 0.237339 0.755503
Si Si5 0.665207 0.484466 0.123320
Si Si6 0.595304 0.107051 0.258036
Si Si7 0.245283 0.082547 0.796618
Si Si8 0.818300 0.324116 0.277166
O O1 0.679783 0.455666 0.616418
O O2 0.815890 0.346467 0.399972
O O3 0.199470 0.334757 0.254348
O O4 0.103801 0.459833 0.094591
O O5 0.627904 0.811019 0.677930
O O6 0.028431 0.665555 0.344023
O O7 0.461445 0.682773 0.831104
O O8 0.093080 0.281329 0.801954
O O9 0.740891 0.441802 0.959553
O O10 0.358657 0.133286 0.769795
O O11 0.613631 0.261921 0.470630
O O12 0.154430 0.269995 0.987957
O O13 0.705250 0.413018 0.238896
O O14 0.424174 0.089282 0.526045
O O15 0.686244 0.020138 0.157714
O O16 0.892811 0.127618 0.036637
#
# Coordination Sequence:
#
# PCOD8041454 Si02
#       8
#     2   2   2   2   2   2   2   2
#     4  12  25  39  56  80 109 157 190 226 282 326
#     4  12  22  37  57  80 124 145 177 224 277 359
#     4  11  22  36  57  85 109 150 178 230 293 320
#     4  11  19  36  60  85 110 141 185 238 276 316
#     4  11  23  40  58  79 108 143 198 247 269 316
#     4  10  19  34  54  88 117 142 172 221 274 341
#     4  10  19  32  59  86 114 140 179 220 277 329
#     4  11  23  38  60  79 108 146 196 240 267 314
#
# _framework density 19.551649999999999
#
# number of rings (size 3 to 8) (size 9 to 14) (size 15 to 20)
#    0.000    1.000    2.500    6.750    0.000    3.000 
#    0.000    0.000    0.000    1.500    0.000    0.000 
#    0.000    0.000    0.000    0.000    0.000    0.000 
#
# Total GULP energy -198398.089962 kJ/mol
# GULP energy per Si atom -12399.880623 kJ/mol
# Density = 1.950715 g / cm^3
# Si number density = 19.551650 Si / 1000 Ang^3
#
#
#
# Elastic Constant Matrix: (Units=GPa)
#
#
# Indices 1 2 3 4 5 6 
#
# 1 69.4384 46.4941 12.3978 -1.7752 0.4825 7.4766
# 2 46.4941 108.3418 28.3047 -1.3406 0.1178 19.5810
# 3 12.3978 28.3047 102.6005 -1.1420 -8.5381 2.2716
# 4 -1.7752 -1.3406 -1.1420 28.4973 9.5960 -6.3897
# 5 0.4825 0.1178 -8.5381 9.5960 24.9714 -1.6049
# 6 7.4766 19.5810 2.2716 -6.3897 -1.6049 14.1147
#
#
#
# Elastic Compliance Matrix: (Units=1/GPa)
#
#
# Indices 1 2 3 4 5 6 
#
# 1 0.020306 -0.009158 -0.000037 0.001709 -0.000849 0.002631
# 2 -0.009158 0.017902 -0.003469 -0.004432 -0.000774 -0.021520
# 3 -0.000037 -0.003469 0.010973 -0.000358 0.004123 0.003373
# 4 0.001709 -0.004432 -0.000358 0.045861 -0.016201 0.024220
# 5 -0.000849 -0.000774 0.004123 -0.016201 0.047633 -0.001059
# 6 0.002631 -0.021520 0.003373 0.024220 -0.001059 0.109609
#
#
# Mechanical properties :
#
#
# Convention : Reuss Voigt Hill
#
# Bulk Modulus (GPa) = 41.92597 50.53042 46.22820
# Shear Modulus (GPa) = 17.50929 26.39564 21.95246
#
# Velocity S-wave (km/s) = 2.99580 3.67828 3.35445
# Velocity P-wave (km/s) = 5.78418 6.62875 6.22082
#
# Compressibility (1/GPa) = 0.02385156
#
# Stress axis : x y z
#
# Youngs Moduli (GPa) = 49.24621 55.86022 91.13650
#
# Poissons Ratio (x) = 0.51157 0.00339
# Poissons Ratio (y) = 0.45100 0.31618
# Poissons Ratio (z) = 0.00183 0.19379
#
# Static dielectric constant tensor:
#      x y z
#    x 3.165110 0.281490 -0.026030 
#    y 0.281490 4.100470 0.131970 
#    z -0.026030 0.131970 3.695190 
# 
# 
# High freq. dielectric constant tensor:
#      x y z
#    x 1.718970 0.022540 -0.009170 
#    y 0.022540 1.764440 0.003770 
#    z -0.009170 0.003770 1.784000 
# 
# From -- ./inp_files/437260.got.cif
#   From: 2010.06.25/outbox.cif.g09.slc.cpg/sg2_219_cif.got.tgz:437260.got - 2010.06.27 13:26:56.
