data_PCOD8041871
_publ_section_title
;
Structure prediction by ZEFSAII (Michael W. Deem and Ramdas Pophale) SiO2 
 PCOD8041871
Probable space group: P -1
;
_chemical_formula_sum "Si O2"
_cell_formula_units_Z 16
_cell_length_a 11.579256
_cell_length_b 14.315986
_cell_length_c 8.683393
_cell_angle_alpha 141.498483
_cell_angle_beta 81.993177
_cell_angle_gamma 118.309322
_cell_volume 714.867646
_symmetry_space_group_name_H-M "P -1"
_symmetry_group_IT_number 2
_symmetry_cell_setting 'triclinic'
loop_
_space_group_symop_operation_xyz
x,y,z
-x,-y,-z
loop_
_atom_site_type_symbol
_atom_site_label
_atom_site_fract_x
_atom_site_fract_y
_atom_site_fract_z
Si Si1 0.919429 0.233440 0.088914
Si Si2 0.507528 0.814612 0.950177
Si Si3 0.701775 0.586124 0.433123
Si Si4 0.375299 0.172881 0.375508
Si Si5 0.605715 0.019960 0.635772
Si Si6 0.200428 0.894294 0.552654
Si Si7 0.031578 0.432572 0.645579
Si Si8 0.895237 0.880076 0.007523
O O1 0.922490 0.359063 0.113713
O O2 0.949157 0.324489 0.367093
O O3 0.042342 0.201337 0.998173
O O4 0.764713 0.039268 0.871009
O O5 0.449095 0.615349 0.777067
O O6 0.518480 0.795274 0.741019
O O7 0.387075 0.849819 0.060078
O O8 0.658755 0.987411 0.212477
O O9 0.670404 0.687162 0.437466
O O10 0.831418 0.570652 0.346368
O O11 0.742798 0.710719 0.741816
O O12 0.450114 0.180129 0.533752
O O13 0.758658 0.106050 0.633034
O O14 0.500000 0.000000 0.500000
O O15 0.089733 0.677323 0.340751
O O16 0.120114 0.991346 0.711194
O O17 0.000000 0.000000 0.000000
#
# Coordination Sequence:
#
# PCOD8041871 Si02
#       8
#     2   2   2   2   2   2   2   2
#     4  10  19  33  63  97 117 154 209 254 297 365
#     4  11  22  41  64  92 122 160 214 258 298 362
#     4  11  21  36  66  99 123 150 210 266 298 354
#     4  12  20  40  65  92 117 165 213 254 303 360
#     4  10  26  43  58  86 129 170 203 251 315 368
#     4  11  20  42  63  85 131 166 194 257 316 360
#     4  10  19  36  60  93 126 155 197 256 311 356
#     4  11  17  37  63  94 126 155 199 254 309 355
#
# _framework density 22.381765000000001
#
# number of rings (size 3 to 8) (size 9 to 14) (size 15 to 20)
#    0.000    1.250    6.250    1.500    0.000    0.000 
#    6.750    8.750    0.000    0.000    0.000    0.000 
#    0.000    0.000    0.000    0.000    0.000    0.000 
#
# Total GULP energy -198252.002817 kJ/mol
# GULP energy per Si atom -12390.750176 kJ/mol
# Density = 2.233082 g / cm^3
# Si number density = 22.381765 Si / 1000 Ang^3
#
#
#
# Elastic Constant Matrix: (Units=GPa)
#
#
# Indices 1 2 3 4 5 6 
#
# 1 109.9782 89.1063 32.6579 -0.4867 -26.1496 -27.9318
# 2 89.1063 184.1543 40.5741 17.3399 -26.8963 -9.9419
# 3 32.6579 40.5741 35.5331 16.3747 -9.5798 -1.4269
# 4 -0.4867 17.3399 16.3747 37.5891 2.8334 -6.3669
# 5 -26.1496 -26.8963 -9.5798 2.8334 38.7054 3.5652
# 6 -27.9318 -9.9419 -1.4269 -6.3669 3.5652 48.0168
#
#
#
# Elastic Compliance Matrix: (Units=1/GPa)
#
#
# Indices 1 2 3 4 5 6 
#
# 1 0.027095 -0.008569 -0.020274 0.015322 0.004825 0.015058
# 2 -0.008569 0.010417 -0.001322 -0.005102 0.001835 -0.003680
# 3 -0.020274 -0.001322 0.062565 -0.029688 0.004376 -0.014469
# 4 0.015322 -0.005102 -0.029688 0.044717 -0.005039 0.013278
# 5 0.004825 0.001835 0.004376 -0.005039 0.031796 0.000288
# 6 0.015058 -0.003680 -0.014469 0.013278 0.000288 0.030133
#
#
# Mechanical properties :
#
#
# Convention : Reuss Voigt Hill
#
# Bulk Modulus (GPa) = 25.15757 72.70472 48.93114
# Shear Modulus (GPa) = 17.83798 36.01741 26.92770
#
# Velocity S-wave (km/s) = 2.82616 4.01587 3.47235
# Velocity P-wave (km/s) = 4.68126 7.35237 6.16326
#
# Compressibility (1/GPa) = 0.03974947
#
# Stress axis : x y z
#
# Youngs Moduli (GPa) = 36.90767 95.99414 15.98338
#
# Poissons Ratio (x) = 0.82253 0.32404
# Poissons Ratio (y) = 0.31625 0.02112
# Poissons Ratio (z) = 0.74825 0.12687
#
# Static dielectric constant tensor:
#      x y z
#    x 4.569940 -0.123300 -0.360430 
#    y -0.123300 4.541460 0.009740 
#    z -0.360430 0.009740 4.062770 
# 
# 
# High freq. dielectric constant tensor:
#      x y z
#    x 1.894990 -0.001950 -0.011240 
#    y -0.001950 1.875640 0.019370 
#    z -0.011240 0.019370 1.858820 
# 
# From -- ./inp_files/274638.got.cif
#   From: 2010.06.25/outbox.cif.g09.slc.cpg/sg2_138_cif.got.tgz:274638.got - 2010.06.27 13:26:56.
