data_PCOD8041642
_publ_section_title
;
Structure prediction by ZEFSAII (Michael W. Deem and Ramdas Pophale) SiO2 
 PCOD8041642
Probable space group: P -1
;
_chemical_formula_sum "Si O2"
_cell_formula_units_Z 16
_cell_length_a 18.997917
_cell_length_b 6.366202
_cell_length_c 11.591747
_cell_angle_alpha 110.820266
_cell_angle_beta 57.346617
_cell_angle_gamma 134.629711
_cell_volume 839.378482
_symmetry_space_group_name_H-M "P -1"
_symmetry_group_IT_number 2
_symmetry_cell_setting 'triclinic'
loop_
_space_group_symop_operation_xyz
x,y,z
-x,-y,-z
loop_
_atom_site_type_symbol
_atom_site_label
_atom_site_fract_x
_atom_site_fract_y
_atom_site_fract_z
Si Si1 0.535544 0.316114 0.894357
Si Si2 0.420228 0.415126 0.657665
Si Si3 0.609537 0.708374 0.705042
Si Si4 0.741525 0.691617 0.390525
Si Si5 0.913967 0.138428 0.165265
Si Si6 0.846322 0.571575 0.997228
Si Si7 0.758933 0.240772 0.242793
Si Si8 0.338566 0.788367 0.085932
O O1 0.576013 0.421282 0.747665
O O2 0.635704 0.387051 0.894193
O O3 0.500000 0.500000 0.000000
O O4 0.430559 0.971051 0.938955
O O5 0.500000 0.500000 0.500000
O O6 0.499824 0.635698 0.734080
O O7 0.331933 0.436675 0.689178
O O8 0.354414 0.087044 0.701394
O O9 0.693155 0.770640 0.545371
O O10 0.666991 0.996247 0.788905
O O11 0.751143 0.449051 0.371926
O O12 0.861774 0.993108 0.308629
O O13 0.867204 0.293380 0.193075
O O14 0.044666 0.387938 0.110584
O O15 0.881518 0.887683 0.054163
O O16 0.779026 0.454009 0.914932
O O17 0.772499 0.333130 0.115886
#
# Coordination Sequence:
#
# PCOD8041642 Si02
#       8
#     2   2   2   2   2   2   2   2
#     4   9  20  34  49  74 104 138 173 205 243 301
#     4   9  19  32  49  76 108 136 168 207 247 302
#     4  10  20  34  51  75 107 140 172 205 250 311
#     4   9  20  35  53  79 106 135 172 215 259 306
#     4   9  20  36  55  79 103 127 172 227 262 301
#     4  10  20  36  56  77 101 135 175 216 262 307
#     4  10  19  33  56  79 102 136 170 213 266 306
#     4  10  21  35  53  75 105 140 170 208 256 304
#
# _framework density 19.061723000000001
#
# number of rings (size 3 to 8) (size 9 to 14) (size 15 to 20)
#    0.000    2.500    0.000    1.125    0.000   17.000 
#    0.000    0.625    0.000    1.500    0.000    0.000 
#    0.000    0.000    0.000    0.000    0.000    0.000 
#
# Total GULP energy -198278.707337 kJ/mol
# GULP energy per Si atom -12392.419209 kJ/mol
# Density = 1.901834 g / cm^3
# Si number density = 19.061723 Si / 1000 Ang^3
#
#
#
# Elastic Constant Matrix: (Units=GPa)
#
#
# Indices 1 2 3 4 5 6 
#
# 1 120.0064 52.3916 42.6903 5.8547 -4.0904 3.3106
# 2 52.3916 64.7204 38.6822 -3.3124 -1.0895 3.1581
# 3 42.6903 38.6822 91.9305 -5.9991 -6.6023 5.6175
# 4 5.8547 -3.3124 -5.9991 27.1502 -1.4604 -3.2363
# 5 -4.0904 -1.0895 -6.6023 -1.4604 27.7757 2.8659
# 6 3.3106 3.1581 5.6175 -3.2363 2.8659 35.8703
#
#
#
# Elastic Compliance Matrix: (Units=1/GPa)
#
#
# Indices 1 2 3 4 5 6 
#
# 1 0.013811 -0.009914 -0.002458 -0.004746 0.000864 -0.000514
# 2 -0.009914 0.027814 -0.006980 0.003897 -0.001829 0.000057
# 3 -0.002458 -0.006980 0.015497 0.003096 0.003373 -0.001576
# 4 -0.004746 0.003897 0.003096 0.039480 0.001955 0.003016
# 5 0.000864 -0.001829 0.003373 0.001955 0.037298 -0.003251
# 6 -0.000514 0.000057 -0.001576 0.003016 -0.003251 0.028699
#
#
# Mechanical properties :
#
#
# Convention : Reuss Voigt Hill
#
# Bulk Modulus (GPa) = 54.29645 60.46506 57.38075
# Shear Modulus (GPa) = 24.10303 27.68545 25.89424
#
# Velocity S-wave (km/s) = 3.55980 3.81518 3.68970
# Velocity P-wave (km/s) = 6.74111 7.15521 6.95125
#
# Compressibility (1/GPa) = 0.01841741
#
# Stress axis : x y z
#
# Youngs Moduli (GPa) = 72.40825 35.95262 64.52874
#
# Poissons Ratio (x) = 0.35643 0.15861
# Poissons Ratio (y) = 0.71785 0.45044
# Poissons Ratio (z) = 0.17798 0.25096
#
# Static dielectric constant tensor:
#      x y z
#    x 3.873380 -0.135260 -0.007100 
#    y -0.135260 3.425670 -0.340340 
#    z -0.007100 -0.340340 3.557140 
# 
# 
# High freq. dielectric constant tensor:
#      x y z
#    x 1.743870 -0.017570 -0.010870 
#    y -0.017570 1.724660 -0.015870 
#    z -0.010870 -0.015870 1.733860 
# 
# From -- ./inp_files/94680.got.cif
#   From: 2010.06.25/outbox.cif.g09.slc.cpg/sg2_48_cif.got.tgz:94680.got - 2010.06.27 13:26:56.
