data_PCOD8041615
_publ_section_title
;
Structure prediction by ZEFSAII (Michael W. Deem and Ramdas Pophale) SiO2 
 PCOD8041615
Probable space group: P -1
;
_chemical_formula_sum "Si O2"
_cell_formula_units_Z 16
_cell_length_a 17.800523
_cell_length_b 9.973503
_cell_length_c 12.241811
_cell_angle_alpha 121.348503
_cell_angle_beta 30.084153
_cell_angle_gamma 111.840408
_cell_volume 914.763744
_symmetry_space_group_name_H-M "P -1"
_symmetry_group_IT_number 2
_symmetry_cell_setting 'triclinic'
loop_
_space_group_symop_operation_xyz
x,y,z
-x,-y,-z
loop_
_atom_site_type_symbol
_atom_site_label
_atom_site_fract_x
_atom_site_fract_y
_atom_site_fract_z
Si Si1 0.861329 0.295822 0.502193
Si Si2 0.873766 0.467978 0.228973
Si Si3 0.370354 0.926215 0.686241
Si Si4 0.941490 0.600050 0.418856
Si Si5 0.177388 0.208639 0.158138
Si Si6 0.447774 0.564064 0.475102
Si Si7 0.865518 0.146033 0.215255
Si Si8 0.261673 0.517050 0.070087
O O1 0.912390 0.455993 0.468065
O O2 0.793034 0.208480 0.450758
O O3 0.740621 0.349824 0.774339
O O4 0.015233 0.183451 0.302796
O O5 0.874975 0.596655 0.379261
O O6 0.708410 0.490452 0.389760
O O7 0.923883 0.290447 0.140085
O O8 0.000000 0.500000 0.000000
O O9 0.428883 0.753972 0.590767
O O10 0.261452 0.917410 0.718124
O O11 0.500000 0.000000 0.500000
O O12 0.290727 0.040208 0.931248
O O13 0.849686 0.755857 0.663185
O O14 0.125774 0.585486 0.184141
O O15 0.246213 0.344655 0.064511
O O16 0.500000 0.500000 0.500000
O O17 0.576154 0.496386 0.197143
O O18 0.000000 0.000000 0.000000
#
# Coordination Sequence:
#
# PCOD8041615 Si02
#       8
#     2   2   2   2   2   2   2   2
#     4   8  15  29  52  80 103 135 171 211 258 308
#     4  10  21  36  54  78 103 139 182 212 255 311
#     4  11  21  33  52  82 109 137 171 213 268 306
#     4   8  16  30  54  79  99 137 176 210 257 305
#     4   9  15  30  54  78 108 133 168 215 258 311
#     4  11  23  36  53  76 107 143 177 214 258 312
#     4  10  19  33  55  81 107 132 173 218 259 306
#     4   9  16  31  54  77 105 138 171 209 260 309
#
# _framework density 17.490855
#
# number of rings (size 3 to 8) (size 9 to 14) (size 15 to 20)
#    0.000    2.500    2.500    2.250    0.000    1.000 
#    2.250    2.500    2.750    3.750    0.000    0.000 
#    0.000    0.000    0.000    0.000    0.000    0.000 
#
# Total GULP energy -198285.130654 kJ/mol
# GULP energy per Si atom -12392.820666 kJ/mol
# Density = 1.745105 g / cm^3
# Si number density = 17.490855 Si / 1000 Ang^3
#
#
#
# Elastic Constant Matrix: (Units=GPa)
#
#
# Indices 1 2 3 4 5 6 
#
# 1 128.5834 55.3009 66.1039 2.5948 11.7106 2.3373
# 2 55.3009 62.8292 59.0902 2.3553 1.9300 3.2769
# 3 66.1039 59.0902 157.7758 3.9854 11.6633 3.3791
# 4 2.5948 2.3553 3.9854 30.7363 3.6147 -0.1574
# 5 11.7106 1.9300 11.6633 3.6147 26.0676 3.6833
# 6 2.3373 3.2769 3.3791 -0.1574 3.6833 23.8548
#
#
#
# Elastic Compliance Matrix: (Units=1/GPa)
#
#
# Indices 1 2 3 4 5 6 
#
# 1 0.013368 -0.010383 -0.001389 0.000420 -0.004823 0.001061
# 2 -0.010383 0.032955 -0.008376 -0.001360 0.006635 -0.003357
# 3 -0.001389 -0.008376 0.010305 -0.000176 -0.003391 0.000350
# 4 0.000420 -0.001360 -0.000176 0.033193 -0.004771 0.001126
# 5 -0.004823 0.006635 -0.003391 -0.004771 0.043157 -0.006654
# 6 0.001061 -0.003357 0.000350 0.001126 -0.006654 0.043263
#
#
# Mechanical properties :
#
#
# Convention : Reuss Voigt Hill
#
# Bulk Modulus (GPa) = 61.23164 78.90873 70.07019
# Shear Modulus (GPa) = 22.52441 27.37795 24.95118
#
# Velocity S-wave (km/s) = 3.59246 3.96064 3.78104
# Velocity P-wave (km/s) = 7.23129 8.13190 7.69478
#
# Compressibility (1/GPa) = 0.01633143
#
# Stress axis : x y z
#
# Youngs Moduli (GPa) = 74.80485 30.34429 97.04091
#
# Poissons Ratio (x) = 0.31506 0.13480
# Poissons Ratio (y) = 0.77668 0.81286
# Poissons Ratio (z) = 0.10391 0.25418
#
# Static dielectric constant tensor:
#      x y z
#    x 3.402340 0.198990 0.255330 
#    y 0.198990 3.054490 0.238670 
#    z 0.255330 0.238670 3.502240 
# 
# 
# High freq. dielectric constant tensor:
#      x y z
#    x 1.677790 0.012320 0.010630 
#    y 0.012320 1.641670 0.010050 
#    z 0.010630 0.010050 1.682060 
# 
# From -- ./inp_files/244154.got.cif
#   From: 2010.06.25/outbox.cif.g09.slc.cpg/sg2_123_cif.got.tgz:244154.got - 2010.06.27 13:26:56.
