data_PCOD8041831
_publ_section_title
;
Structure prediction by ZEFSAII (Michael W. Deem and Ramdas Pophale) SiO2 
 PCOD8041831
Probable space group: P -1
;
_chemical_formula_sum "Si O2"
_cell_formula_units_Z 16
_cell_length_a 14.057681
_cell_length_b 14.297760
_cell_length_c 11.849205
_cell_angle_alpha 96.906095
_cell_angle_beta 86.293772
_cell_angle_gamma 21.140176
_cell_volume 741.494142
_symmetry_space_group_name_H-M "P -1"
_symmetry_group_IT_number 2
_symmetry_cell_setting 'triclinic'
loop_
_space_group_symop_operation_xyz
x,y,z
-x,-y,-z
loop_
_atom_site_type_symbol
_atom_site_label
_atom_site_fract_x
_atom_site_fract_y
_atom_site_fract_z
Si Si1 0.641797 0.398352 0.292094
Si Si2 0.966262 0.257402 0.661011
Si Si3 0.957586 0.262700 0.102077
Si Si4 0.733136 0.831451 0.372060
Si Si5 0.215363 0.271219 0.345124
Si Si6 0.284880 0.883276 0.805307
Si Si7 0.948823 0.942401 0.589739
Si Si8 0.635985 0.076951 0.779495
O O1 0.799440 0.326425 0.189737
O O2 0.697676 0.245719 0.208721
O O3 0.769318 0.282350 0.393028
O O4 0.281282 0.756670 0.378371
O O5 0.619155 0.612986 0.764422
O O6 0.934703 0.212496 0.556555
O O7 0.164309 0.161829 0.593231
O O8 0.140438 0.049130 0.722327
O O9 0.725332 0.567354 0.143464
O O10 0.243553 0.032521 0.117447
O O11 0.061163 0.128333 0.954302
O O12 0.035322 0.483039 0.282268
O O13 0.500000 0.000000 0.500000
O O14 0.545404 0.012429 0.295224
O O15 0.000000 0.500000 0.500000
O O16 0.268808 0.110530 0.310227
O O17 0.785513 0.017068 0.685924
#
# Coordination Sequence:
#
# PCOD8041831 Si02
#       8
#     2   2   2   2   2   2   2   2
#     4  10  22  39  63  88 117 162 210 254 291 342
#     4  12  25  39  61  91 127 161 193 246 314 370
#     4  10  22  41  63  87 120 162 213 249 282 345
#     4  10  21  37  59  87 118 153 192 237 290 365
#     4  10  19  33  60  92 119 143 184 244 306 356
#     4  12  25  41  61  86 124 168 204 245 296 357
#     4  10  21  37  58  92 126 154 198 249 308 359
#     4  10  20  37  64  93 118 153 200 258 298 341
#
# _framework density 21.578054000000002
#
# number of rings (size 3 to 8) (size 9 to 14) (size 15 to 20)
#    0.000    1.500    0.000    5.625    0.000    9.000 
#    0.000    5.000    0.000   15.000    0.000    0.000 
#    0.000    0.000    0.000    0.000    0.000    0.000 
#
# Total GULP energy -198350.769613 kJ/mol
# GULP energy per Si atom -12396.923101 kJ/mol
# Density = 2.152894 g / cm^3
# Si number density = 21.578054 Si / 1000 Ang^3
#
#
#
# Elastic Constant Matrix: (Units=GPa)
#
#
# Indices 1 2 3 4 5 6 
#
# 1 93.6870 73.3414 6.9362 -2.8566 22.9982 -2.9789
# 2 73.3414 -5.8307 263.6336 68.0485 7.0957 31.2810
# 3 6.9362 263.6336 -149.5073 -50.4246 24.7026 -24.1056
# 4 -2.8566 68.0485 -50.4246 12.5137 3.2467 -2.2189
# 5 22.9982 7.0957 24.7026 3.2467 27.3362 9.6915
# 6 -2.9789 31.2810 -24.1056 -2.2189 9.6915 30.5979
#
#
#
# Elastic Compliance Matrix: (Units=1/GPa)
#
#
# Indices 1 2 3 4 5 6 
#
# 1 0.014595 -0.001676 -0.003991 -0.000760 -0.009152 0.002834
# 2 -0.001676 0.002953 0.004035 0.000946 -0.003535 0.001185
# 3 -0.003991 0.004035 0.003699 -0.008622 0.000880 -0.002504
# 4 -0.000760 0.000946 -0.008622 0.036936 0.006338 -0.007163
# 5 -0.009152 -0.003535 0.000880 0.006338 0.047624 -0.011208
# 6 0.002834 0.001185 -0.002504 -0.007163 -0.011208 0.032804
#
#
# Mechanical properties :
#
#
# Convention : Reuss Voigt Hill
#
# Bulk Modulus (GPa) = 55.61103 69.57460 62.59282
# Shear Modulus (GPa) = 33.81376 -12.94791 10.43293
#
# Velocity S-wave (km/s) = 3.96289 -2.45225 2.20124
# Velocity P-wave (km/s) = 6.83866 4.92901 5.96081
#
# Compressibility (1/GPa) = 0.01798204
#
# Stress axis : x y z
#
# Youngs Moduli (GPa) = 68.51735 338.64272 270.37986
#
# Poissons Ratio (x) = 0.56758 1.07912
# Poissons Ratio (y) = 0.11484 -1.09099
# Poissons Ratio (z) = 0.27346 -1.36643
#
# Static dielectric constant tensor:
#      x y z
#    x 3.883320 -0.023900 0.067130 
#    y -0.023900 2.589300 0.175070 
#    z 0.067130 0.175070 3.548120 
# 
# 
# High freq. dielectric constant tensor:
#      x y z
#    x 1.848750 -0.002510 0.008340 
#    y -0.002510 1.884960 0.002970 
#    z 0.008340 0.002970 1.813760 
# 
# From -- ./inp_files/453890.got.cif
#   From: 2010.06.25/outbox.cif.g09.slc.cpg/sg2_227_cif.got.tgz:453890.got - 2010.06.27 13:26:56.
