data_PCOD8041811
_publ_section_title
;
Structure prediction by ZEFSAII (Michael W. Deem and Ramdas Pophale) SiO2 
 PCOD8041811
Probable space group: P -1
;
_chemical_formula_sum "Si O2"
_cell_formula_units_Z 16
_cell_length_a 23.651783
_cell_length_b 9.075931
_cell_length_c 12.108154
_cell_angle_alpha 113.556025
_cell_angle_beta 37.630843
_cell_angle_gamma 141.431511
_cell_volume 808.234328
_symmetry_space_group_name_H-M "P -1"
_symmetry_group_IT_number 2
_symmetry_cell_setting 'triclinic'
loop_
_space_group_symop_operation_xyz
x,y,z
-x,-y,-z
loop_
_atom_site_type_symbol
_atom_site_label
_atom_site_fract_x
_atom_site_fract_y
_atom_site_fract_z
Si Si1 0.028776 0.900239 0.337452
Si Si2 0.346991 0.270232 0.834952
Si Si3 0.599171 0.958795 0.169221
Si Si4 0.946243 0.136502 0.249211
Si Si5 0.938861 0.391098 0.683301
Si Si6 0.715555 0.433912 0.246537
Si Si7 0.226034 0.404950 0.550012
Si Si8 0.320773 0.261951 0.625703
O O1 0.881208 0.670587 0.405463
O O2 0.030078 0.740534 0.358215
O O3 0.000000 0.000000 0.500000
O O4 0.207798 0.183309 0.082773
O O5 0.295945 0.156261 0.754062
O O6 0.533157 0.618090 0.636457
O O7 0.356649 0.121570 0.842477
O O8 0.597578 0.116401 0.295713
O O9 0.422501 0.682002 0.297078
O O10 0.745508 0.168716 0.915429
O O11 0.948998 0.324883 0.335814
O O12 0.844589 0.878617 0.414771
O O13 0.859219 0.013832 0.229216
O O14 0.129550 0.330940 0.006419
O O15 0.000000 0.500000 0.500000
O O16 0.781331 0.512350 0.295627
O O17 0.619159 0.463138 0.388287
#
# Coordination Sequence:
#
# PCOD8041811 Si02
#       8
#     2   2   2   2   2   2   2   2
#     4  11  24  42  62  81 115 156 204 245 292 339
#     4  10  20  37  57  88 120 153 189 237 291 343
#     4  10  21  38  60  90 119 153 191 239 290 346
#     4  10  19  35  59  89 119 155 193 231 287 352
#     4  10  23  43  60  81 114 155 195 247 295 341
#     4  10  19  33  60  89 128 153 184 232 291 351
#     4  11  20  37  60  90 114 153 196 234 288 346
#     4  10  19  33  59  91 123 153 190 230 293 350
#
# _framework density 19.796239
#
# number of rings (size 3 to 8) (size 9 to 14) (size 15 to 20)
#    0.000    1.750    2.500    4.125    0.000    2.000 
#    4.500    6.250    0.000    0.000    0.000    0.000 
#    0.000    0.000    0.000    0.000    0.000    0.000 
#
# Total GULP energy -198211.506505 kJ/mol
# GULP energy per Si atom -12388.219157 kJ/mol
# Density = 1.975118 g / cm^3
# Si number density = 19.796239 Si / 1000 Ang^3
#
#
#
# Elastic Constant Matrix: (Units=GPa)
#
#
# Indices 1 2 3 4 5 6 
#
# 1 90.5230 11.3099 40.1429 2.7675 -4.1567 7.9899
# 2 11.3099 71.8748 37.3229 7.3884 -8.7896 -5.6433
# 3 40.1429 37.3229 141.5442 5.9077 2.2599 -1.4880
# 4 2.7675 7.3884 5.9077 21.1175 3.7739 -3.3220
# 5 -4.1567 -8.7896 2.2599 3.7739 30.7974 -1.6549
# 6 7.9899 -5.6433 -1.4880 -3.3220 -1.6549 12.6310
#
#
#
# Elastic Compliance Matrix: (Units=1/GPa)
#
#
# Indices 1 2 3 4 5 6 
#
# 1 0.013826 -0.000496 -0.003820 -0.002432 0.001775 -0.009825
# 2 -0.000496 0.018210 -0.004476 -0.005040 0.006476 0.007445
# 3 -0.003820 -0.004476 0.009377 0.000069 -0.002424 0.001222
# 4 -0.002432 -0.005040 0.000069 0.052683 -0.007574 0.012159
# 5 0.001775 0.006476 -0.002424 -0.007574 0.035890 0.004195
# 6 -0.009825 0.007445 0.001222 0.012159 0.004195 0.092603
#
#
# Mechanical properties :
#
#
# Convention : Reuss Voigt Hill
#
# Bulk Modulus (GPa) = 41.96594 53.49928 47.73261
# Shear Modulus (GPa) = 20.15178 27.25358 23.70268
#
# Velocity S-wave (km/s) = 3.19401 3.71442 3.46400
# Velocity P-wave (km/s) = 5.90315 6.74385 6.33746
#
# Compressibility (1/GPa) = 0.02382885
#
# Stress axis : x y z
#
# Youngs Moduli (GPa) = 72.32665 54.91498 106.64029
#
# Poissons Ratio (x) = 0.02724 0.40742
# Poissons Ratio (y) = 0.03588 0.47730
# Poissons Ratio (z) = 0.27632 0.24579
#
# Static dielectric constant tensor:
#      x y z
#    x 3.594100 -0.016980 -0.111210 
#    y -0.016980 3.374510 -0.112240 
#    z -0.111210 -0.112240 4.154580 
# 
# 
# High freq. dielectric constant tensor:
#      x y z
#    x 1.766130 -0.003250 -0.005350 
#    y -0.003250 1.748790 -0.011490 
#    z -0.005350 -0.011490 1.789980 
# 
# From -- ./inp_files/379087.got.cif
#   From: 2010.06.25/outbox.cif.g09.slc.cpg/sg2_190_cif.got.tgz:379087.got - 2010.06.27 13:26:56.
