data_PCOD8041522
_publ_section_title
;
Structure prediction by ZEFSAII (Michael W. Deem and Ramdas Pophale) SiO2 
 PCOD8041522
Probable space group: P -1
;
_chemical_formula_sum "Si O2"
_cell_formula_units_Z 16
_cell_length_a 10.938381
_cell_length_b 19.905089
_cell_length_c 9.691564
_cell_angle_alpha 126.776768
_cell_angle_beta 119.656554
_cell_angle_gamma 30.493014
_cell_volume 856.491126
_symmetry_space_group_name_H-M "P -1"
_symmetry_group_IT_number 2
_symmetry_cell_setting 'triclinic'
loop_
_space_group_symop_operation_xyz
x,y,z
-x,-y,-z
loop_
_atom_site_type_symbol
_atom_site_label
_atom_site_fract_x
_atom_site_fract_y
_atom_site_fract_z
Si Si1 0.064226 0.566818 0.768248
Si Si2 0.405478 0.974931 0.253656
Si Si3 0.168954 0.500968 0.447457
Si Si4 0.424934 0.128817 0.072930
Si Si5 0.912366 0.015415 0.818949
Si Si6 0.524780 0.259654 0.708533
Si Si7 0.739600 0.783365 0.441563
Si Si8 0.633745 0.194077 0.378303
O O1 0.125621 0.569590 0.652633
O O2 0.318850 0.431601 0.826713
O O3 0.941065 0.537248 0.652771
O O4 0.868978 0.724626 0.920986
O O5 0.316558 0.113395 0.357261
O O6 0.199988 0.022547 0.277546
O O7 0.656630 0.850624 0.325924
O O8 0.459714 0.906563 0.054167
O O9 0.452697 0.348604 0.392387
O O10 0.028691 0.623698 0.404169
O O11 0.536105 0.145598 0.255859
O O12 0.500000 0.000000 0.000000
O O13 0.709428 0.176412 0.838588
O O14 0.118329 0.912914 0.693615
O O15 0.000000 0.000000 0.000000
O O16 0.400306 0.229243 0.595612
O O17 0.658521 0.205505 0.568413
#
# Coordination Sequence:
#
# PCOD8041522 Si02
#       8
#     2   2   2   2   2   2   2   2
#     4   8  15  28  48  77 100 121 164 208 257 288
#     4  10  20  32  49  74 107 133 165 205 255 303
#     4   8  14  29  50  73  99 125 160 212 246 296
#     4  11  19  30  52  79 103 128 163 216 258 296
#     4  11  21  36  48  73 108 139 169 201 247 300
#     4   9  18  34  57  76  97 134 170 214 242 295
#     4   9  17  33  52  76 103 128 164 213 260 291
#     4  10  19  33  53  77 100 132 178 198 245 306
#
# _framework density 18.680869999999999
#
# number of rings (size 3 to 8) (size 9 to 14) (size 15 to 20)
#    0.000    2.500    1.250    4.125    0.000    0.000 
#    2.250    3.125    0.000    0.750    3.250    0.000 
#    0.000    0.000    0.000    0.000    0.000    0.000 
#
# Total GULP energy -198215.773157 kJ/mol
# GULP energy per Si atom -12388.485822 kJ/mol
# Density = 1.863835 g / cm^3
# Si number density = 18.680870 Si / 1000 Ang^3
#
#
#
# Elastic Constant Matrix: (Units=GPa)
#
#
# Indices 1 2 3 4 5 6 
#
# 1 51.9345 44.4037 16.2961 10.5430 -10.5070 -3.3130
# 2 44.4037 174.6175 46.4065 9.0787 -3.4928 2.7533
# 3 16.2961 46.4065 61.3823 1.4971 -7.1650 1.8888
# 4 10.5430 9.0787 1.4971 31.5291 -1.3666 -0.4180
# 5 -10.5070 -3.4928 -7.1650 -1.3666 20.1352 4.7438
# 6 -3.3130 2.7533 1.8888 -0.4180 4.7438 22.1224
#
#
#
# Elastic Compliance Matrix: (Units=1/GPa)
#
#
# Indices 1 2 3 4 5 6 
#
# 1 0.029483 -0.006561 -0.001281 -0.007325 0.012710 0.002477
# 2 -0.006561 0.008747 -0.005258 -0.000242 -0.003592 -0.000857
# 3 -0.001281 -0.005258 0.021457 0.001181 0.006796 -0.002804
# 4 -0.007325 -0.000242 0.001181 0.034130 -0.001058 -0.000296
# 5 0.012710 -0.003592 0.006796 -0.001058 0.060673 -0.011260
# 6 0.002477 -0.000857 -0.002804 -0.000296 -0.011260 0.048329
#
#
# Mechanical properties :
#
#
# Convention : Reuss Voigt Hill
#
# Bulk Modulus (GPa) = 29.86211 55.79408 42.82810
# Shear Modulus (GPa) = 20.81760 26.81253 23.81506
#
# Velocity S-wave (km/s) = 3.34186 3.79264 3.57436
# Velocity P-wave (km/s) = 5.55975 7.00789 6.32540
#
# Compressibility (1/GPa) = 0.03348725
#
# Stress axis : x y z
#
# Youngs Moduli (GPa) = 33.91799 114.32811 46.60400
#
# Poissons Ratio (x) = 0.75008 0.05971
# Poissons Ratio (y) = 0.22253 0.24504
# Poissons Ratio (z) = 0.04345 0.60114
#
# Static dielectric constant tensor:
#      x y z
#    x 3.074810 -0.037950 -0.157250 
#    y -0.037950 4.108310 0.120130 
#    z -0.157250 0.120130 3.295190 
# 
# 
# High freq. dielectric constant tensor:
#      x y z
#    x 1.687660 0.005500 -0.016280 
#    y 0.005500 1.747430 0.003820 
#    z -0.016280 0.003820 1.699640 
# 
# From -- ./inp_files/266421.got.cif
#   From: 2010.06.25/outbox.cif.g09.slc.cpg/sg2_134_cif.got.tgz:266421.got - 2010.06.27 13:26:56.
