data_PCOD8041290
_publ_section_title
;
Structure prediction by ZEFSAII (Michael W. Deem and Ramdas Pophale) SiO2 
 PCOD8041290
Probable space group: P -1
;
_chemical_formula_sum "Si O2"
_cell_formula_units_Z 14
_cell_length_a 17.530456
_cell_length_b 9.331052
_cell_length_c 5.122581
_cell_angle_alpha 80.849048
_cell_angle_beta 58.606573
_cell_angle_gamma 86.553027
_cell_volume 705.913889
_symmetry_space_group_name_H-M "P -1"
_symmetry_group_IT_number 2
_symmetry_cell_setting 'triclinic'
loop_
_space_group_symop_operation_xyz
x,y,z
-x,-y,-z
loop_
_atom_site_type_symbol
_atom_site_label
_atom_site_fract_x
_atom_site_fract_y
_atom_site_fract_z
Si Si1 0.942315 0.676861 0.737597
Si Si2 0.540166 0.799702 0.964934
Si Si3 0.015387 0.170769 0.877672
Si Si4 0.512477 0.348643 0.386174
Si Si5 0.699422 0.221692 0.101540
Si Si6 0.645285 0.065504 0.762151
Si Si7 0.116037 0.629513 0.182849
O O1 0.876888 0.534107 0.897002
O O2 0.044865 0.621398 0.552016
O O3 0.925105 0.790502 0.497156
O O4 0.927898 0.765022 0.001353
O O5 0.542030 0.666799 0.788618
O O6 0.632711 0.895686 0.755090
O O7 0.528812 0.764128 0.299394
O O8 0.454368 0.887035 0.998313
O O9 0.920384 0.252555 0.996696
O O10 0.000000 0.000000 0.000000
O O11 0.500000 0.500000 0.500000
O O12 0.617554 0.326657 0.159499
O O13 0.691728 0.152066 0.419709
O O14 0.704167 0.095866 0.908301
O O15 0.787988 0.321422 0.896185
#
# Coordination Sequence:
#
# PCOD8041290 Si02
#       7
#     2   2   2   2   2   2   2
#     4   9  20  34  56  79 102 145 179 206 261 322
#     4   9  17  32  52  69  97 130 167 212 246 314
#     4  10  19  34  57  80 103 138 176 215 261 315
#     4  10  19  32  52  73 100 137 175 202 253 302
#     4  10  20  31  53  77 101 131 169 221 247 297
#     4   9  18  31  50  78  94 126 170 209 263 288
#     4   9  21  33  58  77 109 135 184 214 259 310
#
# _framework density 19.832447999999999
#
# number of rings (size 3 to 8) (size 9 to 14) (size 15 to 20)
#    0.857    1.714    0.000    2.143    2.000    3.429 
#    0.000    0.000    9.429    0.000    0.000    0.000 
#    0.000    0.000    0.000    0.000    0.000    0.000 
#
# Total GULP energy -173448.148289 kJ/mol
# GULP energy per Si atom -12389.153449 kJ/mol
# Density = 1.978731 g / cm^3
# Si number density = 19.832448 Si / 1000 Ang^3
#
#
#
# Elastic Constant Matrix: (Units=GPa)
#
#
# Indices 1 2 3 4 5 6 
#
# 1 59.1952 49.8991 38.1126 -3.9603 12.5285 25.9396
# 2 49.8991 147.1028 29.1142 -4.7192 5.2974 32.7643
# 3 38.1126 29.1142 64.9399 5.3758 17.9348 24.8177
# 4 -3.9603 -4.7192 5.3758 32.5395 11.9831 6.7763
# 5 12.5285 5.2974 17.9348 11.9831 28.9504 -0.6767
# 6 25.9396 32.7643 24.8177 6.7763 -0.6767 41.6957
#
#
#
# Elastic Compliance Matrix: (Units=1/GPa)
#
#
# Indices 1 2 3 4 5 6 
#
# 1 0.042544 -0.007309 -0.012303 0.015504 -0.016248 -0.016184
# 2 -0.007309 0.010024 0.001420 0.001317 -0.000199 -0.004392
# 3 -0.012303 0.001420 0.030614 0.001670 -0.014878 -0.012197
# 4 0.015504 0.001317 0.001670 0.046908 -0.027863 -0.019750
# 5 -0.016248 -0.000199 -0.014878 -0.027863 0.062936 0.024669
# 6 -0.016184 -0.004392 -0.012197 -0.019750 0.024669 0.048373
#
#
# Mechanical properties :
#
#
# Convention : Reuss Voigt Hill
#
# Bulk Modulus (GPa) = 21.36825 56.16551 38.76688
# Shear Modulus (GPa) = 17.04261 30.91126 23.97694
#
# Velocity S-wave (km/s) = 2.93461 3.95222 3.48080
# Velocity P-wave (km/s) = 4.72021 7.01486 5.97865
#
# Compressibility (1/GPa) = 0.04679840
#
# Stress axis : x y z
#
# Youngs Moduli (GPa) = 23.50518 99.76068 32.66432
#
# Poissons Ratio (x) = 0.72917 0.40186
# Poissons Ratio (y) = 0.17180 -0.04639
# Poissons Ratio (z) = 0.28918 -0.14167
#
# Static dielectric constant tensor:
#      x y z
#    x 3.399230 0.216880 0.459210 
#    y 0.216880 3.687490 0.048400 
#    z 0.459210 0.048400 3.701340 
# 
# 
# High freq. dielectric constant tensor:
#      x y z
#    x 1.730710 0.026190 0.031290 
#    y 0.026190 1.780760 -0.003960 
#    z 0.031290 -0.003960 1.762210 
# 
# From -- ./inp_files/104010.got.cif
#   From: 2010.06.25/outbox.cif.g09.slc.cpg/sg2_53_cif.got.tgz:104010.got - 2010.06.27 13:26:56.
