data_PCOD8041592
_publ_section_title
;
Structure prediction by ZEFSAII (Michael W. Deem and Ramdas Pophale) SiO2 
 PCOD8041592
Probable space group: P -1
;
_chemical_formula_sum "Si O2"
_cell_formula_units_Z 14
_cell_length_a 8.094094
_cell_length_b 12.434112
_cell_length_c 11.802349
_cell_angle_alpha 63.760369
_cell_angle_beta 139.956086
_cell_angle_gamma 112.737023
_cell_volume 683.085975
_symmetry_space_group_name_H-M "P -1"
_symmetry_group_IT_number 2
_symmetry_cell_setting 'triclinic'
loop_
_space_group_symop_operation_xyz
x,y,z
-x,-y,-z
loop_
_atom_site_type_symbol
_atom_site_label
_atom_site_fract_x
_atom_site_fract_y
_atom_site_fract_z
Si Si1 0.298473 0.652963 0.854634
Si Si2 0.442532 0.924871 0.169956
Si Si3 0.849074 0.612241 0.117186
Si Si4 0.904352 0.979038 0.810769
Si Si5 0.687523 0.221511 0.625765
Si Si6 0.772594 0.125537 0.148485
Si Si7 0.560983 0.754993 0.742905
O O1 0.118277 0.528867 0.817424
O O2 0.172876 0.740892 0.835848
O O3 0.310225 0.713991 0.706966
O O4 0.595685 0.628768 0.055473
O O5 0.656725 0.037508 0.229089
O O6 0.489545 0.827385 0.337423
O O7 0.437760 0.867773 0.067491
O O8 0.156782 0.970008 0.029095
O O9 0.109477 0.669661 0.282944
O O10 0.800099 0.676292 0.940173
O O11 0.652692 0.894278 0.756430
O O12 0.972657 0.926322 0.746072
O O13 0.837589 0.115184 0.698575
O O14 0.502895 0.269183 0.410908
#
# Coordination Sequence:
#
# PCOD8041592 Si02
#       7
#     2   2   2   2   2   2   2
#     4   9  18  39  56  79 104 143 183 218 263 317
#     4   9  18  32  55  84 104 146 171 214 275 318
#     4   9  20  36  61  76 103 146 180 222 261 304
#     4  10  19  33  54  84 107 141 170 222 270 311
#     4  12  20  34  58  81 110 138 183 217 262 325
#     4   9  18  32  60  78 110 141 178 214 271 324
#     4  10  21  35  54  84 105 139 184 220 261 316
#
# _framework density 20.495222999999999
#
# number of rings (size 3 to 8) (size 9 to 14) (size 15 to 20)
#    1.714    0.571    1.429    2.571    0.000    0.571 
#    0.000    5.714    0.000    1.714    0.000    0.000 
#    0.000    0.000    0.000    0.000    0.000    0.000 
#
# Total GULP energy -173464.625301 kJ/mol
# GULP energy per Si atom -12390.330379 kJ/mol
# Density = 2.044858 g / cm^3
# Si number density = 20.495223 Si / 1000 Ang^3
#
#
#
# Elastic Constant Matrix: (Units=GPa)
#
#
# Indices 1 2 3 4 5 6 
#
# 1 39.7289 29.7145 5.7707 -9.8831 -10.0365 -8.5823
# 2 29.7145 169.5946 34.9658 -0.0621 -6.4555 1.8078
# 3 5.7707 34.9658 82.8201 11.7338 -17.8047 8.7307
# 4 -9.8831 -0.0621 11.7338 15.8585 2.2430 0.6425
# 5 -10.0365 -6.4555 -17.8047 2.2430 17.7126 3.5805
# 6 -8.5823 1.8078 8.7307 0.6425 3.5805 21.0965
#
#
#
# Elastic Compliance Matrix: (Units=1/GPa)
#
#
# Indices 1 2 3 4 5 6 
#
# 1 0.044448 -0.006815 -0.003241 0.027613 0.012502 0.017044
# 2 -0.006815 0.007632 -0.003293 -0.001165 -0.003968 -0.001355
# 3 -0.003241 -0.003293 0.024589 -0.023533 0.027734 -0.015203
# 4 0.027613 -0.001165 -0.023533 0.100398 -0.025670 0.022371
# 5 0.012502 -0.003968 0.027734 -0.025670 0.097639 -0.021841
# 6 0.017044 -0.001355 -0.015203 0.022371 -0.021841 0.063768
#
#
# Mechanical properties :
#
#
# Convention : Reuss Voigt Hill
#
# Bulk Modulus (GPa) = 20.01126 48.11620 34.06373
# Shear Modulus (GPa) = 13.09483 25.71301 19.40392
#
# Velocity S-wave (km/s) = 2.53043 3.54586 3.08027
# Velocity P-wave (km/s) = 4.28048 6.34759 5.41361
#
# Compressibility (1/GPa) = 0.04997186
#
# Stress axis : x y z
#
# Youngs Moduli (GPa) = 22.49828 131.02184 40.66788
#
# Poissons Ratio (x) = 0.89293 0.13180
# Poissons Ratio (y) = 0.15333 0.13391
# Poissons Ratio (z) = 0.07292 0.43142
#
# Static dielectric constant tensor:
#      x y z
#    x 3.392960 0.141660 -0.233560 
#    y 0.141660 3.551620 -0.019800 
#    z -0.233560 -0.019800 3.338030 
# 
# 
# High freq. dielectric constant tensor:
#      x y z
#    x 1.779340 0.015280 -0.023590 
#    y 0.015280 1.799800 0.005470 
#    z -0.023590 0.005470 1.763950 
# 
# From -- ./inp_files/387012.got.cif
#   From: 2010.06.25/outbox.cif.g09.slc.cpg/sg2_194_cif.got.tgz:387012.got - 2010.06.27 13:26:56.
