data_PCOD8041974
_publ_section_title
;
Structure prediction by ZEFSAII (Michael W. Deem and Ramdas Pophale) SiO2 
 PCOD8041974
Probable space group: P -1
;
_chemical_formula_sum "Si O2"
_cell_formula_units_Z 16
_cell_length_a 8.419429
_cell_length_b 16.166524
_cell_length_c 12.502416
_cell_angle_alpha 29.482576
_cell_angle_beta 78.088411
_cell_angle_gamma 65.230734
_cell_volume 711.158716
_symmetry_space_group_name_H-M "P -1"
_symmetry_group_IT_number 2
_symmetry_cell_setting 'triclinic'
loop_
_space_group_symop_operation_xyz
x,y,z
-x,-y,-z
loop_
_atom_site_type_symbol
_atom_site_label
_atom_site_fract_x
_atom_site_fract_y
_atom_site_fract_z
Si Si1 0.162457 0.037741 0.017069
Si Si2 0.601276 0.309337 0.772069
Si Si3 0.826604 0.114618 0.318275
Si Si4 0.539882 0.965565 0.872116
Si Si5 0.379849 0.796046 0.551131
Si Si6 0.259885 0.563019 0.188084
Si Si7 0.114541 0.301707 0.558731
Si Si8 0.967687 0.141845 0.594073
O O1 0.219124 0.861321 0.123136
O O2 0.032665 0.023037 0.143012
O O3 0.358360 0.008847 0.067063
O O4 0.044914 0.251765 0.736315
O O5 0.500000 0.500000 0.500000
O O6 0.661698 0.355957 0.823511
O O7 0.446753 0.243859 0.894013
O O8 0.640414 0.193073 0.328511
O O9 0.839261 0.287393 0.062996
O O10 0.000000 0.000000 0.500000
O O11 0.849568 0.965056 0.388512
O O12 0.637733 0.001291 0.714639
O O13 0.322740 0.122060 0.724774
O O14 0.576974 0.623762 0.682058
O O15 0.222091 0.758769 0.560478
O O16 0.113705 0.504751 0.326722
O O17 0.986023 0.303003 0.477330
#
# Coordination Sequence:
#
# PCOD8041974 Si02
#       8
#     2   2   2   2   2   2   2   2
#     4  10  19  35  56  82 117 157 188 228 284 344
#     4  11  19  32  57  90 120 149 184 231 280 338
#     4  10  21  40  62  83 111 149 193 247 293 327
#     4   9  18  34  56  83 113 152 195 232 278 342
#     4   9  20  40  61  81 111 150 192 240 286 333
#     4  11  22  38  59  88 116 149 194 236 281 346
#     4  10  19  34  55  82 117 151 185 233 285 342
#     4  10  20  37  58  83 115 153 190 229 285 344
#
# _framework density 22.498495999999999
#
# number of rings (size 3 to 8) (size 9 to 14) (size 15 to 20)
#    0.000    2.000    0.000    6.750    0.000    0.000 
#    0.000   19.375    0.000    0.000    0.000    0.000 
#    0.000    0.000    0.000    0.000    0.000    0.000 
#
# Total GULP energy -198260.163352 kJ/mol
# GULP energy per Si atom -12391.260210 kJ/mol
# Density = 2.244729 g / cm^3
# Si number density = 22.498496 Si / 1000 Ang^3
#
#
#
# Elastic Constant Matrix: (Units=GPa)
#
#
# Indices 1 2 3 4 5 6 
#
# 1 64.5506 22.2751 18.0660 5.9570 -19.0387 24.2640
# 2 22.2751 111.0584 34.0295 20.2888 -15.1994 0.4035
# 3 18.0660 34.0295 142.4240 18.3388 -12.1995 16.5707
# 4 5.9570 20.2888 18.3388 25.8620 4.6921 -0.6041
# 5 -19.0387 -15.1994 -12.1995 4.6921 32.8609 -6.9215
# 6 24.2640 0.4035 16.5707 -0.6041 -6.9215 26.3456
#
#
#
# Elastic Compliance Matrix: (Units=1/GPa)
#
#
# Indices 1 2 3 4 5 6 
#
# 1 0.030447 -0.003337 0.002218 -0.008878 0.012656 -0.026264
# 2 -0.003337 0.012516 -0.001541 -0.008859 0.005628 0.005126
# 3 0.002218 -0.001541 0.009045 -0.006494 0.003390 -0.006967
# 4 -0.008878 -0.008859 -0.006494 0.055689 -0.017703 0.009022
# 5 0.012656 0.005628 0.003390 -0.017703 0.043556 -0.002837
# 6 -0.026264 0.005126 -0.006967 0.009022 -0.002837 0.065911
#
#
# Mechanical properties :
#
#
# Convention : Reuss Voigt Hill
#
# Bulk Modulus (GPa) = 21.41867 51.86378 36.64122
# Shear Modulus (GPa) = 21.00441 33.25787 27.13114
#
# Velocity S-wave (km/s) = 3.05879 3.84894 3.47639
# Velocity P-wave (km/s) = 4.69208 6.54634 5.69518
#
# Compressibility (1/GPa) = 0.04668825
#
# Stress axis : x y z
#
# Youngs Moduli (GPa) = 32.84413 79.89945 110.55581
#
# Poissons Ratio (x) = 0.26664 -0.24523
# Poissons Ratio (y) = 0.10961 0.17034
# Poissons Ratio (z) = -0.07285 0.12311
#
# Static dielectric constant tensor:
#      x y z
#    x 4.126600 -0.157850 -0.400610 
#    y -0.157850 4.430330 0.511940 
#    z -0.400610 0.511940 4.605220 
# 
# 
# High freq. dielectric constant tensor:
#      x y z
#    x 1.879760 -0.001080 -0.005490 
#    y -0.001080 1.881230 0.018740 
#    z -0.005490 0.018740 1.885350 
# 
# From -- ./inp_files/357873.got.cif
#   From: 2010.06.25/outbox.cif.g09.slc.cpg/sg2_179_cif.got.tgz:357873.got - 2010.06.27 13:26:56.
