data_PCOD8041178
_publ_section_title
;
Structure prediction by ZEFSAII (Michael W. Deem and Ramdas Pophale) SiO2 
 PCOD8041178
Probable space group: P -1
;
_chemical_formula_sum "Si O2"
_cell_formula_units_Z 16
_cell_length_a 15.206622
_cell_length_b 5.178589
_cell_length_c 9.880048
_cell_angle_alpha 95.959592
_cell_angle_beta 106.210853
_cell_angle_gamma 100.034181
_cell_volume 726.053046
_symmetry_space_group_name_H-M "P -1"
_symmetry_group_IT_number 2
_symmetry_cell_setting 'triclinic'
loop_
_space_group_symop_operation_xyz
x,y,z
-x,-y,-z
loop_
_atom_site_type_symbol
_atom_site_label
_atom_site_fract_x
_atom_site_fract_y
_atom_site_fract_z
Si Si1 0.571800 0.522957 0.729299
Si Si2 0.038452 0.472624 0.801528
Si Si3 0.862625 0.988126 0.231507
Si Si4 0.302531 0.053563 0.649402
Si Si5 0.479079 0.219858 0.903405
Si Si6 0.758124 0.870805 0.898511
Si Si7 0.376252 0.566269 0.549835
Si Si8 0.856578 0.410235 0.866316
O O1 0.545527 0.262801 0.800543
O O2 0.646353 0.757623 0.847267
O O3 0.478425 0.637828 0.668357
O O4 0.612816 0.423941 0.605718
O O5 0.072799 0.225538 0.738087
O O6 0.925958 0.399598 0.769058
O O7 0.068195 0.724873 0.730393
O O8 0.084512 0.549652 0.969772
O O9 0.802163 0.981071 0.340991
O O10 0.794496 0.928511 0.069482
O O11 0.371141 0.140323 0.810131
O O12 0.320263 0.274640 0.552151
O O13 0.316190 0.777379 0.578436
O O14 0.500000 0.500000 0.000000
O O15 0.500000 0.000000 0.000000
O O16 0.805575 0.652118 0.834651
O O17 0.780449 0.134431 0.830172
#
# Coordination Sequence:
#
# PCOD8041178 Si02
#       8
#     2   2   2   2   2   2   2   2
#     4  10  23  41  59  82 111 150 193 228 277 323
#     4   9  17  31  50  76 114 147 172 212 274 346
#     4  10  19  31  53  81 111 143 177 222 278 335
#     4  11  22  38  55  82 110 145 196 231 268 325
#     4  11  23  36  56  82 115 145 171 224 285 334
#     4  10  20  32  54  83 112 140 178 230 276 332
#     4  10  24  40  59  77 109 153 195 237 265 314
#     4   9  18  31  49  80 113 143 175 215 276 338
#
# _framework density 22.036960000000001
#
# number of rings (size 3 to 8) (size 9 to 14) (size 15 to 20)
#    0.000    2.000    0.000    3.750    0.000   15.500 
#    0.000    0.000    0.000    0.000    0.000   17.500 
#    0.000    0.000    0.000    0.000    0.000    0.000 
#
# Total GULP energy -198434.116738 kJ/mol
# GULP energy per Si atom -12402.132296 kJ/mol
# Density = 2.198680 g / cm^3
# Si number density = 22.036960 Si / 1000 Ang^3
#
#
#
# Elastic Constant Matrix: (Units=GPa)
#
#
# Indices 1 2 3 4 5 6 
#
# 1 98.4083 41.8947 17.2501 -13.8556 -38.4181 1.4987
# 2 41.8947 152.1113 30.1382 -22.6447 -19.2912 -9.9876
# 3 17.2501 30.1382 58.7190 -21.6771 -20.5062 -4.9347
# 4 -13.8556 -22.6447 -21.6771 25.0990 7.1786 -7.7358
# 5 -38.4181 -19.2912 -20.5062 7.1786 30.6548 5.7552
# 6 1.4987 -9.9876 -4.9347 -7.7358 5.7552 40.1273
#
#
#
# Elastic Compliance Matrix: (Units=1/GPa)
#
#
# Indices 1 2 3 4 5 6 
#
# 1 0.023789 -0.003340 0.008132 0.006626 0.032367 -0.004085
# 2 -0.003340 0.008745 -0.001485 0.006411 -0.001857 0.003621
# 3 0.008132 -0.001485 0.034843 0.027725 0.025065 0.005361
# 4 0.006626 0.006411 0.027725 0.076007 0.009703 0.018019
# 5 0.032367 -0.001857 0.025065 0.009703 0.088272 -0.009379
# 6 -0.004085 0.003621 0.005361 0.018019 -0.009379 0.031453
#
#
# Mechanical properties :
#
#
# Convention : Reuss Voigt Hill
#
# Bulk Modulus (GPa) = 13.51524 54.20052 33.85788
# Shear Modulus (GPa) = 17.78352 33.83994 25.81173
#
# Velocity S-wave (km/s) = 2.84383 3.92292 3.42613
# Velocity P-wave (km/s) = 4.11454 6.72070 5.57213
#
# Compressibility (1/GPa) = 0.07399053
#
# Stress axis : x y z
#
# Youngs Moduli (GPa) = 42.03570 114.35296 28.70039
#
# Poissons Ratio (x) = 0.38196 -0.23339
# Poissons Ratio (y) = 0.14041 0.04262
# Poissons Ratio (z) = -0.34183 0.16980
#
# Static dielectric constant tensor:
#      x y z
#    x 4.004940 0.163620 -0.120590 
#    y 0.163620 4.114390 -0.151070 
#    z -0.120590 -0.151070 3.781280 
# 
# 
# High freq. dielectric constant tensor:
#      x y z
#    x 1.867830 0.005430 -0.016770 
#    y 0.005430 1.878600 -0.007610 
#    z -0.016770 -0.007610 1.837210 
# 
# From -- ./inp_files/288880.got.cif
#   From: 2010.06.25/outbox.cif.g09.slc.cpg/sg2_145_cif.got.tgz:288880.got - 2010.06.27 13:26:56.
