data_PCOD8041416
_publ_section_title
;
Structure prediction by ZEFSAII (Michael W. Deem and Ramdas Pophale) SiO2 
 PCOD8041416
Probable space group: P -1
;
_chemical_formula_sum "Si O2"
_cell_formula_units_Z 16
_cell_length_a 13.794141
_cell_length_b 18.113119
_cell_length_c 11.848758
_cell_angle_alpha 151.269653
_cell_angle_beta 130.823468
_cell_angle_gamma 38.741800
_cell_volume 886.063653
_symmetry_space_group_name_H-M "P -1"
_symmetry_group_IT_number 2
_symmetry_cell_setting 'triclinic'
loop_
_space_group_symop_operation_xyz
x,y,z
-x,-y,-z
loop_
_atom_site_type_symbol
_atom_site_label
_atom_site_fract_x
_atom_site_fract_y
_atom_site_fract_z
Si Si1 0.327862 0.810661 0.254149
Si Si2 0.017933 0.964988 0.099715
Si Si3 0.900796 0.406299 0.400777
Si Si4 0.422822 0.394519 0.167643
Si Si5 0.210275 0.356120 0.574514
Si Si6 0.265690 0.649537 0.597682
Si Si7 0.508948 0.992179 0.362291
Si Si8 0.359491 0.521601 0.050121
O O1 0.172905 0.936137 0.229997
O O2 0.381325 0.943606 0.510516
O O3 0.457755 0.634935 0.043030
O O4 0.303013 0.725091 0.232996
O O5 0.028619 0.774704 0.870560
O O6 0.867462 0.148878 0.286821
O O7 0.000000 0.000000 0.000000
O O8 0.793352 0.583361 0.476311
O O9 0.798517 0.411420 0.431617
O O10 0.044174 0.407028 0.559259
O O11 0.324483 0.495380 0.339456
O O12 0.597865 0.336426 0.233055
O O13 0.337142 0.535466 0.186349
O O14 0.422532 0.212232 0.905839
O O15 0.335097 0.133736 0.372592
O O16 0.256895 0.458953 0.832533
O O17 0.500000 0.000000 0.500000
#
# Coordination Sequence:
#
# PCOD8041416 Si02
#       8
#     2   2   2   2   2   2   2   2
#     4  10  20  33  56  89 108 146 192 232 293 317
#     4  10  19  32  57  82 108 145 190 232 272 336
#     4  10  20  35  58  84 118 144 188 238 283 336
#     4  11  22  41  57  84 115 152 194 233 278 350
#     4  10  20  33  57  91 111 144 190 239 285 324
#     4  10  24  37  60  80 116 155 190 228 292 337
#     4  11  22  33  59  87 116 142 191 240 276 331
#     4  10  19  35  60  82 117 147 187 241 280 334
#
# _framework density 18.057393000000001
#
# number of rings (size 3 to 8) (size 9 to 14) (size 15 to 20)
#    0.000    1.750    3.750    2.250    7.000    0.000 
#    0.000    3.750    5.500    0.000    0.000    0.000 
#    0.000    0.000    0.000    0.000    0.000    0.000 
#
# Total GULP energy -198386.233351 kJ/mol
# GULP energy per Si atom -12399.139584 kJ/mol
# Density = 1.801629 g / cm^3
# Si number density = 18.057393 Si / 1000 Ang^3
#
#
#
# Elastic Constant Matrix: (Units=GPa)
#
#
# Indices 1 2 3 4 5 6 
#
# 1 93.1419 45.6502 50.8390 3.2194 5.1138 0.0011
# 2 45.6502 135.9108 43.2311 -1.6075 -1.3725 -2.0265
# 3 50.8390 43.2311 107.3492 2.1023 4.5087 1.9230
# 4 3.2194 -1.6075 2.1023 25.9525 0.8887 7.2356
# 5 5.1138 -1.3725 4.5087 0.8887 21.0783 1.6888
# 6 0.0011 -2.0265 1.9230 7.2356 1.6888 26.6040
#
#
#
# Elastic Compliance Matrix: (Units=1/GPa)
#
#
# Indices 1 2 3 4 5 6 
#
# 1 0.015939 -0.003480 -0.006009 -0.001847 -0.002798 0.000848
# 2 -0.003480 0.009259 -0.002186 0.000986 0.001835 0.000479
# 3 -0.006009 -0.002186 0.013121 -0.000129 -0.001406 -0.000990
# 4 -0.001847 0.000986 -0.000129 0.041999 -0.000324 -0.011318
# 5 -0.002798 0.001835 -0.001406 -0.000324 0.048777 -0.002767
# 6 0.000848 0.000479 -0.000990 -0.011318 -0.002767 0.040950
#
#
# Mechanical properties :
#
#
# Convention : Reuss Voigt Hill
#
# Bulk Modulus (GPa) = 66.79889 68.42694 67.61291
# Shear Modulus (GPa) = 25.20383 27.83907 26.52145
#
# Velocity S-wave (km/s) = 3.74004 3.93071 3.83656
# Velocity P-wave (km/s) = 7.46481 7.65356 7.55978
#
# Compressibility (1/GPa) = 0.01497031
#
# Stress axis : x y z
#
# Youngs Moduli (GPa) = 62.73964 108.00103 76.21652
#
# Poissons Ratio (x) = 0.37583 0.45795
# Poissons Ratio (y) = 0.21832 0.16659
# Poissons Ratio (z) = 0.37697 0.23606
#
# Static dielectric constant tensor:
#      x y z
#    x 3.268210 0.061630 0.320840 
#    y 0.061630 3.702250 0.183390 
#    z 0.320840 0.183390 3.507970 
# 
# 
# High freq. dielectric constant tensor:
#      x y z
#    x 1.680400 0.005710 0.030410 
#    y 0.005710 1.720190 -0.004570 
#    z 0.030410 -0.004570 1.684020 
# 
# From -- ./inp_files/423193.got.cif
#   From: 2010.06.25/outbox.cif.g09.slc.cpg/sg2_212_cif.got.tgz:423193.got - 2010.06.27 13:26:56.
