data_PCOD8041058
_publ_section_title
;
Structure prediction by ZEFSAII (Michael W. Deem and Ramdas Pophale) SiO2 
 PCOD8041058
Probable space group: P -1
;
_chemical_formula_sum "Si O2"
_cell_formula_units_Z 16
_cell_length_a 14.267229
_cell_length_b 18.361337
_cell_length_c 10.181084
_cell_angle_alpha 57.214928
_cell_angle_beta 81.770213
_cell_angle_gamma 33.440167
_cell_volume 921.333852
_symmetry_space_group_name_H-M "P -1"
_symmetry_group_IT_number 2
_symmetry_cell_setting 'triclinic'
loop_
_space_group_symop_operation_xyz
x,y,z
-x,-y,-z
loop_
_atom_site_type_symbol
_atom_site_label
_atom_site_fract_x
_atom_site_fract_y
_atom_site_fract_z
Si Si1 0.955648 0.361008 0.317859
Si Si2 0.792854 0.236198 0.835399
Si Si3 0.704861 0.415836 0.924638
Si Si4 0.210906 0.764146 0.664356
Si Si5 0.862324 0.622014 0.045641
Si Si6 0.522729 0.072584 0.353683
Si Si7 0.704764 0.412640 0.423824
Si Si8 0.175477 0.502525 0.087415
O O1 0.921977 0.488102 0.251842
O O2 0.789613 0.440064 0.361417
O O3 0.888918 0.409485 0.130727
O O4 0.216189 0.115552 0.529317
O O5 0.835402 0.252793 0.945657
O O6 0.771474 0.325577 0.639536
O O7 0.566592 0.365451 0.762322
O O8 0.000000 0.000000 0.000000
O O9 0.435168 0.636634 0.738162
O O10 0.773948 0.459000 0.865431
O O11 0.769788 0.324040 0.142023
O O12 0.167844 0.753541 0.544933
O O13 0.000000 0.000000 0.500000
O O14 0.961006 0.630029 0.075983
O O15 0.592705 0.845692 0.847170
O O16 0.000000 0.500000 0.000000
O O17 0.394522 0.256462 0.277949
O O18 0.500000 0.000000 0.500000
#
# Coordination Sequence:
#
# PCOD8041058 Si02
#       8
#     2   2   2   2   2   2   2   2
#     4  10  17  30  48  78 106 133 171 209 250 316
#     4  10  22  40  55  69 103 143 183 221 261 309
#     4  10  21  34  51  78 106 133 174 220 267 314
#     4  10  20  34  51  77 107 131 168 219 272 315
#     4   8  16  27  43  69 108 134 161 205 248 300
#     4  10  15  27  47  74 111 142 163 196 263 316
#     4  10  21  35  55  77 101 136 183 218 253 315
#     4  10  18  28  47  76 110 135 160 212 259 303
#
# _framework density 17.366126000000001
#
# number of rings (size 3 to 8) (size 9 to 14) (size 15 to 20)
#    0.000    2.500    5.000    0.750    1.750    2.000 
#    0.000    0.000    0.000    0.750    0.000    1.750 
#    0.000    0.000    0.000    0.000    0.000    0.000 
#
# Total GULP energy -198314.337277 kJ/mol
# GULP energy per Si atom -12394.646080 kJ/mol
# Density = 1.732660 g / cm^3
# Si number density = 17.366126 Si / 1000 Ang^3
#
#
#
# Elastic Constant Matrix: (Units=GPa)
#
#
# Indices 1 2 3 4 5 6 
#
# 1 149.9681 42.3195 35.7479 -5.4058 -11.9770 -7.2000
# 2 42.3195 72.0271 26.6229 -11.0076 -0.3396 -0.8358
# 3 35.7479 26.6229 57.5612 -19.9778 2.9659 -7.5609
# 4 -5.4058 -11.0076 -19.9778 29.2395 0.7428 -3.3093
# 5 -11.9770 -0.3396 2.9659 0.7428 17.9189 3.7019
# 6 -7.2000 -0.8358 -7.5609 -3.3093 3.7019 23.7265
#
#
#
# Elastic Compliance Matrix: (Units=1/GPa)
#
#
# Indices 1 2 3 4 5 6 
#
# 1 0.009701 -0.004048 -0.006155 -0.004243 0.007802 -0.000969
# 2 -0.004048 0.018611 -0.005450 0.002361 -0.001178 -0.001796
# 3 -0.006155 -0.005450 0.033816 0.021832 -0.013587 0.013881
# 4 -0.004243 0.002361 0.021832 0.051178 -0.011563 0.014695
# 5 0.007802 -0.001178 -0.013587 -0.011563 0.066622 -0.014011
# 6 -0.000969 -0.001796 0.013881 0.014695 -0.014011 0.050449
#
#
# Mechanical properties :
#
#
# Convention : Reuss Voigt Hill
#
# Bulk Modulus (GPa) = 32.44258 54.32633 43.38446
# Shear Modulus (GPa) = 18.38530 25.83474 22.11002
#
# Velocity S-wave (km/s) = 3.25728 3.86119 3.57202
# Velocity P-wave (km/s) = 5.73311 7.15746 6.48451
#
# Compressibility (1/GPa) = 0.03082369
#
# Stress axis : x y z
#
# Youngs Moduli (GPa) = 103.08116 53.73233 29.57157
#
# Poissons Ratio (x) = 0.21751 0.18200
# Poissons Ratio (y) = 0.41727 0.16115
# Poissons Ratio (z) = 0.63443 0.29282
#
# Static dielectric constant tensor:
#      x y z
#    x 3.679250 -0.142520 0.095690 
#    y -0.142520 2.954440 -0.129480 
#    z 0.095690 -0.129480 3.366380 
# 
# 
# High freq. dielectric constant tensor:
#      x y z
#    x 1.683830 -0.010480 -0.002690 
#    y -0.010480 1.625630 -0.018060 
#    z -0.002690 -0.018060 1.672200 
# 
# From -- ./inp_files/318028.got.cif
#   From: 2010.06.25/outbox.cif.g09.slc.cpg/sg2_160_cif.got.tgz:318028.got - 2010.06.27 13:26:56.
