data_PCOD8041190
_publ_section_title
;
Structure prediction by ZEFSAII (Michael W. Deem and Ramdas Pophale) SiO2 
 PCOD8041190
Probable space group: P -1
;
_chemical_formula_sum "Si O2"
_cell_formula_units_Z 16
_cell_length_a 22.442157
_cell_length_b 26.403995
_cell_length_c 9.446520
_cell_angle_alpha 145.323225
_cell_angle_beta 145.458294
_cell_angle_gamma 15.956203
_cell_volume 855.762203
_symmetry_space_group_name_H-M "P -1"
_symmetry_group_IT_number 2
_symmetry_cell_setting 'triclinic'
loop_
_space_group_symop_operation_xyz
x,y,z
-x,-y,-z
loop_
_atom_site_type_symbol
_atom_site_label
_atom_site_fract_x
_atom_site_fract_y
_atom_site_fract_z
Si Si1 0.737671 0.403307 0.619093
Si Si2 0.491816 0.103123 0.555506
Si Si3 0.631396 0.139678 0.714928
Si Si4 0.739720 0.899085 0.859107
Si Si5 0.736506 0.294370 0.638525
Si Si6 0.184839 0.002429 0.547006
Si Si7 0.020665 0.019482 0.793971
Si Si8 0.776965 0.533366 0.159201
O O1 0.782552 0.340556 0.727798
O O2 0.522624 0.517852 0.395101
O O3 0.949347 0.213092 0.506012
O O4 0.724380 0.519488 0.877031
O O5 0.633112 0.038132 0.550972
O O6 0.425031 0.050895 0.277480
O O7 0.265168 0.331589 0.653595
O O8 0.647067 0.997696 0.753614
O O9 0.404821 0.357822 0.824271
O O10 0.634607 0.132296 0.534236
O O11 0.850515 0.030152 0.940085
O O12 0.976352 0.673892 0.782797
O O13 0.738935 0.986981 0.156943
O O14 0.878967 0.198503 0.840237
O O15 0.797169 0.157245 0.362092
O O16 0.151564 0.927479 0.368053
#
# Coordination Sequence:
#
# PCOD8041190 Si02
#       8
#     2   2   2   2   2   2   2   2
#     4   9  17  31  51  78 105 137 188 220 261 320
#     4   9  21  36  63  81 109 135 189 229 264 324
#     4  10  21  36  52  81 111 147 174 221 280 321
#     4  10  20  39  60  85 102 142 188 227 268 317
#     4   9  17  29  51  79  98 145 184 227 254 308
#     4  10  22  34  54  78 114 146 173 221 280 320
#     4  10  19  31  54  75 112 142 182 218 268 321
#     4   9  19  33  60  79 108 139 180 224 270 321
#
# _framework density 18.696783
#
# number of rings (size 3 to 8) (size 9 to 14) (size 15 to 20)
#    0.750    1.750    1.250    0.750    8.750    0.500 
#    0.000    1.875    0.000    1.500    0.000    0.000 
#    0.000    0.000    0.000    0.000    0.000    0.000 
#
# Total GULP energy -198228.899439 kJ/mol
# GULP energy per Si atom -12389.306215 kJ/mol
# Density = 1.865423 g / cm^3
# Si number density = 18.696783 Si / 1000 Ang^3
#
#
#
# Elastic Constant Matrix: (Units=GPa)
#
#
# Indices 1 2 3 4 5 6 
#
# 1 74.7509 22.2662 27.1195 -7.2085 5.1398 -2.1974
# 2 22.2662 75.9625 18.7590 -10.9605 -9.9193 5.1391
# 3 27.1195 18.7590 59.7093 -14.8143 8.2086 -4.3041
# 4 -7.2085 -10.9605 -14.8143 23.1443 -0.2244 0.6128
# 5 5.1398 -9.9193 8.2086 -0.2244 25.9870 3.1784
# 6 -2.1974 5.1391 -4.3041 0.6128 3.1784 23.2457
#
#
#
# Elastic Compliance Matrix: (Units=1/GPa)
#
#
# Indices 1 2 3 4 5 6 
#
# 1 0.017008 -0.004151 -0.005974 -0.000574 -0.003297 0.001885
# 2 -0.004151 0.017882 -0.004427 0.004613 0.009897 -0.006640
# 3 -0.005974 -0.004427 0.025578 0.012164 -0.009227 0.006091
# 4 -0.000574 0.004613 0.012164 0.052985 -0.001509 -0.000013
# 5 -0.003297 0.009897 -0.009227 -0.001509 0.047110 -0.010610
# 6 0.001885 -0.006640 0.006091 -0.000013 -0.010610 0.047244
#
#
# Mechanical properties :
#
#
# Convention : Reuss Voigt Hill
#
# Bulk Modulus (GPa) = 31.88496 38.52359 35.20427
# Shear Modulus (GPa) = 20.21300 23.96059 22.08680
#
# Velocity S-wave (km/s) = 3.29157 3.58374 3.44076
# Velocity P-wave (km/s) = 5.61575 6.14600 5.88685
#
# Compressibility (1/GPa) = 0.03136275
#
# Stress axis : x y z
#
# Youngs Moduli (GPa) = 58.79427 55.92308 39.09650
#
# Poissons Ratio (x) = 0.23214 0.23357
# Poissons Ratio (y) = 0.24406 0.17309
# Poissons Ratio (z) = 0.35125 0.24758
#
# Static dielectric constant tensor:
#      x y z
#    x 3.184080 0.012150 0.216640 
#    y 0.012150 3.478440 0.012840 
#    z 0.216640 0.012840 3.172590 
# 
# 
# High freq. dielectric constant tensor:
#      x y z
#    x 1.701110 0.001800 0.024500 
#    y 0.001800 1.723150 -0.005170 
#    z 0.024500 -0.005170 1.709140 
# 
# From -- ./inp_files/197247.got.cif
#   From: 2010.06.25/outbox.cif.g09.slc.cpg/sg2_99_cif.got.tgz:197247.got - 2010.06.27 13:26:56.
