data_PCOD8041874
_publ_section_title
;
Structure prediction by ZEFSAII (Michael W. Deem and Ramdas Pophale) SiO2 
 PCOD8041874
Probable space group: P -1
;
_chemical_formula_sum "Si O2"
_cell_formula_units_Z 16
_cell_length_a 10.896898
_cell_length_b 13.856371
_cell_length_c 13.903920
_cell_angle_alpha 122.567188
_cell_angle_beta 149.031878
_cell_angle_gamma 71.520770
_cell_volume 858.296750
_symmetry_space_group_name_H-M "P -1"
_symmetry_group_IT_number 2
_symmetry_cell_setting 'triclinic'
loop_
_space_group_symop_operation_xyz
x,y,z
-x,-y,-z
loop_
_atom_site_type_symbol
_atom_site_label
_atom_site_fract_x
_atom_site_fract_y
_atom_site_fract_z
Si Si1 0.089959 0.260299 0.579435
Si Si2 0.276660 0.467771 0.958296
Si Si3 0.847544 0.590145 0.468828
Si Si4 0.160551 0.443461 0.335062
Si Si5 0.276934 0.096783 0.726704
Si Si6 0.599792 0.688633 0.723244
Si Si7 0.151988 0.241536 0.876127
Si Si8 0.321900 0.863358 0.608380
O O1 0.245075 0.393706 0.797764
O O2 0.028796 0.282620 0.439100
O O3 0.270835 0.177175 0.670406
O O4 0.830886 0.199410 0.431738
O O5 0.174680 0.375849 0.928767
O O6 0.109571 0.556466 0.885503
O O7 0.562794 0.542915 0.214274
O O8 0.862528 0.614711 0.605628
O O9 0.000000 0.500000 0.500000
O O10 0.358150 0.580629 0.543186
O O11 0.252665 0.357851 0.282319
O O12 0.338012 0.186967 0.909106
O O13 0.453867 0.011229 0.790652
O O14 0.000000 0.000000 0.500000
O O15 0.524223 0.798340 0.685423
O O16 0.787791 0.752941 0.969205
O O17 0.863809 0.156430 0.618985
#
# Coordination Sequence:
#
# PCOD8041874 Si02
#       8
#     2   2   2   2   2   2   2   2
#     4   9  17  31  50  76 103 128 160 209 258 298
#     4  10  19  34  47  73 107 133 167 202 252 304
#     4  12  21  32  53  73 103 139 168 203 256 302
#     4  11  23  33  46  77 104 144 171 202 243 306
#     4   7  15  31  53  76 101 124 168 211 265 297
#     4  11  20  33  51  72 107 136 178 203 243 302
#     4   9  17  30  50  74 103 133 159 210 259 293
#     4   9  17  35  54  77 102 128 166 220 254 299
#
# _framework density 18.641570999999999
#
# number of rings (size 3 to 8) (size 9 to 14) (size 15 to 20)
#    0.000    2.750    5.000    0.375    0.000    2.000 
#    0.000    0.000    0.000    0.750    0.000    8.750 
#    0.000    0.000    0.000    0.000    0.000    0.000 
#
# Total GULP energy -198210.176764 kJ/mol
# GULP energy per Si atom -12388.136048 kJ/mol
# Density = 1.859914 g / cm^3
# Si number density = 18.641571 Si / 1000 Ang^3
#
#
#
# Elastic Constant Matrix: (Units=GPa)
#
#
# Indices 1 2 3 4 5 6 
#
# 1 72.1980 61.0057 43.7169 -11.9508 -15.4491 -11.4829
# 2 61.0057 154.2492 36.2383 -20.8446 -13.2456 -21.3044
# 3 43.7169 36.2383 64.0329 -24.3369 -9.4261 -4.4730
# 4 -11.9508 -20.8446 -24.3369 20.6095 -1.4500 5.8587
# 5 -15.4491 -13.2456 -9.4261 -1.4500 20.9958 -0.0736
# 6 -11.4829 -21.3044 -4.4730 5.8587 -0.0736 20.4538
#
#
#
# Elastic Compliance Matrix: (Units=1/GPa)
#
#
# Indices 1 2 3 4 5 6 
#
# 1 0.038322 -0.009340 -0.027201 -0.022218 0.008602 0.012232
# 2 -0.009340 0.011417 0.004770 0.010670 0.003225 0.004647
# 3 -0.027201 0.004770 0.054181 0.058106 0.011279 -0.015057
# 4 -0.022218 0.010670 0.058106 0.123612 0.024922 -0.023970
# 5 0.008602 0.003225 0.011279 0.024922 0.062791 0.003742
# 6 0.012232 0.004647 -0.015057 -0.023970 0.003742 0.064184
#
#
# Mechanical properties :
#
#
# Convention : Reuss Voigt Hill
#
# Bulk Modulus (GPa) = 24.76607 63.60022 44.18314
# Shear Modulus (GPa) = 11.58724 22.37976 16.98350
#
# Velocity S-wave (km/s) = 2.49586 3.46862 3.02164
# Velocity P-wave (km/s) = 4.64973 7.08754 5.99388
#
# Compressibility (1/GPa) = 0.04037783
#
# Stress axis : x y z
#
# Youngs Moduli (GPa) = 26.09435 87.58862 18.45662
#
# Poissons Ratio (x) = 0.81811 0.50204
# Poissons Ratio (y) = 0.24373 -0.08804
# Poissons Ratio (z) = 0.70980 -0.41782
#
# Static dielectric constant tensor:
#      x y z
#    x 3.155290 -0.097920 -0.138250 
#    y -0.097920 4.175410 -0.072360 
#    z -0.138250 -0.072360 3.265110 
# 
# 
# High freq. dielectric constant tensor:
#      x y z
#    x 1.680030 -0.002500 -0.014890 
#    y -0.002500 1.733710 -0.017930 
#    z -0.014890 -0.017930 1.701360 
# 
# From -- ./inp_files/520967.got.cif
#   From: 2010.06.25/outbox.cif.g09.slc.cpg/sg2_261_cif.got.tgz:520967.got - 2010.06.27 13:26:56.
