data_PCOD8041089
_publ_section_title
;
Structure prediction by ZEFSAII (Michael W. Deem and Ramdas Pophale) SiO2 
 PCOD8041089
Probable space group: P -1
;
_chemical_formula_sum "Si O2"
_cell_formula_units_Z 16
_cell_length_a 19.995544
_cell_length_b 12.108551
_cell_length_c 16.973131
_cell_angle_alpha 41.429955
_cell_angle_beta 20.099963
_cell_angle_gamma 32.129149
_cell_volume 727.426939
_symmetry_space_group_name_H-M "P -1"
_symmetry_group_IT_number 2
_symmetry_cell_setting 'triclinic'
loop_
_space_group_symop_operation_xyz
x,y,z
-x,-y,-z
loop_
_atom_site_type_symbol
_atom_site_label
_atom_site_fract_x
_atom_site_fract_y
_atom_site_fract_z
Si Si1 0.808533 0.645102 0.746235
Si Si2 0.619358 0.528886 0.146490
Si Si3 0.408260 0.047746 0.779248
Si Si4 0.606724 0.268968 0.416980
Si Si5 0.593621 0.874971 0.078544
Si Si6 0.871831 0.257029 0.272749
Si Si7 0.073110 0.812595 0.575871
Si Si8 0.663822 0.577884 0.775477
O O1 0.724420 0.597840 0.786042
O O2 0.078007 0.587906 0.469443
O O3 0.605053 0.891677 0.868150
O O4 0.816383 0.495408 0.884006
O O5 0.733811 0.309057 0.184597
O O6 0.541992 0.712627 0.197717
O O7 0.360446 0.608029 0.348658
O O8 0.563167 0.100723 0.528150
O O9 0.451238 0.085073 0.800884
O O10 0.511729 0.806908 0.778097
O O11 0.118103 0.212675 0.988545
O O12 0.780357 0.174713 0.352794
O O13 0.334362 0.491484 0.618274
O O14 0.879536 0.766774 0.796456
O O15 0.951692 0.123373 0.337992
O O16 0.000000 0.000000 0.500000
O O17 0.500000 0.500000 0.000000
#
# Coordination Sequence:
#
# PCOD8041089 Si02
#       8
#     2   2   2   2   2   2   2   2
#     4  10  22  39  59  86 117 149 197 242 292 350
#     4  11  22  36  58  91 126 154 183 238 296 360
#     4  10  20  37  59  84 114 154 200 240 277 343
#     4  10  20  35  56  84 118 156 192 228 289 350
#     4  10  20  34  57  90 125 153 183 234 299 355
#     4   9  19  33  54  84 121 156 191 228 282 351
#     4  10  19  30  50  84 123 157 186 224 289 344
#     4  10  24  42  61  82 111 154 202 249 293 336
#
# _framework density 21.995336000000002
#
# number of rings (size 3 to 8) (size 9 to 14) (size 15 to 20)
#    0.000    2.000    1.250    3.000    0.000   10.000 
#    0.000    0.625    0.000    1.500    0.000    0.000 
#    0.000    0.000    0.000    0.000    0.000    0.000 
#
# Total GULP energy -198344.166561 kJ/mol
# GULP energy per Si atom -12396.510410 kJ/mol
# Density = 2.194527 g / cm^3
# Si number density = 21.995336 Si / 1000 Ang^3
#
#
#
# Elastic Constant Matrix: (Units=GPa)
#
#
# Indices 1 2 3 4 5 6 
#
# 1 53.3807 32.9800 40.7920 -6.8917 -7.8317 -21.7901
# 2 32.9800 97.6203 50.6293 -34.5503 -4.4731 -6.3335
# 3 40.7920 50.6293 146.8717 -26.5192 -13.7694 -1.1038
# 4 -6.8917 -34.5503 -26.5192 36.9707 -0.0417 2.7668
# 5 -7.8317 -4.4731 -13.7694 -0.0417 31.9756 -3.3480
# 6 -21.7901 -6.3335 -1.1038 2.7668 -3.3480 27.5674
#
#
#
# Elastic Compliance Matrix: (Units=1/GPa)
#
#
# Indices 1 2 3 4 5 6 
#
# 1 0.051202 -0.013562 -0.010796 -0.013821 0.010117 0.039539
# 2 -0.013562 0.020432 -0.000430 0.016848 -0.001455 -0.007910
# 3 -0.010796 -0.000430 0.011124 0.006214 0.001186 -0.008666
# 4 -0.013821 0.016848 0.006214 0.045521 0.000523 -0.011310
# 5 0.010117 -0.001455 0.001186 0.000523 0.035310 0.011945
# 6 0.039539 -0.007910 -0.008666 -0.011310 0.011945 0.067949
#
#
# Mechanical properties :
#
#
# Convention : Reuss Voigt Hill
#
# Bulk Modulus (GPa) = 30.13740 60.74171 45.43955
# Shear Modulus (GPa) = 17.11316 30.86749 23.99032
#
# Velocity S-wave (km/s) = 2.79236 3.75022 3.30616
# Velocity P-wave (km/s) = 4.91201 6.81380 5.93951
#
# Compressibility (1/GPa) = 0.03318136
#
# Stress axis : x y z
#
# Youngs Moduli (GPa) = 19.53067 48.94396 89.89962
#
# Poissons Ratio (x) = 0.66376 0.97052
# Poissons Ratio (y) = 0.26487 0.03869
# Poissons Ratio (z) = 0.21085 0.02106
#
# Static dielectric constant tensor:
#      x y z
#    x 3.919740 -0.319100 -0.221170 
#    y -0.319100 3.785280 -0.176440 
#    z -0.221170 -0.176440 4.250050 
# 
# 
# High freq. dielectric constant tensor:
#      x y z
#    x 1.848370 -0.023730 -0.017730 
#    y -0.023730 1.833180 -0.026680 
#    z -0.017730 -0.026680 1.876970 
# 
# From -- ./inp_files/570821.got.cif
#   From: 2010.06.25/outbox.cif.g09.slc.cpg/sg2_286_cif.got.tgz:570821.got - 2010.06.27 13:26:56.
