data_PCOD8041828
_publ_section_title
;
Structure prediction by ZEFSAII (Michael W. Deem and Ramdas Pophale) SiO2 
 PCOD8041828
Probable space group: P -1
;
_chemical_formula_sum "Si O2"
_cell_formula_units_Z 14
_cell_length_a 12.361989
_cell_length_b 9.531407
_cell_length_c 13.884321
_cell_angle_alpha 41.368278
_cell_angle_beta 46.337929
_cell_angle_gamma 36.453053
_cell_volume 626.529543
_symmetry_space_group_name_H-M "P -1"
_symmetry_group_IT_number 2
_symmetry_cell_setting 'triclinic'
loop_
_space_group_symop_operation_xyz
x,y,z
-x,-y,-z
loop_
_atom_site_type_symbol
_atom_site_label
_atom_site_fract_x
_atom_site_fract_y
_atom_site_fract_z
Si Si1 0.582880 0.318177 0.134770
Si Si2 0.461360 0.293490 0.664735
Si Si3 0.328885 0.616310 0.756235
Si Si4 0.346432 0.400106 0.396382
Si Si5 0.861579 0.810394 0.679999
Si Si6 0.813512 0.731248 0.283281
Si Si7 0.033742 0.980738 0.333094
O O1 0.648188 0.437524 0.113707
O O2 0.422114 0.302250 0.290513
O O3 0.758648 0.021342 0.148761
O O4 0.500000 0.500000 0.000000
O O5 0.500000 0.500000 0.500000
O O6 0.390667 0.363324 0.783652
O O7 0.293071 0.342492 0.681715
O O8 0.639579 0.985715 0.708937
O O9 0.470910 0.692019 0.603348
O O10 0.114574 0.854327 0.745169
O O11 0.243507 0.280746 0.564530
O O12 0.210859 0.718460 0.311629
O O13 0.965660 0.496210 0.755927
O O14 0.901465 0.854130 0.742170
O O15 0.944012 0.910290 0.504953
#
# Coordination Sequence:
#
# PCOD8041828 Si02
#       7
#     2   2   2   2   2   2   2
#     4  10  23  43  56  72 113 157 191 228 271 324
#     4  12  16  31  57  90 117 139 172 229 283 331
#     4  10  19  32  57  79 114 146 181 218 277 326
#     4   9  19  33  58  80 110 141 184 220 278 325
#     4  10  17  26  52  88 122 133 172 223 289 328
#     4  11  20  34  58  87 113 141 182 232 280 326
#     4  10  15  29  52  87 110 144 170 224 276 336
#
# _framework density 22.345313999999998
#
# number of rings (size 3 to 8) (size 9 to 14) (size 15 to 20)
#    0.857    0.857    5.714    1.286    0.000    0.000 
#    2.571    2.857    0.000    1.714    0.000    0.000 
#    0.000    0.000    0.000    0.000    0.000    0.000 
#
# Total GULP energy -173433.018124 kJ/mol
# GULP energy per Si atom -12388.072723 kJ/mol
# Density = 2.229446 g / cm^3
# Si number density = 22.345314 Si / 1000 Ang^3
#
#
#
# Elastic Constant Matrix: (Units=GPa)
#
#
# Indices 1 2 3 4 5 6 
#
# 1 48.9088 25.1702 23.0189 0.0327 30.1298 -1.4777
# 2 25.1702 152.5537 44.0997 -30.5100 19.4971 -1.3878
# 3 23.0189 44.0997 58.9809 -18.0641 28.1809 8.7220
# 4 0.0327 -30.5100 -18.0641 19.4743 -3.8466 5.3496
# 5 30.1298 19.4971 28.1809 -3.8466 27.7207 -1.8282
# 6 -1.4777 -1.3878 8.7220 5.3496 -1.8282 38.8548
#
#
#
# Elastic Compliance Matrix: (Units=1/GPa)
#
#
# Indices 1 2 3 4 5 6 
#
# 1 0.078001 -0.008471 0.023560 -0.010541 -0.104637 -0.006097
# 2 -0.008471 0.011279 -0.003039 0.016493 0.006573 -0.001198
# 3 0.023560 -0.003039 0.077488 0.055962 -0.096381 -0.028846
# 4 -0.010541 0.016493 0.055962 0.129831 -0.041141 -0.032185
# 5 -0.104637 0.006573 -0.096381 -0.041141 0.239751 0.034835
# 6 -0.006097 -0.001198 -0.028846 -0.032185 0.034835 0.038008
#
#
# Mechanical properties :
#
#
# Convention : Reuss Voigt Hill
#
# Bulk Modulus (GPa) = 5.23925 49.44680 27.34303
# Shear Modulus (GPa) = 8.14492 28.42026 18.28259
#
# Velocity S-wave (km/s) = 1.91127 3.57019 2.86350
# Velocity P-wave (km/s) = 2.68707 6.25872 4.81622
#
# Compressibility (1/GPa) = 0.19086717
#
# Stress axis : x y z
#
# Youngs Moduli (GPa) = 12.82039 88.66246 12.90522
#
# Poissons Ratio (x) = 0.75103 -0.30405
# Poissons Ratio (y) = 0.10860 0.03923
# Poissons Ratio (z) = -0.30205 0.26949
#
# Static dielectric constant tensor:
#      x y z
#    x 3.813410 -0.022570 0.358120 
#    y -0.022570 4.566310 -0.006670 
#    z 0.358120 -0.006670 3.339560 
# 
# 
# High freq. dielectric constant tensor:
#      x y z
#    x 1.860380 0.002370 0.035050 
#    y 0.002370 1.906880 -0.003280 
#    z 0.035050 -0.003280 1.808820 
# 
# From -- ./inp_files/258997.got.cif
#   From: 2010.06.25/outbox.cif.g09.slc.cpg/sg2_130_cif.got.tgz:258997.got - 2010.06.27 13:26:56.
