data_PCOD8041624
_publ_section_title
;
Structure prediction by ZEFSAII (Michael W. Deem and Ramdas Pophale) SiO2 
 PCOD8041624
Probable space group: P -1
;
_chemical_formula_sum "Si O2"
_cell_formula_units_Z 16
_cell_length_a 14.375794
_cell_length_b 8.838120
_cell_length_c 11.773059
_cell_angle_alpha 86.206251
_cell_angle_beta 116.779142
_cell_angle_gamma 135.193919
_cell_volume 861.291048
_symmetry_space_group_name_H-M "P -1"
_symmetry_group_IT_number 2
_symmetry_cell_setting 'triclinic'
loop_
_space_group_symop_operation_xyz
x,y,z
-x,-y,-z
loop_
_atom_site_type_symbol
_atom_site_label
_atom_site_fract_x
_atom_site_fract_y
_atom_site_fract_z
Si Si1 0.743002 0.612270 0.886622
Si Si2 0.648809 0.058591 0.082648
Si Si3 0.439485 0.362293 0.858867
Si Si4 0.079886 0.006561 0.647661
Si Si5 0.046833 0.991316 0.193701
Si Si6 0.037872 0.600654 0.640836
Si Si7 0.222654 0.692195 0.079277
Si Si8 0.100748 0.710833 0.213994
O O1 0.579368 0.523791 0.831737
O O2 0.692914 0.379387 0.863523
O O3 0.818518 0.752214 0.802659
O O4 0.877232 0.795809 0.045679
O O5 0.794313 0.287203 0.228334
O O6 0.597011 0.848779 0.121079
O O7 0.700553 0.102794 0.977217
O O8 0.500000 0.000000 0.000000
O O9 0.272102 0.254220 0.733175
O O10 0.500000 0.500000 0.000000
O O11 0.043769 0.788041 0.637167
O O12 0.000000 0.000000 0.500000
O O13 0.995114 0.984285 0.710545
O O14 0.128238 0.915815 0.253974
O O15 0.000000 0.500000 0.500000
O O16 0.906357 0.395854 0.669410
O O17 0.239853 0.791759 0.207168
O O18 0.046084 0.460308 0.946347
#
# Coordination Sequence:
#
# PCOD8041624 Si02
#       8
#     2   2   2   2   2   2   2   2
#     4  10  19  33  55  84 117 148 182 235 284 334
#     4  10  20  34  56  85 112 143 182 229 282 334
#     4  11  22  35  57  87 119 147 188 234 288 331
#     4  11  23  39  58  84 114 154 193 232 279 344
#     4  10  20  33  56  84 115 150 190 226 283 339
#     4  10  21  36  58  80 110 146 188 230 274 333
#     4   9  17  31  51  80 113 142 179 230 281 326
#     4   9  18  31  53  80 109 143 185 230 274 330
#
# _framework density 18.576764000000001
#
# number of rings (size 3 to 8) (size 9 to 14) (size 15 to 20)
#    0.000    2.000    2.500    1.500    1.750    4.000 
#    0.000    0.625    0.000    0.750    0.000    0.000 
#    0.000    0.000    0.000    0.000    0.000    0.000 
#
# Total GULP energy -198257.779869 kJ/mol
# GULP energy per Si atom -12391.111242 kJ/mol
# Density = 1.853448 g / cm^3
# Si number density = 18.576764 Si / 1000 Ang^3
#
#
#
# Elastic Constant Matrix: (Units=GPa)
#
#
# Indices 1 2 3 4 5 6 
#
# 1 130.2575 36.3825 66.4140 -3.8566 -18.2622 17.1253
# 2 36.3825 75.1298 40.3543 -12.2806 -3.6549 16.9662
# 3 66.4140 40.3543 107.0512 -15.9555 -6.9024 13.4070
# 4 -3.8566 -12.2806 -15.9555 22.9388 1.8645 -2.8825
# 5 -18.2622 -3.6549 -6.9024 1.8645 34.1452 -3.6671
# 6 17.1253 16.9662 13.4070 -2.8825 -3.6671 33.3017
#
#
#
# Elastic Compliance Matrix: (Units=1/GPa)
#
#
# Indices 1 2 3 4 5 6 
#
# 1 0.012913 -0.002388 -0.007199 -0.004836 0.005205 -0.002371
# 2 -0.002388 0.019059 -0.004031 0.006277 -0.001086 -0.006435
# 3 -0.007199 -0.004031 0.016496 0.008180 -0.001430 -0.000335
# 4 -0.004836 0.006277 0.008180 0.052103 -0.003088 0.000166
# 5 0.005205 -0.001086 -0.001430 -0.003088 0.032018 0.001711
# 6 -0.002371 -0.006435 -0.000335 0.000166 0.001711 0.034863
#
#
# Mechanical properties :
#
#
# Convention : Reuss Voigt Hill
#
# Bulk Modulus (GPa) = 47.10217 66.52667 56.81442
# Shear Modulus (GPa) = 24.78114 29.36299 27.07207
#
# Velocity S-wave (km/s) = 3.65634 3.98003 3.82161
# Velocity P-wave (km/s) = 6.57538 7.55052 7.07976
#
# Compressibility (1/GPa) = 0.02123044
#
# Stress axis : x y z
#
# Youngs Moduli (GPa) = 77.44105 52.46992 60.62026
#
# Poissons Ratio (x) = 0.12532 0.43641
# Poissons Ratio (y) = 0.18495 0.24437
# Poissons Ratio (z) = 0.55751 0.21151
#
# Static dielectric constant tensor:
#      x y z
#    x 4.239160 0.881560 0.016990 
#    y 0.881560 4.534350 -0.007580 
#    z 0.016990 -0.007580 3.159180 
# 
# 
# High freq. dielectric constant tensor:
#      x y z
#    x 1.732010 0.001370 -0.008020 
#    y 0.001370 1.725160 -0.016430 
#    z -0.008020 -0.016430 1.686100 
# 
# From -- ./inp_files/281418.got.cif
#   From: 2010.06.25/outbox.cif.g09.slc.cpg/sg2_141_cif.got.tgz:281418.got - 2010.06.27 13:26:56.
