data_PCOD8041264
_publ_section_title
;
Structure prediction by ZEFSAII (Michael W. Deem and Ramdas Pophale) SiO2 
 PCOD8041264
Probable space group: P -1
;
_chemical_formula_sum "Si O2"
_cell_formula_units_Z 16
_cell_length_a 11.231952
_cell_length_b 14.111895
_cell_length_c 11.613162
_cell_angle_alpha 127.180560
_cell_angle_beta 122.920215
_cell_angle_gamma 98.239816
_cell_volume 872.644266
_symmetry_space_group_name_H-M "P -1"
_symmetry_group_IT_number 2
_symmetry_cell_setting 'triclinic'
loop_
_space_group_symop_operation_xyz
x,y,z
-x,-y,-z
loop_
_atom_site_type_symbol
_atom_site_label
_atom_site_fract_x
_atom_site_fract_y
_atom_site_fract_z
Si Si1 0.703172 0.844410 0.275001
Si Si2 0.043319 0.417304 0.322860
Si Si3 0.303371 0.242856 0.287824
Si Si4 0.277094 0.590079 0.794449
Si Si5 0.060138 0.207828 0.751981
Si Si6 0.254121 0.428305 0.231834
Si Si7 0.831190 0.709377 0.374315
Si Si8 0.048290 0.874913 0.829770
O O1 0.809382 0.838110 0.218546
O O2 0.692232 0.743948 0.302991
O O3 0.493068 0.773513 0.068948
O O4 0.830300 0.033482 0.522782
O O5 0.894444 0.440389 0.249602
O O6 0.914252 0.231866 0.171953
O O7 0.227165 0.558282 0.608812
O O8 0.132670 0.442832 0.263710
O O9 0.278967 0.313161 0.216129
O O10 0.534310 0.385827 0.553165
O O11 0.160886 0.199341 0.284348
O O12 0.240520 0.071117 0.097709
O O13 0.298841 0.468657 0.763339
O O14 0.079394 0.285969 0.696329
O O15 0.129411 0.338222 0.983462
O O16 0.018997 0.850824 0.659553
#
# Coordination Sequence:
#
# PCOD8041264 Si02
#       8
#     2   2   2   2   2   2   2   2
#     4   9  19  32  53  78 100 132 162 216 248 291
#     4   9  21  35  51  74 104 138 163 210 240 311
#     4   9  19  28  52  76 100 135 159 215 252 292
#     4  10  19  35  54  74 100 133 178 198 253 294
#     4   9  20  32  49  81 102 126 164 214 254 294
#     4  10  19  32  50  74 107 130 166 202 260 296
#     4   9  18  30  53  75 100 127 166 216 240 291
#     4   9  17  33  49  79 103 125 171 205 255 294
#
# _framework density 18.335077999999999
#
# number of rings (size 3 to 8) (size 9 to 14) (size 15 to 20)
#    0.750    2.000    0.000    1.125    7.000    0.000 
#    0.000    2.500    0.000    4.500    0.000    0.000 
#    0.000    0.000    0.000    0.000    0.000    0.000 
#
# Total GULP energy -198293.121676 kJ/mol
# GULP energy per Si atom -12393.320105 kJ/mol
# Density = 1.829335 g / cm^3
# Si number density = 18.335078 Si / 1000 Ang^3
#
#
#
# Elastic Constant Matrix: (Units=GPa)
#
#
# Indices 1 2 3 4 5 6 
#
# 1 54.9947 16.7228 50.5125 -8.3963 -5.5367 13.0334
# 2 16.7228 43.4841 40.8855 -7.4228 1.4837 12.3173
# 3 50.5125 40.8855 161.4582 0.5758 2.4015 13.8110
# 4 -8.3963 -7.4228 0.5758 24.1454 5.4949 -4.7149
# 5 -5.5367 1.4837 2.4015 5.4949 29.4965 -5.0914
# 6 13.0334 12.3173 13.8110 -4.7149 -5.0914 20.2642
#
#
#
# Elastic Compliance Matrix: (Units=1/GPa)
#
#
# Indices 1 2 3 4 5 6 
#
# 1 0.030203 0.001297 -0.008860 0.008218 0.002799 -0.011560
# 2 0.001297 0.036927 -0.008276 0.010029 -0.005698 -0.016737
# 3 -0.008860 -0.008276 0.010936 -0.005341 -0.000827 0.001824
# 4 0.008218 0.010029 -0.005341 0.049549 -0.007426 0.001921
# 5 0.002799 -0.005698 -0.000827 -0.007426 0.037895 0.010020
# 6 -0.011560 -0.016737 0.001824 0.001921 0.010020 0.068678
#
#
# Mechanical properties :
#
#
# Convention : Reuss Voigt Hill
#
# Bulk Modulus (GPa) = 21.55689 52.90871 37.23280
# Shear Modulus (GPa) = 17.77285 24.90230 21.33757
#
# Velocity S-wave (km/s) = 3.11679 3.68934 3.41509
# Velocity P-wave (km/s) = 4.97345 6.86058 5.99178
#
# Compressibility (1/GPa) = 0.04638888
#
# Stress axis : x y z
#
# Youngs Moduli (GPa) = 33.10934 27.08058 91.43912
#
# Poissons Ratio (x) = -0.03512 0.81011
# Poissons Ratio (y) = -0.04294 0.75674
# Poissons Ratio (z) = 0.29333 0.22412
#
# Static dielectric constant tensor:
#      x y z
#    x 3.029120 0.071920 -0.106240 
#    y 0.071920 3.180170 0.082010 
#    z -0.106240 0.082010 3.403090 
# 
# 
# High freq. dielectric constant tensor:
#      x y z
#    x 1.673460 0.014240 -0.009510 
#    y 0.014240 1.693120 0.004440 
#    z -0.009510 0.004440 1.717120 
# 
# From -- ./inp_files/431869.got.cif
#   From: 2010.06.25/outbox.cif.g09.slc.cpg/sg2_216_cif.got.tgz:431869.got - 2010.06.27 13:26:56.
