data_PCOD8041989
_publ_section_title
;
Structure prediction by ZEFSAII (Michael W. Deem and Ramdas Pophale) SiO2 
 PCOD8041989
Probable space group: P -1
;
_chemical_formula_sum "Si O2"
_cell_formula_units_Z 14
_cell_length_a 15.511968
_cell_length_b 9.613615
_cell_length_c 15.713919
_cell_angle_alpha 135.579995
_cell_angle_beta 148.692227
_cell_angle_gamma 66.566106
_cell_volume 691.606869
_symmetry_space_group_name_H-M "P -1"
_symmetry_group_IT_number 2
_symmetry_cell_setting 'triclinic'
loop_
_space_group_symop_operation_xyz
x,y,z
-x,-y,-z
loop_
_atom_site_type_symbol
_atom_site_label
_atom_site_fract_x
_atom_site_fract_y
_atom_site_fract_z
Si Si1 0.990305 0.262696 0.396195
Si Si2 0.730460 0.760928 0.500488
Si Si3 0.323000 0.251806 0.133409
Si Si4 0.719887 0.664510 0.058130
Si Si5 0.974675 0.676283 0.996422
Si Si6 0.768733 0.501899 0.575833
Si Si7 0.117455 0.822955 0.540986
O O1 0.190557 0.304519 0.543004
O O2 0.000000 0.500000 0.500000
O O3 0.978087 0.207407 0.460610
O O4 0.793751 0.040445 0.081959
O O5 0.795962 0.700394 0.618313
O O6 0.486815 0.600088 0.210163
O O7 0.821901 0.047251 0.701301
O O8 0.562736 0.384551 0.405948
O O9 0.277993 0.301225 0.024457
O O10 0.230147 0.346334 0.161519
O O11 0.921738 0.676535 0.250385
O O12 0.732468 0.882092 0.217303
O O13 0.949371 0.611261 0.845822
O O14 0.000000 0.500000 0.000000
O O15 0.756377 0.291088 0.416976
#
# Coordination Sequence:
#
# PCOD8041989 Si02
#       7
#     2   2   2   2   2   2   2
#     4  10  19  34  55  87 120 142 185 234 284 337
#     4  10  22  39  61  85 115 153 197 241 278 343
#     4   9  21  37  59  83 114 151 190 237 283 342
#     4   9  20  38  58  86 121 146 196 230 291 347
#     4  11  23  42  59  83 118 153 193 244 293 334
#     4  11  21  38  63  84 114 153 200 231 288 342
#     4  10  20  35  59  87 118 157 179 239 291 344
#
# _framework density 20.242712999999998
#
# number of rings (size 3 to 8) (size 9 to 14) (size 15 to 20)
#    0.000    2.000    1.429    1.714    2.000    3.429 
#    2.571    7.857    0.000    0.000    0.000    0.000 
#    0.000    0.000    0.000    0.000    0.000    0.000 
#
# Total GULP energy -173512.065194 kJ/mol
# GULP energy per Si atom -12393.718942 kJ/mol
# Density = 2.019664 g / cm^3
# Si number density = 20.242713 Si / 1000 Ang^3
#
#
#
# Elastic Constant Matrix: (Units=GPa)
#
#
# Indices 1 2 3 4 5 6 
#
# 1 79.4274 15.9868 35.7881 11.5554 0.7256 -8.1827
# 2 15.9868 101.9428 44.7573 21.6104 -2.5702 -6.2229
# 3 35.7881 44.7573 107.2543 10.6565 1.5020 6.7123
# 4 11.5554 21.6104 10.6565 30.2493 5.9513 -4.4287
# 5 0.7256 -2.5702 1.5020 5.9513 29.2654 2.9451
# 6 -8.1827 -6.2229 6.7123 -4.4287 2.9451 19.8221
#
#
#
# Elastic Compliance Matrix: (Units=1/GPa)
#
#
# Indices 1 2 3 4 5 6 
#
# 1 0.016588 0.001534 -0.006321 -0.003946 -0.000014 0.008590
# 2 0.001534 0.014395 -0.006008 -0.008592 0.002794 0.004852
# 3 -0.006321 -0.006008 0.014497 0.000283 -0.000236 -0.009306
# 4 -0.003946 -0.008592 0.000283 0.043619 -0.010230 0.006843
# 5 -0.000014 0.002794 -0.000236 -0.010230 0.037199 -0.006862
# 6 0.008590 0.004852 -0.009306 0.006843 -0.006862 0.061218
#
#
# Mechanical properties :
#
#
# Convention : Reuss Voigt Hill
#
# Bulk Modulus (GPa) = 41.85584 53.52098 47.68841
# Shear Modulus (GPa) = 23.03414 28.67350 25.85382
#
# Velocity S-wave (km/s) = 3.37693 3.76770 3.57766
# Velocity P-wave (km/s) = 5.99390 6.73977 6.37775
#
# Compressibility (1/GPa) = 0.02389153
#
# Stress axis : x y z
#
# Youngs Moduli (GPa) = 60.28290 69.47032 68.97819
#
# Poissons Ratio (x) = -0.10657 0.43599
# Poissons Ratio (y) = -0.09248 0.41441
# Poissons Ratio (z) = 0.38103 0.41737
#
# Static dielectric constant tensor:
#      x y z
#    x 3.455900 -0.001420 -0.094820 
#    y -0.001420 3.690850 0.169200 
#    z -0.094820 0.169200 3.778080 
# 
# 
# High freq. dielectric constant tensor:
#      x y z
#    x 1.796180 0.000590 -0.005940 
#    y 0.000590 1.779040 0.011800 
#    z -0.005940 0.011800 1.788880 
# 
# From -- ./inp_files/170023.got.cif
#   From: 2010.06.25/outbox.cif.g09.slc.cpg/sg2_86_cif.got.tgz:170023.got - 2010.06.27 13:26:56.
