data_PCOD8041326
_publ_section_title
;
Structure prediction by ZEFSAII (Michael W. Deem and Ramdas Pophale) SiO2 
 PCOD8041326
Probable space group: P -1
;
_chemical_formula_sum "Si O2"
_cell_formula_units_Z 16
_cell_length_a 17.164024
_cell_length_b 24.951516
_cell_length_c 14.062545
_cell_angle_alpha 29.298265
_cell_angle_beta 21.953102
_cell_angle_gamma 19.300740
_cell_volume 743.923070
_symmetry_space_group_name_H-M "P -1"
_symmetry_group_IT_number 2
_symmetry_cell_setting 'triclinic'
loop_
_space_group_symop_operation_xyz
x,y,z
-x,-y,-z
loop_
_atom_site_type_symbol
_atom_site_label
_atom_site_fract_x
_atom_site_fract_y
_atom_site_fract_z
Si Si1 0.340498 0.380933 0.762621
Si Si2 0.837377 0.111679 0.290898
Si Si3 0.037742 0.454520 0.235740
Si Si4 0.320744 0.070797 0.241335
Si Si5 0.495974 0.137004 0.100248
Si Si6 0.230976 0.605327 0.723273
Si Si7 0.153531 0.395311 0.581915
Si Si8 0.006414 0.212529 0.102135
O O1 0.450978 0.453908 0.578272
O O2 0.289604 0.411454 0.658589
O O3 0.532114 0.205566 0.860775
O O4 0.000000 0.500000 0.000000
O O5 0.524595 0.259976 0.357801
O O6 0.848044 0.183104 0.261528
O O7 0.829777 0.987375 0.520514
O O8 0.152569 0.010105 0.029485
O O9 0.249710 0.267638 0.257300
O O10 0.952952 0.486091 0.393466
O O11 0.263533 0.468938 0.932584
O O12 0.387033 0.063717 0.291006
O O13 0.082055 0.259002 0.191995
O O14 0.648790 0.956494 0.992997
O O15 0.195680 0.699373 0.710691
O O16 0.000000 0.500000 0.500000
O O17 0.041337 0.315158 0.849570
#
# Coordination Sequence:
#
# PCOD8041326 Si02
#       8
#     2   2   2   2   2   2   2   2
#     4  10  20  32  49  79 117 159 187 215 271 336
#     4  10  20  38  58  80 116 154 185 237 284 337
#     4  10  22  37  55  85 120 149 195 238 277 339
#     4  10  19  32  53  82 119 158 185 226 276 339
#     4  10  20  35  53  84 120 156 185 223 281 347
#     4  11  19  32  53  81 120 159 194 227 272 332
#     4  10  22  42  64  84 107 144 195 250 295 335
#     4   9  21  35  55  87 111 147 195 234 288 344
#
# _framework density 21.5076
#
# number of rings (size 3 to 8) (size 9 to 14) (size 15 to 20)
#    0.000    2.000    2.500    1.125    0.000    5.000 
#    0.000    0.625    0.000    6.750    0.000    0.000 
#    0.000    0.000    0.000    0.000    0.000    0.000 
#
# Total GULP energy -198270.274853 kJ/mol
# GULP energy per Si atom -12391.892178 kJ/mol
# Density = 2.145865 g / cm^3
# Si number density = 21.507600 Si / 1000 Ang^3
#
#
#
# Elastic Constant Matrix: (Units=GPa)
#
#
# Indices 1 2 3 4 5 6 
#
# 1 104.9183 29.2256 26.5071 -2.0078 -12.9738 -0.7402
# 2 29.2256 63.6899 9.4235 16.4891 -3.7479 -2.9293
# 3 26.5071 9.4235 54.9844 7.5592 -23.9862 -7.9357
# 4 -2.0078 16.4891 7.5592 26.8751 4.4208 -8.9098
# 5 -12.9738 -3.7479 -23.9862 4.4208 36.0147 -5.4862
# 6 -0.7402 -2.9293 -7.9357 -8.9098 -5.4862 40.5493
#
#
#
# Elastic Compliance Matrix: (Units=1/GPa)
#
#
# Indices 1 2 3 4 5 6 
#
# 1 0.013181 -0.007053 -0.006834 0.007418 -0.001475 -0.000176
# 2 -0.007053 0.022897 0.003326 -0.016459 0.003940 -0.000907
# 3 -0.006834 0.003326 0.033886 -0.013610 0.023174 0.006892
# 4 0.007418 -0.016459 -0.013610 0.056226 -0.013979 0.006746
# 5 -0.001475 0.003940 0.023174 -0.013979 0.046005 0.007946
# 6 -0.000176 -0.000907 0.006892 0.006746 0.007946 0.028499
#
#
# Mechanical properties :
#
#
# Convention : Reuss Voigt Hill
#
# Bulk Modulus (GPa) = 20.47375 39.32278 29.89826
# Shear Modulus (GPa) = 21.00001 31.25026 26.12514
#
# Velocity S-wave (km/s) = 3.12813 3.81594 3.48903
# Velocity P-wave (km/s) = 4.75257 6.14314 5.49204
#
# Compressibility (1/GPa) = 0.04884303
#
# Stress axis : x y z
#
# Youngs Moduli (GPa) = 75.86851 43.67478 29.51038
#
# Poissons Ratio (x) = 0.30802 0.20168
# Poissons Ratio (y) = 0.53507 -0.09816
# Poissons Ratio (z) = 0.51849 -0.14528
#
# Static dielectric constant tensor:
#      x y z
#    x 5.216790 0.233830 -0.656360 
#    y 0.233830 4.076490 0.279590 
#    z -0.656360 0.279590 3.899490 
# 
# 
# High freq. dielectric constant tensor:
#      x y z
#    x 1.840620 0.042340 -0.046170 
#    y 0.042340 1.839730 0.031730 
#    z -0.046170 0.031730 1.834710 
# 
# From -- ./inp_files/93978.got.cif
#   From: 2010.06.25/outbox.cif.g09.slc.cpg/sg2_47_cif.got.tgz:93978.got - 2010.06.27 13:26:56.
