data_PCOD8041792
_publ_section_title
;
Structure prediction by ZEFSAII (Michael W. Deem and Ramdas Pophale) SiO2 
 PCOD8041792
Probable space group: P -1
;
_chemical_formula_sum "Si O2"
_cell_formula_units_Z 14
_cell_length_a 15.972634
_cell_length_b 20.653870
_cell_length_c 14.337609
_cell_angle_alpha 25.234061
_cell_angle_beta 139.523117
_cell_angle_gamma 156.635210
_cell_volume 728.511015
_symmetry_space_group_name_H-M "P -1"
_symmetry_group_IT_number 2
_symmetry_cell_setting 'triclinic'
loop_
_space_group_symop_operation_xyz
x,y,z
-x,-y,-z
loop_
_atom_site_type_symbol
_atom_site_label
_atom_site_fract_x
_atom_site_fract_y
_atom_site_fract_z
Si Si1 0.876086 0.678096 0.816277
Si Si2 0.710129 0.349646 0.802368
Si Si3 0.847823 0.330306 0.187234
Si Si4 0.492466 0.269839 0.357410
Si Si5 0.412544 0.108062 0.695425
Si Si6 0.268243 0.339319 0.471477
Si Si7 0.817083 0.741696 0.887822
O O1 0.786314 0.714538 0.616342
O O2 0.794317 0.659840 0.869884
O O3 0.750949 0.395405 0.058228
O O4 0.154192 0.923857 0.725204
O O5 0.566214 0.297297 0.669479
O O6 0.739739 0.491242 0.730134
O O7 0.975120 0.563596 0.721874
O O8 0.579935 0.066385 0.088576
O O9 0.631755 0.008449 0.412496
O O10 0.000000 0.500000 0.000000
O O11 0.549543 0.319182 0.451182
O O12 0.324377 0.245072 0.229429
O O13 0.726361 0.520621 0.168508
O O14 0.500000 0.500000 0.500000
O O15 0.078163 0.042694 0.743457
#
# Coordination Sequence:
#
# PCOD8041792 Si02
#       7
#     2   2   2   2   2   2   2
#     4  11  21  38  61  86 112 155 205 235 283 344
#     4  10  19  33  58  94 105 147 204 239 281 334
#     4  11  17  38  64  84 112 152 199 240 279 343
#     4  11  21  39  60  82 123 159 183 243 295 348
#     4  10  19  36  64  84 113 150 200 246 278 343
#     4  12  22  35  59  87 120 150 196 244 281 346
#     4  11  24  37  55  90 122 154 192 231 304 347
#
# _framework density 19.217278
#
# number of rings (size 3 to 8) (size 9 to 14) (size 15 to 20)
#    0.000    1.143    7.143    1.286    2.000    0.571 
#    0.000    2.143    0.000   16.286    0.000    0.000 
#    0.000    0.000    0.000    0.000    0.000    0.000 
#
# Total GULP energy -173463.902617 kJ/mol
# GULP energy per Si atom -12390.278758 kJ/mol
# Density = 1.917354 g / cm^3
# Si number density = 19.217278 Si / 1000 Ang^3
#
#
#
# Elastic Constant Matrix: (Units=GPa)
#
#
# Indices 1 2 3 4 5 6 
#
# 1 66.8017 15.2473 37.9715 -12.3985 -4.5810 -7.1303
# 2 15.2473 115.4534 39.2814 11.2356 -20.1152 6.7271
# 3 37.9715 39.2814 106.2211 -9.9006 -18.6202 -1.4553
# 4 -12.3985 11.2356 -9.9006 30.9242 -5.5210 7.2799
# 5 -4.5810 -20.1152 -18.6202 -5.5210 33.8502 1.8535
# 6 -7.1303 6.7271 -1.4553 7.2799 1.8535 24.8568
#
#
#
# Elastic Compliance Matrix: (Units=1/GPa)
#
#
# Indices 1 2 3 4 5 6 
#
# 1 0.020306 -0.001486 -0.006306 0.005475 -0.000948 0.004325
# 2 -0.001486 0.011308 -0.003384 -0.004425 0.004083 -0.002693
# 3 -0.006306 -0.003384 0.014383 0.004814 0.005937 -0.001904
# 4 0.005475 -0.004425 0.004814 0.041394 0.008041 -0.009673
# 5 -0.000948 0.004083 0.005937 0.008041 0.036752 -0.006125
# 6 0.004325 -0.002693 -0.001904 -0.009673 -0.006125 0.045378
#
#
# Mechanical properties :
#
#
# Convention : Reuss Voigt Hill
#
# Bulk Modulus (GPa) = 42.29198 52.60854 47.45026
# Shear Modulus (GPa) = 25.03050 30.99132 28.01091
#
# Velocity S-wave (km/s) = 3.61293 4.02018 3.82198
# Velocity P-wave (km/s) = 6.28167 6.99887 6.64995
#
# Compressibility (1/GPa) = 0.02364514
#
# Stress axis : x y z
#
# Youngs Moduli (GPa) = 49.24617 88.43238 69.52452
#
# Poissons Ratio (x) = 0.13142 0.43842
# Poissons Ratio (y) = 0.07319 0.23528
# Poissons Ratio (z) = 0.31054 0.29927
#
# Static dielectric constant tensor:
#      x y z
#    x 3.537290 -0.135070 0.222650 
#    y -0.135070 3.750630 0.031490 
#    z 0.222650 0.031490 4.252500 
# 
# 
# High freq. dielectric constant tensor:
#      x y z
#    x 1.731960 -0.016590 0.032070 
#    y -0.016590 1.749830 0.004340 
#    z 0.032070 0.004340 1.741630 
# 
# From -- ./inp_files/222779.got.cif
#   From: 2010.06.25/outbox.cif.g09.slc.cpg/sg2_112_cif.got.tgz:222779.got - 2010.06.27 13:26:56.
