data_PCOD8041746
_publ_section_title
;
Structure prediction by ZEFSAII (Michael W. Deem and Ramdas Pophale) SiO2 
 PCOD8041746
Probable space group: P -1
;
_chemical_formula_sum "Si O2"
_cell_formula_units_Z 14
_cell_length_a 10.833530
_cell_length_b 10.447808
_cell_length_c 13.287771
_cell_angle_alpha 146.219061
_cell_angle_beta 51.456203
_cell_angle_gamma 121.131924
_cell_volume 654.057921
_symmetry_space_group_name_H-M "P -1"
_symmetry_group_IT_number 2
_symmetry_cell_setting 'triclinic'
loop_
_space_group_symop_operation_xyz
x,y,z
-x,-y,-z
loop_
_atom_site_type_symbol
_atom_site_label
_atom_site_fract_x
_atom_site_fract_y
_atom_site_fract_z
Si Si1 0.185632 0.706340 0.484007
Si Si2 0.182778 0.575031 0.168547
Si Si3 0.333637 0.085606 0.779642
Si Si4 0.673564 0.101274 0.129668
Si Si5 0.632379 0.003285 0.684912
Si Si6 0.822009 0.593287 0.364921
Si Si7 0.173025 0.266210 0.317934
O O1 0.196758 0.659422 0.330421
O O2 0.251735 0.486005 0.367173
O O3 0.007090 0.757494 0.642600
O O4 0.289990 0.925541 0.603393
O O5 0.261641 0.776666 0.193068
O O6 0.001065 0.539712 0.205286
O O7 0.278261 0.341964 0.949811
O O8 0.523589 0.075927 0.691722
O O9 0.250465 0.995287 0.866901
O O10 0.718235 0.365454 0.264193
O O11 0.483048 0.074028 0.214960
O O12 0.735401 0.961722 0.911339
O O13 0.744736 0.786281 0.457196
O O14 0.816878 0.709420 0.552491
#
# Coordination Sequence:
#
# PCOD8041746 Si02
#       7
#     2   2   2   2   2   2   2
#     4  10  19  33  57  89 115 144 190 240 284 329
#     4  11  22  39  61  84 116 152 191 234 281 341
#     4  10  21  36  59  85 114 147 189 236 284 329
#     4  10  21  36  59  85 114 147 189 236 284 329
#     4  10  23  40  57  84 120 156 184 228 293 342
#     4  11  22  39  61  84 116 152 191 234 281 341
#     4  10  19  33  57  89 115 144 190 240 284 329
#
# _framework density 21.404831000000001
#
# number of rings (size 3 to 8) (size 9 to 14) (size 15 to 20)
#    0.857    0.857    2.857    2.143    0.000    2.286 
#    0.000    4.286    0.000    5.143    0.000    0.000 
#    0.000    0.000    0.000    0.000    0.000    0.000 
#
# Total GULP energy -173581.342683 kJ/mol
# GULP energy per Si atom -12398.667335 kJ/mol
# Density = 2.135611 g / cm^3
# Si number density = 21.404831 Si / 1000 Ang^3
#
#
#
# Elastic Constant Matrix: (Units=GPa)
#
#
# Indices 1 2 3 4 5 6 
#
# 1 63.8323 30.2043 39.6861 6.8048 -22.1964 10.9646
# 2 30.2043 78.5583 14.6952 32.0554 -11.2081 16.8763
# 3 39.6861 14.6952 78.1839 30.9626 -9.2036 -5.8383
# 4 6.8048 32.0554 30.9626 40.0889 -6.1063 -0.9772
# 5 -22.1964 -11.2081 -9.2036 -6.1063 37.9461 5.4431
# 6 10.9646 16.8763 -5.8383 -0.9772 5.4431 18.9435
#
#
#
# Elastic Compliance Matrix: (Units=1/GPa)
#
#
# Indices 1 2 3 4 5 6 
#
# 1 0.082377 -0.027952 -0.058624 0.058880 0.042355 -0.049978
# 2 -0.027952 0.040615 0.023612 -0.046945 -0.004181 -0.013947
# 3 -0.058624 0.023612 0.061162 -0.059434 -0.027286 0.036521
# 4 0.058880 -0.046945 -0.059434 0.101794 0.024306 -0.012308
# 5 0.042355 -0.004181 -0.027286 0.024306 0.053396 -0.043288
# 6 -0.049978 -0.013947 0.036521 -0.012308 -0.043288 0.117200
#
#
# Mechanical properties :
#
#
# Convention : Reuss Voigt Hill
#
# Bulk Modulus (GPa) = 17.17454 43.30506 30.23980
# Shear Modulus (GPa) = 8.30728 28.46162 18.38445
#
# Velocity S-wave (km/s) = 1.97217 3.65044 2.93387
# Velocity P-wave (km/s) = 3.63690 6.16790 5.06310
#
# Compressibility (1/GPa) = 0.05822572
#
# Stress axis : x y z
#
# Youngs Moduli (GPa) = 12.13936 24.62132 16.34995
#
# Poissons Ratio (x) = 0.68822 0.95851
# Poissons Ratio (y) = 0.33932 -0.38606
# Poissons Ratio (z) = 0.71166 -0.58137
#
# Static dielectric constant tensor:
#      x y z
#    x 3.733650 0.194170 -0.190740 
#    y 0.194170 3.746880 0.139050 
#    z -0.190740 0.139050 3.686180 
# 
# 
# High freq. dielectric constant tensor:
#      x y z
#    x 1.825930 0.014830 -0.012580 
#    y 0.014830 1.833070 0.016190 
#    z -0.012580 0.016190 1.834990 
# 
# From -- ./inp_files/409112.got.cif
#   From: 2010.06.25/outbox.cif.g09.slc.cpg/sg2_205_cif.got.tgz:409112.got - 2010.06.27 13:26:56.
