data_PCOD8041499
_publ_section_title
;
Structure prediction by ZEFSAII (Michael W. Deem and Ramdas Pophale) SiO2 
 PCOD8041499
Probable space group: P -1
;
_chemical_formula_sum "Si O2"
_cell_formula_units_Z 16
_cell_length_a 8.606570
_cell_length_b 11.253719
_cell_length_c 13.301562
_cell_angle_alpha 105.599112
_cell_angle_beta 46.663894
_cell_angle_gamma 115.942700
_cell_volume 841.665875
_symmetry_space_group_name_H-M "P -1"
_symmetry_group_IT_number 2
_symmetry_cell_setting 'triclinic'
loop_
_space_group_symop_operation_xyz
x,y,z
-x,-y,-z
loop_
_atom_site_type_symbol
_atom_site_label
_atom_site_fract_x
_atom_site_fract_y
_atom_site_fract_z
Si Si1 0.443088 0.593960 0.173845
Si Si2 0.153441 0.759542 0.295777
Si Si3 0.136553 0.369037 0.127027
Si Si4 0.313284 0.954436 0.447649
Si Si5 0.903855 0.883990 0.309202
Si Si6 0.811759 0.094794 0.293073
Si Si7 0.207072 0.505586 0.659481
Si Si8 0.488226 0.381714 0.621952
O O1 0.360342 0.704499 0.182624
O O2 0.301355 0.446845 0.162482
O O3 0.400781 0.587930 0.310292
O O4 0.711158 0.633782 0.038114
O O5 0.176256 0.844893 0.404363
O O6 0.128672 0.850698 0.233304
O O7 0.915219 0.634407 0.374918
O O8 0.985444 0.221201 0.190758
O O9 0.970389 0.447204 0.189187
O O10 0.286626 0.876299 0.548884
O O11 0.199155 0.066926 0.534938
O O12 0.582222 0.021756 0.312036
O O13 0.711351 0.758728 0.317157
O O14 0.957039 0.998167 0.226295
O O15 0.390849 0.495185 0.656289
O O16 0.320597 0.613040 0.545458
#
# Coordination Sequence:
#
# PCOD8041499 Si02
#       8
#     2   2   2   2   2   2   2   2
#     4  10  23  35  58  74 112 144 178 225 258 320
#     4  10  19  33  51  82 106 139 180 217 268 309
#     4  10  21  40  51  81 107 146 182 212 270 320
#     4   9  18  31  53  82 104 140 168 222 269 312
#     4   9  18  32  52  78 113 137 167 224 270 313
#     4   9  19  32  55  74 105 144 169 217 260 324
#     4   9  21  33  58  80 110 133 179 232 263 319
#     4  10  19  36  54  87 104 136 180 225 273 309
#
# _framework density 19.009920999999999
#
# number of rings (size 3 to 8) (size 9 to 14) (size 15 to 20)
#    0.750    1.750    0.000    1.875    3.500    1.500 
#    0.000    4.375    0.000    0.000    0.000    0.000 
#    0.000    0.000    0.000    0.000    0.000    0.000 
#
# Total GULP energy -198241.213528 kJ/mol
# GULP energy per Si atom -12390.075846 kJ/mol
# Density = 1.896665 g / cm^3
# Si number density = 19.009921 Si / 1000 Ang^3
#
#
#
# Elastic Constant Matrix: (Units=GPa)
#
#
# Indices 1 2 3 4 5 6 
#
# 1 87.7024 25.2392 18.9242 2.5748 -9.9654 -14.5885
# 2 25.2392 69.9670 8.6950 -8.9202 3.2027 -9.4181
# 3 18.9242 8.6950 46.1958 -3.6870 -14.1034 -10.9995
# 4 2.5748 -8.9202 -3.6870 26.1841 1.1248 -1.4249
# 5 -9.9654 3.2027 -14.1034 1.1248 22.6760 4.9834
# 6 -14.5885 -9.4181 -10.9995 -1.4249 4.9834 26.1884
#
#
#
# Elastic Compliance Matrix: (Units=1/GPa)
#
#
# Indices 1 2 3 4 5 6 
#
# 1 0.014832 -0.005097 -0.003013 -0.003597 0.004645 0.004084
# 2 -0.005097 0.018235 -0.001922 0.007016 -0.007392 0.004700
# 3 -0.003013 -0.001922 0.030160 0.003613 0.015884 0.007472
# 4 -0.003597 0.007016 0.003613 0.041865 -0.003496 0.004980
# 5 0.004645 -0.007392 0.015884 -0.003496 0.058265 -0.004677
# 6 0.004084 0.004700 0.007472 0.004980 -0.004677 0.046449
#
#
# Mechanical properties :
#
#
# Convention : Reuss Voigt Hill
#
# Bulk Modulus (GPa) = 23.16811 34.39800 28.78306
# Shear Modulus (GPa) = 20.47012 25.07682 22.77347
#
# Velocity S-wave (km/s) = 3.28504 3.63594 3.46494
# Velocity P-wave (km/s) = 5.15776 5.98003 5.58405
#
# Compressibility (1/GPa) = 0.04316278
#
# Stress axis : x y z
#
# Youngs Moduli (GPa) = 67.42181 54.83810 33.15681
#
# Poissons Ratio (x) = 0.27953 0.09990
# Poissons Ratio (y) = 0.34367 0.06372
# Poissons Ratio (z) = 0.20314 0.10539
#
# Static dielectric constant tensor:
#      x y z
#    x 3.624500 -0.148460 -0.184320 
#    y -0.148460 3.497490 0.055460 
#    z -0.184320 0.055460 3.073510 
# 
# 
# High freq. dielectric constant tensor:
#      x y z
#    x 1.743110 -0.004950 -0.013700 
#    y -0.004950 1.745700 0.003560 
#    z -0.013700 0.003560 1.688300 
# 
# From -- ./inp_files/392665.got.cif
#   From: 2010.06.25/outbox.cif.g09.slc.cpg/sg2_197_cif.got.tgz:392665.got - 2010.06.27 13:26:56.
