data_PCOD8041843
_publ_section_title
;
Structure prediction by ZEFSAII (Michael W. Deem and Ramdas Pophale) SiO2 
 PCOD8041843
Probable space group: P -1
;
_chemical_formula_sum "Si O2"
_cell_formula_units_Z 16
_cell_length_a 8.765312
_cell_length_b 19.054082
_cell_length_c 8.177965
_cell_angle_alpha 137.994896
_cell_angle_beta 111.012527
_cell_angle_gamma 87.215702
_cell_volume 799.662000
_symmetry_space_group_name_H-M "P -1"
_symmetry_group_IT_number 2
_symmetry_cell_setting 'triclinic'
loop_
_space_group_symop_operation_xyz
x,y,z
-x,-y,-z
loop_
_atom_site_type_symbol
_atom_site_label
_atom_site_fract_x
_atom_site_fract_y
_atom_site_fract_z
Si Si1 0.810287 0.322803 0.096667
Si Si2 0.232204 0.479306 0.993126
Si Si3 0.222726 0.248967 0.511664
Si Si4 0.923827 0.502413 0.709283
Si Si5 0.413515 0.719994 0.369363
Si Si6 0.686108 0.090425 0.185073
Si Si7 0.126939 0.861092 0.998774
Si Si8 0.022647 0.053043 0.281867
O O1 0.796321 0.398885 0.376311
O O2 0.808379 0.202314 0.946289
O O3 0.988052 0.389601 0.183660
O O4 0.644395 0.299828 0.876330
O O5 0.305696 0.381381 0.807533
O O6 0.066192 0.462392 0.785004
O O7 0.186223 0.461711 0.135782
O O8 0.374364 0.601602 0.238283
O O9 0.378039 0.214860 0.431738
O O10 0.161004 0.179207 0.536685
O O11 0.058405 0.222424 0.282571
O O12 0.310099 0.789210 0.541442
O O13 0.729018 0.100737 0.025531
O O14 0.837035 0.057267 0.280079
O O15 0.500000 0.000000 0.000000
O O16 0.098176 0.969211 0.264156
O O17 0.000000 0.000000 0.000000
#
# Coordination Sequence:
#
# PCOD8041843 Si02
#       8
#     2   2   2   2   2   2   2   2
#     4  10  20  34  55  83 117 143 178 227 289 327
#     4  10  19  33  61  81 107 147 196 222 267 325
#     4  10  19  35  56  82 111 144 189 227 266 327
#     4   9  19  34  55  84 109 146 186 230 267 335
#     4  11  22  33  57  87 114 143 186 230 276 327
#     4  10  19  36  60  84 108 143 194 233 261 326
#     4  10  19  37  61  79 108 151 186 226 280 326
#     4   8  18  32  56  80 103 141 187 229 266 317
#
# _framework density 20.008455000000001
#
# number of rings (size 3 to 8) (size 9 to 14) (size 15 to 20)
#    0.000    2.500    1.250    3.375    8.750    0.000 
#    0.000    3.750    5.500    0.000    0.000    0.000 
#    0.000    0.000    0.000    0.000    0.000    0.000 
#
# Total GULP energy -198294.477242 kJ/mol
# GULP energy per Si atom -12393.404828 kJ/mol
# Density = 1.996291 g / cm^3
# Si number density = 20.008455 Si / 1000 Ang^3
#
#
#
# Elastic Constant Matrix: (Units=GPa)
#
#
# Indices 1 2 3 4 5 6 
#
# 1 122.6548 32.8127 29.0819 12.3951 1.9903 -2.5657
# 2 32.8127 104.3609 24.1177 25.0552 -8.0550 5.2013
# 3 29.0819 24.1177 55.0961 19.3932 -0.4993 2.7690
# 4 12.3951 25.0552 19.3932 34.4139 0.5536 -8.7312
# 5 1.9903 -8.0550 -0.4993 0.5536 27.8854 7.7706
# 6 -2.5657 5.2013 2.7690 -8.7312 7.7706 19.6141
#
#
#
# Elastic Compliance Matrix: (Units=1/GPa)
#
#
# Indices 1 2 3 4 5 6 
#
# 1 0.010161 -0.003300 -0.005414 0.003326 -0.003463 0.005821
# 2 -0.003300 0.015247 0.000887 -0.014233 0.008977 -0.014492
# 3 -0.005414 0.000887 0.027935 -0.018436 0.005798 -0.015391
# 4 0.003326 -0.014233 -0.018436 0.058975 -0.016933 0.039774
# 5 -0.003463 0.008977 0.005798 -0.016933 0.047504 -0.030010
# 6 0.005821 -0.014492 -0.015391 0.039774 -0.030010 0.087356
#
#
# Mechanical properties :
#
#
# Convention : Reuss Voigt Hill
#
# Bulk Modulus (GPa) = 26.53199 50.45959 38.49579
# Shear Modulus (GPa) = 18.15587 29.45598 23.80592
#
# Velocity S-wave (km/s) = 3.01559 3.84106 3.45308
# Velocity P-wave (km/s) = 5.04125 6.70414 5.93126
#
# Compressibility (1/GPa) = 0.03769035
#
# Stress axis : x y z
#
# Youngs Moduli (GPa) = 98.41406 65.58714 35.79795
#
# Poissons Ratio (x) = 0.21641 0.19380
# Poissons Ratio (y) = 0.32473 -0.03176
# Poissons Ratio (z) = 0.53278 -0.05819
#
# Static dielectric constant tensor:
#      x y z
#    x 3.563450 -0.108400 -0.145960 
#    y -0.108400 3.955100 0.407040 
#    z -0.145960 0.407040 3.514240 
# 
# 
# High freq. dielectric constant tensor:
#      x y z
#    x 1.772380 -0.002360 -0.004170 
#    y -0.002360 1.776930 0.033430 
#    z -0.004170 0.033430 1.759660 
# 
# From -- ./inp_files/224288.got.cif
#   From: 2010.06.25/outbox.cif.g09.slc.cpg/sg2_113_cif.got.tgz:224288.got - 2010.06.27 13:26:56.
