data_PCOD8041344
_publ_section_title
;
Structure prediction by ZEFSAII (Michael W. Deem and Ramdas Pophale) SiO2 
 PCOD8041344
Probable space group: P -1
;
_chemical_formula_sum "Si O2"
_cell_formula_units_Z 16
_cell_length_a 29.152474
_cell_length_b 10.661209
_cell_length_c 23.129753
_cell_angle_alpha 153.286711
_cell_angle_beta 162.824565
_cell_angle_gamma 36.151397
_cell_volume 895.214732
_symmetry_space_group_name_H-M "P -1"
_symmetry_group_IT_number 2
_symmetry_cell_setting 'triclinic'
loop_
_space_group_symop_operation_xyz
x,y,z
-x,-y,-z
loop_
_atom_site_type_symbol
_atom_site_label
_atom_site_fract_x
_atom_site_fract_y
_atom_site_fract_z
Si Si1 0.121690 0.744823 0.021408
Si Si2 0.151437 0.144464 0.324364
Si Si3 0.925028 0.284772 0.683614
Si Si4 0.858113 0.386133 0.828183
Si Si5 0.402120 0.659606 0.254184
Si Si6 0.410552 0.758787 0.872221
Si Si7 0.686518 0.782666 0.131562
Si Si8 0.364302 0.691564 0.573065
O O1 0.262525 0.622204 0.118818
O O2 0.205187 0.016869 0.277909
O O3 0.035085 0.851392 0.907217
O O4 0.972964 0.487940 0.768130
O O5 0.278674 0.473154 0.625581
O O6 0.152913 0.937136 0.295016
O O7 0.786282 0.370850 0.588105
O O8 0.853380 0.936505 0.434666
O O9 0.092711 0.368929 0.959584
O O10 0.690429 0.360925 0.581833
O O11 0.000000 0.500000 0.000000
O O12 0.536573 0.525053 0.382595
O O13 0.500000 0.000000 0.500000
O O14 0.306420 0.487529 0.010872
O O15 0.323362 0.944497 0.806394
O O16 0.527975 0.650784 0.927344
O O17 0.516553 0.966386 0.136534
#
# Coordination Sequence:
#
# PCOD8041344 Si02
#       8
#     2   2   2   2   2   2   2   2
#     4  10  21  31  52  82 105 133 171 222 260 303
#     4  10  19  32  54  79 106 134 181 212 259 307
#     4   9  17  35  57  75 103 139 174 215 253 310
#     4   9  19  33  55  77 101 141 178 217 248 306
#     4  11  23  32  51  80 110 135 167 222 269 307
#     4   9  16  30  54  78 105 138 167 220 257 308
#     4   9  17  31  51  78 110 134 169 211 270 308
#     4   9  20  36  53  79 105 140 175 206 264 313
#
# _framework density 17.872806000000001
#
# number of rings (size 3 to 8) (size 9 to 14) (size 15 to 20)
#    0.000    2.500    1.250    1.500    7.000    1.000 
#    0.000    2.500    0.000    0.750    3.250    0.000 
#    0.000    0.000    0.000    0.000    0.000    0.000 
#
# Total GULP energy -198270.090749 kJ/mol
# GULP energy per Si atom -12391.880672 kJ/mol
# Density = 1.783213 g / cm^3
# Si number density = 17.872806 Si / 1000 Ang^3
#
#
#
# Elastic Constant Matrix: (Units=GPa)
#
#
# Indices 1 2 3 4 5 6 
#
# 1 70.3299 47.0782 48.5170 -2.4473 -7.8748 -2.9920
# 2 47.0782 74.9564 48.8173 1.9012 -5.0609 2.5852
# 3 48.5170 48.8173 128.4923 12.6645 -15.6424 4.3152
# 4 -2.4473 1.9012 12.6645 28.9107 4.9057 -0.2762
# 5 -7.8748 -5.0609 -15.6424 4.9057 31.6409 1.0838
# 6 -2.9920 2.5852 4.3152 -0.2762 1.0838 30.1672
#
#
#
# Elastic Compliance Matrix: (Units=1/GPa)
#
#
# Indices 1 2 3 4 5 6 
#
# 1 0.028307 -0.014167 -0.005955 0.005855 0.000760 0.004900
# 2 -0.014167 0.024948 -0.004111 -0.000840 -0.001338 -0.002914
# 3 -0.005955 -0.004111 0.013013 -0.006880 0.005441 -0.002358
# 4 0.005855 -0.000840 -0.006880 0.039583 -0.008294 0.002297
# 5 0.000760 -0.001338 0.005441 -0.008294 0.035622 -0.001944
# 6 0.004900 -0.002914 -0.002358 0.002297 -0.001944 0.034312
#
#
# Mechanical properties :
#
#
# Convention : Reuss Voigt Hill
#
# Bulk Modulus (GPa) = 56.17581 62.51151 59.34366
# Shear Modulus (GPa) = 21.72151 26.76817 24.24484
#
# Velocity S-wave (km/s) = 3.48995 3.87422 3.68709
# Velocity P-wave (km/s) = 6.90933 7.42054 7.16949
#
# Compressibility (1/GPa) = 0.01780126
#
# Stress axis : x y z
#
# Youngs Moduli (GPa) = 35.32662 40.08340 76.84678
#
# Poissons Ratio (x) = 0.56785 0.45765
# Poissons Ratio (y) = 0.50046 0.31595
# Poissons Ratio (z) = 0.21038 0.16480
#
# Static dielectric constant tensor:
#      x y z
#    x 3.384350 0.132890 -0.388340 
#    y 0.132890 3.185500 -0.164300 
#    z -0.388340 -0.164300 3.789480 
# 
# 
# High freq. dielectric constant tensor:
#      x y z
#    x 1.673490 0.008230 -0.009850 
#    y 0.008230 1.650200 0.007440 
#    z -0.009850 0.007440 1.714930 
# 
# From -- ./inp_files/354401.got.cif
#   From: 2010.06.25/outbox.cif.g09.slc.cpg/sg2_178_cif.got.tgz:354401.got - 2010.06.27 13:26:56.
