data_PCOD8041225
_publ_section_title
;
Structure prediction by ZEFSAII (Michael W. Deem and Ramdas Pophale) SiO2 
 PCOD8041225
Probable space group: P -1
;
_chemical_formula_sum "Si O2"
_cell_formula_units_Z 16
_cell_length_a 14.685897
_cell_length_b 8.687141
_cell_length_c 12.873846
_cell_angle_alpha 50.938750
_cell_angle_beta 139.254663
_cell_angle_gamma 124.732467
_cell_volume 818.454445
_symmetry_space_group_name_H-M "P -1"
_symmetry_group_IT_number 2
_symmetry_cell_setting 'triclinic'
loop_
_space_group_symop_operation_xyz
x,y,z
-x,-y,-z
loop_
_atom_site_type_symbol
_atom_site_label
_atom_site_fract_x
_atom_site_fract_y
_atom_site_fract_z
Si Si1 0.839375 0.403954 0.870998
Si Si2 0.370643 0.216803 0.789879
Si Si3 0.323941 0.767347 0.992239
Si Si4 0.816629 0.782481 0.574282
Si Si5 0.114424 0.814701 0.409524
Si Si6 0.851898 0.604151 0.362009
Si Si7 0.954233 0.373369 0.280875
Si Si8 0.924669 0.190940 0.849359
O O1 0.748150 0.318061 0.927194
O O2 0.764207 0.578699 0.681673
O O3 0.832602 0.217545 0.861657
O O4 0.000000 0.500000 0.000000
O O5 0.534222 0.324483 0.868358
O O6 0.293120 0.200342 0.619313
O O7 0.296327 0.344452 0.752819
O O8 0.368093 0.006795 0.934943
O O9 0.213090 0.716461 0.822670
O O10 0.972479 0.769874 0.670691
O O11 0.827285 0.977492 0.572191
O O12 0.179327 0.631906 0.596254
O O13 0.165733 0.833578 0.325450
O O14 0.938792 0.752152 0.286603
O O15 0.972024 0.631821 0.543489
O O16 0.965228 0.597921 0.149687
O O17 0.000000 0.000000 0.000000
#
# Coordination Sequence:
#
# PCOD8041225 Si02
#       8
#     2   2   2   2   2   2   2   2
#     4  11  21  37  60  88 112 145 194 243 282 331
#     4  10  23  37  60  85 116 153 193 235 279 344
#     4  11  21  37  61  86 116 148 193 240 286 327
#     4  10  19  36  60  86 109 150 193 237 280 332
#     4  10  19  31  57  83 116 142 189 235 279 335
#     4   9  19  35  55  86 110 150 186 234 284 332
#     4   9  18  34  57  83 110 141 193 237 271 330
#     4  10  20  30  51  87 113 140 179 235 286 331
#
# _framework density 19.549040999999999
#
# number of rings (size 3 to 8) (size 9 to 14) (size 15 to 20)
#    0.000    2.000    2.500    3.000    1.750    2.500 
#    0.000    0.000    2.750    9.750    0.000    0.000 
#    0.000    0.000    0.000    0.000    0.000    0.000 
#
# Total GULP energy -198228.034895 kJ/mol
# GULP energy per Si atom -12389.252181 kJ/mol
# Density = 1.950455 g / cm^3
# Si number density = 19.549041 Si / 1000 Ang^3
#
#
#
# Elastic Constant Matrix: (Units=GPa)
#
#
# Indices 1 2 3 4 5 6 
#
# 1 110.5687 31.4704 43.8689 -0.6120 16.7987 -0.1259
# 2 31.4704 76.9424 25.9927 -11.7496 18.3402 -17.0119
# 3 43.8689 25.9927 78.0260 -3.5551 17.6660 4.1310
# 4 -0.6120 -11.7496 -3.5551 30.1212 2.5800 4.1763
# 5 16.7987 18.3402 17.6660 2.5800 38.2798 -2.3586
# 6 -0.1259 -17.0119 4.1310 4.1763 -2.3586 34.2876
#
#
#
# Elastic Compliance Matrix: (Units=1/GPa)
#
#
# Indices 1 2 3 4 5 6 
#
# 1 0.012383 -0.003280 -0.005617 -0.001474 -0.001221 -0.000810
# 2 -0.003280 0.020119 -0.003584 0.006640 -0.006429 0.009151
# 3 -0.005617 -0.003584 0.018573 0.001724 -0.004787 -0.004576
# 4 -0.001474 0.006640 0.001724 0.036719 -0.005916 -0.001798
# 5 -0.001221 -0.006429 -0.004787 -0.005916 0.032368 0.000329
# 6 -0.000810 0.009151 -0.004576 -0.001798 0.000329 0.034495
#
#
# Mechanical properties :
#
#
# Convention : Reuss Voigt Hill
#
# Bulk Modulus (GPa) = 38.29711 52.02233 45.15972
# Shear Modulus (GPa) = 26.54993 31.48471 29.01732
#
# Velocity S-wave (km/s) = 3.68926 4.01752 3.85689
# Velocity P-wave (km/s) = 6.14657 6.94187 6.55629
#
# Compressibility (1/GPa) = 0.02611163
#
# Stress axis : x y z
#
# Youngs Moduli (GPa) = 80.75688 49.70431 53.84109
#
# Poissons Ratio (x) = 0.16305 0.30244
# Poissons Ratio (y) = 0.26491 0.19297
# Poissons Ratio (z) = 0.45363 0.17815
#
# Static dielectric constant tensor:
#      x y z
#    x 3.972920 -0.132350 -0.158620 
#    y -0.132350 3.514180 -0.197460 
#    z -0.158620 -0.197460 3.620140 
# 
# 
# High freq. dielectric constant tensor:
#      x y z
#    x 1.764190 -0.020150 -0.020360 
#    y -0.020150 1.746380 -0.025310 
#    z -0.020360 -0.025310 1.747990 
# 
# From -- ./inp_files/444083.got.cif
#   From: 2010.06.25/outbox.cif.g09.slc.cpg/sg2_223_cif.got.tgz:444083.got - 2010.06.27 13:26:56.
