data_PCOD8041106
_publ_section_title
;
Structure prediction by ZEFSAII (Michael W. Deem and Ramdas Pophale) SiO2 
 PCOD8041106
Probable space group: P -1
;
_chemical_formula_sum "Si O2"
_cell_formula_units_Z 12
_cell_length_a 23.932194
_cell_length_b 4.965537
_cell_length_c 12.029164
_cell_angle_alpha 80.325809
_cell_angle_beta 28.419504
_cell_angle_gamma 74.325128
_cell_volume 647.437341
_symmetry_space_group_name_H-M "P -1"
_symmetry_group_IT_number 2
_symmetry_cell_setting 'triclinic'
loop_
_space_group_symop_operation_xyz
x,y,z
-x,-y,-z
loop_
_atom_site_type_symbol
_atom_site_label
_atom_site_fract_x
_atom_site_fract_y
_atom_site_fract_z
Si Si1 0.535838 0.153961 0.683858
Si Si2 0.154120 0.700320 0.717517
Si Si3 0.726580 0.966406 0.166997
Si Si4 0.577326 0.570208 0.759916
Si Si5 0.090404 0.177531 0.966112
Si Si6 0.625338 0.546037 0.230654
O O1 0.557778 0.421789 0.690466
O O2 0.404910 0.273580 0.842700
O O3 0.639617 0.042286 0.420233
O O4 0.534006 0.906610 0.791535
O O5 0.280635 0.543804 0.448074
O O6 0.107692 0.486098 0.891759
O O7 0.167580 0.957942 0.754902
O O8 0.052331 0.817022 0.792238
O O9 0.862741 0.895739 0.984431
O O10 0.694927 0.702750 0.181967
O O11 0.711559 0.227566 0.088628
O O12 0.500000 0.500000 0.000000
O O13 0.500000 0.500000 0.500000
#
# Coordination Sequence:
#
# PCOD8041106 Si02
#       6
#     2   2   2   2   2   2
#     4  11  20  34  47  72 105 133 163 210 244 293
#     4  10  19  34  46  75  99 134 167 201 250 294
#     4  11  17  31  50  76  99 132 159 197 264 305
#     4  12  22  34  52  72 101 141 173 200 242 292
#     4  10  19  30  54  70 103 131 158 207 256 299
#     4  10  20  29  48  74 102 132 160 197 257 312
#
# _framework density 18.534611000000002
#
# number of rings (size 3 to 8) (size 9 to 14) (size 15 to 20)
#    0.000    1.333    3.333    6.500    0.000    0.000 
#    0.000    0.000    0.000    0.000    0.000    7.000 
#    0.000    0.000    0.000    0.000    0.000    0.000 
#
# Total GULP energy -148745.291235 kJ/mol
# GULP energy per Si atom -12395.440936 kJ/mol
# Density = 1.849243 g / cm^3
# Si number density = 18.534611 Si / 1000 Ang^3
#
#
#
# Elastic Constant Matrix: (Units=GPa)
#
#
# Indices 1 2 3 4 5 6 
#
# 1 114.0686 33.5595 28.6814 -2.2784 -39.2342 -8.3575
# 2 33.5595 97.4880 7.8992 4.7263 -13.4301 -4.1470
# 3 28.6814 7.8992 49.4898 -5.1620 -12.9456 -11.2886
# 4 -2.2784 4.7263 -5.1620 11.5682 -2.8110 -2.2987
# 5 -39.2342 -13.4301 -12.9456 -2.8110 25.9182 3.0158
# 6 -8.3575 -4.1470 -11.2886 -2.2987 3.0158 43.0435
#
#
#
# Elastic Compliance Matrix: (Units=1/GPa)
#
#
# Indices 1 2 3 4 5 6 
#
# 1 0.021061 -0.003445 -0.002073 0.012316 0.030192 0.001756
# 2 -0.003445 0.011762 -0.000455 -0.005671 0.000033 0.000040
# 3 -0.002073 -0.000455 0.027752 0.016316 0.011455 0.006901
# 4 0.012316 -0.005671 0.016316 0.108750 0.034542 0.009511
# 5 0.030192 0.000033 0.011455 0.034542 0.093285 0.004178
# 6 0.001756 0.000040 0.006901 0.009511 0.004178 0.025602
#
#
# Mechanical properties :
#
#
# Convention : Reuss Voigt Hill
#
# Bulk Modulus (GPa) = 20.56368 44.59184 32.57776
# Shear Modulus (GPa) = 15.80448 28.83306 22.31877
#
# Velocity S-wave (km/s) = 2.92327 3.94843 3.47388
# Velocity P-wave (km/s) = 4.74477 6.70058 5.80563
#
# Compressibility (1/GPa) = 0.04862943
#
# Stress axis : x y z
#
# Youngs Moduli (GPa) = 47.48199 85.02257 36.03308
#
# Poissons Ratio (x) = 0.29291 0.07469
# Poissons Ratio (y) = 0.16358 0.01638
# Poissons Ratio (z) = 0.09843 0.03864
#
# Static dielectric constant tensor:
#      x y z
#    x 4.040780 -0.243730 -0.468240 
#    y -0.243730 3.836030 0.232450 
#    z -0.468240 0.232450 2.893390 
# 
# 
# High freq. dielectric constant tensor:
#      x y z
#    x 1.733980 0.000600 -0.035320 
#    y 0.000600 1.746030 0.014140 
#    z -0.035320 0.014140 1.639150 
# 
# From -- ./inp_files/73976.got.cif
#   From: 2010.06.25/outbox.cif.g09.slc.cpg/sg2_37_cif.got.tgz:73976.got - 2010.06.27 13:26:56.
