data_PCOD8041570
_publ_section_title
;
Structure prediction by ZEFSAII (Michael W. Deem and Ramdas Pophale) SiO2 
 PCOD8041570
Probable space group: P -1
;
_chemical_formula_sum "Si O2"
_cell_formula_units_Z 16
_cell_length_a 23.369915
_cell_length_b 7.744588
_cell_length_c 14.550723
_cell_angle_alpha 119.787707
_cell_angle_beta 146.834805
_cell_angle_gamma 38.037287
_cell_volume 777.726703
_symmetry_space_group_name_H-M "P -1"
_symmetry_group_IT_number 2
_symmetry_cell_setting 'triclinic'
loop_
_space_group_symop_operation_xyz
x,y,z
-x,-y,-z
loop_
_atom_site_type_symbol
_atom_site_label
_atom_site_fract_x
_atom_site_fract_y
_atom_site_fract_z
Si Si1 0.806892 0.801667 0.417203
Si Si2 0.986788 0.436126 0.194207
Si Si3 0.505032 0.645579 0.461243
Si Si4 0.263136 0.554587 0.142574
Si Si5 0.534599 0.624817 0.800115
Si Si6 0.934073 0.901540 0.473233
Si Si7 0.849291 0.841686 0.842923
Si Si8 0.852245 0.062719 0.201078
O O1 0.803338 0.972218 0.377581
O O2 0.930753 0.705209 0.633958
O O3 0.887902 0.477196 0.403665
O O4 0.621072 0.036430 0.268688
O O5 0.134363 0.188807 0.253061
O O6 0.897640 0.779506 0.147572
O O7 0.851413 0.465218 0.013972
O O8 0.500000 0.500000 0.500000
O O9 0.652064 0.575089 0.674212
O O10 0.531789 0.490676 0.359531
O O11 0.318981 0.021074 0.311738
O O12 0.400296 0.334138 0.185983
O O13 0.157861 0.913599 0.073905
O O14 0.679363 0.385102 0.006999
O O15 0.991973 0.019037 0.632547
O O16 0.832912 0.091158 0.293207
O O17 0.000000 0.500000 0.000000
#
# Coordination Sequence:
#
# PCOD8041570 Si02
#       8
#     2   2   2   2   2   2   2   2
#     4  10  20  36  61  83 106 137 187 224 275 334
#     4  11  20  35  57  81 108 152 189 215 259 328
#     4   8  17  34  51  75 113 144 175 216 261 310
#     4  10  20  35  55  80 116 148 183 219 261 318
#     4  10  19  35  57  83 108 143 177 225 273 324
#     4   9  21  40  57  80 106 140 176 235 281 324
#     4  10  19  33  54  80 110 145 184 225 267 307
#     4  10  21  38  56  77 113 140 178 228 281 322
#
# _framework density 20.572780000000002
#
# number of rings (size 3 to 8) (size 9 to 14) (size 15 to 20)
#    0.000    2.500    0.000    4.875    0.000    1.000 
#    0.000    8.750    0.000    0.000    0.000    0.000 
#    0.000    0.000    0.000    0.000    0.000    0.000 
#
# Total GULP energy -198278.061900 kJ/mol
# GULP energy per Si atom -12392.378869 kJ/mol
# Density = 2.052596 g / cm^3
# Si number density = 20.572780 Si / 1000 Ang^3
#
#
#
# Elastic Constant Matrix: (Units=GPa)
#
#
# Indices 1 2 3 4 5 6 
#
# 1 49.4970 19.1218 6.6078 4.4252 -2.4279 -3.4068
# 2 19.1218 75.3856 28.9637 0.4799 13.9632 -3.1558
# 3 6.6078 28.9637 93.5177 3.6221 -3.6876 11.5354
# 4 4.4252 0.4799 3.6221 32.5519 3.7749 6.4554
# 5 -2.4279 13.9632 -3.6876 3.7749 26.2589 -0.3559
# 6 -3.4068 -3.1558 11.5354 6.4554 -0.3559 30.3363
#
#
#
# Elastic Compliance Matrix: (Units=1/GPa)
#
#
# Indices 1 2 3 4 5 6 
#
# 1 0.023946 -0.007526 0.000763 -0.004573 0.007017 0.002671
# 2 -0.007526 0.020219 -0.006711 0.002314 -0.012679 0.003169
# 3 0.000763 -0.006711 0.013662 -0.001086 0.005639 -0.005510
# 4 -0.004573 0.002314 -0.001086 0.033616 -0.006734 -0.007092
# 5 0.007017 -0.012679 0.005639 -0.006734 0.047224 -0.000688
# 6 0.002671 0.003169 -0.005510 -0.007092 -0.000688 0.037190
#
#
# Mechanical properties :
#
#
# Convention : Reuss Voigt Hill
#
# Bulk Modulus (GPa) = 32.38406 36.42077 34.40242
# Shear Modulus (GPa) = 23.46367 28.74325 26.10346
#
# Velocity S-wave (km/s) = 3.38082 3.74190 3.56594
# Velocity P-wave (km/s) = 5.56914 6.03415 5.80630
#
# Compressibility (1/GPa) = 0.03087939
#
# Stress axis : x y z
#
# Youngs Moduli (GPa) = 41.76143 49.45889 73.19710
#
# Poissons Ratio (x) = 0.37222 -0.05586
# Poissons Ratio (y) = 0.31429 0.49121
# Poissons Ratio (z) = -0.03187 0.33191
#
# Static dielectric constant tensor:
#      x y z
#    x 3.733300 -0.210610 0.102710 
#    y -0.210610 3.820950 -0.083240 
#    z 0.102710 -0.083240 4.826910 
# 
# 
# High freq. dielectric constant tensor:
#      x y z
#    x 1.789860 -0.008310 -0.013370 
#    y -0.008310 1.792320 0.003740 
#    z -0.013370 0.003740 1.812110 
# 
# From -- ./inp_files/543787.got.cif
#   From: 2010.06.25/outbox.cif.g09.slc.cpg/sg2_272_cif.got.tgz:543787.got - 2010.06.27 13:26:56.
