data_PCOD8041688
_publ_section_title
;
Structure prediction by ZEFSAII (Michael W. Deem and Ramdas Pophale) SiO2 
 PCOD8041688
Probable space group: P -1
;
_chemical_formula_sum "Si O2"
_cell_formula_units_Z 16
_cell_length_a 19.480524
_cell_length_b 11.999177
_cell_length_c 10.225057
_cell_angle_alpha 64.426292
_cell_angle_beta 135.596431
_cell_angle_gamma 149.891937
_cell_volume 710.894492
_symmetry_space_group_name_H-M "P -1"
_symmetry_group_IT_number 2
_symmetry_cell_setting 'triclinic'
loop_
_space_group_symop_operation_xyz
x,y,z
-x,-y,-z
loop_
_atom_site_type_symbol
_atom_site_label
_atom_site_fract_x
_atom_site_fract_y
_atom_site_fract_z
Si Si1 0.590802 0.211422 0.933055
Si Si2 0.199481 0.357976 0.547787
Si Si3 0.646510 0.955971 0.534042
Si Si4 0.786821 0.017957 0.125579
Si Si5 0.571699 0.675452 0.756530
Si Si6 0.387800 0.543936 0.984007
Si Si7 0.929303 0.455797 0.090408
Si Si8 0.319314 0.706717 0.379179
O O1 0.395220 0.059027 0.666969
O O2 0.689357 0.424810 0.053179
O O3 0.773916 0.362357 0.016013
O O4 0.500000 0.000000 0.000000
O O5 0.321782 0.408031 0.582940
O O6 0.243450 0.367462 0.750522
O O7 0.262864 0.572788 0.503003
O O8 0.950237 0.084536 0.325396
O O9 0.666599 0.833492 0.667154
O O10 0.418200 0.721968 0.404217
O O11 0.832492 0.248963 0.694463
O O12 0.888884 0.266241 0.150736
O O13 0.671089 0.873872 0.903313
O O14 0.626506 0.825994 0.123550
O O15 0.638965 0.608270 0.887890
O O16 0.883943 0.450983 0.880323
O O17 0.500000 0.000000 0.500000
#
# Coordination Sequence:
#
# PCOD8041688 Si02
#       8
#     2   2   2   2   2   2   2   2
#     4  11  25  43  61  87 122 158 206 252 297 349
#     4  10  21  35  60  90 120 155 193 243 300 353
#     4  10  23  39  61  89 118 162 199 248 299 351
#     4  11  21  36  63  95 120 157 196 243 305 363
#     4  10  23  42  61  88 125 155 199 245 300 361
#     4  11  24  42  59  86 124 163 201 247 291 352
#     4  11  22  38  63  92 123 156 202 246 301 359
#     4  10  19  33  56  88 126 155 188 242 301 356
#
# _framework density 22.506855999999999
#
# number of rings (size 3 to 8) (size 9 to 14) (size 15 to 20)
#    0.000    1.500    1.250    5.250    3.500    5.500 
#    0.000    0.625    0.000    0.000    0.000    0.000 
#    0.000    0.000    0.000    0.000    0.000    0.000 
#
# Total GULP energy -198241.494333 kJ/mol
# GULP energy per Si atom -12390.093396 kJ/mol
# Density = 2.245563 g / cm^3
# Si number density = 22.506856 Si / 1000 Ang^3
#
#
#
# Elastic Constant Matrix: (Units=GPa)
#
#
# Indices 1 2 3 4 5 6 
#
# 1 52.2738 22.0663 18.4125 -7.3210 6.7956 -10.5260
# 2 22.0663 119.4356 37.8370 -31.0966 -2.3393 -4.2994
# 3 18.4125 37.8370 109.7058 -14.4966 11.4530 14.8933
# 4 -7.3210 -31.0966 -14.4966 42.6923 6.8214 4.3167
# 5 6.7956 -2.3393 11.4530 6.8214 34.4387 -5.5344
# 6 -10.5260 -4.2994 14.8933 4.3167 -5.5344 25.8793
#
#
#
# Elastic Compliance Matrix: (Units=1/GPa)
#
#
# Indices 1 2 3 4 5 6 
#
# 1 0.024477 -0.002730 -0.004681 -0.000353 -0.001470 0.011940
# 2 -0.002730 0.011655 -0.003073 0.006585 0.001334 0.001781
# 3 -0.004681 -0.003073 0.013890 0.004013 -0.006710 -0.012512
# 4 -0.000353 0.006585 0.004013 0.031729 -0.008462 -0.008461
# 5 -0.001470 0.001334 -0.006710 -0.008462 0.035326 0.012452
# 6 0.011940 0.001781 -0.012512 -0.008461 0.012452 0.055068
#
#
# Mechanical properties :
#
#
# Convention : Reuss Voigt Hill
#
# Bulk Modulus (GPa) = 34.41702 48.67185 41.54444
# Shear Modulus (GPa) = 24.65497 34.14202 29.39849
#
# Velocity S-wave (km/s) = 3.31334 3.89904 3.61806
# Velocity P-wave (km/s) = 5.47381 6.47629 5.99604
#
# Compressibility (1/GPa) = 0.02905539
#
# Stress axis : x y z
#
# Youngs Moduli (GPa) = 40.85419 85.79863 71.99423
#
# Poissons Ratio (x) = 0.23426 0.33698
# Poissons Ratio (y) = 0.11155 0.22121
# Poissons Ratio (z) = 0.19122 0.26362
#
# Static dielectric constant tensor:
#      x y z
#    x 3.570970 0.291810 -0.049380 
#    y 0.291810 4.187620 -0.131750 
#    z -0.049380 -0.131750 4.201820 
# 
# 
# High freq. dielectric constant tensor:
#      x y z
#    x 1.858140 0.006960 0.022040 
#    y 0.006960 1.899550 -0.017570 
#    z 0.022040 -0.017570 1.897640 
# 
# From -- ./inp_files/465102.got.cif
#   From: 2010.06.25/outbox.cif.g09.slc.cpg/sg2_233_cif.got.tgz:465102.got - 2010.06.27 13:26:56.
