data_PCOD8041892
_publ_section_title
;
Structure prediction by ZEFSAII (Michael W. Deem and Ramdas Pophale) SiO2 
 PCOD8041892
Probable space group: P -1
;
_chemical_formula_sum "Si O2"
_cell_formula_units_Z 16
_cell_length_a 14.008685
_cell_length_b 11.768134
_cell_length_c 14.383181
_cell_angle_alpha 31.712159
_cell_angle_beta 47.839125
_cell_angle_gamma 39.870376
_cell_volume 797.830266
_symmetry_space_group_name_H-M "P -1"
_symmetry_group_IT_number 2
_symmetry_cell_setting 'triclinic'
loop_
_space_group_symop_operation_xyz
x,y,z
-x,-y,-z
loop_
_atom_site_type_symbol
_atom_site_label
_atom_site_fract_x
_atom_site_fract_y
_atom_site_fract_z
Si Si1 0.324761 0.036458 0.649191
Si Si2 0.156179 0.649558 0.799460
Si Si3 0.145078 0.203624 0.186878
Si Si4 0.919414 0.535343 0.760957
Si Si5 0.083534 0.913597 0.851203
Si Si6 0.396284 0.061716 0.379831
Si Si7 0.904375 0.438634 0.537231
Si Si8 0.630601 0.261657 0.531081
O O1 0.376234 0.960217 0.562432
O O2 0.265050 0.334661 0.498625
O O3 0.194284 0.972787 0.798063
O O4 0.463533 0.891876 0.730800
O O5 0.176425 0.751817 0.813611
O O6 0.259533 0.668047 0.641704
O O7 0.982409 0.820910 0.766269
O O8 0.201532 0.358501 0.980386
O O9 0.071043 0.356750 0.222142
O O10 0.282601 0.931010 0.308146
O O11 0.752431 0.681278 0.727097
O O12 0.035803 0.570884 0.598993
O O13 0.966674 0.243954 0.941748
O O14 0.933627 0.165988 0.739223
O O15 0.433813 0.856251 0.418325
O O16 0.000000 0.500000 0.500000
O O17 0.500000 0.500000 0.500000
#
# Coordination Sequence:
#
# PCOD8041892 Si02
#       8
#     2   2   2   2   2   2   2   2
#     4  10  20  35  56  74 112 149 172 218 269 313
#     4  10  19  38  58  80 110 144 185 225 273 326
#     4   9  21  36  58  82 108 144 183 230 271 320
#     4  10  19  35  58  80 108 139 185 220 267 325
#     4  10  19  34  60  79 106 147 180 219 269 322
#     4  10  20  38  53  78 110 144 182 215 263 328
#     4  10  19  34  52  81 107 139 172 230 269 307
#     4  11  22  36  59  84 108 145 182 228 277 327
#
# _framework density 20.054392
#
# number of rings (size 3 to 8) (size 9 to 14) (size 15 to 20)
#    0.000    2.000    3.750    1.125    0.000    5.000 
#    0.000    0.000    0.000    0.000    0.000    0.000 
#    0.000    0.000    0.000    0.000    0.000    0.000 
#
# Total GULP energy -198331.659192 kJ/mol
# GULP energy per Si atom -12395.728699 kJ/mol
# Density = 2.000875 g / cm^3
# Si number density = 20.054392 Si / 1000 Ang^3
#
#
#
# Elastic Constant Matrix: (Units=GPa)
#
#
# Indices 1 2 3 4 5 6 
#
# 1 91.7211 20.2834 35.8186 -3.0288 5.5902 -5.8511
# 2 20.2834 72.8960 24.2573 -21.9001 4.2934 -1.1452
# 3 35.8186 24.2573 97.5367 -16.6473 8.5885 0.2976
# 4 -3.0288 -21.9001 -16.6473 16.3751 -0.9489 1.6719
# 5 5.5902 4.2934 8.5885 -0.9489 24.6349 -1.3998
# 6 -5.8511 -1.1452 0.2976 1.6719 -1.3998 17.7222
#
#
#
# Elastic Compliance Matrix: (Units=1/GPa)
#
#
# Indices 1 2 3 4 5 6 
#
# 1 0.014327 -0.005176 -0.005785 -0.010737 -0.000435 0.005472
# 2 -0.005176 0.025053 0.001827 0.034617 -0.002700 -0.003600
# 3 -0.005785 0.001827 0.015173 0.016978 -0.003866 -0.003954
# 4 -0.010737 0.034617 0.016978 0.123718 -0.005529 -0.013701
# 5 -0.000435 -0.002700 -0.003866 -0.005529 0.042503 0.003626
# 6 0.005472 -0.003600 -0.003954 -0.013701 0.003626 0.059645
#
#
# Mechanical properties :
#
#
# Convention : Reuss Voigt Hill
#
# Bulk Modulus (GPa) = 27.55932 46.98582 37.27257
# Shear Modulus (GPa) = 16.08844 23.86609 19.97726
#
# Velocity S-wave (km/s) = 2.83546 3.45348 3.15961
# Velocity P-wave (km/s) = 4.94893 6.27551 5.65128
#
# Compressibility (1/GPa) = 0.03628536
#
# Stress axis : x y z
#
# Youngs Moduli (GPa) = 69.79632 39.91585 65.90659
#
# Poissons Ratio (x) = 0.20659 0.38129
# Poissons Ratio (y) = 0.36124 -0.12042
# Poissons Ratio (z) = 0.40379 -0.07293
#
# Static dielectric constant tensor:
#      x y z
#    x 3.591310 0.687400 0.251030 
#    y 0.687400 1.766690 -0.467880 
#    z 0.251030 -0.467880 3.963770 
# 
# 
# High freq. dielectric constant tensor:
#      x y z
#    x 1.781210 0.012770 0.008780 
#    y 0.012770 1.765710 -0.009030 
#    z 0.008780 -0.009030 1.776640 
# 
# From -- ./inp_files/255934.got.cif
#   From: 2010.06.25/outbox.cif.g09.slc.cpg/sg2_128_cif.got.tgz:255934.got - 2010.06.27 13:26:56.
