data_PCOD8041278
_publ_section_title
;
Structure prediction by ZEFSAII (Michael W. Deem and Ramdas Pophale) SiO2 
 PCOD8041278
Probable space group: P -1
;
_chemical_formula_sum "Si O2"
_cell_formula_units_Z 16
_cell_length_a 19.867705
_cell_length_b 5.273072
_cell_length_c 10.096124
_cell_angle_alpha 93.111149
_cell_angle_beta 85.706751
_cell_angle_gamma 127.965530
_cell_volume 831.492111
_symmetry_space_group_name_H-M "P -1"
_symmetry_group_IT_number 2
_symmetry_cell_setting 'triclinic'
loop_
_space_group_symop_operation_xyz
x,y,z
-x,-y,-z
loop_
_atom_site_type_symbol
_atom_site_label
_atom_site_fract_x
_atom_site_fract_y
_atom_site_fract_z
Si Si1 0.419069 0.342394 0.099746
Si Si2 0.102102 0.155122 0.341002
Si Si3 0.367724 0.736427 0.226746
Si Si4 0.197432 0.340556 0.071768
Si Si5 0.063065 0.453690 0.553864
Si Si6 0.762644 0.105949 0.357843
Si Si7 0.739803 0.585668 0.516410
Si Si8 0.752704 0.059131 0.055797
O O1 0.426127 0.626359 0.183651
O O2 0.419557 0.115303 0.200940
O O3 0.500000 0.500000 0.000000
O O4 0.334607 0.143780 0.018054
O O5 0.115141 0.452487 0.422536
O O6 0.171964 0.140326 0.408181
O O7 0.120829 0.204350 0.183839
O O8 0.000849 0.871051 0.361901
O O9 0.338179 0.655602 0.380612
O O10 0.286034 0.550832 0.140495
O O11 0.193092 0.562446 0.974854
O O12 0.188930 0.051358 0.990565
O O13 0.135396 0.726077 0.650002
O O14 0.000000 0.500000 0.500000
O O15 0.747849 0.360382 0.413924
O O16 0.728506 0.001181 0.211574
O O17 0.715051 0.781331 0.443300
#
# Coordination Sequence:
#
# PCOD8041278 Si02
#       8
#     2   2   2   2   2   2   2   2
#     4  10  19  34  57  80 105 133 164 210 252 297
#     4   9  19  32  51  77  98 132 176 219 255 288
#     4   9  18  32  54  83 102 127 176 211 245 294
#     4   9  19  34  54  72 103 135 171 213 247 297
#     4  10  19  32  51  75 102 130 173 219 257 296
#     4  11  21  34  53  74 105 138 170 208 258 303
#     4  10  19  33  55  77 101 136 173 215 247 291
#     4  10  21  36  52  77 103 136 171 202 250 316
#
# _framework density 19.242515999999998
#
# number of rings (size 3 to 8) (size 9 to 14) (size 15 to 20)
#    0.000    2.250    1.250    1.875    1.750    3.000 
#    0.000    1.250    0.000    4.500    0.000    0.000 
#    0.000    0.000    0.000    0.000    0.000    0.000 
#
# Total GULP energy -198287.359877 kJ/mol
# GULP energy per Si atom -12392.959992 kJ/mol
# Density = 1.919872 g / cm^3
# Si number density = 19.242516 Si / 1000 Ang^3
#
#
#
# Elastic Constant Matrix: (Units=GPa)
#
#
# Indices 1 2 3 4 5 6 
#
# 1 65.9621 34.6912 32.2725 -8.8632 -16.4555 -21.7197
# 2 34.6912 75.0701 38.8262 -17.1992 -2.9420 -29.2078
# 3 32.2725 38.8262 117.4862 -20.7616 -9.6115 -12.6644
# 4 -8.8632 -17.1992 -20.7616 26.7967 -0.3854 1.9894
# 5 -16.4555 -2.9420 -9.6115 -0.3854 32.3485 -8.0250
# 6 -21.7197 -29.2078 -12.6644 1.9894 -8.0250 30.6147
#
#
#
# Elastic Compliance Matrix: (Units=1/GPa)
#
#
# Indices 1 2 3 4 5 6 
#
# 1 0.031727 -0.000966 -0.002764 0.006134 0.021687 0.025730
# 2 -0.000966 0.029892 -0.003439 0.014269 0.008233 0.027642
# 3 -0.002764 -0.003439 0.011538 0.005873 0.001677 -0.000411
# 4 0.006134 0.014269 0.005873 0.051731 0.011770 0.020118
# 5 0.021687 0.008233 0.001677 0.011770 0.052494 0.036930
# 6 0.025730 0.027642 -0.000411 0.020118 0.036930 0.085493
#
#
# Mechanical properties :
#
#
# Convention : Reuss Voigt Hill
#
# Bulk Modulus (GPa) = 17.00100 52.23314 34.61707
# Shear Modulus (GPa) = 16.84522 28.13386 22.48954
#
# Velocity S-wave (km/s) = 2.96195 3.82785 3.42240
# Velocity P-wave (km/s) = 4.53342 6.83668 5.80052
#
# Compressibility (1/GPa) = 0.05882008
#
# Stress axis : x y z
#
# Youngs Moduli (GPa) = 31.51847 33.45382 86.66927
#
# Poissons Ratio (x) = 0.03231 0.23958
# Poissons Ratio (y) = 0.03044 0.29802
# Poissons Ratio (z) = 0.08713 0.11503
#
# Static dielectric constant tensor:
#      x y z
#    x 3.287330 -0.719830 0.018160 
#    y -0.719830 3.140380 -0.131720 
#    z 0.018160 -0.131720 3.538340 
# 
# 
# High freq. dielectric constant tensor:
#      x y z
#    x 1.734520 -0.027710 -0.014940 
#    y -0.027710 1.737000 -0.016010 
#    z -0.014940 -0.016010 1.741910 
# 
# From -- ./inp_files/37482.got.cif
#   From: 2010.06.25/outbox.cif.g09.slc.cpg/sg2_19_cif.got.tgz:37482.got - 2010.06.27 13:26:56.
