data_PCOD8041614
_publ_section_title
;
Structure prediction by ZEFSAII (Michael W. Deem and Ramdas Pophale) SiO2 
 PCOD8041614
Probable space group: P -1
;
_chemical_formula_sum "Si O2"
_cell_formula_units_Z 16
_cell_length_a 8.685066
_cell_length_b 14.848736
_cell_length_c 8.931563
_cell_angle_alpha 108.246717
_cell_angle_beta 51.467004
_cell_angle_gamma 88.656225
_cell_volume 817.865984
_symmetry_space_group_name_H-M "P -1"
_symmetry_group_IT_number 2
_symmetry_cell_setting 'triclinic'
loop_
_space_group_symop_operation_xyz
x,y,z
-x,-y,-z
loop_
_atom_site_type_symbol
_atom_site_label
_atom_site_fract_x
_atom_site_fract_y
_atom_site_fract_z
Si Si1 0.789272 0.577477 0.207996
Si Si2 0.314068 0.384298 0.390010
Si Si3 0.627270 0.423356 0.636019
Si Si4 0.070580 0.240077 0.764841
Si Si5 0.745077 0.964339 0.294632
Si Si6 0.275197 0.712947 0.773691
Si Si7 0.975097 0.117999 0.185325
Si Si8 0.985001 0.277198 0.497959
O O1 0.759221 0.550803 0.383161
O O2 0.614299 0.565958 0.194110
O O3 0.772661 0.694675 0.279230
O O4 0.000000 0.500000 0.000000
O O5 0.350170 0.466561 0.297299
O O6 0.516878 0.294769 0.263822
O O7 0.148002 0.337156 0.395139
O O8 0.698449 0.376642 0.405206
O O9 0.756701 0.350816 0.646985
O O10 0.170739 0.127966 0.694959
O O11 0.995230 0.238306 0.639829
O O12 0.884549 0.298740 0.012335
O O13 0.500000 0.000000 0.500000
O O14 0.865567 0.045412 0.299274
O O15 0.813364 0.934565 0.063667
O O16 0.197269 0.818446 0.792247
O O17 0.039439 0.184113 0.305492
#
# Coordination Sequence:
#
# PCOD8041614 Si02
#       8
#     2   2   2   2   2   2   2   2
#     4  10  19  33  58  84 112 151 201 238 269 338
#     4  10  19  33  55  80 113 158 192 229 292 338
#     4  10  19  34  56  80 113 159 195 235 277 340
#     4  10  21  37  56  89 116 149 190 243 291 340
#     4  10  22  39  69  86 109 151 203 240 287 355
#     4   9  18  36  60  78 111 156 196 236 277 344
#     4   9  21  42  60  88 115 146 194 245 292 347
#     4  10  22  36  55  83 124 147 183 242 298 344
#
# _framework density 19.563108
#
# number of rings (size 3 to 8) (size 9 to 14) (size 15 to 20)
#    0.000    2.250    0.000    3.375    7.000    0.500 
#    2.250    8.750    0.000    0.000    0.000    0.000 
#    0.000    0.000    0.000    0.000    0.000    0.000 
#
# Total GULP energy -198271.021717 kJ/mol
# GULP energy per Si atom -12391.938857 kJ/mol
# Density = 1.951858 g / cm^3
# Si number density = 19.563108 Si / 1000 Ang^3
#
#
#
# Elastic Constant Matrix: (Units=GPa)
#
#
# Indices 1 2 3 4 5 6 
#
# 1 117.7504 58.5554 40.3792 0.3384 -13.2008 0.4233
# 2 58.5554 131.2678 33.0916 -0.7653 -3.5466 2.1694
# 3 40.3792 33.0916 83.8574 -1.3724 -22.1314 -13.0370
# 4 0.3384 -0.7653 -1.3724 24.6435 -1.2004 -1.0341
# 5 -13.2008 -3.5466 -22.1314 -1.2004 30.2523 -0.7139
# 6 0.4233 2.1694 -13.0370 -1.0341 -0.7139 20.8154
#
#
#
# Elastic Compliance Matrix: (Units=1/GPa)
#
#
# Indices 1 2 3 4 5 6 
#
# 1 0.012272 -0.004360 -0.004090 -0.000543 0.001775 -0.002323
# 2 -0.004360 0.010370 -0.003338 -0.000094 -0.003208 -0.003197
# 3 -0.004090 -0.003338 0.021067 0.002388 0.013666 0.014213
# 4 -0.000543 -0.000094 0.002388 0.041027 0.003213 0.003665
# 5 0.001775 -0.003208 0.013666 0.003213 0.043827 0.010520
# 6 -0.002323 -0.003197 0.014213 0.003665 0.010520 0.057867
#
#
# Mechanical properties :
#
#
# Convention : Reuss Voigt Hill
#
# Bulk Modulus (GPa) = 49.67033 66.32532 57.99782
# Shear Modulus (GPa) = 23.07148 28.53219 25.80184
#
# Velocity S-wave (km/s) = 3.43787 3.82313 3.63561
# Velocity P-wave (km/s) = 6.41900 7.31200 6.88000
#
# Compressibility (1/GPa) = 0.02013274
#
# Stress axis : x y z
#
# Youngs Moduli (GPa) = 81.48408 96.43168 47.46701
#
# Poissons Ratio (x) = 0.42045 0.19416
# Poissons Ratio (y) = 0.35527 0.15845
# Poissons Ratio (z) = 0.33330 0.32189
#
# Static dielectric constant tensor:
#      x y z
#    x 3.500330 0.021260 -0.204690 
#    y 0.021260 3.749010 -0.179760 
#    z -0.204690 -0.179760 3.816840 
# 
# 
# High freq. dielectric constant tensor:
#      x y z
#    x 1.748630 0.000440 -0.012860 
#    y 0.000440 1.772680 0.000820 
#    z -0.012860 0.000820 1.757540 
# 
# From -- ./inp_files/202868.got.cif
#   From: 2010.06.25/outbox.cif.g09.slc.cpg/sg2_102_cif.got.tgz:202868.got - 2010.06.27 13:26:56.
