data_PCOD8041987
_publ_section_title
;
Structure prediction by ZEFSAII (Michael W. Deem and Ramdas Pophale) SiO2 
 PCOD8041987
Probable space group: P -1
;
_chemical_formula_sum "Si O2"
_cell_formula_units_Z 14
_cell_length_a 12.897508
_cell_length_b 11.664644
_cell_length_c 8.668953
_cell_angle_alpha 138.727384
_cell_angle_beta 107.478004
_cell_angle_gamma 98.294981
_cell_volume 663.706742
_symmetry_space_group_name_H-M "P -1"
_symmetry_group_IT_number 2
_symmetry_cell_setting 'triclinic'
loop_
_space_group_symop_operation_xyz
x,y,z
-x,-y,-z
loop_
_atom_site_type_symbol
_atom_site_label
_atom_site_fract_x
_atom_site_fract_y
_atom_site_fract_z
Si Si1 0.889286 0.224590 0.027319
Si Si2 0.901529 0.056324 0.565881
Si Si3 0.269601 0.843824 0.823886
Si Si4 0.999917 0.622974 0.306946
Si Si5 0.086288 0.242576 0.337972
Si Si6 0.647291 0.463816 0.409319
Si Si7 0.350726 0.232742 0.052474
O O1 0.879920 0.043909 0.729319
O O2 0.763007 0.124654 0.983396
O O3 0.886632 0.377282 0.055000
O O4 0.027233 0.348208 0.315065
O O5 0.975985 0.307018 0.791811
O O6 0.000000 0.000000 0.500000
O O7 0.757450 0.900152 0.263352
O O8 0.138897 0.688669 0.506678
O O9 0.350578 0.739226 0.755914
O O10 0.353298 0.080369 0.025948
O O11 0.948663 0.755334 0.497258
O O12 0.244815 0.380921 0.516944
O O13 0.000000 0.000000 0.000000
O O14 0.499839 0.374511 0.188489
O O15 0.680099 0.610283 0.723413
#
# Coordination Sequence:
#
# PCOD8041987 Si02
#       7
#     2   2   2   2   2   2   2
#     4  11  19  35  56  86 115 143 188 240 290 344
#     4  11  23  37  55  82 121 151 186 241 295 339
#     4  10  19  37  63  85 114 147 195 243 283 333
#     4  10  19  34  55  87 110 144 196 235 283 344
#     4  11  19  33  62  88 111 146 194 242 285 329
#     4  11  19  38  62  83 119 147 197 240 287 333
#     4  10  24  37  58  89 112 155 197 236 283 352
#
# _framework density 21.093653
#
# number of rings (size 3 to 8) (size 9 to 14) (size 15 to 20)
#    0.000    1.429    2.857    6.000    0.000    0.000 
#    0.000    0.714    0.000   10.286    0.000    0.000 
#    0.000    0.000    0.000    0.000    0.000    0.000 
#
# Total GULP energy -173499.301078 kJ/mol
# GULP energy per Si atom -12392.807220 kJ/mol
# Density = 2.104564 g / cm^3
# Si number density = 21.093653 Si / 1000 Ang^3
#
#
#
# Elastic Constant Matrix: (Units=GPa)
#
#
# Indices 1 2 3 4 5 6 
#
# 1 101.8067 18.6316 14.4600 -3.8217 1.4862 5.0749
# 2 18.6316 54.0450 9.0293 1.6761 -0.8539 14.3293
# 3 14.4600 9.0293 32.6349 -1.7263 6.0726 9.9932
# 4 -3.8217 1.6761 -1.7263 35.7363 3.0944 -9.0806
# 5 1.4862 -0.8539 6.0726 3.0944 39.0806 5.4239
# 6 5.0749 14.3293 9.9932 -9.0806 5.4239 26.9746
#
#
#
# Elastic Compliance Matrix: (Units=1/GPa)
#
#
# Indices 1 2 3 4 5 6 
#
# 1 0.011089 -0.003713 -0.004406 0.001714 -0.000252 0.002146
# 2 -0.003713 0.023963 -0.001621 -0.005418 0.003277 -0.013913
# 3 -0.004406 -0.001621 0.037310 -0.001240 -0.003935 -0.011758
# 4 0.001714 -0.005418 -0.001240 0.032549 -0.004637 0.014904
# 5 -0.000252 0.003277 -0.003935 -0.004637 0.027669 -0.007360
# 6 0.002146 -0.013913 -0.011758 0.014904 -0.007360 0.054912
#
#
# Mechanical properties :
#
#
# Convention : Reuss Voigt Hill
#
# Bulk Modulus (GPa) = 18.90976 30.30315 24.60646
# Shear Modulus (GPa) = 22.26203 30.11602 26.18903
#
# Velocity S-wave (km/s) = 3.25220 3.78263 3.52740
# Velocity P-wave (km/s) = 4.80485 5.78575 5.31796
#
# Compressibility (1/GPa) = 0.05288274
#
# Stress axis : x y z
#
# Youngs Moduli (GPa) = 90.18086 41.73185 26.80265
#
# Poissons Ratio (x) = 0.15494 0.11808
# Poissons Ratio (y) = 0.33483 0.04344
# Poissons Ratio (z) = 0.39730 0.06763
#
# Static dielectric constant tensor:
#      x y z
#    x 3.928740 -0.061880 -0.281240 
#    y -0.061880 4.200250 0.207790 
#    z -0.281240 0.207790 3.652540 
# 
# 
# High freq. dielectric constant tensor:
#      x y z
#    x 1.830860 0.002500 -0.029850 
#    y 0.002500 1.828750 0.022180 
#    z -0.029850 0.022180 1.807870 
# 
# From -- ./inp_files/153958.got.cif
#   From: 2010.06.25/outbox.cif.g09.slc.cpg/sg2_77_cif.got.tgz:153958.got - 2010.06.27 13:26:56.
