data_PCOD8041439
_publ_section_title
;
Structure prediction by ZEFSAII (Michael W. Deem and Ramdas Pophale) SiO2 
 PCOD8041439
Probable space group: P -1
;
_chemical_formula_sum "Si O2"
_cell_formula_units_Z 16
_cell_length_a 11.715717
_cell_length_b 16.741987
_cell_length_c 13.800865
_cell_angle_alpha 28.919068
_cell_angle_beta 139.818637
_cell_angle_gamma 140.971730
_cell_volume 792.278662
_symmetry_space_group_name_H-M "P -1"
_symmetry_group_IT_number 2
_symmetry_cell_setting 'triclinic'
loop_
_space_group_symop_operation_xyz
x,y,z
-x,-y,-z
loop_
_atom_site_type_symbol
_atom_site_label
_atom_site_fract_x
_atom_site_fract_y
_atom_site_fract_z
Si Si1 0.329225 0.800466 0.104442
Si Si2 0.004950 0.492869 0.273392
Si Si3 0.931321 0.639556 0.254604
Si Si4 0.288873 0.355547 0.720147
Si Si5 0.377309 0.326873 0.470246
Si Si6 0.272156 0.972479 0.080938
Si Si7 0.018119 0.657414 0.771352
Si Si8 0.335495 0.985244 0.713962
O O1 0.138062 0.640027 0.130332
O O2 0.497621 0.723728 0.313727
O O3 0.280050 0.899920 0.056810
O O4 0.380497 0.929876 0.909745
O O5 0.884249 0.573239 0.181889
O O6 0.134608 0.421198 0.500534
O O7 0.889062 0.357743 0.258271
O O8 0.093974 0.831266 0.167825
O O9 0.000000 0.500000 0.500000
O O10 0.747199 0.649187 0.181315
O O11 0.501385 0.486234 0.698552
O O12 0.252564 0.161979 0.862310
O O13 0.191478 0.339632 0.386051
O O14 0.311959 0.175484 0.505156
O O15 0.471058 0.991823 0.244140
O O16 0.151266 0.845213 0.698088
O O17 0.000000 0.500000 0.000000
#
# Coordination Sequence:
#
# PCOD8041439 Si02
#       8
#     2   2   2   2   2   2   2   2
#     4   9  19  35  54  80 114 146 182 233 278 329
#     4   9  20  34  54  81 111 150 184 228 283 325
#     4   9  18  37  57  82 111 140 184 241 283 316
#     4  10  20  34  60  84 107 141 193 242 272 320
#     4  10  22  36  55  82 113 150 187 229 281 328
#     4  10  19  32  58  86 108 140 189 233 276 328
#     4  12  23  36  54  81 121 153 185 224 274 349
#     4  11  21  36  52  81 119 153 178 223 286 339
#
# _framework density 20.194914000000001
#
# number of rings (size 3 to 8) (size 9 to 14) (size 15 to 20)
#    0.000    2.000    1.250    5.250    3.500    1.000 
#    0.000    0.000    0.000    9.750    0.000    0.000 
#    0.000    0.000    0.000    0.000    0.000    0.000 
#
# Total GULP energy -198224.426924 kJ/mol
# GULP energy per Si atom -12389.026683 kJ/mol
# Density = 2.014895 g / cm^3
# Si number density = 20.194914 Si / 1000 Ang^3
#
#
#
# Elastic Constant Matrix: (Units=GPa)
#
#
# Indices 1 2 3 4 5 6 
#
# 1 80.1987 30.2471 22.1531 4.8242 0.0584 3.1570
# 2 30.2471 99.0039 24.5566 -18.5992 -9.6099 4.8170
# 3 22.1531 24.5566 47.6100 -21.7683 0.7002 -0.7669
# 4 4.8242 -18.5992 -21.7683 35.3387 2.3104 -4.3940
# 5 0.0584 -9.6099 0.7002 2.3104 22.9358 -5.3065
# 6 3.1570 4.8170 -0.7669 -4.3940 -5.3065 24.7402
#
#
#
# Elastic Compliance Matrix: (Units=1/GPa)
#
#
# Indices 1 2 3 4 5 6 
#
# 1 0.018724 -0.005115 -0.012152 -0.013186 -0.001518 -0.004438
# 2 -0.005115 0.013851 -0.001855 0.006524 0.005259 0.000185
# 3 -0.012152 -0.001855 0.039789 0.026278 -0.002947 0.007180
# 4 -0.013186 0.006524 0.026278 0.051030 -0.000836 0.010111
# 5 -0.001518 0.005259 -0.002947 -0.000836 0.048122 0.009252
# 6 -0.004438 0.000185 0.007180 0.010111 0.009252 0.044953
#
#
# Mechanical properties :
#
#
# Convention : Reuss Voigt Hill
#
# Bulk Modulus (GPa) = 29.30938 42.30290 35.80614
# Shear Modulus (GPa) = 18.79086 26.59332 22.69209
#
# Velocity S-wave (km/s) = 3.05368 3.63276 3.35573
# Velocity P-wave (km/s) = 5.19404 6.21198 5.72567
#
# Compressibility (1/GPa) = 0.03411877
#
# Stress axis : x y z
#
# Youngs Moduli (GPa) = 53.40766 72.19930 25.13240
#
# Poissons Ratio (x) = 0.36929 0.30542
# Poissons Ratio (y) = 0.27317 0.04663
# Poissons Ratio (z) = 0.64903 0.13395
#
# Static dielectric constant tensor:
#      x y z
#    x 4.229330 -0.031900 0.056420 
#    y -0.031900 4.074880 -0.480470 
#    z 0.056420 -0.480470 3.505900 
# 
# 
# High freq. dielectric constant tensor:
#      x y z
#    x 1.788320 -0.004470 0.009240 
#    y -0.004470 1.789980 -0.037570 
#    z 0.009240 -0.037570 1.762650 
# 
# From -- ./inp_files/523211.got.cif
#   From: 2010.06.25/outbox.cif.g09.slc.cpg/sg2_262_cif.got.tgz:523211.got - 2010.06.27 13:26:56.
