data_PCOD8041961
_publ_section_title
;
Structure prediction by ZEFSAII (Michael W. Deem and Ramdas Pophale) SiO2 
 PCOD8041961
Probable space group: P -1
;
_chemical_formula_sum "Si O2"
_cell_formula_units_Z 16
_cell_length_a 13.161479
_cell_length_b 8.389911
_cell_length_c 8.174399
_cell_angle_alpha 113.956238
_cell_angle_beta 85.629421
_cell_angle_gamma 63.958015
_cell_volume 704.647671
_symmetry_space_group_name_H-M "P -1"
_symmetry_group_IT_number 2
_symmetry_cell_setting 'triclinic'
loop_
_space_group_symop_operation_xyz
x,y,z
-x,-y,-z
loop_
_atom_site_type_symbol
_atom_site_label
_atom_site_fract_x
_atom_site_fract_y
_atom_site_fract_z
Si Si1 0.296378 0.459043 0.701417
Si Si2 0.443744 0.914873 0.181640
Si Si3 0.628481 0.549996 0.832303
Si Si4 0.840491 0.499509 0.579084
Si Si5 0.695537 0.936978 0.412849
Si Si6 0.496382 0.758904 0.647231
Si Si7 0.897722 0.821563 0.572722
Si Si8 0.732410 0.202789 0.910017
O O1 0.199263 0.549548 0.606937
O O2 0.289516 0.280920 0.725290
O O3 0.427105 0.366769 0.570897
O O4 0.260422 0.654417 0.897524
O O5 0.346310 0.898729 0.074422
O O6 0.405669 0.954601 0.391647
O O7 0.454265 0.108582 0.212320
O O8 0.570911 0.707306 0.057294
O O9 0.743514 0.551565 0.752261
O O10 0.527313 0.597304 0.723771
O O11 0.668532 0.328822 0.804919
O O12 0.858226 0.689398 0.629173
O O13 0.963628 0.300986 0.538083
O O14 0.822203 0.897997 0.443737
O O15 0.642003 0.092042 0.327481
O O16 0.864669 0.019831 0.769654
#
# Coordination Sequence:
#
# PCOD8041961 Si02
#       8
#     2   2   2   2   2   2   2   2
#     4   9  18  33  56  83 110 141 178 222 275 325
#     4  10  20  35  54  78 111 150 182 212 265 330
#     4  11  21  32  55  86 113 140 179 229 270 314
#     4   9  20  41  62  78 101 144 192 225 262 323
#     4   9  17  34  58  79 105 148 186 214 263 329
#     4  10  19  34  55  79 111 147 185 217 258 326
#     4   9  20  39  62  78 102 145 190 223 266 328
#     4  11  21  34  54  83 116 144 174 221 280 326
#
# _framework density 22.706384
#
# number of rings (size 3 to 8) (size 9 to 14) (size 15 to 20)
#    0.000    2.250    0.000    6.000    0.000    2.000 
#    0.000   10.000    0.000   24.000    0.000    0.000 
#    0.000    0.000    0.000    0.000    0.000    0.000 
#
# Total GULP energy -198238.460238 kJ/mol
# GULP energy per Si atom -12389.903765 kJ/mol
# Density = 2.265470 g / cm^3
# Si number density = 22.706384 Si / 1000 Ang^3
#
#
#
# Elastic Constant Matrix: (Units=GPa)
#
#
# Indices 1 2 3 4 5 6 
#
# 1 83.4793 38.3322 40.0627 11.7476 -2.7106 -30.7395
# 2 38.3322 97.6670 36.2160 12.4055 4.9946 -38.7011
# 3 40.0627 36.2160 105.1440 36.4440 12.1835 -12.1564
# 4 11.7476 12.4055 36.4440 33.6944 -0.6364 4.3384
# 5 -2.7106 4.9946 12.1835 -0.6364 29.1721 5.2299
# 6 -30.7395 -38.7011 -12.1564 4.3384 5.2299 35.7494
#
#
#
# Elastic Compliance Matrix: (Units=1/GPa)
#
#
# Indices 1 2 3 4 5 6 
#
# 1 0.021241 0.001660 -0.004489 -0.005636 -0.000004 0.019220
# 2 0.001660 0.023771 0.000918 -0.014469 -0.010120 0.030710
# 3 -0.004489 0.000918 0.021309 -0.023184 -0.011573 0.008886
# 4 -0.005636 -0.014469 -0.023184 0.067519 0.020198 -0.039542
# 5 -0.000004 -0.010120 -0.011573 0.020198 0.045591 -0.024015
# 6 0.019220 0.030710 0.008886 -0.039542 -0.024015 0.089078
#
#
# Mechanical properties :
#
#
# Convention : Reuss Voigt Hill
#
# Bulk Modulus (GPa) = 16.00015 57.27914 36.63964
# Shear Modulus (GPa) = 17.05522 31.16846 24.11184
#
# Velocity S-wave (km/s) = 2.74363 3.70898 3.26221
# Velocity P-wave (km/s) = 4.13504 6.60476 5.51005
#
# Compressibility (1/GPa) = 0.06249940
#
# Stress axis : x y z
#
# Youngs Moduli (GPa) = 47.07773 42.06756 46.92823
#
# Poissons Ratio (x) = -0.06982 0.21066
# Poissons Ratio (y) = -0.07814 -0.04308
# Poissons Ratio (z) = 0.21134 -0.03862
#
# Static dielectric constant tensor:
#      x y z
#    x 3.886900 -0.122000 0.048290 
#    y -0.122000 4.303410 0.252460 
#    z 0.048290 0.252460 3.959210 
# 
# 
# High freq. dielectric constant tensor:
#      x y z
#    x 1.863790 -0.008060 0.014270 
#    y -0.008060 1.901530 0.019870 
#    z 0.014270 0.019870 1.887580 
# 
# From -- ./inp_files/296419.got.cif
#   From: 2010.06.25/outbox.cif.g09.slc.cpg/sg2_149_cif.got.tgz:296419.got - 2010.06.27 13:26:56.
