data_PCOD8041230
_publ_section_title
;
Structure prediction by ZEFSAII (Michael W. Deem and Ramdas Pophale) SiO2 
 PCOD8041230
Probable space group: P -1
;
_chemical_formula_sum "Si O2"
_cell_formula_units_Z 16
_cell_length_a 13.345181
_cell_length_b 7.901778
_cell_length_c 16.416696
_cell_angle_alpha 110.820741
_cell_angle_beta 26.385571
_cell_angle_gamma 119.748010
_cell_volume 649.920691
_symmetry_space_group_name_H-M "P -1"
_symmetry_group_IT_number 2
_symmetry_cell_setting 'triclinic'
loop_
_space_group_symop_operation_xyz
x,y,z
-x,-y,-z
loop_
_atom_site_type_symbol
_atom_site_label
_atom_site_fract_x
_atom_site_fract_y
_atom_site_fract_z
Si Si1 0.360498 0.304615 0.645841
Si Si2 0.234466 0.649970 0.255314
Si Si3 0.878171 0.752726 0.635340
Si Si4 0.165208 0.982285 0.606812
Si Si5 0.279000 0.194223 0.984252
Si Si6 0.659578 0.384355 0.011598
Si Si7 0.688084 0.995796 0.231605
Si Si8 0.149883 0.554591 0.769826
O O1 0.262354 0.140035 0.759609
O O2 0.240968 0.465641 0.766489
O O3 0.661520 0.412735 0.438684
O O4 0.265921 0.206135 0.607461
O O5 0.181449 0.430041 0.289281
O O6 0.500065 0.814804 0.123262
O O7 0.021479 0.720289 0.447816
O O8 0.244040 0.645610 0.151026
O O9 0.629012 0.777772 0.792080
O O10 0.050319 0.955207 0.594752
O O11 0.391883 0.918322 0.429654
O O12 0.959572 0.838372 0.794300
O O13 0.374716 0.413889 0.915249
O O14 0.207594 0.035312 0.935941
O O15 0.868330 0.391080 0.925223
O O16 0.843856 0.229539 0.178394
#
# Coordination Sequence:
#
# PCOD8041230 Si02
#       8
#     2   2   2   2   2   2   2   2
#     4  10  23  41  66  94 128 173 213 264 314 374
#     4  10  19  32  55  93 130 162 203 266 313 375
#     4  10  19  31  57  94 124 162 210 258 316 379
#     4  11  19  37  62  92 129 164 212 262 315 378
#     4  11  20  34  61  98 127 164 216 256 317 383
#     4  11  20  35  59  88 133 163 203 266 316 373
#     4  11  23  40  67  95 127 171 211 262 315 375
#     4  10  23  43  64  96 130 169 215 260 320 377
#
# _framework density 24.618389000000001
#
# number of rings (size 3 to 8) (size 9 to 14) (size 15 to 20)
#    0.000    1.500    3.750    3.750    0.000    2.000 
#    0.000    4.375    0.000    3.750    0.000    0.000 
#    0.000    0.000    0.000    0.000    0.000    0.000 
#
# Total GULP energy -198298.340893 kJ/mol
# GULP energy per Si atom -12393.646306 kJ/mol
# Density = 2.456236 g / cm^3
# Si number density = 24.618389 Si / 1000 Ang^3
#
#
#
# Elastic Constant Matrix: (Units=GPa)
#
#
# Indices 1 2 3 4 5 6 
#
# 1 109.8659 45.6289 53.7817 10.3311 -22.9224 17.1830
# 2 45.6289 58.7687 19.5348 7.2229 3.1648 -0.2024
# 3 53.7817 19.5348 139.1996 17.1175 -30.6990 13.9226
# 4 10.3311 7.2229 17.1175 28.4707 11.4126 -0.6776
# 5 -22.9224 3.1648 -30.6990 11.4126 40.9634 -0.0336
# 6 17.1830 -0.2024 13.9226 -0.6776 -0.0336 35.1542
#
#
#
# Elastic Compliance Matrix: (Units=1/GPa)
#
#
# Indices 1 2 3 4 5 6 
#
# 1 0.022550 -0.017075 -0.000163 -0.010756 0.016803 -0.011247
# 2 -0.017075 0.031420 -0.003281 0.007002 -0.016384 0.009946
# 3 -0.000163 -0.003281 0.012520 -0.011913 0.012860 -0.005115
# 4 -0.010756 0.007002 -0.011913 0.057278 -0.031436 0.011090
# 5 0.016803 -0.016384 0.012860 -0.031436 0.053465 -0.013955
# 6 -0.011247 0.009946 -0.005115 0.011090 -0.013955 0.036227
#
#
# Mechanical properties :
#
#
# Convention : Reuss Voigt Hill
#
# Bulk Modulus (GPa) = 39.29157 60.63610 49.96383
# Shear Modulus (GPa) = 19.01274 33.51027 26.26150
#
# Velocity S-wave (km/s) = 2.78204 3.69343 3.26965
# Velocity P-wave (km/s) = 5.12977 6.54771 5.88162
#
# Compressibility (1/GPa) = 0.02545075
#
# Stress axis : x y z
#
# Youngs Moduli (GPa) = 44.34679 31.82674 79.87290
#
# Poissons Ratio (x) = 0.54345 0.01300
# Poissons Ratio (y) = 0.75724 0.26209
# Poissons Ratio (z) = 0.00722 0.10443
#
# Static dielectric constant tensor:
#      x y z
#    x 4.300600 0.417650 -0.446870 
#    y 0.417650 4.201720 0.026660 
#    z -0.446870 0.026660 4.625310 
# 
# 
# High freq. dielectric constant tensor:
#      x y z
#    x 1.958680 0.027000 -0.025680 
#    y 0.027000 1.955240 0.007430 
#    z -0.025680 0.007430 1.995680 
# 
# From -- ./inp_files/515746.got.cif
#   From: 2010.06.25/outbox.cif.g09.slc.cpg/sg2_258_cif.got.tgz:515746.got - 2010.06.27 13:26:56.
