data_PCOD8041207
_publ_section_title
;
Structure prediction by ZEFSAII (Michael W. Deem and Ramdas Pophale) SiO2 
 PCOD8041207
Probable space group: P -1
;
_chemical_formula_sum "Si O2"
_cell_formula_units_Z 16
_cell_length_a 19.502819
_cell_length_b 20.043081
_cell_length_c 13.006295
_cell_angle_alpha 154.449009
_cell_angle_beta 42.414939
_cell_angle_gamma 154.052714
_cell_volume 884.827740
_symmetry_space_group_name_H-M "P -1"
_symmetry_group_IT_number 2
_symmetry_cell_setting 'triclinic'
loop_
_space_group_symop_operation_xyz
x,y,z
-x,-y,-z
loop_
_atom_site_type_symbol
_atom_site_label
_atom_site_fract_x
_atom_site_fract_y
_atom_site_fract_z
Si Si1 0.597012 0.555669 0.068860
Si Si2 0.766076 0.987957 0.779734
Si Si3 0.209120 0.626324 0.011318
Si Si4 0.132253 0.392889 0.983884
Si Si5 0.566019 0.937139 0.079614
Si Si6 0.578771 0.494019 0.223060
Si Si7 0.632114 0.237578 0.602620
Si Si8 0.144887 0.881986 0.372284
O O1 0.502002 0.465198 0.159435
O O2 0.778516 0.869449 0.314378
O O3 0.500000 0.500000 0.000000
O O4 0.602947 0.379961 0.803981
O O5 0.617719 0.678893 0.516621
O O6 0.801741 0.076588 0.746927
O O7 0.702871 0.061238 0.013765
O O8 0.932177 0.114424 0.824612
O O9 0.062253 0.371354 0.746771
O O10 0.170201 0.554423 0.073594
O O11 0.389700 0.766296 0.980504
O O12 0.220720 0.824875 0.265241
O O13 0.185658 0.547564 0.243928
O O14 0.241330 0.368839 0.816296
O O15 0.637161 0.163215 0.383396
O O16 0.549365 0.775887 0.954197
O O17 0.500000 0.000000 0.500000
#
# Coordination Sequence:
#
# PCOD8041207 Si02
#       8
#     2   2   2   2   2   2   2   2
#     4  10  19  31  55  80 102 128 175 224 250 298
#     4  10  20  32  48  80 103 131 173 220 262 306
#     4   9  17  33  53  75 103 138 169 216 264 303
#     4   9  18  32  55  71 101 136 173 219 251 306
#     4  11  20  31  52  74 106 138 168 213 267 310
#     4   9  18  34  51  75 100 134 172 214 257 310
#     4  11  19  34  51  77 103 139 179 206 258 315
#     4   9  19  33  52  79 102 132 181 213 257 312
#
# _framework density 18.082615000000001
#
# number of rings (size 3 to 8) (size 9 to 14) (size 15 to 20)
#    0.000    2.250    3.750    1.500    0.000    4.000 
#    0.000    0.000    0.000    0.000    0.000   14.875 
#    0.000    0.000    0.000    0.000    0.000    0.000 
#
# Total GULP energy -198218.520236 kJ/mol
# GULP energy per Si atom -12388.657515 kJ/mol
# Density = 1.804146 g / cm^3
# Si number density = 18.082615 Si / 1000 Ang^3
#
#
#
# Elastic Constant Matrix: (Units=GPa)
#
#
# Indices 1 2 3 4 5 6 
#
# 1 111.1020 19.4242 39.2113 4.2167 7.7955 -5.9709
# 2 19.4242 51.2765 25.5234 -14.2267 8.4225 5.9739
# 3 39.2113 25.5234 125.5329 -9.3991 4.3569 -6.6037
# 4 4.2167 -14.2267 -9.3991 21.9464 -5.3162 -3.6700
# 5 7.7955 8.4225 4.3569 -5.3162 32.8483 4.7471
# 6 -5.9709 5.9739 -6.6037 -3.6700 4.7471 12.2454
#
#
#
# Elastic Compliance Matrix: (Units=1/GPa)
#
#
# Indices 1 2 3 4 5 6 
#
# 1 0.011588 -0.005030 -0.002657 -0.006359 -0.002993 0.005926
# 2 -0.005030 0.029578 -0.003934 0.015837 -0.001319 -0.013746
# 3 -0.002657 -0.003934 0.010250 0.003519 -0.000203 0.007284
# 4 -0.006359 0.015837 0.003519 0.061171 0.005850 0.007136
# 5 -0.002993 -0.001319 -0.000203 0.005850 0.034265 -0.012456
# 6 0.005926 -0.013746 0.007284 0.007136 -0.012456 0.102154
#
#
# Mechanical properties :
#
#
# Convention : Reuss Voigt Hill
#
# Bulk Modulus (GPa) = 35.49583 50.69215 43.09399
# Shear Modulus (GPa) = 17.75313 26.99153 22.37233
#
# Velocity S-wave (km/s) = 3.13673 3.86771 3.52124
# Velocity P-wave (km/s) = 5.72636 6.93110 6.35733
#
# Compressibility (1/GPa) = 0.02817232
#
# Stress axis : x y z
#
# Youngs Moduli (GPa) = 86.29724 33.80906 97.56348
#
# Poissons Ratio (x) = 0.17006 0.25927
# Poissons Ratio (y) = 0.43407 0.38383
# Poissons Ratio (z) = 0.22933 0.13301
#
# Static dielectric constant tensor:
#      x y z
#    x 3.632950 -0.007180 0.207790 
#    y -0.007180 3.034040 0.164090 
#    z 0.207790 0.164090 3.667220 
# 
# 
# High freq. dielectric constant tensor:
#      x y z
#    x 1.708930 -0.011150 0.004310 
#    y -0.011150 1.651600 0.012660 
#    z 0.004310 0.012660 1.712980 
# 
# From -- ./inp_files/255073.got.cif
#   From: 2010.06.25/outbox.cif.g09.slc.cpg/sg2_128_cif.got.tgz:255073.got - 2010.06.27 13:26:56.
