data_PCOD8041846
_publ_section_title
;
Structure prediction by ZEFSAII (Michael W. Deem and Ramdas Pophale) SiO2 
 PCOD8041846
Probable space group: P -1
;
_chemical_formula_sum "Si O2"
_cell_formula_units_Z 12
_cell_length_a 21.215038
_cell_length_b 11.608796
_cell_length_c 8.948262
_cell_angle_alpha 40.466212
_cell_angle_beta 29.864959
_cell_angle_gamma 31.024567
_cell_volume 564.264023
_symmetry_space_group_name_H-M "P -1"
_symmetry_group_IT_number 2
_symmetry_cell_setting 'triclinic'
loop_
_space_group_symop_operation_xyz
x,y,z
-x,-y,-z
loop_
_atom_site_type_symbol
_atom_site_label
_atom_site_fract_x
_atom_site_fract_y
_atom_site_fract_z
Si Si1 0.433915 0.205468 0.226859
Si Si2 0.772978 0.300704 0.779932
Si Si3 0.620031 0.257960 0.569168
Si Si4 0.788723 0.359960 0.356876
Si Si5 0.082245 0.024276 0.942886
Si Si6 0.470421 0.799637 0.643230
O O1 0.273399 0.459295 0.315473
O O2 0.544251 0.154590 0.194516
O O3 0.391604 0.032005 0.486733
O O4 0.524408 0.174743 0.917525
O O5 0.834069 0.242579 0.542184
O O6 0.615958 0.309883 0.111289
O O7 0.906489 0.122972 0.796312
O O8 0.500000 0.500000 0.500000
O O9 0.717837 0.266008 0.492377
O O10 0.740866 0.068628 0.383337
O O11 0.657741 0.627637 0.379186
O O12 0.956765 0.281491 0.010197
O O13 0.000000 0.000000 0.000000
#
# Coordination Sequence:
#
# PCOD8041846 Si02
#       6
#     2   2   2   2   2   2
#     4  10  19  33  61  88 109 141 187 237 271 314
#     4  11  18  38  61  81 108 149 193 229 265 330
#     4  11  18  35  57  83 114 147 183 225 280 330
#     4  10  19  35  56  84 112 148 186 225 275 330
#     4  10  22  33  58  82 112 151 183 225 290 330
#     4  10  19  34  62  87 108 139 197 229 267 324
#
# _framework density 21.266642000000001
#
# number of rings (size 3 to 8) (size 9 to 14) (size 15 to 20)
#    0.000    1.667    5.000    1.500    0.000    0.000 
#    0.000    4.167    7.333    4.000    0.000    0.000 
#    0.000    0.000    0.000    0.000    0.000    0.000 
#
# Total GULP energy -148657.104638 kJ/mol
# GULP energy per Si atom -12388.092053 kJ/mol
# Density = 2.121824 g / cm^3
# Si number density = 21.266642 Si / 1000 Ang^3
#
#
#
# Elastic Constant Matrix: (Units=GPa)
#
#
# Indices 1 2 3 4 5 6 
#
# 1 78.0513 22.2278 14.7616 5.6905 24.9903 -12.5763
# 2 22.2278 107.4940 52.8785 14.3807 16.1769 7.5600
# 3 14.7616 52.8785 90.2823 21.8613 32.1931 12.4210
# 4 5.6905 14.3807 21.8613 44.7125 6.8755 8.0945
# 5 24.9903 16.1769 32.1931 6.8755 27.6231 1.3601
# 6 -12.5763 7.5600 12.4210 8.0945 1.3601 27.1788
#
#
#
# Elastic Compliance Matrix: (Units=1/GPa)
#
#
# Indices 1 2 3 4 5 6 
#
# 1 0.023564 -0.005130 0.008311 -0.003107 -0.027760 0.010847
# 2 -0.005130 0.014271 -0.010205 0.000174 0.008239 -0.002144
# 3 0.008311 -0.010205 0.030219 -0.006555 -0.034961 -0.003425
# 4 -0.003107 0.000174 -0.006555 0.026473 0.004083 -0.006579
# 5 -0.027760 0.008239 -0.034961 0.004083 0.096475 -0.005203
# 6 0.010847 -0.002144 -0.003425 -0.006579 -0.005203 0.046194
#
#
# Mechanical properties :
#
#
# Convention : Reuss Voigt Hill
#
# Bulk Modulus (GPa) = 18.51670 50.61815 34.56743
# Shear Modulus (GPa) = 18.57032 32.30020 25.43526
#
# Velocity S-wave (km/s) = 2.95822 3.90143 3.46210
# Velocity P-wave (km/s) = 4.51597 6.64441 5.68076
#
# Compressibility (1/GPa) = 0.05400530
#
# Stress axis : x y z
#
# Youngs Moduli (GPa) = 42.43823 70.07041 33.09127
#
# Poissons Ratio (x) = 0.35949 -0.27501
# Poissons Ratio (y) = 0.21772 0.33770
# Poissons Ratio (z) = -0.35269 0.71507
#
# Static dielectric constant tensor:
#      x y z
#    x 3.859960 -0.080710 0.507300 
#    y -0.080710 4.048400 0.408420 
#    z 0.507300 0.408420 4.015480 
# 
# 
# High freq. dielectric constant tensor:
#      x y z
#    x 1.835930 -0.009990 0.042520 
#    y -0.009990 1.830370 0.023220 
#    z 0.042520 0.023220 1.802850 
# 
# From -- ./inp_files/149364.got.cif
#   From: 2010.06.25/outbox.cif.g09.slc.cpg/sg2_75_cif.got.tgz:149364.got - 2010.06.27 13:26:56.
