data_PCOD8041425
_publ_section_title
;
Structure prediction by ZEFSAII (Michael W. Deem and Ramdas Pophale) SiO2 
 PCOD8041425
Probable space group: P -1
;
_chemical_formula_sum "Si O2"
_cell_formula_units_Z 12
_cell_length_a 9.102426
_cell_length_b 11.941139
_cell_length_c 10.232036
_cell_angle_alpha 115.497754
_cell_angle_beta 102.609906
_cell_angle_gamma 39.499591
_cell_volume 625.828952
_symmetry_space_group_name_H-M "P -1"
_symmetry_group_IT_number 2
_symmetry_cell_setting 'triclinic'
loop_
_space_group_symop_operation_xyz
x,y,z
-x,-y,-z
loop_
_atom_site_type_symbol
_atom_site_label
_atom_site_fract_x
_atom_site_fract_y
_atom_site_fract_z
Si Si1 0.573068 0.011441 0.660417
Si Si2 0.029430 0.046567 0.342429
Si Si3 0.138360 0.728936 0.307623
Si Si4 0.078085 0.389856 0.826314
Si Si5 0.804839 0.636986 0.643917
Si Si6 0.476279 0.628028 0.653842
O O1 0.790206 0.967565 0.681412
O O2 0.654362 0.855940 0.700965
O O3 0.500000 0.000000 0.500000
O O4 0.357060 0.229566 0.781885
O O5 0.939799 0.154122 0.516701
O O6 0.798652 0.172957 0.268836
O O7 0.151702 0.832927 0.259578
O O8 0.388501 0.497668 0.250190
O O9 0.952799 0.739808 0.240617
O O10 0.939656 0.548456 0.763701
O O11 0.000000 0.500000 0.000000
O O12 0.607989 0.654948 0.616063
O O13 0.000000 0.500000 0.500000
O O14 0.500000 0.500000 0.500000
#
# Coordination Sequence:
#
# PCOD8041425 Si02
#       6
#     2   2   2   2   2   2
#     4  12  22  36  61  90 120 152 204 250 291 350
#     4  10  19  32  57  88 112 149 197 253 288 343
#     4   9  18  34  56  82 116 153 193 238 300 345
#     4  11  24  41  60  88 125 160 196 245 307 359
#     4  11  21  37  63  90 118 155 205 252 289 350
#     4   9  18  29  51  84 117 144 188 245 298 336
#
# _framework density 19.174567
#
# number of rings (size 3 to 8) (size 9 to 14) (size 15 to 20)
#    0.000    1.667    3.333    3.000    4.667    2.000 
#    0.000    0.833    0.000    5.000    0.000    0.000 
#    0.000    0.000    0.000    0.000    0.000    0.000 
#
# Total GULP energy -148676.229594 kJ/mol
# GULP energy per Si atom -12389.685800 kJ/mol
# Density = 1.913093 g / cm^3
# Si number density = 19.174567 Si / 1000 Ang^3
#
#
#
# Elastic Constant Matrix: (Units=GPa)
#
#
# Indices 1 2 3 4 5 6 
#
# 1 150.2948 95.4962 10.0789 -8.2456 -7.1605 -6.9922
# 2 95.4962 154.8584 44.7964 -4.6281 -7.3958 6.9201
# 3 10.0789 44.7964 66.3750 -4.1992 -13.2865 -5.5416
# 4 -8.2456 -4.6281 -4.1992 18.4641 -2.4735 -5.8072
# 5 -7.1605 -7.3958 -13.2865 -2.4735 12.0014 2.9929
# 6 -6.9922 6.9201 -5.5416 -5.8072 2.9929 44.5340
#
#
#
# Elastic Compliance Matrix: (Units=1/GPa)
#
#
# Indices 1 2 3 4 5 6 
#
# 1 0.013990 -0.010421 0.008189 0.008670 0.011483 0.005194
# 2 -0.010421 0.015965 -0.012000 -0.006489 -0.009552 -0.005814
# 3 0.008189 -0.012000 0.029630 0.013651 0.031486 0.006502
# 4 0.008670 -0.006489 0.013651 0.066599 0.027290 0.010919
# 5 0.011483 -0.009552 0.031486 0.027290 0.124168 0.002419
# 6 0.005194 -0.005814 0.006502 0.010919 0.002419 0.026244
#
#
# Mechanical properties :
#
#
# Convention : Reuss Voigt Hill
#
# Bulk Modulus (GPa) = 32.13168 74.69680 53.41424
# Shear Modulus (GPa) = 15.85124 29.74366 22.79745
#
# Velocity S-wave (km/s) = 2.87832 3.94281 3.45184
# Velocity P-wave (km/s) = 5.27638 7.73100 6.61848
#
# Compressibility (1/GPa) = 0.03112193
#
# Stress axis : x y z
#
# Youngs Moduli (GPa) = 71.47951 62.63838 33.74908
#
# Poissons Ratio (x) = 0.65274 -0.27638
# Poissons Ratio (y) = 0.74487 0.40500
# Poissons Ratio (z) = -0.58537 0.75167
#
# Static dielectric constant tensor:
#      x y z
#    x 4.335990 -0.776770 0.069950 
#    y -0.776770 5.544180 -0.207820 
#    z 0.069950 -0.207820 2.950160 
# 
# 
# High freq. dielectric constant tensor:
#      x y z
#    x 1.761540 -0.001850 0.008740 
#    y -0.001850 1.774230 -0.003900 
#    z 0.008740 -0.003900 1.677770 
# 
# From -- ./inp_files/158874.got.cif
#   From: 2010.06.25/outbox.cif.g09.slc.cpg/sg2_80_cif.got.tgz:158874.got - 2010.06.27 13:26:56.
