data_PCOD8041959
_publ_section_title
;
Structure prediction by ZEFSAII (Michael W. Deem and Ramdas Pophale) SiO2 
 PCOD8041959
Probable space group: P -1
;
_chemical_formula_sum "Si O2"
_cell_formula_units_Z 16
_cell_length_a 4.960582
_cell_length_b 21.372462
_cell_length_c 7.327482
_cell_angle_alpha 99.870612
_cell_angle_beta 90.000019
_cell_angle_gamma 82.995738
_cell_volume 759.473600
_symmetry_space_group_name_H-M "P -1"
_symmetry_group_IT_number 2
_symmetry_cell_setting 'triclinic'
loop_
_space_group_symop_operation_xyz
x,y,z
-x,-y,-z
loop_
_atom_site_type_symbol
_atom_site_label
_atom_site_fract_x
_atom_site_fract_y
_atom_site_fract_z
Si Si1 0.880379 0.796254 0.524746
Si Si2 0.210210 0.934475 0.347232
Si Si3 0.020910 0.559530 0.400995
Si Si4 0.479090 0.440470 0.841465
Si Si5 0.137412 0.322042 0.283451
Si Si6 0.380379 0.796254 0.271507
Si Si7 0.710210 0.934475 0.587244
Si Si8 0.362588 0.677958 0.961409
O O1 0.862122 0.747300 0.663427
O O2 0.679964 0.786504 0.352141
O O3 0.810155 0.867017 0.652837
O O4 0.179964 0.786504 0.434363
O O5 0.310156 0.867017 0.214180
O O6 0.397285 0.936027 0.530503
O O7 0.897285 0.936027 0.405524
O O8 0.250000 1.000000 0.266255
O O9 0.329315 0.556394 0.332141
O O10 0.000000 0.500000 0.500000
O O11 0.829315 0.556394 0.224254
O O12 0.940720 0.625394 0.537608
O O13 0.500000 0.500000 0.000000
O O14 0.559279 0.374606 0.912214
O O15 0.434245 0.330435 0.213480
O O16 0.934245 0.330435 0.116955
O O17 0.362120 0.747300 0.083874
#
# Coordination Sequence:
#
# PCOD8041959 Si02
#       8
#     2   2   2   2   2   2   2   2
#     4  10  19  34  55  79 106 141 184 228 273 321
#     4   8  14  25  45  73 101 130 172 224 270 315
#     4  12  24  42  64  88 115 145 182 223 270 321
#     4  12  24  42  64  88 115 145 182 223 270 321
#     4  12  24  39  57  82 114 148 184 223 270 321
#     4  10  19  34  55  79 106 141 184 228 273 321
#     4   8  14  25  45  73 101 130 172 224 270 315
#     4  12  24  39  57  82 114 148 184 223 270 321
#
# _framework density 21.067225000000001
#
# number of rings (size 3 to 8) (size 9 to 14) (size 15 to 20)
#    0.000    1.500    0.000    6.750    0.000    0.000 
#    0.000    0.000    0.000    1.500    0.000    0.000 
#    0.000    0.000    0.000    0.000    0.000    0.000 
#
# Total GULP energy -198368.248119 kJ/mol
# GULP energy per Si atom -12398.015507 kJ/mol
# Density = 2.101927 g / cm^3
# Si number density = 21.067225 Si / 1000 Ang^3
#
#
#
# Elastic Constant Matrix: (Units=GPa)
#
#
# Indices 1 2 3 4 5 6 
#
# 1 71.7428 11.9692 5.5463 0.3998 -1.1755 0.1574
# 2 11.9692 158.9090 39.4006 8.4117 -2.6556 2.1226
# 3 5.5463 39.4006 56.8454 7.5519 3.3071 -0.9098
# 4 0.3998 8.4117 7.5519 32.2279 2.9858 -0.2954
# 5 -1.1755 -2.6556 3.3071 2.9858 40.8867 -1.8791
# 6 0.1574 2.1226 -0.9098 -0.2954 -1.8791 30.0520
#
#
#
# Elastic Compliance Matrix: (Units=1/GPa)
#
#
# Indices 1 2 3 4 5 6 
#
# 1 0.014153 -0.000863 -0.000834 0.000208 0.000403 -0.000011
# 2 -0.000863 0.007722 -0.005216 -0.000875 0.000933 -0.000649
# 3 -0.000834 -0.005216 0.021885 -0.003579 -0.001831 0.000886
# 4 0.000208 -0.000875 -0.003579 0.032290 -0.002113 0.000138
# 5 0.000403 0.000933 -0.001831 -0.002113 0.024897 0.001413
# 6 -0.000011 -0.000649 0.000886 0.000138 0.001413 0.033438
#
#
# Mechanical properties :
#
#
# Convention : Reuss Voigt Hill
#
# Bulk Modulus (GPa) = 33.40872 44.59219 39.00045
# Shear Modulus (GPa) = 31.60775 36.00538 33.80657
#
# Velocity S-wave (km/s) = 3.87761 4.13858 4.01022
# Velocity P-wave (km/s) = 5.99503 6.63699 6.32416
#
# Compressibility (1/GPa) = 0.02993231
#
# Stress axis : x y z
#
# Youngs Moduli (GPa) = 70.65824 129.50222 45.69428
#
# Poissons Ratio (x) = 0.11182 0.03809
# Poissons Ratio (y) = 0.06101 0.23836
# Poissons Ratio (z) = 0.05890 0.67553
#
# Static dielectric constant tensor:
#      x y z
#    x 4.087990 0.032780 0.064820 
#    y 0.032780 4.457960 0.180150 
#    z 0.064820 0.180150 3.277150 
# 
# 
# High freq. dielectric constant tensor:
#      x y z
#    x 1.848710 -0.000250 0.005930 
#    y -0.000250 1.859500 0.013850 
#    z 0.005930 0.013850 1.767470 
# 
# From -- ./inp_files/11430.got.cif
#   From: 2010.06.25/outbox.cif.g09.slc.cpg/sg2_6_cif.got.tgz:11430.got - 2010.06.27 13:26:56.
