data_PCOD8041297
_publ_section_title
;
Structure prediction by ZEFSAII (Michael W. Deem and Ramdas Pophale) SiO2 
 PCOD8041297
Probable space group: P -1
;
_chemical_formula_sum "Si O2"
_cell_formula_units_Z 16
_cell_length_a 18.879418
_cell_length_b 10.736644
_cell_length_c 5.404500
_cell_angle_alpha 94.953934
_cell_angle_beta 71.792519
_cell_angle_gamma 130.366994
_cell_volume 782.630308
_symmetry_space_group_name_H-M "P -1"
_symmetry_group_IT_number 2
_symmetry_cell_setting 'triclinic'
loop_
_space_group_symop_operation_xyz
x,y,z
-x,-y,-z
loop_
_atom_site_type_symbol
_atom_site_label
_atom_site_fract_x
_atom_site_fract_y
_atom_site_fract_z
Si Si1 0.371688 0.736012 0.596037
Si Si2 0.261178 0.224061 0.664817
Si Si3 0.975145 0.826256 0.523615
Si Si4 0.604676 0.472431 0.116455
Si Si5 0.946330 0.073845 0.044660
Si Si6 0.411450 0.048505 0.738358
Si Si7 0.238449 0.426210 0.413642
Si Si8 0.612075 0.827084 0.724109
O O1 0.379028 0.639345 0.779678
O O2 0.357431 0.854927 0.757488
O O3 0.275081 0.599806 0.511156
O O4 0.470872 0.842647 0.337771
O O5 0.356724 0.362737 0.751139
O O6 0.211362 0.296940 0.633628
O O7 0.298293 0.172339 0.398486
O O8 0.171942 0.063912 0.888919
O O9 0.858890 0.667302 0.663772
O O10 0.029918 0.828450 0.704869
O O11 0.000000 0.000000 0.500000
O O12 0.012461 0.805912 0.220247
O O13 0.489357 0.362582 0.164041
O O14 0.667834 0.534585 0.810829
O O15 0.000000 0.000000 0.000000
O O16 0.389009 0.092894 0.512402
O O17 0.369639 0.072374 0.030390
#
# Coordination Sequence:
#
# PCOD8041297 Si02
#       8
#     2   2   2   2   2   2   2   2
#     4   9  21  36  59  81 108 151 189 248 269 310
#     4  11  23  34  55  82 119 152 182 221 283 351
#     4  10  19  32  52  78 112 136 178 229 276 329
#     4  10  21  35  53  84 118 147 186 226 280 334
#     4  10  19  35  51  76 109 144 181 227 269 323
#     4  10  22  41  57  79 112 149 203 229 269 315
#     4  11  20  33  57  85 116 146 182 227 292 332
#     4  11  24  38  55  82 115 159 183 224 272 343
#
# _framework density 20.443881999999999
#
# number of rings (size 3 to 8) (size 9 to 14) (size 15 to 20)
#    0.000    1.750    3.750    1.875    5.250    2.000 
#    0.000    0.000    0.000    0.000    0.000    5.250 
#    0.000    0.000    0.000    0.000    0.000    0.000 
#
# Total GULP energy -198306.031333 kJ/mol
# GULP energy per Si atom -12394.126958 kJ/mol
# Density = 2.039735 g / cm^3
# Si number density = 20.443882 Si / 1000 Ang^3
#
#
#
# Elastic Constant Matrix: (Units=GPa)
#
#
# Indices 1 2 3 4 5 6 
#
# 1 30.4227 35.2188 22.9945 3.7612 -3.8449 6.2431
# 2 35.2188 107.7550 35.7956 12.7698 -13.4667 13.4203
# 3 22.9945 35.7956 128.5592 12.8113 1.5303 6.2498
# 4 3.7612 12.7698 12.8113 33.2504 5.9831 -4.6667
# 5 -3.8449 -13.4667 1.5303 5.9831 32.1617 0.7721
# 6 6.2431 13.4203 6.2498 -4.6667 0.7721 17.8415
#
#
#
# Elastic Compliance Matrix: (Units=1/GPa)
#
#
# Indices 1 2 3 4 5 6 
#
# 1 0.056719 -0.016125 -0.005497 0.001080 0.000222 -0.005519
# 2 -0.016125 0.017838 -0.000971 -0.007299 0.007177 -0.009654
# 3 -0.005497 -0.000971 0.009366 -0.002613 -0.000993 -0.001267
# 4 0.001080 -0.007299 -0.002613 0.037906 -0.010248 0.016386
# 5 0.000222 0.007177 -0.000993 -0.010248 0.036303 -0.009380
# 6 -0.005519 -0.009654 -0.001267 0.016386 -0.009380 0.070378
#
#
# Mechanical properties :
#
#
# Convention : Reuss Voigt Hill
#
# Bulk Modulus (GPa) = 25.81568 50.52831 38.17199
# Shear Modulus (GPa) = 17.44534 28.16591 22.80563
#
# Velocity S-wave (km/s) = 2.92435 3.71579 3.34357
# Velocity P-wave (km/s) = 4.90484 6.57105 5.79811
#
# Compressibility (1/GPa) = 0.03873614
#
# Stress axis : x y z
#
# Youngs Moduli (GPa) = 17.63069 56.06159 106.76891
#
# Poissons Ratio (x) = 0.90399 0.58693
# Poissons Ratio (y) = 0.28429 0.10370
# Poissons Ratio (z) = 0.09692 0.05445
#
# Static dielectric constant tensor:
#      x y z
#    x 2.780090 0.149170 -0.718100 
#    y 0.149170 3.845090 -0.080030 
#    z -0.718100 -0.080030 2.229630 
# 
# 
# High freq. dielectric constant tensor:
#      x y z
#    x 1.745430 0.025660 0.013370 
#    y 0.025660 1.789820 -0.001480 
#    z 0.013370 -0.001480 1.812200 
# 
# From -- ./inp_files/67151.got.cif
#   From: 2010.06.25/outbox.cif.g09.slc.cpg/sg2_34_cif.got.tgz:67151.got - 2010.06.27 13:26:56.
