data_PCOD8041823
_publ_section_title
;
Structure prediction by ZEFSAII (Michael W. Deem and Ramdas Pophale) SiO2 
 PCOD8041823
Probable space group: P -1
;
_chemical_formula_sum "Si O2"
_cell_formula_units_Z 14
_cell_length_a 9.515259
_cell_length_b 16.727846
_cell_length_c 10.924215
_cell_angle_alpha 50.437584
_cell_angle_beta 138.699608
_cell_angle_gamma 98.802762
_cell_volume 680.081666
_symmetry_space_group_name_H-M "P -1"
_symmetry_group_IT_number 2
_symmetry_cell_setting 'triclinic'
loop_
_space_group_symop_operation_xyz
x,y,z
-x,-y,-z
loop_
_atom_site_type_symbol
_atom_site_label
_atom_site_fract_x
_atom_site_fract_y
_atom_site_fract_z
Si Si1 0.627484 0.617103 0.971775
Si Si2 0.125464 0.591304 0.253620
Si Si3 0.815629 0.366536 0.475742
Si Si4 0.380083 0.099744 0.011164
Si Si5 0.651169 0.081304 0.971967
Si Si6 0.351002 0.704225 0.154127
Si Si7 0.750045 0.151206 0.306394
O O1 0.459356 0.608192 0.767929
O O2 0.421402 0.737297 0.811573
O O3 0.825705 0.476977 0.312890
O O4 0.816065 0.642838 0.001958
O O5 0.205595 0.616361 0.410476
O O6 0.141580 0.677176 0.079294
O O7 0.336267 0.434098 0.511673
O O8 0.086421 0.219482 0.758926
O O9 0.401488 0.135846 0.850799
O O10 0.621652 0.075794 0.275152
O O11 0.400368 0.967059 0.141036
O O12 0.658989 0.202704 0.838098
O O13 0.936737 0.955379 0.343444
O O14 0.258253 0.780229 0.890124
#
# Coordination Sequence:
#
# PCOD8041823 Si02
#       7
#     2   2   2   2   2   2   2
#     4  11  21  35  63  90 112 148 199 239 286 334
#     4  11  22  41  59  85 122 152 186 239 294 344
#     4  11  21  36  61  89 114 148 197 244 279 340
#     4  10  19  33  60  86 112 148 192 237 287 323
#     4  10  21  37  57  90 117 148 197 237 277 349
#     4  10  22  39  61  84 119 157 186 234 297 340
#     4  11  19  38  63  88 113 149 197 243 276 341
#
# _framework density 20.585761999999999
#
# number of rings (size 3 to 8) (size 9 to 14) (size 15 to 20)
#    0.000    1.429    4.286    3.857    0.000    0.000 
#    0.000   10.000    0.000    0.000    0.000    0.000 
#    0.000    0.000    0.000    0.000    0.000    0.000 
#
# Total GULP energy -173580.674714 kJ/mol
# GULP energy per Si atom -12398.619622 kJ/mol
# Density = 2.053891 g / cm^3
# Si number density = 20.585762 Si / 1000 Ang^3
#
#
#
# Elastic Constant Matrix: (Units=GPa)
#
#
# Indices 1 2 3 4 5 6 
#
# 1 165.9389 212.3021 -134.7986 79.4865 34.7792 -83.0036
# 2 212.3021 516.2435 -337.1066 175.3594 43.1731 -212.0482
# 3 -134.7986 -337.1066 438.9674 -194.6331 -33.8845 227.0714
# 4 79.4865 175.3594 -194.6331 131.0449 15.4249 -101.0065
# 5 34.7792 43.1731 -33.8845 15.4249 19.8606 -24.8547
# 6 -83.0036 -212.0482 227.0714 -101.0065 -24.8547 145.8341
#
#
#
# Elastic Compliance Matrix: (Units=1/GPa)
#
#
# Indices 1 2 3 4 5 6 
#
# 1 0.018000 -0.006671 0.000111 -0.003925 -0.021251 -0.005967
# 2 -0.006671 0.007750 -0.000778 -0.001531 0.005384 0.008541
# 3 0.000111 -0.000778 0.016320 0.010197 -0.003658 -0.020040
# 4 -0.003925 -0.001531 0.010197 0.024898 0.005582 -0.002142
# 5 -0.021251 0.005384 -0.003658 0.005582 0.091407 0.020874
# 6 -0.005967 0.008541 -0.020040 -0.002142 0.020874 0.049158
#
#
# Mechanical properties :
#
#
# Convention : Reuss Voigt Hill
#
# Bulk Modulus (GPa) = 36.50372 66.88261 51.69316
# Shear Modulus (GPa) = 21.61320 151.39812 86.50566
#
# Velocity S-wave (km/s) = 3.24375 8.58515 6.48948
# Velocity P-wave (km/s) = 5.63917 11.43824 9.01758
#
# Compressibility (1/GPa) = 0.02739447
#
# Stress axis : x y z
#
# Youngs Moduli (GPa) = 55.55565 129.02414 61.27497
#
# Poissons Ratio (x) = 0.86067 -0.00678
# Poissons Ratio (y) = 0.37059 0.04767
# Poissons Ratio (z) = -0.00614 0.10037
#
# Static dielectric constant tensor:
#      x y z
#    x 3.555700 -0.043670 0.251960 
#    y -0.043670 4.369180 -0.129270 
#    z 0.251960 -0.129270 3.500840 
# 
# 
# High freq. dielectric constant tensor:
#      x y z
#    x 1.786280 -0.003820 0.033890 
#    y -0.003820 1.833710 -0.007130 
#    z 0.033890 -0.007130 1.782650 
# 
# From -- ./inp_files/260850.got.cif
#   From: 2010.06.25/outbox.cif.g09.slc.cpg/sg2_131_cif.got.tgz:260850.got - 2010.06.27 13:26:56.
