data_PCOD8041041
_publ_section_title
;
Structure prediction by ZEFSAII (Michael W. Deem and Ramdas Pophale) SiO2 
 PCOD8041041
Probable space group: P -1
;
_chemical_formula_sum "Si O2"
_cell_formula_units_Z 16
_cell_length_a 16.956401
_cell_length_b 17.144518
_cell_length_c 15.119279
_cell_angle_alpha 134.690390
_cell_angle_beta 133.840355
_cell_angle_gamma 16.692316
_cell_volume 893.617588
_symmetry_space_group_name_H-M "P -1"
_symmetry_group_IT_number 2
_symmetry_cell_setting 'triclinic'
loop_
_space_group_symop_operation_xyz
x,y,z
-x,-y,-z
loop_
_atom_site_type_symbol
_atom_site_label
_atom_site_fract_x
_atom_site_fract_y
_atom_site_fract_z
Si Si1 0.639523 0.104945 0.036513
Si Si2 0.591841 0.334794 0.863093
Si Si3 0.761776 0.784052 0.588448
Si Si4 0.812827 0.330899 0.948304
Si Si5 0.954361 0.248990 0.192181
Si Si6 0.021274 0.438664 0.822167
Si Si7 0.416255 0.069753 0.237306
Si Si8 0.761236 0.839895 0.065311
O O1 0.686513 0.955926 0.891286
O O2 0.360946 0.424612 0.051253
O O3 0.647900 0.057151 0.107473
O O4 0.891316 0.955874 0.096389
O O5 0.674348 0.337270 0.846861
O O6 0.330101 0.496124 0.767115
O O7 0.500000 0.500000 0.000000
O O8 0.860302 0.025864 0.860257
O O9 0.000000 0.500000 0.500000
O O10 0.858547 0.820150 0.693531
O O11 0.500000 0.000000 0.500000
O O12 0.677046 0.820446 0.648482
O O13 0.856139 0.341583 0.088193
O O14 0.256012 0.229843 0.762588
O O15 0.097476 0.270102 0.815800
O O16 0.730053 0.700066 0.752737
O O17 0.999780 0.567843 0.970264
O O18 0.500000 0.000000 0.000000
#
# Coordination Sequence:
#
# PCOD8041041 Si02
#       8
#     2   2   2   2   2   2   2   2
#     4  11  20  28  48  72 103 139 170 206 244 301
#     4  10  20  33  52  73  96 129 177 219 256 310
#     4  12  26  38  54  76 103 137 186 234 266 297
#     4  11  20  31  49  74 100 132 178 207 248 308
#     4  11  21  36  53  69  99 137 175 222 268 300
#     4  10  19  31  48  66  94 138 178 204 238 308
#     4  11  21  34  50  66  98 141 180 207 260 293
#     4  10  19  29  45  72 103 134 180 199 239 304
#
# _framework density 17.90475
#
# number of rings (size 3 to 8) (size 9 to 14) (size 15 to 20)
#    0.000    1.250    3.750    6.750    3.500    0.000 
#    0.000    0.000    0.000    0.000    0.000    0.000 
#    0.000    0.000    0.000   78.750    0.000    0.000 
#
# Total GULP energy -198208.950815 kJ/mol
# GULP energy per Si atom -12388.059426 kJ/mol
# Density = 1.786400 g / cm^3
# Si number density = 17.904750 Si / 1000 Ang^3
#
#
#
# Elastic Constant Matrix: (Units=GPa)
#
#
# Indices 1 2 3 4 5 6 
#
# 1 81.7140 28.9343 21.9701 -5.0037 2.0677 6.4595
# 2 28.9343 117.4202 16.4334 -5.3609 -2.2352 7.7631
# 3 21.9701 16.4334 38.6459 -6.5739 -4.9267 3.2967
# 4 -5.0037 -5.3609 -6.5739 26.6393 -8.1655 -2.8715
# 5 2.0677 -2.2352 -4.9267 -8.1655 24.7212 -3.0772
# 6 6.4595 7.7631 3.2967 -2.8715 -3.0772 45.2262
#
#
#
# Elastic Compliance Matrix: (Units=1/GPa)
#
#
# Indices 1 2 3 4 5 6 
#
# 1 0.015548 -0.002700 -0.008190 -0.000926 -0.003665 -0.001468
# 2 -0.002700 0.009616 -0.002178 0.001058 0.000889 -0.000979
# 3 -0.008190 -0.002178 0.034456 0.009832 0.010650 0.000381
# 4 -0.000926 0.001058 0.009832 0.045780 0.017670 0.003343
# 5 -0.003665 0.000889 0.010650 0.017670 0.049304 0.004071
# 6 -0.001468 -0.000979 0.000381 0.003343 0.004071 0.022950
#
#
# Mechanical properties :
#
#
# Convention : Reuss Voigt Hill
#
# Bulk Modulus (GPa) = 29.86473 41.38396 35.62434
# Shear Modulus (GPa) = 23.26103 30.68016 26.97060
#
# Velocity S-wave (km/s) = 3.60829 4.14396 3.88537
# Velocity P-wave (km/s) = 5.83744 6.78676 6.32992
#
# Compressibility (1/GPa) = 0.03348431
#
# Stress axis : x y z
#
# Youngs Moduli (GPa) = 64.31651 103.98891 29.02270
#
# Poissons Ratio (x) = 0.28077 0.23771
# Poissons Ratio (y) = 0.17365 0.06320
# Poissons Ratio (z) = 0.52678 0.22644
#
# Static dielectric constant tensor:
#      x y z
#    x 3.968870 -0.085130 -0.049880 
#    y -0.085130 3.722670 -0.177010 
#    z -0.049880 -0.177010 2.789570 
# 
# 
# High freq. dielectric constant tensor:
#      x y z
#    x 1.705790 -0.002950 -0.009700 
#    y -0.002950 1.728700 -0.008570 
#    z -0.009700 -0.008570 1.602360 
# 
# From -- ./inp_files/534372.got.cif
#   From: 2010.06.25/outbox.cif.g09.slc.cpg/sg2_268_cif.got.tgz:534372.got - 2010.06.27 13:26:56.
