data_PCOD8041619
_publ_section_title
;
Structure prediction by ZEFSAII (Michael W. Deem and Ramdas Pophale) SiO2 
 PCOD8041619
Probable space group: P -1
;
_chemical_formula_sum "Si O2"
_cell_formula_units_Z 16
_cell_length_a 24.399590
_cell_length_b 11.474207
_cell_length_c 14.335092
_cell_angle_alpha 129.140047
_cell_angle_beta 151.369287
_cell_angle_gamma 31.833811
_cell_volume 904.295137
_symmetry_space_group_name_H-M "P -1"
_symmetry_group_IT_number 2
_symmetry_cell_setting 'triclinic'
loop_
_space_group_symop_operation_xyz
x,y,z
-x,-y,-z
loop_
_atom_site_type_symbol
_atom_site_label
_atom_site_fract_x
_atom_site_fract_y
_atom_site_fract_z
Si Si1 0.017939 0.464441 0.399748
Si Si2 0.185179 0.731746 0.247399
Si Si3 0.558057 0.469820 0.322262
Si Si4 0.854779 0.176787 0.099687
Si Si5 0.745525 0.519850 0.954507
Si Si6 0.964329 0.219095 0.474490
Si Si7 0.303773 0.675594 0.746480
Si Si8 0.330390 0.888135 0.558059
O O1 0.059062 0.580707 0.474144
O O2 0.000000 0.500000 0.500000
O O3 0.193085 0.171785 0.497216
O O4 0.826719 0.601953 0.134520
O O5 0.362363 0.502571 0.463642
O O6 0.159880 0.645574 0.080914
O O7 0.228189 0.856379 0.333903
O O8 0.999918 0.919846 0.130874
O O9 0.653522 0.416871 0.341979
O O10 0.619451 0.233188 0.324842
O O11 0.332902 0.721902 0.107003
O O12 0.943379 0.144613 0.311165
O O13 0.809055 0.366229 0.063444
O O14 0.520324 0.747681 0.720567
O O15 0.801844 0.349008 0.371392
O O16 0.169902 0.963358 0.694436
O O17 0.500000 0.500000 0.000000
#
# Coordination Sequence:
#
# PCOD8041619 Si02
#       8
#     2   2   2   2   2   2   2   2
#     4  12  22  36  53  81 123 153 173 218 279 345
#     4  10  19  33  55  82 117 142 191 228 266 327
#     4   9  19  33  54  85 109 140 186 233 274 315
#     4  11  18  33  55  83 113 144 179 226 282 321
#     4  11  21  33  54  84 117 154 181 216 276 338
#     4  11  23  36  56  86 114 146 185 225 279 337
#     4  11  21  38  59  80 109 144 193 237 273 318
#     4   9  21  34  55  81 116 146 182 221 279 326
#
# _framework density 17.693339000000002
#
# number of rings (size 3 to 8) (size 9 to 14) (size 15 to 20)
#    0.750    0.750    5.000    1.500    0.000    1.500 
#    0.000    0.000    0.000    0.750    0.000    2.625 
#    0.000    0.000    0.000    0.000    0.000    0.000 
#
# Total GULP energy -198271.026013 kJ/mol
# GULP energy per Si atom -12391.939126 kJ/mol
# Density = 1.765307 g / cm^3
# Si number density = 17.693339 Si / 1000 Ang^3
#
#
#
# Elastic Constant Matrix: (Units=GPa)
#
#
# Indices 1 2 3 4 5 6 
#
# 1 106.9782 41.0524 43.7374 8.0672 11.6296 -10.0775
# 2 41.0524 65.5216 44.3928 8.4312 5.9172 -9.3022
# 3 43.7374 44.3928 107.1653 -5.5597 8.3564 -8.3533
# 4 8.0672 8.4312 -5.5597 26.1619 -4.3870 0.2035
# 5 11.6296 5.9172 8.3564 -4.3870 27.7240 -6.5146
# 6 -10.0775 -9.3022 -8.3533 0.2035 -6.5146 22.8134
#
#
#
# Elastic Compliance Matrix: (Units=1/GPa)
#
#
# Indices 1 2 3 4 5 6 
#
# 1 0.013495 -0.005313 -0.003079 -0.003755 -0.003814 0.001612
# 2 -0.005313 0.026527 -0.008816 -0.008994 -0.001017 0.005032
# 3 -0.003079 -0.008816 0.014627 0.006884 -0.000071 0.000320
# 4 -0.003755 -0.008994 0.006884 0.045153 0.008373 -0.000817
# 5 -0.003814 -0.001017 -0.000071 0.008373 0.041501 0.009651
# 6 0.001612 0.005032 0.000320 -0.000817 0.009651 0.049478
#
#
# Mechanical properties :
#
#
# Convention : Reuss Voigt Hill
#
# Bulk Modulus (GPa) = 49.41828 59.78114 54.59971
# Shear Modulus (GPa) = 21.55728 25.37202 23.46465
#
# Velocity S-wave (km/s) = 3.49432 3.79091 3.64563
# Velocity P-wave (km/s) = 6.65368 7.28162 6.97472
#
# Compressibility (1/GPa) = 0.02023543
#
# Stress axis : x y z
#
# Youngs Moduli (GPa) = 74.10255 37.69734 68.36539
#
# Poissons Ratio (x) = 0.20028 0.21047
# Poissons Ratio (y) = 0.39369 0.60268
# Poissons Ratio (z) = 0.22813 0.33232
#
# Static dielectric constant tensor:
#      x y z
#    x 3.351810 -0.092240 0.035960 
#    y -0.092240 3.175790 -0.195050 
#    z 0.035960 -0.195050 3.597980 
# 
# 
# High freq. dielectric constant tensor:
#      x y z
#    x 1.675390 -0.022810 -0.000190 
#    y -0.022810 1.646110 -0.021970 
#    z -0.000190 -0.021970 1.701420 
# 
# From -- ./inp_files/542814.got.cif
#   From: 2010.06.25/outbox.cif.g09.slc.cpg/sg2_272_cif.got.tgz:542814.got - 2010.06.27 13:26:56.
