data_PCOD8041975
_publ_section_title
;
Structure prediction by ZEFSAII (Michael W. Deem and Ramdas Pophale) SiO2 
 PCOD8041975
Probable space group: P -1
;
_chemical_formula_sum "Si O2"
_cell_formula_units_Z 14
_cell_length_a 12.474875
_cell_length_b 9.412761
_cell_length_c 15.297598
_cell_angle_alpha 83.241074
_cell_angle_beta 53.994283
_cell_angle_gamma 128.040157
_cell_volume 752.675077
_symmetry_space_group_name_H-M "P -1"
_symmetry_group_IT_number 2
_symmetry_cell_setting 'triclinic'
loop_
_space_group_symop_operation_xyz
x,y,z
-x,-y,-z
loop_
_atom_site_type_symbol
_atom_site_label
_atom_site_fract_x
_atom_site_fract_y
_atom_site_fract_z
Si Si1 0.978485 0.816570 0.056982
Si Si2 0.325240 0.421717 0.263643
Si Si3 0.789852 0.748984 0.320728
Si Si4 0.207318 0.347544 0.017980
Si Si5 0.577997 0.921380 0.071492
Si Si6 0.014302 0.129169 0.600260
Si Si7 0.424647 0.093178 0.126083
O O1 0.796619 0.650272 0.240879
O O2 0.859175 0.628220 0.042632
O O3 0.000000 0.000000 0.000000
O O4 0.232470 0.969404 0.954633
O O5 0.600996 0.605939 0.100709
O O6 0.331980 0.591324 0.214825
O O7 0.255807 0.363729 0.404087
O O8 0.107349 0.139628 0.335355
O O9 0.500000 0.500000 0.500000
O O10 0.908499 0.778365 0.344011
O O11 0.951002 0.043424 0.204642
O O12 0.334521 0.576735 0.007159
O O13 0.504153 0.012121 0.130349
O O14 0.676317 0.012269 0.917628
O O15 0.798156 0.051141 0.693541
#
# Coordination Sequence:
#
# PCOD8041975 Si02
#       7
#     2   2   2   2   2   2   2
#     4  10  19  34  55  83 107 143 182 228 270 316
#     4  10  19  34  59  81 112 139 186 227 275 313
#     4  11  20  31  57  84 108 141 186 229 271 320
#     4  10  20  37  56  84 111 143 182 230 274 323
#     4  11  20  36  59  82 110 151 179 223 271 337
#     4  10  20  34  54  87 110 142 181 234 267 319
#     4  10  22  37  57  83 112 147 185 217 279 327
#
# _framework density 18.600321999999998
#
# number of rings (size 3 to 8) (size 9 to 14) (size 15 to 20)
#    0.000    1.714    4.286    1.714    2.000    3.429 
#    0.000    0.000    0.000    0.857    0.000    0.000 
#    0.000    0.000    0.000    0.000    0.000    0.000 
#
# Total GULP energy -173451.517948 kJ/mol
# GULP energy per Si atom -12389.394139 kJ/mol
# Density = 1.855799 g / cm^3
# Si number density = 18.600322 Si / 1000 Ang^3
#
#
#
# Elastic Constant Matrix: (Units=GPa)
#
#
# Indices 1 2 3 4 5 6 
#
# 1 94.8376 35.8585 31.0313 0.0064 -1.5835 -2.0880
# 2 35.8585 74.4650 34.8899 3.5291 -6.4851 -12.5435
# 3 31.0313 34.8899 114.9857 -4.0831 -3.7310 -10.6998
# 4 0.0064 3.5291 -4.0831 22.4405 4.9532 7.0851
# 5 -1.5835 -6.4851 -3.7310 4.9532 19.6278 4.4818
# 6 -2.0880 -12.5435 -10.6998 7.0851 4.4818 37.5096
#
#
#
# Elastic Compliance Matrix: (Units=1/GPa)
#
#
# Indices 1 2 3 4 5 6 
#
# 1 0.013406 -0.006048 -0.001953 0.001481 -0.001212 -0.001968
# 2 -0.006048 0.020019 -0.003957 -0.006997 0.005802 0.005857
# 3 -0.001953 -0.003957 0.010607 0.002236 -0.000288 0.001206
# 4 0.001481 -0.006997 0.002236 0.051990 -0.012619 -0.009932
# 5 -0.001212 0.005802 -0.000288 -0.012619 0.056485 -0.002575
# 6 -0.001968 0.005857 0.001206 -0.009932 -0.002575 0.031037
#
#
# Mechanical properties :
#
#
# Convention : Reuss Voigt Hill
#
# Bulk Modulus (GPa) = 49.71161 54.20531 51.95846
# Shear Modulus (GPa) = 23.34629 28.08280 25.71455
#
# Velocity S-wave (km/s) = 3.54666 3.88983 3.72220
# Velocity P-wave (km/s) = 6.59969 7.02708 6.81674
#
# Compressibility (1/GPa) = 0.02011602
#
# Stress axis : x y z
#
# Youngs Moduli (GPa) = 74.59086 49.95144 94.27994
#
# Poissons Ratio (x) = 0.30212 0.18410
# Poissons Ratio (y) = 0.45114 0.37310
# Poissons Ratio (z) = 0.14565 0.19767
#
# Static dielectric constant tensor:
#      x y z
#    x 3.568550 0.324440 0.063660 
#    y 0.324440 3.565430 0.101540 
#    z 0.063660 0.101540 3.422040 
# 
# 
# High freq. dielectric constant tensor:
#      x y z
#    x 1.712790 0.021720 0.004760 
#    y 0.021720 1.710950 0.008030 
#    z 0.004760 0.008030 1.715620 
# 
# From -- ./inp_files/165528.got.cif
#   From: 2010.06.25/outbox.cif.g09.slc.cpg/sg2_83_cif.got.tgz:165528.got - 2010.06.27 13:26:56.
