data_PCOD8041639
_publ_section_title
;
Structure prediction by ZEFSAII (Michael W. Deem and Ramdas Pophale) SiO2 
 PCOD8041639
Probable space group: P -1
;
_chemical_formula_sum "Si O2"
_cell_formula_units_Z 14
_cell_length_a 11.533851
_cell_length_b 10.786824
_cell_length_c 9.968044
_cell_angle_alpha 78.314618
_cell_angle_beta 140.999523
_cell_angle_gamma 81.472631
_cell_volume 663.647186
_symmetry_space_group_name_H-M "P -1"
_symmetry_group_IT_number 2
_symmetry_cell_setting 'triclinic'
loop_
_space_group_symop_operation_xyz
x,y,z
-x,-y,-z
loop_
_atom_site_type_symbol
_atom_site_label
_atom_site_fract_x
_atom_site_fract_y
_atom_site_fract_z
Si Si1 0.820545 0.152289 0.247888
Si Si2 0.925679 0.636017 0.248449
Si Si3 0.485948 0.106061 0.080446
Si Si4 0.749112 0.443971 0.215864
Si Si5 0.379527 0.087010 0.503864
Si Si6 0.972763 0.807453 0.028193
Si Si7 0.261077 0.876661 0.124122
O O1 0.597676 0.195662 0.110229
O O2 0.867880 0.281795 0.296372
O O3 0.806161 0.141324 0.079202
O O4 0.000000 0.000000 0.500000
O O5 0.804867 0.541955 0.144401
O O6 0.992464 0.669506 0.156641
O O7 0.143193 0.554599 0.546117
O O8 0.760758 0.787386 0.137401
O O9 0.608733 0.019380 0.343558
O O10 0.500000 0.000000 0.000000
O O11 0.500000 0.500000 0.000000
O O12 0.485563 0.183374 0.627389
O O13 0.500000 0.000000 0.500000
O O14 0.138340 0.185131 0.217026
O O15 0.200980 0.788495 0.197239
O O16 0.852127 0.951789 0.979464
#
# Coordination Sequence:
#
# PCOD8041639 Si02
#       7
#     2   2   2   2   2   2   2
#     4  12  23  39  65  96 129 164 219 273 325 372
#     4  11  23  42  63  91 128 173 220 264 318 393
#     4  12  20  36  64  99 133 163 208 279 324 365
#     4  11  25  43  64  93 128 174 216 263 330 394
#     4  10  19  33  55  93 128 160 206 255 322 379
#     4  10  20  37  61  91 128 167 209 265 326 376
#     4  10  20  35  56  92 126 159 208 268 309 380
#
# _framework density 21.095545999999999
#
# number of rings (size 3 to 8) (size 9 to 14) (size 15 to 20)
#    0.000    1.143    5.714    2.571    0.000    3.429 
#    0.000    0.714    0.000    1.714    0.000    0.000 
#    0.000    0.000    0.000    0.000    0.000    0.000 
#
# Total GULP energy -173533.628847 kJ/mol
# GULP energy per Si atom -12395.259203 kJ/mol
# Density = 2.104753 g / cm^3
# Si number density = 21.095546 Si / 1000 Ang^3
#
#
#
# Elastic Constant Matrix: (Units=GPa)
#
#
# Indices 1 2 3 4 5 6 
#
# 1 121.9029 42.3048 36.6582 0.6293 -13.3952 40.8981
# 2 42.3048 105.9536 34.1985 9.4172 -9.4771 26.3291
# 3 36.6582 34.1985 88.0479 7.3946 -6.1189 12.1977
# 4 0.6293 9.4172 7.3946 28.8596 2.7781 -1.8520
# 5 -13.3952 -9.4771 -6.1189 2.7781 42.1007 2.2908
# 6 40.8981 26.3291 12.1977 -1.8520 2.2908 41.2827
#
#
#
# Elastic Compliance Matrix: (Units=1/GPa)
#
#
# Indices 1 2 3 4 5 6 
#
# 1 0.014431 -0.000985 -0.003487 -0.000370 0.004590 -0.012909
# 2 -0.000985 0.013192 -0.003220 -0.004169 0.002835 -0.006831
# 3 -0.003487 -0.003220 0.014120 -0.002443 0.000313 0.001210
# 4 -0.000370 -0.004169 -0.002443 0.037411 -0.004188 0.005658
# 5 0.004590 0.002835 0.000313 -0.004188 0.026614 -0.008112
# 6 -0.012909 -0.006831 0.001210 0.005658 -0.008112 0.041715
#
#
# Mechanical properties :
#
#
# Convention : Reuss Voigt Hill
#
# Bulk Modulus (GPa) = 37.93985 60.24749 49.09367
# Shear Modulus (GPa) = 29.12814 35.96481 32.54648
#
# Velocity S-wave (km/s) = 3.71991 4.13347 3.93213
# Velocity P-wave (km/s) = 6.03938 7.16952 6.62858
#
# Compressibility (1/GPa) = 0.02635751
#
# Stress axis : x y z
#
# Youngs Moduli (GPa) = 69.29497 75.80095 70.82384
#
# Poissons Ratio (x) = 0.07467 0.24698
# Poissons Ratio (y) = 0.06826 0.22808
# Poissons Ratio (z) = 0.24165 0.24411
#
# Static dielectric constant tensor:
#      x y z
#    x 4.123540 0.468380 0.242610 
#    y 0.468380 3.694710 0.265430 
#    z 0.242610 0.265430 4.068490 
# 
# 
# High freq. dielectric constant tensor:
#      x y z
#    x 1.840920 0.026520 0.000050 
#    y 0.026520 1.798440 0.023140 
#    z 0.000050 0.023140 1.822850 
# 
# From -- ./inp_files/258311.got.cif
#   From: 2010.06.25/outbox.cif.g09.slc.cpg/sg2_130_cif.got.tgz:258311.got - 2010.06.27 13:26:56.
