data_PCOD8041146
_publ_section_title
;
Structure prediction by ZEFSAII (Michael W. Deem and Ramdas Pophale) SiO2 
 PCOD8041146
Probable space group: P -1
;
_chemical_formula_sum "Si O2"
_cell_formula_units_Z 16
_cell_length_a 11.969152
_cell_length_b 11.258105
_cell_length_c 16.672897
_cell_angle_alpha 42.809081
_cell_angle_beta 130.975401
_cell_angle_gamma 97.030229
_cell_volume 824.217435
_symmetry_space_group_name_H-M "P -1"
_symmetry_group_IT_number 2
_symmetry_cell_setting 'triclinic'
loop_
_space_group_symop_operation_xyz
x,y,z
-x,-y,-z
loop_
_atom_site_type_symbol
_atom_site_label
_atom_site_fract_x
_atom_site_fract_y
_atom_site_fract_z
Si Si1 0.982935 0.484855 0.221284
Si Si2 0.777039 0.253080 0.082095
Si Si3 0.713892 0.798122 0.634825
Si Si4 0.434559 0.256018 0.168696
Si Si5 0.913102 0.231194 0.894267
Si Si6 0.842694 0.968701 0.729255
Si Si7 0.163630 0.002113 0.611995
Si Si8 0.574281 0.526082 0.702133
O O1 0.078204 0.355098 0.243754
O O2 0.067708 0.606141 0.228780
O O3 0.063018 0.278108 0.426200
O O4 0.733106 0.693334 0.995394
O O5 0.012347 0.082626 0.248167
O O6 0.780924 0.084459 0.226641
O O7 0.686409 0.492997 0.966882
O O8 0.635148 0.338318 0.893975
O O9 0.736659 0.879797 0.689700
O O10 0.673165 0.631460 0.720726
O O11 0.519887 0.036754 0.376464
O O12 0.623948 0.184966 0.244742
O O13 0.676013 0.386272 0.733509
O O14 0.040169 0.166764 0.066764
O O15 0.000000 0.000000 0.000000
O O16 0.672350 0.257720 0.526651
O O17 0.000000 0.000000 0.500000
#
# Coordination Sequence:
#
# PCOD8041146 Si02
#       8
#     2   2   2   2   2   2   2   2
#     4  10  21  35  55  79 115 152 178 224 268 319
#     4  11  21  30  48  79 115 146 179 208 254 331
#     4  10  19  31  50  85 113 137 179 213 281 341
#     4  11  19  32  52  79 119 153 176 212 262 330
#     4  10  24  41  57  80 106 141 194 234 272 321
#     4  11  20  33  55  81 109 143 176 220 285 331
#     4  11  22  32  49  82 120 155 179 205 266 334
#     4  10  22  33  55  79 111 144 172 232 277 325
#
# _framework density 19.412354000000001
#
# number of rings (size 3 to 8) (size 9 to 14) (size 15 to 20)
#    0.000    1.500    3.750    2.250    1.750    2.000 
#    0.000    0.000    0.000    3.000    0.000    5.250 
#    0.000    0.000    0.000    0.000    0.000    0.000 
#
# Total GULP energy -198338.618988 kJ/mol
# GULP energy per Si atom -12396.163687 kJ/mol
# Density = 1.936817 g / cm^3
# Si number density = 19.412354 Si / 1000 Ang^3
#
#
#
# Elastic Constant Matrix: (Units=GPa)
#
#
# Indices 1 2 3 4 5 6 
#
# 1 104.3786 25.6974 52.7063 -13.5054 1.0954 -3.9624
# 2 25.6974 62.3079 29.9443 -29.6736 -6.2344 -7.7032
# 3 52.7063 29.9443 116.0418 -15.4300 5.6622 0.9775
# 4 -13.5054 -29.6736 -15.4300 23.1944 -5.2223 2.6229
# 5 1.0954 -6.2344 5.6622 -5.2223 49.0399 -9.1684
# 6 -3.9624 -7.7032 0.9775 2.6229 -9.1684 15.3020
#
#
#
# Elastic Compliance Matrix: (Units=1/GPa)
#
#
# Indices 1 2 3 4 5 6 
#
# 1 0.012999 -0.001043 -0.005383 0.002516 0.001105 0.003416
# 2 -0.001043 0.062138 -0.006861 0.075825 0.022793 0.032109
# 3 -0.005383 -0.006861 0.012614 -0.003577 -0.003977 -0.007424
# 4 0.002516 0.075825 -0.003577 0.142497 0.031426 0.033455
# 5 0.001105 0.022793 -0.003977 0.031426 0.031880 0.025729
# 6 0.003416 0.032109 -0.007424 0.033455 0.025729 0.092555
#
#
# Mechanical properties :
#
#
# Convention : Reuss Voigt Hill
#
# Bulk Modulus (GPa) = 16.34613 55.49159 35.91886
# Shear Modulus (GPa) = 12.44863 29.13263 20.79063
#
# Velocity S-wave (km/s) = 2.53509 3.87812 3.27616
# Velocity P-wave (km/s) = 4.12403 6.97860 5.73186
#
# Compressibility (1/GPa) = 0.06117656
#
# Stress axis : x y z
#
# Youngs Moduli (GPa) = 76.92783 16.09329 79.27586
#
# Poissons Ratio (x) = 0.01678 0.42676
# Poissons Ratio (y) = 0.08023 0.54392
# Poissons Ratio (z) = 0.41412 0.11042
#
# Static dielectric constant tensor:
#      x y z
#    x 3.799380 -0.135050 0.129240 
#    y -0.135050 2.986640 -0.172630 
#    z 0.129240 -0.172630 4.017260 
# 
# 
# High freq. dielectric constant tensor:
#      x y z
#    x 1.763080 -0.009480 0.011180 
#    y -0.009480 1.685650 -0.013450 
#    z 0.011180 -0.013450 1.780200 
# 
# From -- ./inp_files/436890.got.cif
#   From: 2010.06.25/outbox.cif.g09.slc.cpg/sg2_219_cif.got.tgz:436890.got - 2010.06.27 13:26:56.
