data_PCOD8041427
_publ_section_title
;
Structure prediction by ZEFSAII (Michael W. Deem and Ramdas Pophale) SiO2 
 PCOD8041427
Probable space group: P -1
;
_chemical_formula_sum "Si O2"
_cell_formula_units_Z 16
_cell_length_a 16.942139
_cell_length_b 20.347140
_cell_length_c 8.775149
_cell_angle_alpha 28.695992
_cell_angle_beta 122.744559
_cell_angle_gamma 143.281684
_cell_volume 716.443575
_symmetry_space_group_name_H-M "P -1"
_symmetry_group_IT_number 2
_symmetry_cell_setting 'triclinic'
loop_
_space_group_symop_operation_xyz
x,y,z
-x,-y,-z
loop_
_atom_site_type_symbol
_atom_site_label
_atom_site_fract_x
_atom_site_fract_y
_atom_site_fract_z
Si Si1 0.482277 0.031357 0.746794
Si Si2 0.773935 0.443733 0.705221
Si Si3 0.182562 0.520242 0.975752
Si Si4 0.410981 0.244165 0.270367
Si Si5 0.958951 0.409060 0.473338
Si Si6 0.691302 0.880932 0.242266
Si Si7 0.364395 0.442197 0.631148
Si Si8 0.732817 0.667673 0.589886
O O1 0.653952 0.259376 0.389822
O O2 0.371544 0.038142 0.612461
O O3 0.396546 0.814212 0.001540
O O4 0.500000 0.000000 0.000000
O O5 0.767782 0.601430 0.367425
O O6 0.912567 0.549484 0.528881
O O7 0.801372 0.425510 0.941779
O O8 0.040951 0.449116 0.909831
O O9 0.140909 0.308852 0.336283
O O10 0.367394 0.229815 0.426296
O O11 0.319065 0.242836 0.066216
O O12 0.600837 0.483769 0.956805
O O13 0.000000 0.500000 0.500000
O O14 0.783463 0.133760 0.831137
O O15 0.538127 0.704444 0.329720
O O16 0.809901 0.902820 0.248983
O O17 0.360950 0.424514 0.480640
#
# Coordination Sequence:
#
# PCOD8041427 Si02
#       8
#     2   2   2   2   2   2   2   2
#     4  11  21  37  63  93 120 153 198 247 296 349
#     4  11  23  40  60  86 119 159 199 245 296 351
#     4  10  22  41  62  86 116 153 199 250 298 351
#     4  10  19  32  57  90 118 147 188 241 291 342
#     4  12  26  42  58  84 122 162 201 244 294 355
#     4  11  21  37  60  88 118 155 192 237 296 352
#     4  10  20  38  63  91 117 146 194 248 296 349
#     4   9  20  37  62  92 117 145 192 250 297 347
#
# _framework density 22.332532
#
# number of rings (size 3 to 8) (size 9 to 14) (size 15 to 20)
#    0.000    1.500    0.000    7.500    0.000    6.000 
#    0.000    8.750    0.000    0.000    0.000    0.000 
#    0.000    0.000    0.000    0.000    0.000    0.000 
#
# Total GULP energy -198309.145399 kJ/mol
# GULP energy per Si atom -12394.321587 kJ/mol
# Density = 2.228170 g / cm^3
# Si number density = 22.332532 Si / 1000 Ang^3
#
#
#
# Elastic Constant Matrix: (Units=GPa)
#
#
# Indices 1 2 3 4 5 6 
#
# 1 137.5272 35.7743 38.9779 13.4248 20.9134 -11.8180
# 2 35.7743 67.4015 30.4508 15.7210 17.0727 -12.6386
# 3 38.9779 30.4508 67.4336 22.0329 26.4392 -3.1068
# 4 13.4248 15.7210 22.0329 25.5115 4.9429 5.0629
# 5 20.9134 17.0727 26.4392 4.9429 42.0360 6.5449
# 6 -11.8180 -12.6386 -3.1068 5.0629 6.5449 40.1702
#
#
#
# Elastic Compliance Matrix: (Units=1/GPa)
#
#
# Indices 1 2 3 4 5 6 
#
# 1 0.009367 -0.002486 -0.003258 -0.000642 -0.001853 0.002104
# 2 -0.002486 0.023280 -0.002156 -0.011629 -0.006899 0.009016
# 3 -0.003258 -0.002156 0.031317 -0.022206 -0.015542 0.006116
# 4 -0.000642 -0.011629 -0.022206 0.066432 0.013716 -0.016172
# 5 -0.001853 -0.006899 -0.015542 0.013716 0.037506 -0.011757
# 6 0.002104 0.009016 0.006116 -0.016172 -0.011757 0.032777
#
#
# Mechanical properties :
#
#
# Convention : Reuss Voigt Hill
#
# Bulk Modulus (GPa) = 20.76246 53.64095 37.20170
# Shear Modulus (GPa) = 21.50216 32.68749 27.09482
#
# Velocity S-wave (km/s) = 3.10630 3.82995 3.48694
# Velocity P-wave (km/s) = 4.70984 6.60525 5.73637
#
# Compressibility (1/GPa) = 0.04816386
#
# Stress axis : x y z
#
# Youngs Moduli (GPa) = 106.76132 42.95485 31.93106
#
# Poissons Ratio (x) = 0.10677 0.10405
# Poissons Ratio (y) = 0.26538 0.06885
# Poissons Ratio (z) = 0.34788 0.09262
#
# Static dielectric constant tensor:
#      x y z
#    x 4.467450 -0.155040 0.566260 
#    y -0.155040 3.789410 0.211490 
#    z 0.566260 0.211490 4.118620 
# 
# 
# High freq. dielectric constant tensor:
#      x y z
#    x 1.909610 -0.016640 0.024200 
#    y -0.016640 1.858620 0.024200 
#    z 0.024200 0.024200 1.866240 
# 
# From -- ./inp_files/337380.got.cif
#   From: 2010.06.25/outbox.cif.g09.slc.cpg/sg2_169_cif.got.tgz:337380.got - 2010.06.27 13:26:56.
