data_PCOD8041957
_publ_section_title
;
Structure prediction by ZEFSAII (Michael W. Deem and Ramdas Pophale) SiO2 
 PCOD8041957
Probable space group: P -1
;
_chemical_formula_sum "Si O2"
_cell_formula_units_Z 14
_cell_length_a 31.333316
_cell_length_b 5.155525
_cell_length_c 18.341065
_cell_angle_alpha 116.155112
_cell_angle_beta 159.756447
_cell_angle_gamma 76.772362
_cell_volume 739.674814
_symmetry_space_group_name_H-M "P -1"
_symmetry_group_IT_number 2
_symmetry_cell_setting 'triclinic'
loop_
_space_group_symop_operation_xyz
x,y,z
-x,-y,-z
loop_
_atom_site_type_symbol
_atom_site_label
_atom_site_fract_x
_atom_site_fract_y
_atom_site_fract_z
Si Si1 0.220378 0.647220 0.244044
Si Si2 0.144014 0.254753 0.922531
Si Si3 0.854873 0.817322 0.796366
Si Si4 0.147974 0.449084 0.661048
Si Si5 0.473144 0.747580 0.859822
Si Si6 0.139433 0.616068 0.824273
Si Si7 0.548806 0.205157 0.901103
O O1 0.133236 0.380135 0.139939
O O2 0.151886 0.866419 0.145897
O O3 0.401303 0.924424 0.581595
O O4 0.194789 0.424335 0.104136
O O5 0.200829 0.549090 0.987257
O O6 0.218832 0.043456 0.001846
O O7 0.957728 0.971556 0.584025
O O8 0.708299 0.532265 0.477607
O O9 0.000000 0.000000 0.000000
O O10 0.187401 0.493337 0.815962
O O11 0.047565 0.601318 0.502896
O O12 0.303547 0.658623 0.892430
O O13 0.545105 0.531974 0.963321
O O14 0.557910 0.002705 0.958334
O O15 0.500000 0.000000 0.000000
#
# Coordination Sequence:
#
# PCOD8041957 Si02
#       7
#     2   2   2   2   2   2   2
#     4  10  21  37  53  80 109 138 175 225 260 323
#     4  10  19  34  55  77 108 139 180 218 265 304
#     4  10  21  37  56  76 106 141 175 218 275 313
#     4   9  21  34  58  79 110 140 186 213 274 306
#     4  10  22  38  55  79 111 136 178 222 267 315
#     4   9  20  34  56  79 112 139 177 233 254 310
#     4  10  22  36  57  79 110 144 172 220 272 319
#
# _framework density 18.927237999999999
#
# number of rings (size 3 to 8) (size 9 to 14) (size 15 to 20)
#    0.857    1.429    0.000    2.143    2.000    2.286 
#    0.000    1.429    0.000    0.000    0.000    0.000 
#    0.000    0.000    0.000    0.000    0.000    0.000 
#
# Total GULP energy -173538.005198 kJ/mol
# GULP energy per Si atom -12395.571800 kJ/mol
# Density = 1.888416 g / cm^3
# Si number density = 18.927238 Si / 1000 Ang^3
#
#
#
# Elastic Constant Matrix: (Units=GPa)
#
#
# Indices 1 2 3 4 5 6 
#
# 1 89.8793 21.6866 49.6290 10.8982 -1.2511 -10.6550
# 2 21.6866 96.6778 26.6184 15.9039 -1.9115 8.8054
# 3 49.6290 26.6184 47.9848 12.5898 -1.9717 -10.5823
# 4 10.8982 15.9039 12.5898 18.7456 -5.4107 -6.2328
# 5 -1.2511 -1.9115 -1.9717 -5.4107 37.8873 5.9529
# 6 -10.6550 8.8054 -10.5823 -6.2328 5.9529 30.6779
#
#
#
# Elastic Compliance Matrix: (Units=1/GPa)
#
#
# Indices 1 2 3 4 5 6 
#
# 1 0.026349 0.001780 -0.029061 0.002372 -0.000074 -0.000887
# 2 0.001780 0.015121 -0.009497 -0.010456 0.000276 -0.009176
# 3 -0.029061 -0.009497 0.062213 -0.013498 -0.001972 0.011733
# 4 0.002372 -0.010456 -0.013498 0.076521 0.007699 0.013222
# 5 -0.000074 0.000276 -0.001972 0.007699 0.028138 -0.004681
# 6 -0.000887 -0.009176 0.011733 0.013222 -0.004681 0.042564
#
#
# Mechanical properties :
#
#
# Convention : Reuss Voigt Hill
#
# Bulk Modulus (GPa) = 33.19374 47.82332 40.50853
# Shear Modulus (GPa) = 14.94749 26.56936 20.75843
#
# Velocity S-wave (km/s) = 2.81327 3.75075 3.31531
# Velocity P-wave (km/s) = 5.30361 6.63922 6.00864
#
# Compressibility (1/GPa) = 0.03012616
#
# Stress axis : x y z
#
# Youngs Moduli (GPa) = 37.95182 66.13519 16.07385
#
# Poissons Ratio (x) = -0.11770 0.46711
# Poissons Ratio (y) = -0.06755 0.15266
# Poissons Ratio (z) = 1.10290 0.62812
#
# Static dielectric constant tensor:
#      x y z
#    x 3.274060 0.119730 -0.111340 
#    y 0.119730 3.734530 0.056430 
#    z -0.111340 0.056430 3.301610 
# 
# 
# High freq. dielectric constant tensor:
#      x y z
#    x 1.734980 0.005450 -0.011770 
#    y 0.005450 1.746240 0.010880 
#    z -0.011770 0.010880 1.713350 
# 
# From -- ./inp_files/51345.got.cif
#   From: 2010.06.25/outbox.cif.g09.slc.cpg/sg2_26_cif.got.tgz:51345.got - 2010.06.27 13:26:56.
