data_PCOD8041459
_publ_section_title
;
Structure prediction by ZEFSAII (Michael W. Deem and Ramdas Pophale) SiO2 
 PCOD8041459
Probable space group: P -1
;
_chemical_formula_sum "Si O2"
_cell_formula_units_Z 16
_cell_length_a 21.669247
_cell_length_b 9.719023
_cell_length_c 11.411074
_cell_angle_alpha 96.632044
_cell_angle_beta 151.012702
_cell_angle_gamma 63.663108
_cell_volume 812.588594
_symmetry_space_group_name_H-M "P -1"
_symmetry_group_IT_number 2
_symmetry_cell_setting 'triclinic'
loop_
_space_group_symop_operation_xyz
x,y,z
-x,-y,-z
loop_
_atom_site_type_symbol
_atom_site_label
_atom_site_fract_x
_atom_site_fract_y
_atom_site_fract_z
Si Si1 0.590229 0.373091 0.966904
Si Si2 0.317737 0.612830 0.131232
Si Si3 0.835972 0.528981 0.268755
Si Si4 0.728870 0.174042 0.532559
Si Si5 0.589275 0.736966 0.225111
Si Si6 0.477648 0.916620 0.806574
Si Si7 0.123405 0.666050 0.453538
Si Si8 0.053792 0.953460 0.899682
O O1 0.648324 0.326310 0.923515
O O2 0.435886 0.604244 0.762719
O O3 0.530928 0.265390 0.891194
O O4 0.753459 0.295295 0.311740
O O5 0.500000 0.500000 0.500000
O O6 0.260673 0.497506 0.991225
O O7 0.138502 0.807492 0.916590
O O8 0.920824 0.374131 0.501225
O O9 0.000000 0.500000 0.500000
O O10 0.679464 0.754370 0.073891
O O11 0.657063 0.092084 0.472127
O O12 0.827937 0.175271 0.802794
O O13 0.856425 0.047903 0.619442
O O14 0.781959 0.516171 0.495477
O O15 0.614515 0.863144 0.346897
O O16 0.478623 0.863812 0.938065
O O17 0.955376 0.872953 0.130006
#
# Coordination Sequence:
#
# PCOD8041459 Si02
#       8
#     2   2   2   2   2   2   2   2
#     4  11  19  37  64  83 118 153 202 247 296 345
#     4  11  22  40  61  87 120 162 201 244 302 365
#     4  10  22  38  58  85 127 159 198 251 304 356
#     4  11  20  39  61  86 117 159 196 250 295 357
#     4  10  19  32  60  86 109 151 201 240 291 359
#     4  10  20  37  58  85 119 161 195 240 309 358
#     4  10  20  36  57  89 116 152 197 260 285 347
#     4  11  23  34  63  90 118 149 208 247 298 348
#
# _framework density 19.690162000000001
#
# number of rings (size 3 to 8) (size 9 to 14) (size 15 to 20)
#    0.000    1.500    6.250    1.125    0.000    7.000 
#    0.000    1.875    0.000    3.000    0.000    0.000 
#    0.000    0.000    0.000    0.000    0.000    0.000 
#
# Total GULP energy -198210.350310 kJ/mol
# GULP energy per Si atom -12388.146894 kJ/mol
# Density = 1.964535 g / cm^3
# Si number density = 19.690162 Si / 1000 Ang^3
#
#
#
# Elastic Constant Matrix: (Units=GPa)
#
#
# Indices 1 2 3 4 5 6 
#
# 1 117.3723 55.1400 36.7309 0.9542 32.0558 1.9178
# 2 55.1400 117.0586 23.2938 -3.6013 13.3936 13.7015
# 3 36.7309 23.2938 49.9921 5.1902 11.6219 1.6335
# 4 0.9542 -3.6013 5.1902 27.6811 2.6585 9.1056
# 5 32.0558 13.3936 11.6219 2.6585 30.5857 -1.0163
# 6 1.9178 13.7015 1.6335 9.1056 -1.0163 35.9759
#
#
#
# Elastic Compliance Matrix: (Units=1/GPa)
#
#
# Indices 1 2 3 4 5 6 
#
# 1 0.016422 -0.004972 -0.006989 0.001057 -0.012446 0.000716
# 2 -0.004972 0.012021 -0.002245 0.003829 0.000295 -0.005172
# 3 -0.006989 -0.002245 0.027041 -0.005420 -0.001452 0.001331
# 4 0.001057 0.003829 -0.005420 0.042023 -0.004778 -0.012040
# 5 -0.012446 0.000295 -0.001452 -0.004778 0.046682 0.003145
# 6 0.000716 -0.005172 0.001331 -0.012040 0.003145 0.032804
#
#
# Mechanical properties :
#
#
# Convention : Reuss Voigt Hill
#
# Bulk Modulus (GPa) = 36.93885 57.19469 47.06677
# Shear Modulus (GPa) = 23.31795 30.13244 26.72519
#
# Velocity S-wave (km/s) = 3.44502 3.91619 3.68813
# Velocity P-wave (km/s) = 5.88430 7.03982 6.48784
#
# Compressibility (1/GPa) = 0.02707177
#
# Stress axis : x y z
#
# Youngs Moduli (GPa) = 60.89566 83.18825 36.98112
#
# Poissons Ratio (x) = 0.41360 0.25844
# Poissons Ratio (y) = 0.30277 0.08304
# Poissons Ratio (z) = 0.42557 0.18679
#
# Static dielectric constant tensor:
#      x y z
#    x 3.703690 0.039200 0.135790 
#    y 0.039200 3.759110 0.099640 
#    z 0.135790 0.099640 3.613410 
# 
# 
# High freq. dielectric constant tensor:
#      x y z
#    x 1.774100 0.000250 0.006070 
#    y 0.000250 1.757910 -0.009290 
#    z 0.006070 -0.009290 1.753190 
# 
# From -- ./inp_files/271530.got.cif
#   From: 2010.06.25/outbox.cif.g09.slc.cpg/sg2_136_cif.got.tgz:271530.got - 2010.06.27 13:26:56.
