data_PCOD8041960
_publ_section_title
;
Structure prediction by ZEFSAII (Michael W. Deem and Ramdas Pophale) SiO2 
 PCOD8041960
Probable space group: P -1
;
_chemical_formula_sum "Si O2"
_cell_formula_units_Z 16
_cell_length_a 28.546675
_cell_length_b 16.535478
_cell_length_c 14.680825
_cell_angle_alpha 155.633054
_cell_angle_beta 157.560598
_cell_angle_gamma 19.765017
_cell_volume 847.963635
_symmetry_space_group_name_H-M "P -1"
_symmetry_group_IT_number 2
_symmetry_cell_setting 'triclinic'
loop_
_space_group_symop_operation_xyz
x,y,z
-x,-y,-z
loop_
_atom_site_type_symbol
_atom_site_label
_atom_site_fract_x
_atom_site_fract_y
_atom_site_fract_z
Si Si1 0.112821 0.529292 0.341640
Si Si2 0.194383 0.617523 0.926407
Si Si3 0.861751 0.893758 0.699353
Si Si4 0.792327 0.900655 0.062803
Si Si5 0.533325 0.885915 0.656048
Si Si6 0.194149 0.330458 0.475280
Si Si7 0.595370 0.906728 0.169338
Si Si8 0.632812 0.442562 0.248768
O O1 0.094724 0.468825 0.349052
O O2 0.247641 0.555318 0.597070
O O3 0.947436 0.796699 0.293075
O O4 0.152271 0.291514 0.116354
O O5 0.156032 0.555682 0.698898
O O6 0.355732 0.367300 0.002901
O O7 0.226747 0.810872 0.163509
O O8 0.044863 0.730311 0.837996
O O9 0.854605 0.819877 0.714013
O O10 0.764497 0.850218 0.410426
O O11 0.718174 0.173523 0.172002
O O12 0.672494 0.902059 0.912308
O O13 0.570164 0.640323 0.422472
O O14 0.380312 0.129048 0.580054
O O15 0.502759 0.896861 0.721635
O O16 0.500000 0.000000 0.000000
O O17 0.500000 0.500000 0.000000
#
# Coordination Sequence:
#
# PCOD8041960 Si02
#       8
#     2   2   2   2   2   2   2   2
#     4  10  22  36  54  81 106 141 180 216 271 324
#     4   9  19  36  56  79 107 140 182 223 265 318
#     4   9  19  36  56  78 105 139 181 224 264 317
#     4  10  21  38  54  75 114 142 172 224 267 318
#     4   9  21  36  54  81 106 141 184 217 263 322
#     4  10  19  34  55  79 107 138 180 223 266 317
#     4  10  21  36  56  80 112 145 176 221 272 317
#     4  11  21  36  59  81 108 143 180 221 267 318
#
# _framework density 18.868734
#
# number of rings (size 3 to 8) (size 9 to 14) (size 15 to 20)
#    0.000    2.500    0.000    3.375    0.000   11.500 
#    0.000    2.500    0.000    0.000    0.000    0.000 
#    0.000    0.000    0.000    0.000    0.000    0.000 
#
# Total GULP energy -198313.272999 kJ/mol
# GULP energy per Si atom -12394.579562 kJ/mol
# Density = 1.882579 g / cm^3
# Si number density = 18.868734 Si / 1000 Ang^3
#
#
#
# Elastic Constant Matrix: (Units=GPa)
#
#
# Indices 1 2 3 4 5 6 
#
# 1 106.2519 66.9637 60.5317 -7.8407 -14.7679 21.5986
# 2 66.9637 118.1619 57.6251 9.2016 -3.2945 17.0591
# 3 60.5317 57.6251 89.2282 2.4686 7.5226 19.1044
# 4 -7.8407 9.2016 2.4686 36.0233 3.9847 -1.4110
# 5 -14.7679 -3.2945 7.5226 3.9847 21.2961 -5.5433
# 6 21.5986 17.0591 19.1044 -1.4110 -5.5433 33.8221
#
#
#
# Elastic Compliance Matrix: (Units=1/GPa)
#
#
# Indices 1 2 3 4 5 6 
#
# 1 0.025711 -0.007322 -0.014385 0.006160 0.020364 -0.001006
# 2 -0.007322 0.015378 -0.004643 -0.005202 -0.000272 -0.000719
# 3 -0.014385 -0.004643 0.027527 -0.001688 -0.022110 -0.007715
# 4 0.006160 -0.005202 -0.001688 0.030739 -0.001512 0.000678
# 5 0.020364 -0.000272 -0.022110 -0.001512 0.072089 0.011374
# 6 -0.001006 -0.000719 -0.007715 0.000678 0.011374 0.036822
#
#
# Mechanical properties :
#
#
# Convention : Reuss Voigt Hill
#
# Bulk Modulus (GPa) = 62.83382 75.98703 69.41042
# Shear Modulus (GPa) = 18.77776 26.79641 22.78708
#
# Velocity S-wave (km/s) = 3.15807 3.77257 3.47892
# Velocity P-wave (km/s) = 6.83159 7.70294 7.28031
#
# Compressibility (1/GPa) = 0.01591500
#
# Stress axis : x y z
#
# Youngs Moduli (GPa) = 38.89416 65.02668 36.32759
#
# Poissons Ratio (x) = 0.47613 0.52258
# Poissons Ratio (y) = 0.28478 0.16869
# Poissons Ratio (z) = 0.55950 0.30195
#
# Static dielectric constant tensor:
#      x y z
#    x 3.388360 -0.100180 0.087520 
#    y -0.100180 3.637660 0.076370 
#    z 0.087520 0.076370 3.490980 
# 
# 
# High freq. dielectric constant tensor:
#      x y z
#    x 1.730330 -0.004540 0.009090 
#    y -0.004540 1.742630 0.007180 
#    z 0.009090 0.007180 1.727630 
# 
# From -- ./inp_files/545110.got.cif
#   From: 2010.06.25/outbox.cif.g09.slc.cpg/sg2_273_cif.got.tgz:545110.got - 2010.06.27 13:26:56.
