data_PCOD8041366
_publ_section_title
;
Structure prediction by ZEFSAII (Michael W. Deem and Ramdas Pophale) SiO2 
 PCOD8041366
Probable space group: P -1
;
_chemical_formula_sum "Si O2"
_cell_formula_units_Z 14
_cell_length_a 8.489095
_cell_length_b 9.198576
_cell_length_c 12.042461
_cell_angle_alpha 123.503469
_cell_angle_beta 94.232773
_cell_angle_gamma 109.896854
_cell_volume 695.050035
_symmetry_space_group_name_H-M "P -1"
_symmetry_group_IT_number 2
_symmetry_cell_setting 'triclinic'
loop_
_space_group_symop_operation_xyz
x,y,z
-x,-y,-z
loop_
_atom_site_type_symbol
_atom_site_label
_atom_site_fract_x
_atom_site_fract_y
_atom_site_fract_z
Si Si1 0.062022 0.784342 0.333662
Si Si2 0.259561 0.627505 0.849744
Si Si3 0.498009 0.446675 0.849337
Si Si4 0.147762 0.892137 0.835039
Si Si5 0.800645 0.968233 0.349936
Si Si6 0.871964 0.276398 0.916832
Si Si7 0.144777 0.253161 0.074794
O O1 0.191135 0.825100 0.249767
O O2 0.939564 0.552527 0.247018
O O3 0.937672 0.883746 0.341457
O O4 0.182467 0.879421 0.487814
O O5 0.404460 0.549218 0.812028
O O6 0.270431 0.785335 0.824605
O O7 0.287411 0.735011 0.017726
O O8 0.397922 0.211909 0.733616
O O9 0.697830 0.526941 0.845566
O O10 0.500000 0.500000 0.000000
O O11 0.943200 0.764676 0.815553
O O12 0.153218 0.913852 0.712732
O O13 0.226640 0.101909 0.992013
O O14 0.000000 0.500000 0.000000
O O15 0.985631 0.186856 0.949046
#
# Coordination Sequence:
#
# PCOD8041366 Si02
#       7
#     2   2   2   2   2   2   2
#     4   9  17  32  52  79 103 139 181 214 248 320
#     4   9  20  31  55  79 107 135 177 216 265 305
#     4  11  19  35  54  81 107 138 172 224 264 307
#     4  10  19  34  52  82 103 142 176 212 260 318
#     4  10  19  32  55  78 105 139 179 213 262 309
#     4   9  15  31  54  80  98 134 180 216 248 306
#     4  10  19  32  55  79 109 134 176 216 266 309
#
# _framework density 20.142437000000001
#
# number of rings (size 3 to 8) (size 9 to 14) (size 15 to 20)
#    0.000    2.286    2.857    1.714    0.000    1.143 
#    0.000    0.000    0.000   21.429    0.000    2.000 
#    0.000    0.000    0.000    0.000    0.000    0.000 
#
# Total GULP energy -173458.083381 kJ/mol
# GULP energy per Si atom -12389.863099 kJ/mol
# Density = 2.009659 g / cm^3
# Si number density = 20.142437 Si / 1000 Ang^3
#
#
#
# Elastic Constant Matrix: (Units=GPa)
#
#
# Indices 1 2 3 4 5 6 
#
# 1 36.3107 17.9065 13.3096 -7.2455 -0.0513 8.8341
# 2 17.9065 107.5361 42.6223 -22.3785 -2.6910 6.1236
# 3 13.3096 42.6223 125.5235 -15.0526 -8.7416 18.9452
# 4 -7.2455 -22.3785 -15.0526 26.2305 2.5968 -1.5819
# 5 -0.0513 -2.6910 -8.7416 2.5968 18.0859 2.8314
# 6 8.8341 6.1236 18.9452 -1.5819 2.8314 40.8108
#
#
#
# Elastic Compliance Matrix: (Units=1/GPa)
#
#
# Indices 1 2 3 4 5 6 
#
# 1 0.032034 -0.003698 -0.000706 0.004998 -0.000608 -0.005816
# 2 -0.003698 0.012811 -0.003143 0.008239 -0.000919 0.000720
# 3 -0.000706 -0.003143 0.010404 0.002338 0.004921 -0.004456
# 4 0.004998 0.008239 0.002338 0.048233 -0.004362 -0.001231
# 5 -0.000608 -0.000919 0.004921 -0.004362 0.059142 -0.006287
# 6 -0.005816 0.000720 -0.004456 -0.001231 -0.006287 0.028111
#
#
# Mechanical properties :
#
#
# Convention : Reuss Voigt Hill
#
# Bulk Modulus (GPa) = 24.90333 46.33857 35.62095
# Shear Modulus (GPa) = 22.80861 30.06091 26.43476
#
# Velocity S-wave (km/s) = 3.36872 3.86737 3.62662
# Velocity P-wave (km/s) = 5.24609 6.55725 5.93797
#
# Compressibility (1/GPa) = 0.04015528
#
# Stress axis : x y z
#
# Youngs Moduli (GPa) = 31.21687 78.05648 96.11365
#
# Poissons Ratio (x) = 0.28868 0.06787
# Poissons Ratio (y) = 0.11545 0.30205
# Poissons Ratio (z) = 0.02204 0.24531
#
# Static dielectric constant tensor:
#      x y z
#    x 3.453250 -0.022250 -0.154500 
#    y -0.022250 3.884720 -0.078180 
#    z -0.154500 -0.078180 3.860100 
# 
# 
# High freq. dielectric constant tensor:
#      x y z
#    x 1.762780 -0.014490 -0.012620 
#    y -0.014490 1.799080 -0.003930 
#    z -0.012620 -0.003930 1.750110 
# 
# From -- ./inp_files/240185.got.cif
#   From: 2010.06.25/outbox.cif.g09.slc.cpg/sg2_121_cif.got.tgz:240185.got - 2010.06.27 13:26:56.
