data_PCOD8041689
_publ_section_title
;
Structure prediction by ZEFSAII (Michael W. Deem and Ramdas Pophale) SiO2 
 PCOD8041689
Probable space group: P -1
;
_chemical_formula_sum "Si O2"
_cell_formula_units_Z 16
_cell_length_a 9.348801
_cell_length_b 22.882572
_cell_length_c 20.282477
_cell_angle_alpha 11.600486
_cell_angle_beta 73.329072
_cell_angle_gamma 70.774321
_cell_volume 809.152845
_symmetry_space_group_name_H-M "P -1"
_symmetry_group_IT_number 2
_symmetry_cell_setting 'triclinic'
loop_
_space_group_symop_operation_xyz
x,y,z
-x,-y,-z
loop_
_atom_site_type_symbol
_atom_site_label
_atom_site_fract_x
_atom_site_fract_y
_atom_site_fract_z
Si Si1 0.929244 0.395070 0.334212
Si Si2 0.588411 0.119981 0.298595
Si Si3 0.576918 0.956067 0.269722
Si Si4 0.409472 0.462329 0.823576
Si Si5 0.087944 0.177002 0.868761
Si Si6 0.176994 0.151313 0.748418
Si Si7 0.243252 0.387633 0.253961
Si Si8 0.035584 0.279947 0.899572
O O1 0.773014 0.490477 0.208272
O O2 0.897645 0.550826 0.238232
O O3 0.058878 0.513586 0.146459
O O4 0.993845 0.034037 0.725891
O O5 0.500000 0.000000 0.500000
O O6 0.714534 0.850491 0.546872
O O7 0.462593 0.286176 0.078657
O O8 0.680680 0.342180 0.072380
O O9 0.444104 0.787681 0.457130
O O10 0.668575 0.008561 0.134185
O O11 0.698143 0.753088 0.527749
O O12 0.496259 0.278981 0.952703
O O13 0.213621 0.073446 0.907780
O O14 0.154364 0.202485 0.905986
O O15 0.000000 0.500000 0.500000
O O16 0.971831 0.963045 0.126474
O O17 0.126617 0.508088 0.341427
#
# Coordination Sequence:
#
# PCOD8041689 Si02
#       8
#     2   2   2   2   2   2   2   2
#     4  12  22  37  58  85 118 149 192 238 284 336
#     4  10  21  40  61  86 118 151 185 229 280 337
#     4  10  20  36  58  81 113 147 191 241 284 332
#     4  10  24  38  56  86 118 149 186 234 289 340
#     4   9  19  31  52  90 113 144 188 255 283 330
#     4  10  19  33  56  89 112 143 198 247 286 332
#     4  10  20  34  61  87 109 149 195 229 272 336
#     4  11  20  33  57  82 115 149 187 242 292 326
#
# _framework density 19.773766999999999
#
# number of rings (size 3 to 8) (size 9 to 14) (size 15 to 20)
#    0.000    1.750    2.500    1.875    7.000    0.000 
#    0.000    1.250    0.000    4.500    0.000    0.000 
#    0.000    0.000    0.000    0.000    0.000    0.000 
#
# Total GULP energy -198322.138918 kJ/mol
# GULP energy per Si atom -12395.133682 kJ/mol
# Density = 1.972876 g / cm^3
# Si number density = 19.773767 Si / 1000 Ang^3
#
#
#
# Elastic Constant Matrix: (Units=GPa)
#
#
# Indices 1 2 3 4 5 6 
#
# 1 78.7899 28.6922 13.7033 3.8488 -4.3688 -11.4235
# 2 28.6922 96.9487 20.5546 10.5724 2.8331 -3.2167
# 3 13.7033 20.5546 78.3547 -2.8009 -8.3444 1.6603
# 4 3.8488 10.5724 -2.8009 29.3795 1.5331 -10.5666
# 5 -4.3688 2.8331 -8.3444 1.5331 15.2293 -3.7704
# 6 -11.4235 -3.2167 1.6603 -10.5666 -3.7704 24.8126
#
#
#
# Elastic Compliance Matrix: (Units=1/GPa)
#
#
# Indices 1 2 3 4 5 6 
#
# 1 0.016153 -0.004745 -0.000943 0.002356 0.006978 0.008948
# 2 -0.004745 0.013069 -0.003349 -0.005327 -0.005942 -0.003437
# 3 -0.000943 -0.003349 0.014769 0.002467 0.008310 0.000457
# 4 0.002356 -0.005327 0.002467 0.042478 0.003406 0.018836
# 5 0.006978 -0.005942 0.008310 0.003406 0.076692 0.014990
# 6 0.008948 -0.003437 0.000457 0.018836 0.014990 0.054245
#
#
# Mechanical properties :
#
#
# Convention : Reuss Voigt Hill
#
# Bulk Modulus (GPa) = 38.58136 42.22149 40.40143
# Shear Modulus (GPa) = 20.48190 26.62716 23.55453
#
# Velocity S-wave (km/s) = 3.22189 3.67357 3.45512
# Velocity P-wave (km/s) = 5.77880 6.27632 6.03269
#
# Compressibility (1/GPa) = 0.02591925
#
# Stress axis : x y z
#
# Youngs Moduli (GPa) = 61.90829 76.51418 67.70768
#
# Poissons Ratio (x) = 0.36303 0.06382
# Poissons Ratio (y) = 0.29373 0.22676
# Poissons Ratio (z) = 0.05835 0.25625
#
# Static dielectric constant tensor:
#      x y z
#    x 3.193370 0.079180 0.060650 
#    y 0.079180 3.769440 0.407830 
#    z 0.060650 0.407830 2.560500 
# 
# 
# High freq. dielectric constant tensor:
#      x y z
#    x 1.724280 0.007770 -0.024240 
#    y 0.007770 1.782140 -0.014150 
#    z -0.024240 -0.014150 1.775500 
# 
# From -- ./inp_files/45134.got.cif
#   From: 2010.06.25/outbox.cif.g09.slc.cpg/sg2_23_cif.got.tgz:45134.got - 2010.06.27 13:26:56.
