data_PCOD8041593
_publ_section_title
;
Structure prediction by ZEFSAII (Michael W. Deem and Ramdas Pophale) SiO2 
 PCOD8041593
Probable space group: P -1
;
_chemical_formula_sum "Si O2"
_cell_formula_units_Z 14
_cell_length_a 10.765238
_cell_length_b 8.280558
_cell_length_c 16.749907
_cell_angle_alpha 100.915349
_cell_angle_beta 29.841186
_cell_angle_gamma 80.468808
_cell_volume 538.215800
_symmetry_space_group_name_H-M "P -1"
_symmetry_group_IT_number 2
_symmetry_cell_setting 'triclinic'
loop_
_space_group_symop_operation_xyz
x,y,z
-x,-y,-z
loop_
_atom_site_type_symbol
_atom_site_label
_atom_site_fract_x
_atom_site_fract_y
_atom_site_fract_z
Si Si1 0.034295 0.214364 0.225949
Si Si2 0.764997 0.016592 0.751328
Si Si3 0.644072 0.568894 0.201884
Si Si4 0.932016 0.190687 0.109188
Si Si5 0.003907 0.413055 0.688585
Si Si6 0.457380 0.492333 0.917614
Si Si7 0.641699 0.989711 0.651903
O O1 0.879639 0.182690 0.232909
O O2 0.846415 0.473394 0.368288
O O3 0.983034 0.130933 0.327950
O O4 0.416742 0.093745 0.982417
O O5 0.726896 0.228200 0.770166
O O6 0.874032 0.880768 0.592882
O O7 0.626785 0.462583 0.123292
O O8 0.621126 0.445251 0.274821
O O9 0.337266 0.843041 0.393629
O O10 0.000000 0.500000 0.000000
O O11 0.261504 0.158943 0.912768
O O12 0.000000 0.000000 0.000000
O O13 0.657733 0.568270 0.840822
O O14 0.303301 0.186456 0.454485
O O15 0.900695 0.370334 0.825009
#
# Coordination Sequence:
#
# PCOD8041593 Si02
#       7
#     2   2   2   2   2   2   2
#     4   9  18  34  53  75 110 143 173 220 276 317
#     4   8  16  32  52  76 107 142 176 217 266 312
#     4   9  18  36  55  77 110 146 182 219 264 320
#     4  10  21  38  59  77 103 148 187 215 264 335
#     4  10  19  33  54  84 112 137 178 229 275 316
#     4   9  19  33  55  81 106 144 184 219 270 321
#     4   9  19  35  56  82 109 140 179 225 272 312
#
# _framework density 26.011873000000001
#
# number of rings (size 3 to 8) (size 9 to 14) (size 15 to 20)
#    0.000    2.857    0.000    2.571    0.000    8.571 
#    0.000    8.571    0.000    1.714    0.000    0.000 
#    0.000    0.000    0.000    0.000    0.000    0.000 
#
# Total GULP energy -173440.349099 kJ/mol
# GULP energy per Si atom -12388.596364 kJ/mol
# Density = 2.595267 g / cm^3
# Si number density = 26.011873 Si / 1000 Ang^3
#
#
#
# Elastic Constant Matrix: (Units=GPa)
#
#
# Indices 1 2 3 4 5 6 
#
# 1 173.8220 65.8707 21.6437 17.3768 37.0256 -29.7692
# 2 65.8707 110.0845 24.1089 11.8331 16.9843 -30.9905
# 3 21.6437 24.1089 62.2009 22.0839 23.0650 -13.3338
# 4 17.3768 11.8331 22.0839 32.5389 11.4835 -4.1193
# 5 37.0256 16.9843 23.0650 11.4835 43.3360 0.8480
# 6 -29.7692 -30.9905 -13.3338 -4.1193 0.8480 46.6159
#
#
#
# Elastic Compliance Matrix: (Units=1/GPa)
#
#
# Indices 1 2 3 4 5 6 
#
# 1 0.009319 -0.003553 0.002626 -0.002300 -0.007442 0.004272
# 2 -0.003553 0.013644 -0.002145 -0.000410 -0.001182 0.006173
# 3 0.002626 -0.002145 0.026867 -0.013665 -0.012218 0.006951
# 4 -0.002300 -0.000410 -0.013665 0.041709 -0.001616 -0.001935
# 5 -0.007442 -0.001182 -0.012218 -0.001616 0.037021 -0.009849
# 6 0.004272 0.006173 0.006951 -0.001935 -0.009849 0.030281
#
#
# Mechanical properties :
#
#
# Convention : Reuss Voigt Hill
#
# Bulk Modulus (GPa) = 22.89039 63.26156 43.07598
# Shear Modulus (GPa) = 27.84792 40.13042 33.98917
#
# Velocity S-wave (km/s) = 3.27553 3.93208 3.61872
# Velocity P-wave (km/s) = 4.80880 6.70731 5.83578
#
# Compressibility (1/GPa) = 0.04368645
#
# Stress axis : x y z
#
# Youngs Moduli (GPa) = 107.30363 73.29105 37.22103
#
# Poissons Ratio (x) = 0.26044 -0.09776
# Poissons Ratio (y) = 0.38130 0.07983
# Poissons Ratio (z) = -0.28183 0.15719
#
# Static dielectric constant tensor:
#      x y z
#    x 5.036810 -0.350440 0.042950 
#    y -0.350440 4.946700 0.016020 
#    z 0.042950 0.016020 4.703100 
# 
# 
# High freq. dielectric constant tensor:
#      x y z
#    x 2.048710 -0.001950 0.009400 
#    y -0.001950 2.022330 -0.022640 
#    z 0.009400 -0.022640 2.050000 
# 
# From -- ./inp_files/172828.got.cif
#   From: 2010.06.25/outbox.cif.g09.slc.cpg/sg2_87_cif.got.tgz:172828.got - 2010.06.27 13:26:56.
