data_PCOD8041586
_publ_section_title
;
Structure prediction by ZEFSAII (Michael W. Deem and Ramdas Pophale) SiO2 
 PCOD8041586
Probable space group: P -1
;
_chemical_formula_sum "Si O2"
_cell_formula_units_Z 16
_cell_length_a 9.695361
_cell_length_b 5.046623
_cell_length_c 29.462764
_cell_angle_alpha 103.245206
_cell_angle_beta 136.373638
_cell_angle_gamma 99.661892
_cell_volume 840.207851
_symmetry_space_group_name_H-M "P -1"
_symmetry_group_IT_number 2
_symmetry_cell_setting 'triclinic'
loop_
_space_group_symop_operation_xyz
x,y,z
-x,-y,-z
loop_
_atom_site_type_symbol
_atom_site_label
_atom_site_fract_x
_atom_site_fract_y
_atom_site_fract_z
Si Si1 0.496401 0.155478 0.938246
Si Si2 0.189599 0.817708 0.668160
Si Si3 0.759704 0.873678 0.038104
Si Si4 0.713888 0.901428 0.463920
Si Si5 0.768722 0.713270 0.378810
Si Si6 0.673145 0.437937 0.509833
Si Si7 0.825984 0.831967 0.910920
Si Si8 0.506934 0.126877 0.837268
O O1 0.281807 0.070395 0.917226
O O2 0.408103 0.103781 0.863528
O O3 0.700915 0.514685 0.005817
O O4 0.595447 0.927829 0.966395
O O5 0.321955 0.647730 0.670763
O O6 0.916401 0.581991 0.599618
O O7 0.236693 0.112340 0.660703
O O8 0.284995 0.935397 0.745603
O O9 0.023660 0.113150 0.096890
O O10 0.624182 0.768425 0.386372
O O11 0.696924 0.608350 0.474884
O O12 0.578543 0.067157 0.461260
O O13 0.978690 0.173999 0.536068
O O14 0.500000 0.500000 0.500000
O O15 0.659675 0.473185 0.868168
O O16 0.671586 0.983711 0.870459
O O17 0.000000 0.000000 0.000000
#
# Coordination Sequence:
#
# PCOD8041586 Si02
#       8
#     2   2   2   2   2   2   2   2
#     4  10  19  34  53  79 104 143 179 221 280 331
#     4  10  21  34  53  79 111 143 177 223 276 342
#     4  10  20  33  54  79 108 133 183 236 269 321
#     4   9  17  30  55  81 102 134 179 226 263 304
#     4   9  17  33  53  78 104 135 177 223 267 315
#     4  10  19  33  54  83 110 142 185 225 263 317
#     4  12  21  35  56  86 107 139 190 241 273 321
#     4  12  22  35  57  80 111 148 183 228 291 333
#
# _framework density 19.042907
#
# number of rings (size 3 to 8) (size 9 to 14) (size 15 to 20)
#    0.000    1.750    2.500    3.000    0.000    3.000 
#    0.000    0.000    8.250    0.000    0.000    0.000 
#    0.000    0.000    0.000    0.000    0.000    0.000 
#
# Total GULP energy -198339.205352 kJ/mol
# GULP energy per Si atom -12396.200335 kJ/mol
# Density = 1.899956 g / cm^3
# Si number density = 19.042907 Si / 1000 Ang^3
#
#
#
# Elastic Constant Matrix: (Units=GPa)
#
#
# Indices 1 2 3 4 5 6 
#
# 1 125.5979 33.6876 52.0911 -5.8003 -19.7579 1.7182
# 2 33.6876 111.1090 32.6577 -1.0235 -4.6541 -9.7888
# 3 52.0911 32.6577 91.4112 -9.1042 -19.4697 1.3674
# 4 -5.8003 -1.0235 -9.1042 21.9789 0.8927 -3.4490
# 5 -19.7579 -4.6541 -19.4697 0.8927 24.1082 -1.7658
# 6 1.7182 -9.7888 1.3674 -3.4490 -1.7658 37.1930
#
#
#
# Elastic Compliance Matrix: (Units=1/GPa)
#
#
# Indices 1 2 3 4 5 6 
#
# 1 0.011190 -0.001885 -0.004546 0.000691 0.005070 -0.000541
# 2 -0.001885 0.010700 -0.003275 -0.000831 -0.001884 0.002857
# 3 -0.004546 -0.003275 0.017225 0.005350 0.009330 -0.000346
# 4 0.000691 -0.000831 0.005350 0.048384 0.003242 0.004193
# 5 0.005070 -0.001884 0.009330 0.003242 0.052813 0.001735
# 6 -0.000541 0.002857 -0.000346 0.004193 0.001735 0.028148
#
#
# Mechanical properties :
#
#
# Convention : Reuss Voigt Hill
#
# Bulk Modulus (GPa) = 50.75733 62.77677 56.76705
# Shear Modulus (GPa) = 25.71482 30.63478 28.17480
#
# Velocity S-wave (km/s) = 3.67871 4.01524 3.85066
# Velocity P-wave (km/s) = 6.68999 7.38470 7.04591
#
# Compressibility (1/GPa) = 0.01970159
#
# Stress axis : x y z
#
# Youngs Moduli (GPa) = 89.36491 93.46200 58.05354
#
# Poissons Ratio (x) = 0.17622 0.26393
# Poissons Ratio (y) = 0.16849 0.19013
# Poissons Ratio (z) = 0.40628 0.30609
#
# Static dielectric constant tensor:
#      x y z
#    x 3.663550 -0.085370 -0.222270 
#    y -0.085370 3.747750 -0.005190 
#    z -0.222270 -0.005190 3.253530 
# 
# 
# High freq. dielectric constant tensor:
#      x y z
#    x 1.739170 -0.008690 -0.025810 
#    y -0.008690 1.764950 -0.007510 
#    z -0.025810 -0.007510 1.695440 
# 
# From -- ./inp_files/42249.got.cif
#   From: 2010.06.25/outbox.cif.g09.slc.cpg/sg2_22_cif.got.tgz:42249.got - 2010.06.27 13:26:56.
