data_PCOD8041632
_publ_section_title
;
Structure prediction by ZEFSAII (Michael W. Deem and Ramdas Pophale) SiO2 
 PCOD8041632
Probable space group: P -1
;
_chemical_formula_sum "Si O2"
_cell_formula_units_Z 16
_cell_length_a 30.852798
_cell_length_b 5.378007
_cell_length_c 15.527116
_cell_angle_alpha 70.611471
_cell_angle_beta 17.594944
_cell_angle_gamma 71.132901
_cell_volume 734.413882
_symmetry_space_group_name_H-M "P -1"
_symmetry_group_IT_number 2
_symmetry_cell_setting 'triclinic'
loop_
_space_group_symop_operation_xyz
x,y,z
-x,-y,-z
loop_
_atom_site_type_symbol
_atom_site_label
_atom_site_fract_x
_atom_site_fract_y
_atom_site_fract_z
Si Si1 0.328065 0.530590 0.833401
Si Si2 0.597647 0.464686 0.561911
Si Si3 0.538756 0.677336 0.827302
Si Si4 0.928408 0.244945 0.201290
Si Si5 0.791471 0.069970 0.315523
Si Si6 0.290990 0.390984 0.108962
Si Si7 0.358862 0.096515 0.703399
Si Si8 0.246355 0.818072 0.295398
O O1 0.500000 0.500000 0.500000
O O2 0.265422 0.303888 0.915576
O O3 0.277821 0.827001 0.864423
O O4 0.261154 0.502195 0.057673
O O5 0.570523 0.480984 0.712257
O O6 0.740236 0.277072 0.313623
O O7 0.611814 0.752282 0.458803
O O8 0.462018 0.324929 0.792437
O O9 0.678236 0.840619 0.564674
O O10 0.500000 0.500000 0.000000
O O11 0.401176 0.855649 0.041224
O O12 0.803544 0.175819 0.378406
O O13 0.863214 0.293669 0.413934
O O14 0.000000 0.500000 0.000000
O O15 0.051027 0.019326 0.003793
O O16 0.247525 0.615181 0.235868
O O17 0.203835 0.120269 0.315130
O O18 0.500000 0.000000 0.500000
#
# Coordination Sequence:
#
# PCOD8041632 Si02
#       8
#     2   2   2   2   2   2   2   2
#     4  10  19  33  55  87 135 167 203 249 327 381
#     4  11  22  35  58  95 130 164 211 263 326 383
#     4  11  24  38  60  93 132 165 209 269 339 385
#     4  11  26  46  63  88 124 178 233 270 322 389
#     4  11  24  41  67  84 128 168 226 270 322 384
#     4  11  22  37  60  97 134 164 211 263 329 392
#     4  10  20  31  57  87 133 168 201 254 319 384
#     4  11  25  39  65  92 132 168 215 269 328 387
#
# _framework density 21.786080999999999
#
# number of rings (size 3 to 8) (size 9 to 14) (size 15 to 20)
#    0.000    1.250    3.750    3.000   14.000    1.000 
#    0.000    0.000    0.000    0.000    0.000    5.250 
#    0.000    0.000    0.000    0.000    0.000    0.000 
#
# Total GULP energy -198244.476511 kJ/mol
# GULP energy per Si atom -12390.279782 kJ/mol
# Density = 2.173649 g / cm^3
# Si number density = 21.786081 Si / 1000 Ang^3
#
#
#
# Elastic Constant Matrix: (Units=GPa)
#
#
# Indices 1 2 3 4 5 6 
#
# 1 76.0319 30.2362 25.1795 2.0425 30.2108 -5.3856
# 2 30.2362 140.3212 14.0677 -9.6321 12.3741 -3.9266
# 3 25.1795 14.0677 58.2564 -6.1593 16.8233 -5.4845
# 4 2.0425 -9.6321 -6.1593 28.6872 -1.4023 5.0043
# 5 30.2108 12.3741 16.8233 -1.4023 37.0760 0.2663
# 6 -5.3856 -3.9266 -5.4845 5.0043 0.2663 41.6638
#
#
#
# Elastic Compliance Matrix: (Units=1/GPa)
#
#
# Indices 1 2 3 4 5 6 
#
# 1 0.022389 -0.003270 -0.004771 -0.004921 -0.015192 0.002646
# 2 -0.003270 0.008037 -0.000292 0.002889 0.000224 -0.000052
# 3 -0.004771 -0.000292 0.021542 0.004293 -0.005639 0.001712
# 4 -0.004921 0.002889 0.004293 0.037990 0.002566 -0.004378
# 5 -0.015192 0.000224 -0.005639 0.002566 0.041955 -0.003261
# 6 0.002646 -0.000052 0.001712 -0.004378 -0.003261 0.025111
#
#
# Mechanical properties :
#
#
# Convention : Reuss Voigt Hill
#
# Bulk Modulus (GPa) = 28.32680 45.95292 37.13986
# Shear Modulus (GPa) = 26.96035 35.16046 31.06041
#
# Velocity S-wave (km/s) = 3.52163 4.02169 3.77994
# Velocity P-wave (km/s) = 5.43749 6.53482 6.01125
#
# Compressibility (1/GPa) = 0.03530226
#
# Stress axis : x y z
#
# Youngs Moduli (GPa) = 44.66481 124.41744 46.42153
#
# Poissons Ratio (x) = 0.40685 0.22149
# Poissons Ratio (y) = 0.14605 0.01354
# Poissons Ratio (z) = 0.21311 0.03629
#
# Static dielectric constant tensor:
#      x y z
#    x 3.618810 -0.544110 0.063710 
#    y -0.544110 3.583860 -0.074420 
#    z 0.063710 -0.074420 3.556810 
# 
# 
# High freq. dielectric constant tensor:
#      x y z
#    x 1.852780 0.000960 0.025190 
#    y 0.000960 1.877570 -0.002940 
#    z 0.025190 -0.002940 1.811640 
# 
# From -- ./inp_files/510488.got.cif
#   From: 2010.06.25/outbox.cif.g09.slc.cpg/sg2_256_cif.got.tgz:510488.got - 2010.06.27 13:26:56.
