data_PCOD8041053
_publ_section_title
;
Structure prediction by ZEFSAII (Michael W. Deem and Ramdas Pophale) SiO2 
 PCOD8041053
Probable space group: P -1
;
_chemical_formula_sum "Si O2"
_cell_formula_units_Z 16
_cell_length_a 14.590187
_cell_length_b 12.799680
_cell_length_c 15.910855
_cell_angle_alpha 153.124299
_cell_angle_beta 133.802351
_cell_angle_gamma 64.412453
_cell_volume 797.461525
_symmetry_space_group_name_H-M "P -1"
_symmetry_group_IT_number 2
_symmetry_cell_setting 'triclinic'
loop_
_space_group_symop_operation_xyz
x,y,z
-x,-y,-z
loop_
_atom_site_type_symbol
_atom_site_label
_atom_site_fract_x
_atom_site_fract_y
_atom_site_fract_z
Si Si1 0.940729 0.725141 0.870120
Si Si2 0.118023 0.623783 0.038796
Si Si3 0.643071 0.809044 0.965349
Si Si4 0.181276 0.202697 0.776926
Si Si5 0.611367 0.188497 0.107396
Si Si6 0.068115 0.352686 0.388716
Si Si7 0.801221 0.160124 0.587886
Si Si8 0.645217 0.376942 0.546410
O O1 0.950401 0.662381 0.734664
O O2 0.770411 0.510607 0.646357
O O3 0.070250 0.701342 0.979509
O O4 0.986229 0.036750 0.142627
O O5 0.231418 0.520915 0.021012
O O6 0.973573 0.366275 0.811068
O O7 0.200778 0.882974 0.343581
O O8 0.484219 0.695025 0.832282
O O9 0.607143 0.592096 0.711629
O O10 0.776080 0.849580 0.140458
O O11 0.692076 0.108761 0.173014
O O12 0.271766 0.137301 0.719312
O O13 0.000000 0.000000 0.500000
O O14 0.749469 0.452621 0.333267
O O15 0.509179 0.908211 0.786683
O O16 0.000000 0.500000 0.500000
O O17 0.707888 0.295977 0.606494
#
# Coordination Sequence:
#
# PCOD8041053 Si02
#       8
#     2   2   2   2   2   2   2   2
#     4  10  23  39  62  90 124 154 208 249 297 358
#     4   9  18  32  53  84 120 156 187 243 300 347
#     4  11  21  35  57  93 125 157 195 250 308 360
#     4  10  19  29  52  87 124 155 187 238 301 355
#     4  11  24  37  60  88 124 159 202 250 300 361
#     4  11  25  44  61  85 118 167 208 252 294 353
#     4   9  17  30  51  86 124 149 187 237 300 356
#     4  11  20  37  61  93 125 156 189 250 306 361
#
# _framework density 20.063665
#
# number of rings (size 3 to 8) (size 9 to 14) (size 15 to 20)
#    0.000    1.750    2.500    2.625    5.250    3.000 
#    0.000    0.000    0.000    1.500    0.000    0.000 
#    0.000    0.000    0.000    0.000    0.000    0.000 
#
# Total GULP energy -198244.474046 kJ/mol
# GULP energy per Si atom -12390.279628 kJ/mol
# Density = 2.001800 g / cm^3
# Si number density = 20.063665 Si / 1000 Ang^3
#
#
#
# Elastic Constant Matrix: (Units=GPa)
#
#
# Indices 1 2 3 4 5 6 
#
# 1 89.9046 24.2135 36.9937 0.0367 -26.4009 -12.1808
# 2 24.2135 90.3420 34.1702 -8.9750 -12.6684 -9.6237
# 3 36.9937 34.1702 94.5870 -4.3691 -13.3901 4.8550
# 4 0.0367 -8.9750 -4.3691 17.7088 -2.5763 -7.6230
# 5 -26.4009 -12.6684 -13.3901 -2.5763 43.0919 2.7524
# 6 -12.1808 -9.6237 4.8550 -7.6230 2.7524 24.6734
#
#
#
# Elastic Compliance Matrix: (Units=1/GPa)
#
#
# Indices 1 2 3 4 5 6 
#
# 1 0.017411 0.000343 -0.006062 0.004314 0.008484 0.010309
# 2 0.000343 0.015753 -0.005379 0.011696 0.003190 0.010630
# 3 -0.006062 -0.005379 0.015189 -0.002838 -0.000175 -0.008937
# 4 0.004314 0.011696 -0.002838 0.075629 0.007821 0.029744
# 5 0.008484 0.003190 -0.000175 0.007821 0.029461 0.004597
# 6 0.010309 0.010630 -0.008937 0.029744 0.004597 0.060200
#
#
# Mechanical properties :
#
#
# Convention : Reuss Voigt Hill
#
# Bulk Modulus (GPa) = 38.23064 51.73203 44.98133
# Shear Modulus (GPa) = 20.44486 29.05858 24.75172
#
# Velocity S-wave (km/s) = 3.19564 3.80981 3.51616
# Velocity P-wave (km/s) = 5.71946 6.72256 6.24119
#
# Compressibility (1/GPa) = 0.02615703
#
# Stress axis : x y z
#
# Youngs Moduli (GPa) = 57.43393 63.47902 65.83557
#
# Poissons Ratio (x) = -0.02175 0.39912
# Poissons Ratio (y) = -0.01968 0.35411
# Poissons Ratio (z) = 0.34819 0.34144
#
# Static dielectric constant tensor:
#      x y z
#    x 3.944980 -0.298120 -0.609180 
#    y -0.298120 3.758510 -0.034000 
#    z -0.609180 -0.034000 3.919200 
# 
# 
# High freq. dielectric constant tensor:
#      x y z
#    x 1.769320 -0.024470 -0.042830 
#    y -0.024470 1.777660 -0.018120 
#    z -0.042830 -0.018120 1.775350 
# 
# From -- ./inp_files/532176.got.cif
#   From: 2010.06.25/outbox.cif.g09.slc.cpg/sg2_267_cif.got.tgz:532176.got - 2010.06.27 13:26:56.
