data_PCOD8041485
_publ_section_title
;
Structure prediction by ZEFSAII (Michael W. Deem and Ramdas Pophale) SiO2 
 PCOD8041485
Probable space group: P -1
;
_chemical_formula_sum "Si O2"
_cell_formula_units_Z 14
_cell_length_a 13.968977
_cell_length_b 10.879772
_cell_length_c 14.714139
_cell_angle_alpha 118.751408
_cell_angle_beta 159.905347
_cell_angle_gamma 60.210377
_cell_volume 666.000933
_symmetry_space_group_name_H-M "P -1"
_symmetry_group_IT_number 2
_symmetry_cell_setting 'triclinic'
loop_
_space_group_symop_operation_xyz
x,y,z
-x,-y,-z
loop_
_atom_site_type_symbol
_atom_site_label
_atom_site_fract_x
_atom_site_fract_y
_atom_site_fract_z
Si Si1 0.100536 0.651023 0.844093
Si Si2 0.251314 0.976984 0.463678
Si Si3 0.204680 0.391873 0.266594
Si Si4 0.163140 0.946852 0.036643
Si Si5 0.008397 0.746664 0.593304
Si Si6 0.398906 0.392655 0.940748
Si Si7 0.160485 0.678212 0.241507
O O1 0.856756 0.653553 0.702396
O O2 0.976479 0.676645 0.639745
O O3 0.279847 0.777105 0.076810
O O4 0.289721 0.494407 0.964892
O O5 0.584949 0.968694 0.737963
O O6 0.133977 0.087828 0.477428
O O7 0.172053 0.821854 0.360445
O O8 0.094123 0.033852 0.254047
O O9 0.083786 0.557555 0.198470
O O10 0.539100 0.369408 0.553402
O O11 0.067634 0.297487 0.035403
O O12 0.000000 0.000000 0.000000
O O13 0.336447 0.730262 0.847833
O O14 0.857238 0.671809 0.353702
O O15 0.500000 0.500000 0.000000
#
# Coordination Sequence:
#
# PCOD8041485 Si02
#       7
#     2   2   2   2   2   2   2
#     4  10  20  34  55  78 106 137 171 211 260 305
#     4  11  20  34  53  72 103 140 168 203 260 311
#     4  10  22  36  55  78 103 137 177 212 249 303
#     4  11  22  32  49  79 107 132 166 209 257 311
#     4  10  21  33  50  78 104 133 169 211 259 307
#     4  10  19  33  50  74 106 133 168 211 255 306
#     4  10  21  38  54  75 105 139 175 212 250 300
#
# _framework density 21.020993000000001
#
# number of rings (size 3 to 8) (size 9 to 14) (size 15 to 20)
#    0.000    1.714    0.000    7.286    0.000    8.000 
#    0.000    0.000    0.000    1.714    0.000    0.000 
#    0.000    1.143    0.000    0.000    0.000    0.000 
#
# Total GULP energy -173463.540678 kJ/mol
# GULP energy per Si atom -12390.252906 kJ/mol
# Density = 2.097315 g / cm^3
# Si number density = 21.020993 Si / 1000 Ang^3
#
#
#
# Elastic Constant Matrix: (Units=GPa)
#
#
# Indices 1 2 3 4 5 6 
#
# 1 28.1561 22.3789 15.8341 6.1669 1.0721 -3.9275
# 2 22.3789 124.3965 24.4975 21.6298 -0.1451 -24.9838
# 3 15.8341 24.4975 103.6672 10.2955 5.4217 -9.6996
# 4 6.1669 21.6298 10.2955 35.5303 -4.4874 0.9503
# 5 1.0721 -0.1451 5.4217 -4.4874 19.3907 1.9296
# 6 -3.9275 -24.9838 -9.6996 0.9503 1.9296 28.6403
#
#
#
# Elastic Compliance Matrix: (Units=1/GPa)
#
#
# Indices 1 2 3 4 5 6 
#
# 1 0.044094 -0.006872 -0.004954 -0.002181 -0.001464 -0.001454
# 2 -0.006872 0.012599 -0.000153 -0.006980 -0.002130 0.010372
# 3 -0.004954 -0.000153 0.011241 -0.002883 -0.003871 0.003351
# 4 -0.002181 -0.006980 -0.002883 0.035106 0.009914 -0.009197
# 5 -0.001464 -0.002130 -0.003871 0.009914 0.055755 -0.007455
# 6 -0.001454 0.010372 0.003351 -0.009197 -0.007455 0.045706
#
#
# Mechanical properties :
#
#
# Convention : Reuss Voigt Hill
#
# Bulk Modulus (GPa) = 22.73856 42.40453 32.57154
# Shear Modulus (GPa) = 20.56612 29.61288 25.08950
#
# Velocity S-wave (km/s) = 3.13127 3.75738 3.45852
# Velocity P-wave (km/s) = 4.89016 6.24821 5.61043
#
# Compressibility (1/GPa) = 0.04397815
#
# Stress axis : x y z
#
# Youngs Moduli (GPa) = 22.67861 79.36954 88.95738
#
# Poissons Ratio (x) = 0.54540 0.44070
# Poissons Ratio (y) = 0.15584 0.01359
# Poissons Ratio (z) = 0.11235 0.01212
#
# Static dielectric constant tensor:
#      x y z
#    x 3.225870 -0.432560 0.057410 
#    y -0.432560 3.937110 -0.481560 
#    z 0.057410 -0.481560 3.481470 
# 
# 
# High freq. dielectric constant tensor:
#      x y z
#    x 1.772150 -0.031470 0.011460 
#    y -0.031470 1.836630 0.009530 
#    z 0.011460 0.009530 1.828840 
# 
# From -- ./inp_files/531267.got.cif
#   From: 2010.06.25/outbox.cif.g09.slc.cpg/sg2_266_cif.got.tgz:531267.got - 2010.06.27 13:26:56.
