data_PCOD8041345
_publ_section_title
;
Structure prediction by ZEFSAII (Michael W. Deem and Ramdas Pophale) SiO2 
 PCOD8041345
Probable space group: P -1
;
_chemical_formula_sum "Si O2"
_cell_formula_units_Z 16
_cell_length_a 11.626810
_cell_length_b 14.835300
_cell_length_c 14.691333
_cell_angle_alpha 159.970916
_cell_angle_beta 109.606256
_cell_angle_gamma 66.409301
_cell_volume 788.747606
_symmetry_space_group_name_H-M "P -1"
_symmetry_group_IT_number 2
_symmetry_cell_setting 'triclinic'
loop_
_space_group_symop_operation_xyz
x,y,z
-x,-y,-z
loop_
_atom_site_type_symbol
_atom_site_label
_atom_site_fract_x
_atom_site_fract_y
_atom_site_fract_z
Si Si1 0.869401 0.547622 0.652906
Si Si2 0.849665 0.610382 0.373467
Si Si3 0.880721 0.148250 0.803881
Si Si4 0.692025 0.688531 0.579881
Si Si5 0.328616 0.038750 0.907157
Si Si6 0.157781 0.840116 0.564686
Si Si7 0.912541 0.297565 0.769885
Si Si8 0.444488 0.748900 0.831444
O O1 0.812144 0.523698 0.515124
O O2 0.799613 0.841048 0.954735
O O3 0.839431 0.325999 0.500417
O O4 0.020046 0.498028 0.638912
O O5 0.735045 0.699149 0.497487
O O6 0.848209 0.863538 0.546399
O O7 0.829354 0.360907 0.071973
O O8 0.822154 0.289382 0.826042
O O9 0.031817 0.093032 0.774983
O O10 0.582357 0.529511 0.404574
O O11 0.639120 0.995240 0.891308
O O12 0.407483 0.264174 0.126038
O O13 0.283996 0.949707 0.712600
O O14 0.415508 0.788671 0.752698
O O15 0.166894 0.649430 0.295914
O O16 0.000000 0.000000 0.500000
O O17 0.000000 0.500000 0.000000
#
# Coordination Sequence:
#
# PCOD8041345 Si02
#       8
#     2   2   2   2   2   2   2   2
#     4  10  20  33  52  81 113 137 179 219 273 322
#     4  11  21  35  55  76 109 146 185 213 266 316
#     4  10  20  35  51  80 108 143 175 220 266 325
#     4  11  22  37  52  77 107 151 184 223 253 315
#     4  10  20  35  54  78 110 147 175 227 270 322
#     4  10  19  32  54  80 113 141 172 214 284 329
#     4  10  20  33  52  79 114 142 170 215 274 337
#     4  10  23  36  54  75 111 144 191 220 263 304
#
# _framework density 20.285323999999999
#
# number of rings (size 3 to 8) (size 9 to 14) (size 15 to 20)
#    0.000    1.750    2.500    3.375    3.500    1.500 
#    0.000    3.750    0.000    0.000    0.000    5.250 
#    0.000    0.000    0.000    0.000    0.000    0.000 
#
# Total GULP energy -198291.829313 kJ/mol
# GULP energy per Si atom -12393.239332 kJ/mol
# Density = 2.023915 g / cm^3
# Si number density = 20.285324 Si / 1000 Ang^3
#
#
#
# Elastic Constant Matrix: (Units=GPa)
#
#
# Indices 1 2 3 4 5 6 
#
# 1 63.7995 25.2680 9.9408 -15.4441 11.3051 8.6435
# 2 25.2680 71.6025 30.4405 -22.6942 3.6412 17.0863
# 3 9.9408 30.4405 87.6560 -16.3736 13.1213 -1.2866
# 4 -15.4441 -22.6942 -16.3736 37.4199 0.2588 2.6516
# 5 11.3051 3.6412 13.1213 0.2588 30.0335 -4.3027
# 6 8.6435 17.0863 -1.2866 2.6516 -4.3027 22.9526
#
#
#
# Elastic Compliance Matrix: (Units=1/GPa)
#
#
# Indices 1 2 3 4 5 6 
#
# 1 0.021553 -0.003066 0.001510 0.008368 -0.009695 -0.008534
# 2 -0.003066 0.027738 -0.006550 0.014268 -0.002622 -0.022001
# 3 0.001510 -0.006550 0.014996 0.002989 -0.005820 0.003712
# 4 0.008368 0.014268 0.002989 0.041634 -0.009436 -0.020184
# 5 -0.009695 -0.002622 -0.005820 -0.009436 0.041926 0.014226
# 6 -0.008534 -0.022001 0.003712 -0.020184 0.014226 0.068367
#
#
# Mechanical properties :
#
#
# Convention : Reuss Voigt Hill
#
# Bulk Modulus (GPa) = 20.80123 39.37295 30.08709
# Shear Modulus (GPa) = 20.12464 28.57511 24.34987
#
# Velocity S-wave (km/s) = 3.15315 3.75728 3.46839
# Velocity P-wave (km/s) = 4.85108 6.18665 5.55912
#
# Compressibility (1/GPa) = 0.04807409
#
# Stress axis : x y z
#
# Youngs Moduli (GPa) = 46.39715 36.05110 66.68557
#
# Poissons Ratio (x) = 0.11053 -0.10067
# Poissons Ratio (y) = 0.14225 0.43681
# Poissons Ratio (z) = -0.07004 0.23614
#
# Static dielectric constant tensor:
#      x y z
#    x 3.481370 -0.089110 0.060590 
#    y -0.089110 4.464560 -0.350000 
#    z 0.060590 -0.350000 3.750360 
# 
# 
# High freq. dielectric constant tensor:
#      x y z
#    x 1.753870 0.010100 0.004810 
#    y 0.010100 1.776530 -0.005100 
#    z 0.004810 -0.005100 1.806600 
# 
# From -- ./inp_files/75161.got.cif
#   From: 2010.06.25/outbox.cif.g09.slc.cpg/sg2_38_cif.got.tgz:75161.got - 2010.06.27 13:26:56.
