data_PCOD8041271
_publ_section_title
;
Structure prediction by ZEFSAII (Michael W. Deem and Ramdas Pophale) SiO2 
 PCOD8041271
Probable space group: P -1
;
_chemical_formula_sum "Si O2"
_cell_formula_units_Z 16
_cell_length_a 12.562827
_cell_length_b 6.217833
_cell_length_c 11.669489
_cell_angle_alpha 80.557159
_cell_angle_beta 99.765271
_cell_angle_gamma 89.405275
_cell_volume 885.480518
_symmetry_space_group_name_H-M "P -1"
_symmetry_group_IT_number 2
_symmetry_cell_setting 'triclinic'
loop_
_space_group_symop_operation_xyz
x,y,z
-x,-y,-z
loop_
_atom_site_type_symbol
_atom_site_label
_atom_site_fract_x
_atom_site_fract_y
_atom_site_fract_z
Si Si1 0.642959 0.032930 0.113756
Si Si2 0.816237 0.777883 0.300391
Si Si3 0.257428 0.594673 0.057154
Si Si4 0.560824 0.703078 0.947556
Si Si5 0.099703 0.396051 0.456797
Si Si6 0.879763 0.284048 0.773030
Si Si7 0.909172 0.508710 0.141570
Si Si8 0.989661 0.919904 0.705454
O O1 0.530089 0.131075 0.139546
O O2 0.718579 0.950684 0.239658
O O3 0.700989 0.214503 0.033508
O O4 0.619650 0.824909 0.050329
O O5 0.801292 0.660128 0.431461
O O6 0.828419 0.596777 0.219154
O O7 0.928994 0.894209 0.328557
O O8 0.348206 0.399744 0.112884
O O9 0.223838 0.695183 0.164752
O O10 0.155012 0.482763 0.990103
O O11 0.500000 0.500000 0.000000
O O12 0.140505 0.558728 0.353265
O O13 0.000000 0.500000 0.500000
O O14 0.062423 0.175719 0.409242
O O15 0.986697 0.343601 0.859215
O O16 0.894053 0.034238 0.755145
O O17 0.946085 0.260668 0.193072
#
# Coordination Sequence:
#
# PCOD8041271 Si02
#       8
#     2   2   2   2   2   2   2   2
#     4  10  20  34  57  84 100 137 178 223 281 315
#     4  11  19  32  54  79 106 138 182 218 263 309
#     4  11  20  35  54  77 113 141 175 220 267 324
#     4   9  20  37  56  79 107 130 175 230 278 321
#     4  11  20  34  52  74 110 148 184 221 249 302
#     4  10  23  33  48  78 111 155 180 205 260 314
#     4  10  19  32  50  79 109 147 174 215 257 312
#     4  10  19  33  48  75 108 144 182 213 252 302
#
# _framework density 18.069285000000001
#
# number of rings (size 3 to 8) (size 9 to 14) (size 15 to 20)
#    0.000    1.750    6.250    0.750    0.000    2.500 
#    0.000    0.000    0.000    0.750    0.000    8.750 
#    0.000    0.000    0.000    0.000    0.000    0.000 
#
# Total GULP energy -198309.942945 kJ/mol
# GULP energy per Si atom -12394.371434 kJ/mol
# Density = 1.802816 g / cm^3
# Si number density = 18.069285 Si / 1000 Ang^3
#
#
#
# Elastic Constant Matrix: (Units=GPa)
#
#
# Indices 1 2 3 4 5 6 
#
# 1 83.4721 37.3339 52.9281 2.1667 5.1698 -34.8765
# 2 37.3339 105.7399 34.9390 13.2723 0.3318 -25.9149
# 3 52.9281 34.9390 94.9551 0.5627 6.1722 -28.0528
# 4 2.1667 13.2723 0.5627 27.3146 -7.0385 0.4959
# 5 5.1698 0.3318 6.1722 -7.0385 18.6078 -1.6033
# 6 -34.8765 -25.9149 -28.0528 0.4959 -1.6033 36.9710
#
#
#
# Elastic Compliance Matrix: (Units=1/GPa)
#
#
# Indices 1 2 3 4 5 6 
#
# 1 0.024981 -0.001937 -0.008305 -0.002078 -0.003577 0.015779
# 2 -0.001937 0.013031 -0.001854 -0.006513 -0.001031 0.005943
# 3 -0.008305 -0.001854 0.017130 0.000400 -0.002869 0.003734
# 4 -0.002078 -0.006513 0.000400 0.044377 0.016822 -0.006088
# 5 -0.003577 -0.001031 -0.002869 0.016822 0.061739 -0.003822
# 6 0.015779 0.005943 0.003734 -0.006088 -0.003822 0.048848
#
#
# Mechanical properties :
#
#
# Convention : Reuss Voigt Hill
#
# Bulk Modulus (GPa) = 32.31013 59.39656 45.85335
# Shear Modulus (GPa) = 20.44041 27.17643 23.80842
#
# Velocity S-wave (km/s) = 3.36702 3.88237 3.63384
# Velocity P-wave (km/s) = 5.74768 7.28285 6.56033
#
# Compressibility (1/GPa) = 0.03095005
#
# Stress axis : x y z
#
# Youngs Moduli (GPa) = 40.03093 76.74113 58.37711
#
# Poissons Ratio (x) = 0.14862 0.48484
# Poissons Ratio (y) = 0.07752 0.10822
# Poissons Ratio (z) = 0.33247 0.14227
#
# Static dielectric constant tensor:
#      x y z
#    x 3.427370 -0.266450 0.157610 
#    y -0.266450 3.656850 0.097440 
#    z 0.157610 0.097440 3.189430 
# 
# 
# High freq. dielectric constant tensor:
#      x y z
#    x 1.673530 -0.015790 0.012910 
#    y -0.015790 1.722540 0.005340 
#    z 0.012910 0.005340 1.671090 
# 
# From -- ./inp_files/66352.got.cif
#   From: 2010.06.25/outbox.cif.g09.slc.cpg/sg2_34_cif.got.tgz:66352.got - 2010.06.27 13:26:56.
