data_PCOD8041498
_publ_section_title
;
Structure prediction by ZEFSAII (Michael W. Deem and Ramdas Pophale) SiO2 
 PCOD8041498
Probable space group: P -1
;
_chemical_formula_sum "Si O2"
_cell_formula_units_Z 16
_cell_length_a 11.124542
_cell_length_b 12.384409
_cell_length_c 17.476783
_cell_angle_alpha 29.496679
_cell_angle_beta 84.483371
_cell_angle_gamma 65.475267
_cell_volume 869.332514
_symmetry_space_group_name_H-M "P -1"
_symmetry_group_IT_number 2
_symmetry_cell_setting 'triclinic'
loop_
_space_group_symop_operation_xyz
x,y,z
-x,-y,-z
loop_
_atom_site_type_symbol
_atom_site_label
_atom_site_fract_x
_atom_site_fract_y
_atom_site_fract_z
Si Si1 0.554320 0.129812 0.505037
Si Si2 0.156436 0.240511 0.698005
Si Si3 0.599424 0.351762 0.702397
Si Si4 0.071381 0.145494 0.924113
Si Si5 0.392666 0.284019 0.126577
Si Si6 0.713690 0.136647 0.220392
Si Si7 0.571256 0.757963 0.329783
Si Si8 0.755891 0.778350 0.568678
O O1 0.522012 0.408022 0.372295
O O2 0.372052 0.255537 0.425935
O O3 0.658527 0.837732 0.733576
O O4 0.666197 0.028823 0.486013
O O5 0.120808 0.184561 0.816194
O O6 0.264512 0.323245 0.655959
O O7 0.000000 0.500000 0.500000
O O8 0.245930 0.952694 0.816029
O O9 0.625136 0.514287 0.539721
O O10 0.512627 0.249038 0.733719
O O11 0.773848 0.057482 0.904172
O O12 0.927139 0.459733 0.781335
O O13 0.000000 0.000000 0.000000
O O14 0.531589 0.266786 0.167312
O O15 0.446008 0.092951 0.164450
O O16 0.256148 0.640537 0.899153
O O17 0.815130 0.864463 0.442480
#
# Coordination Sequence:
#
# PCOD8041498 Si02
#       8
#     2   2   2   2   2   2   2   2
#     4   9  18  32  54  79 110 147 181 227 272 334
#     4  11  21  35  56  82 115 144 183 229 280 328
#     4  10  20  38  62  82 112 149 191 228 276 331
#     4  12  23  34  56  88 115 145 185 237 282 327
#     4   8  16  30  52  78 101 137 188 220 267 324
#     4   9  17  31  51  77 107 142 175 225 275 325
#     4   9  20  39  60  81 110 150 188 229 272 339
#     4  10  19  33  51  81 116 139 183 229 281 325
#
# _framework density 18.404924999999999
#
# number of rings (size 3 to 8) (size 9 to 14) (size 15 to 20)
#    0.000    2.250    2.500    1.500    1.750    3.500 
#    0.000    0.000    2.750    3.750    0.000    0.000 
#    0.000    0.000    0.000    0.000    0.000    0.000 
#
# Total GULP energy -198271.300066 kJ/mol
# GULP energy per Si atom -12391.956254 kJ/mol
# Density = 1.836303 g / cm^3
# Si number density = 18.404925 Si / 1000 Ang^3
#
#
#
# Elastic Constant Matrix: (Units=GPa)
#
#
# Indices 1 2 3 4 5 6 
#
# 1 93.8346 53.9386 48.0506 -0.7545 -2.0070 11.0185
# 2 53.9386 111.2187 46.0093 -6.3000 1.6822 9.0220
# 3 48.0506 46.0093 108.7420 -9.6970 7.9105 13.0136
# 4 -0.7545 -6.3000 -9.6970 25.8693 4.8350 -4.6863
# 5 -2.0070 1.6822 7.9105 4.8350 21.9930 -1.2598
# 6 11.0185 9.0220 13.0136 -4.6863 -1.2598 30.4399
#
#
#
# Elastic Compliance Matrix: (Units=1/GPa)
#
#
# Indices 1 2 3 4 5 6 
#
# 1 0.017475 -0.006320 -0.005492 -0.004471 0.004888 -0.002590
# 2 -0.006320 0.013257 -0.002491 0.002287 -0.001213 -0.000274
# 3 -0.005492 -0.002491 0.013948 0.005209 -0.006628 -0.002709
# 4 -0.004471 0.002287 0.005209 0.044165 -0.011878 0.005021
# 5 0.004888 -0.001213 -0.006628 -0.011878 0.051101 0.001710
# 6 -0.002590 -0.000274 -0.002709 0.005021 0.001710 0.035873
#
#
# Mechanical properties :
#
#
# Convention : Reuss Voigt Hill
#
# Bulk Modulus (GPa) = 62.21579 67.75472 64.98525
# Shear Modulus (GPa) = 23.83405 26.71355 25.27380
#
# Velocity S-wave (km/s) = 3.60249 3.81390 3.70970
# Velocity P-wave (km/s) = 7.15410 7.50252 7.33038
#
# Compressibility (1/GPa) = 0.01607309
#
# Stress axis : x y z
#
# Youngs Moduli (GPa) = 57.22404 75.43031 71.69540
#
# Poissons Ratio (x) = 0.47673 0.39376
# Poissons Ratio (y) = 0.36166 0.17862
# Poissons Ratio (z) = 0.31428 0.18793
#
# Static dielectric constant tensor:
#      x y z
#    x 3.186740 -0.150880 -0.156860 
#    y -0.150880 3.714790 -0.008110 
#    z -0.156860 -0.008110 3.707770 
# 
# 
# High freq. dielectric constant tensor:
#      x y z
#    x 1.674040 -0.007070 -0.014950 
#    y -0.007070 1.714230 -0.006540 
#    z -0.014950 -0.006540 1.720690 
# 
# From -- ./inp_files/305644.got.cif
#   From: 2010.06.25/outbox.cif.g09.slc.cpg/sg2_153_cif.got.tgz:305644.got - 2010.06.27 13:26:56.
