data_PCOD8041187
_publ_section_title
;
Structure prediction by ZEFSAII (Michael W. Deem and Ramdas Pophale) SiO2 
 PCOD8041187
Probable space group: P -1
;
_chemical_formula_sum "Si O2"
_cell_formula_units_Z 12
_cell_length_a 12.798233
_cell_length_b 10.496707
_cell_length_c 13.350299
_cell_angle_alpha 78.770874
_cell_angle_beta 158.381339
_cell_angle_gamma 90.958818
_cell_volume 577.253685
_symmetry_space_group_name_H-M "P -1"
_symmetry_group_IT_number 2
_symmetry_cell_setting 'triclinic'
loop_
_space_group_symop_operation_xyz
x,y,z
-x,-y,-z
loop_
_atom_site_type_symbol
_atom_site_label
_atom_site_fract_x
_atom_site_fract_y
_atom_site_fract_z
Si Si1 0.822208 0.903551 0.856604
Si Si2 0.284982 0.421450 0.496206
Si Si3 0.960252 0.373516 0.041618
Si Si4 0.628726 0.309570 0.249722
Si Si5 0.895038 0.744809 0.144228
Si Si6 0.065280 0.586367 0.634772
O O1 0.002403 0.753872 0.980198
O O2 0.500000 0.000000 0.500000
O O3 0.787932 0.870843 0.947062
O O4 0.000000 0.000000 0.000000
O O5 0.229006 0.324495 0.375105
O O6 0.011090 0.588820 0.216912
O O7 0.241950 0.355220 0.574547
O O8 0.619952 0.424564 0.783559
O O9 0.000000 0.500000 0.000000
O O10 0.875521 0.281893 0.381055
O O11 0.818254 0.264352 0.530070
O O12 0.417532 0.222149 0.070741
O O13 0.381731 0.482484 0.996459
O O14 0.000000 0.500000 0.500000
#
# Coordination Sequence:
#
# PCOD8041187 Si02
#       6
#     2   2   2   2   2   2
#     4  12  27  44  64  89 124 169 218 256 301 375
#     4  11  22  35  60  93 130 159 198 255 320 366
#     4  12  25  40  63  91 126 164 207 257 319 364
#     4  10  19  31  53  88 126 159 196 248 312 363
#     4  11  21  36  60  88 124 159 208 250 307 361
#     4  10  19  31  54  90 135 157 193 249 319 370
#
# _framework density 20.788087999999998
#
# number of rings (size 3 to 8) (size 9 to 14) (size 15 to 20)
#    0.000    1.000    5.000    4.500    4.667    0.000 
#    0.000    0.000    0.000    0.000    0.000   23.333 
#    0.000    0.000    0.000    0.000    0.000    0.000 
#
# Total GULP energy -148662.985072 kJ/mol
# GULP energy per Si atom -12388.582089 kJ/mol
# Density = 2.074077 g / cm^3
# Si number density = 20.788088 Si / 1000 Ang^3
#
#
#
# Elastic Constant Matrix: (Units=GPa)
#
#
# Indices 1 2 3 4 5 6 
#
# 1 147.3732 40.6097 49.3325 7.2996 7.4731 35.5846
# 2 40.6097 91.9387 26.8160 15.1555 8.3884 16.9984
# 3 49.3325 26.8160 113.4257 23.5053 -11.3215 17.4804
# 4 7.2996 15.1555 23.5053 34.9781 7.4377 -1.0409
# 5 7.4731 8.3884 -11.3215 7.4377 41.2676 10.7673
# 6 35.5846 16.9984 17.4804 -1.0409 10.7673 39.9497
#
#
#
# Elastic Compliance Matrix: (Units=1/GPa)
#
#
# Indices 1 2 3 4 5 6 
#
# 1 0.009999 -0.002457 -0.003073 0.001002 -0.000690 -0.006304
# 2 -0.002457 0.013639 -0.000752 -0.004809 -0.000836 -0.003186
# 3 -0.003073 -0.000752 0.014114 -0.010359 0.007887 -0.005515
# 4 0.001002 -0.004809 -0.010359 0.040250 -0.011894 0.009941
# 5 -0.000690 -0.000836 0.007887 -0.011894 0.031799 -0.011361
# 6 -0.006304 -0.003186 -0.005515 0.009941 -0.011361 0.037737
#
#
# Mechanical properties :
#
#
# Convention : Reuss Voigt Hill
#
# Bulk Modulus (GPa) = 39.69935 65.13931 52.41933
# Shear Modulus (GPa) = 29.67400 38.97104 34.32252
#
# Velocity S-wave (km/s) = 3.78226 4.33446 4.06774
# Velocity P-wave (km/s) = 6.18164 7.51352 6.87988
#
# Compressibility (1/GPa) = 0.02518933
#
# Stress axis : x y z
#
# Youngs Moduli (GPa) = 100.01331 73.31720 70.84919
#
# Poissons Ratio (x) = 0.18013 0.21771
# Poissons Ratio (y) = 0.24572 0.05327
# Poissons Ratio (z) = 0.30733 0.05513
#
# Static dielectric constant tensor:
#      x y z
#    x 4.392750 0.273470 0.057790 
#    y 0.273470 3.599820 0.324300 
#    z 0.057790 0.324300 3.728820 
# 
# 
# High freq. dielectric constant tensor:
#      x y z
#    x 1.836430 0.032740 -0.009680 
#    y 0.032740 1.767070 0.051430 
#    z -0.009680 0.051430 1.807590 
# 
# From -- ./inp_files/528536.got.cif
#   From: 2010.06.25/outbox.cif.g09.slc.cpg/sg2_265_cif.got.tgz:528536.got - 2010.06.27 13:26:56.
