data_PCOD8041479
_publ_section_title
;
Structure prediction by ZEFSAII (Michael W. Deem and Ramdas Pophale) SiO2 
 PCOD8041479
Probable space group: P -1
;
_chemical_formula_sum "Si O2"
_cell_formula_units_Z 16
_cell_length_a 11.069168
_cell_length_b 16.715069
_cell_length_c 13.703739
_cell_angle_alpha 84.760107
_cell_angle_beta 21.445144
_cell_angle_gamma 82.052736
_cell_volume 913.197969
_symmetry_space_group_name_H-M "P -1"
_symmetry_group_IT_number 2
_symmetry_cell_setting 'triclinic'
loop_
_space_group_symop_operation_xyz
x,y,z
-x,-y,-z
loop_
_atom_site_type_symbol
_atom_site_label
_atom_site_fract_x
_atom_site_fract_y
_atom_site_fract_z
Si Si1 0.103157 0.172088 0.181400
Si Si2 0.329900 0.914770 0.354343
Si Si3 0.184268 0.098859 0.431107
Si Si4 0.623808 0.493440 0.768301
Si Si5 0.453198 0.368601 0.044934
Si Si6 0.125184 0.644196 0.650844
Si Si7 0.615064 0.185275 0.966594
Si Si8 0.232024 0.445102 0.905421
O O1 0.808208 0.121426 0.439160
O O2 0.942855 0.263907 0.269699
O O3 0.300147 0.132144 0.942900
O O4 0.370413 0.168545 0.066551
O O5 0.075954 0.904084 0.459846
O O6 0.356901 0.009062 0.340276
O O7 0.987560 0.140426 0.668294
O O8 0.475737 0.150834 0.174852
O O9 0.445224 0.568746 0.957981
O O10 0.470746 0.502398 0.773899
O O11 0.000000 0.500000 0.500000
O O12 0.587108 0.401828 0.839813
O O13 0.062017 0.365818 0.312131
O O14 0.636234 0.280800 0.948808
O O15 0.520406 0.621852 0.334448
O O16 0.004675 0.590166 0.834088
O O17 0.000000 0.500000 0.000000
#
# Coordination Sequence:
#
# PCOD8041479 Si02
#       8
#     2   2   2   2   2   2   2   2
#     4   9  16  25  41  59  81 115 156 195 221 266
#     4   9  15  24  36  56  83 118 156 183 224 274
#     4   9  16  24  35  54  86 121 150 184 224 284
#     4  10  19  33  51  69  95 125 167 205 237 280
#     4   9  19  30  47  70  91 124 166 207 235 279
#     4  10  19  33  49  69  94 124 165 202 237 284
#     4   9  17  25  38  58  84 117 154 188 231 271
#     4  11  22  35  51  71  98 130 160 198 247 289
#
# _framework density 17.520845999999999
#
# number of rings (size 3 to 8) (size 9 to 14) (size 15 to 20)
#    0.000    2.500    1.250    1.875    1.750    6.000 
#    0.000    0.000    0.000    0.000    0.000    0.000 
#    0.000    0.000    0.000   22.500    0.000   17.500 
#
# Total GULP energy -198258.575764 kJ/mol
# GULP energy per Si atom -12391.160985 kJ/mol
# Density = 1.748097 g / cm^3
# Si number density = 17.520846 Si / 1000 Ang^3
#
#
#
# Elastic Constant Matrix: (Units=GPa)
#
#
# Indices 1 2 3 4 5 6 
#
# 1 48.8195 33.8187 28.6862 3.4785 1.1914 -6.7146
# 2 33.8187 138.2437 53.2370 2.1571 6.9549 3.5470
# 3 28.6862 53.2370 113.5799 9.2557 23.3788 1.2636
# 4 3.4785 2.1571 9.2557 31.2057 -0.9728 0.9762
# 5 1.1914 6.9549 23.3788 -0.9728 20.8837 1.4173
# 6 -6.7146 3.5470 1.2636 0.9762 1.4173 10.3876
#
#
#
# Elastic Compliance Matrix: (Units=1/GPa)
#
#
# Indices 1 2 3 4 5 6 
#
# 1 0.031578 -0.006097 -0.006424 -0.001721 0.005803 0.022645
# 2 -0.006097 0.010193 -0.003574 0.001311 0.001512 -0.007317
# 3 -0.006424 -0.003574 0.015793 -0.004154 -0.016163 -0.002257
# 4 -0.001721 0.001311 -0.004154 0.033732 0.006228 -0.005075
# 5 0.005803 0.001512 -0.016163 0.006228 0.065729 -0.004352
# 6 0.022645 -0.007317 -0.002257 -0.005075 -0.004352 0.114750
#
#
# Mechanical properties :
#
#
# Convention : Reuss Voigt Hill
#
# Bulk Modulus (GPa) = 39.41288 59.12521 49.26904
# Shear Modulus (GPa) = 16.00400 24.82215 20.41307
#
# Velocity S-wave (km/s) = 3.02557 3.76802 3.41702
# Velocity P-wave (km/s) = 5.89484 7.26289 6.61433
#
# Compressibility (1/GPa) = 0.02537242
#
# Stress axis : x y z
#
# Youngs Moduli (GPa) = 31.66811 98.10809 63.32022
#
# Poissons Ratio (x) = 0.59819 0.40675
# Poissons Ratio (y) = 0.19309 0.22633
# Poissons Ratio (z) = 0.20343 0.35068
#
# Static dielectric constant tensor:
#      x y z
#    x 1.898110 -0.656040 0.007620 
#    y -0.656040 2.628300 -0.427080 
#    z 0.007620 -0.427080 3.023050 
# 
# 
# High freq. dielectric constant tensor:
#      x y z
#    x 1.602070 0.004680 0.033040 
#    y 0.004680 1.685050 -0.000980 
#    z 0.033040 -0.000980 1.684130 
# 
# From -- ./inp_files/45813.got.cif
#   From: 2010.06.25/outbox.cif.g09.slc.cpg/sg2_23_cif.got.tgz:45813.got - 2010.06.27 13:26:56.
