data_PCOD8041300
_publ_section_title
;
Structure prediction by ZEFSAII (Michael W. Deem and Ramdas Pophale) SiO2 
 PCOD8041300
Probable space group: P -1
;
_chemical_formula_sum "Si O2"
_cell_formula_units_Z 16
_cell_length_a 21.526721
_cell_length_b 18.296466
_cell_length_c 5.023454
_cell_angle_alpha 103.193170
_cell_angle_beta 111.672376
_cell_angle_gamma 28.540207
_cell_volume 857.618584
_symmetry_space_group_name_H-M "P -1"
_symmetry_group_IT_number 2
_symmetry_cell_setting 'triclinic'
loop_
_space_group_symop_operation_xyz
x,y,z
-x,-y,-z
loop_
_atom_site_type_symbol
_atom_site_label
_atom_site_fract_x
_atom_site_fract_y
_atom_site_fract_z
Si Si1 0.149770 0.836612 0.218459
Si Si2 0.440108 0.441299 0.810506
Si Si3 0.614727 0.914085 0.892375
Si Si4 0.739513 0.593813 0.991530
Si Si5 0.698973 0.267961 0.143400
Si Si6 0.716185 0.450927 0.827123
Si Si7 0.407843 0.207685 0.558404
Si Si8 0.906010 0.575726 0.165780
O O1 0.171028 0.862000 0.550404
O O2 0.171288 0.725704 0.200772
O O3 0.259290 0.760858 0.118434
O O4 0.000000 0.000000 0.000000
O O5 0.392426 0.572143 0.766018
O O6 0.408628 0.423839 0.483433
O O7 0.604962 0.284634 0.015480
O O8 0.353598 0.489753 0.948872
O O9 0.633779 0.837154 0.612363
O O10 0.564816 0.043900 0.796054
O O11 0.770236 0.764448 0.136126
O O12 0.500000 0.000000 0.000000
O O13 0.693533 0.657296 0.270590
O O14 0.859611 0.533673 0.045645
O O15 0.795290 0.453214 0.951526
O O16 0.607701 0.730356 0.689509
O O17 0.000000 0.500000 0.500000
O O18 0.000000 0.500000 0.000000
#
# Coordination Sequence:
#
# PCOD8041300 Si02
#       8
#     2   2   2   2   2   2   2   2
#     4  10  19  32  52  81 104 149 191 218 262 333
#     4   9  17  31  51  79 101 132 168 222 288 311
#     4  10  19  35  59  83 109 137 182 233 283 328
#     4  11  21  36  54  80 110 145 184 238 285 338
#     4   9  17  30  51  76 108 127 168 233 271 309
#     4  10  20  33  54  77 108 140 185 229 274 334
#     4  10  19  32  57  81 102 137 180 223 282 329
#     4  11  23  35  55  84 112 143 187 232 283 335
#
# _framework density 18.656313000000001
#
# number of rings (size 3 to 8) (size 9 to 14) (size 15 to 20)
#    0.000    2.000    2.500    3.375    1.750    3.000 
#    0.000    0.000    0.000    9.000    0.000    0.000 
#    0.000    0.000    0.000    0.000    0.000    0.000 
#
# Total GULP energy -198209.791970 kJ/mol
# GULP energy per Si atom -12388.111998 kJ/mol
# Density = 1.861385 g / cm^3
# Si number density = 18.656313 Si / 1000 Ang^3
#
#
#
# Elastic Constant Matrix: (Units=GPa)
#
#
# Indices 1 2 3 4 5 6 
#
# 1 84.7887 31.0913 41.3578 -1.7378 9.8220 5.7781
# 2 31.0913 69.5296 38.7420 -11.1540 8.6799 -0.8067
# 3 41.3578 38.7420 124.7356 -12.1962 -9.3904 3.7957
# 4 -1.7378 -11.1540 -12.1962 33.3911 -5.2679 -0.6950
# 5 9.8220 8.6799 -9.3904 -5.2679 29.9245 3.5920
# 6 5.7781 -0.8067 3.7957 -0.6950 3.5920 22.1828
#
#
#
# Elastic Compliance Matrix: (Units=1/GPa)
#
#
# Indices 1 2 3 4 5 6 
#
# 1 0.016615 -0.004624 -0.004761 -0.003403 -0.005864 -0.002838
# 2 -0.004624 0.020681 -0.005059 0.003980 -0.005835 0.003892
# 3 -0.004761 -0.005059 0.012178 0.003690 0.007761 -0.002169
# 4 -0.003403 0.003980 0.003690 0.033558 0.006989 0.000319
# 5 -0.005864 -0.005835 0.007761 0.006989 0.041482 -0.006511
# 6 -0.002838 0.003892 -0.002169 0.000319 -0.006511 0.047396
#
#
# Mechanical properties :
#
#
# Convention : Reuss Voigt Hill
#
# Bulk Modulus (GPa) = 48.57429 55.71515 52.14472
# Shear Modulus (GPa) = 24.07817 28.29053 26.18435
#
# Velocity S-wave (km/s) = 3.59641 3.89833 3.75041
# Velocity P-wave (km/s) = 6.58320 7.08459 6.83849
#
# Compressibility (1/GPa) = 0.02058702
#
# Stress axis : x y z
#
# Youngs Moduli (GPa) = 60.18811 48.35420 82.11770
#
# Poissons Ratio (x) = 0.22357 0.39093
# Poissons Ratio (y) = 0.27829 0.41542
# Poissons Ratio (z) = 0.28653 0.24461
#
# Static dielectric constant tensor:
#      x y z
#    x 3.313930 0.111920 -0.153200 
#    y 0.111920 3.405910 -0.142500 
#    z -0.153200 -0.142500 3.849720 
# 
# 
# High freq. dielectric constant tensor:
#      x y z
#    x 1.697020 -0.000920 -0.025210 
#    y -0.000920 1.692510 -0.000440 
#    z -0.025210 -0.000440 1.747590 
# 
# From -- ./inp_files/119932.got.cif
#   From: 2010.06.25/outbox.cif.g09.slc.cpg/sg2_60_cif.got.tgz:119932.got - 2010.06.27 13:26:56.
