data_PCOD8041028
_publ_section_title
;
Structure prediction by ZEFSAII (Michael W. Deem and Ramdas Pophale) SiO2 
 PCOD8041028
Probable space group: P -1
;
_chemical_formula_sum "Si O2"
_cell_formula_units_Z 16
_cell_length_a 25.691912
_cell_length_b 7.654142
_cell_length_c 15.722586
_cell_angle_alpha 111.605162
_cell_angle_beta 162.886513
_cell_angle_gamma 78.337029
_cell_volume 707.935142
_symmetry_space_group_name_H-M "P -1"
_symmetry_group_IT_number 2
_symmetry_cell_setting 'triclinic'
loop_
_space_group_symop_operation_xyz
x,y,z
-x,-y,-z
loop_
_atom_site_type_symbol
_atom_site_label
_atom_site_fract_x
_atom_site_fract_y
_atom_site_fract_z
Si Si1 0.204163 0.195736 0.033287
Si Si2 0.315570 0.865255 0.120901
Si Si3 0.512276 0.695793 0.800570
Si Si4 0.564285 0.576516 0.209056
Si Si5 0.681018 0.534817 0.901846
Si Si6 0.517897 0.945022 0.269294
Si Si7 0.017969 0.738906 0.975371
Si Si8 0.958244 0.662743 0.054338
O O1 0.441509 0.357192 0.466878
O O2 0.179721 0.295195 0.925126
O O3 0.028048 0.176194 0.819680
O O4 0.152816 0.944579 0.893657
O O5 0.209839 0.599864 0.924784
O O6 0.400572 0.927707 0.169244
O O7 0.500000 0.000000 0.500000
O O8 0.517837 0.642946 0.899241
O O9 0.685333 0.677714 0.014675
O O10 0.286439 0.509550 0.378034
O O11 0.544684 0.937285 0.879147
O O12 0.453794 0.703152 0.091669
O O13 0.820030 0.753920 0.643246
O O14 0.500000 0.500000 0.000000
O O15 0.768356 0.088477 0.710295
O O16 0.074011 0.799943 0.174290
O O17 0.944211 0.481812 0.792960
#
# Coordination Sequence:
#
# PCOD8041028 Si02
#       8
#     2   2   2   2   2   2   2   2
#     4   9  16  26  45  73 110 140 169 212 274 325
#     4  10  19  26  46  84 116 134 171 218 276 323
#     4   9  17  32  52  72 108 139 175 219 269 313
#     4  11  23  38  54  77 109 149 188 224 265 320
#     4   9  15  26  42  71 110 139 164 209 270 318
#     4  11  20  35  57  84 111 143 176 228 275 319
#     4   9  19  34  54  79 111 144 178 220 277 321
#     4   8  16  31  51  77 113 144 170 220 276 324
#
# _framework density 22.600939
#
# number of rings (size 3 to 8) (size 9 to 14) (size 15 to 20)
#    0.000    2.500    2.500    1.125    7.000    0.500 
#    0.000    0.000    0.000    0.000    0.000    4.375 
#    0.000    0.000    0.000    0.000    0.000    0.000 
#
# Total GULP energy -198313.766450 kJ/mol
# GULP energy per Si atom -12394.610403 kJ/mol
# Density = 2.254950 g / cm^3
# Si number density = 22.600939 Si / 1000 Ang^3
#
#
#
# Elastic Constant Matrix: (Units=GPa)
#
#
# Indices 1 2 3 4 5 6 
#
# 1 143.8446 71.4302 13.6028 -15.0794 -12.2923 -12.2569
# 2 71.4302 174.7420 7.5675 -24.8936 -3.3981 -1.8863
# 3 13.6028 7.5675 8.6777 -2.5538 -5.9367 1.0804
# 4 -15.0794 -24.8936 -2.5538 9.3578 -0.0029 2.0289
# 5 -12.2923 -3.3981 -5.9367 -0.0029 18.9809 -8.5261
# 6 -12.2569 -1.8863 1.0804 2.0289 -8.5261 45.7971
#
#
#
# Elastic Compliance Matrix: (Units=1/GPa)
#
#
# Indices 1 2 3 4 5 6 
#
# 1 0.010686 -0.002975 -0.009371 0.005960 0.005094 0.003643
# 2 -0.002975 0.010104 0.002977 0.023212 0.000167 -0.001448
# 3 -0.009371 0.002977 0.172228 0.039647 0.048727 0.000867
# 4 0.005960 0.023212 0.039647 0.189746 0.018982 -0.003256
# 5 0.005094 0.000167 0.048727 0.018982 0.077455 0.013800
# 6 0.003643 -0.001448 0.000867 -0.003256 0.013800 0.025444
#
#
# Mechanical properties :
#
#
# Convention : Reuss Voigt Hill
#
# Bulk Modulus (GPa) = 5.73790 56.94058 31.33924
# Shear Modulus (GPa) = 8.88900 30.47142 19.68021
#
# Velocity S-wave (km/s) = 1.98534 3.67582 2.95408
# Velocity P-wave (km/s) = 2.79280 6.57755 5.05291
#
# Compressibility (1/GPa) = 0.17427975
#
# Stress axis : x y z
#
# Youngs Moduli (GPa) = 93.58136 98.96925 5.80627
#
# Poissons Ratio (x) = 0.29442 0.05441
# Poissons Ratio (y) = 0.27839 -0.01729
# Poissons Ratio (z) = 0.87696 -0.29464
#
# Static dielectric constant tensor:
#      x y z
#    x 4.178700 -0.091120 0.198920 
#    y -0.091120 4.664990 -0.293140 
#    z 0.198920 -0.293140 3.168310 
# 
# 
# High freq. dielectric constant tensor:
#      x y z
#    x 1.897800 -0.005530 0.007470 
#    y -0.005530 1.912230 -0.019600 
#    z 0.007470 -0.019600 1.810080 
# 
# From -- ./inp_files/312241.got.cif
#   From: 2010.06.25/outbox.cif.g09.slc.cpg/sg2_157_cif.got.tgz:312241.got - 2010.06.27 13:26:56.
