data_PCOD8041663
_publ_section_title
;
Structure prediction by ZEFSAII (Michael W. Deem and Ramdas Pophale) SiO2 
 PCOD8041663
Probable space group: P -1
;
_chemical_formula_sum "Si O2"
_cell_formula_units_Z 14
_cell_length_a 15.336951
_cell_length_b 31.367977
_cell_length_c 16.103438
_cell_angle_alpha 19.642321
_cell_angle_beta 162.072325
_cell_angle_gamma 162.423153
_cell_volume 667.826326
_symmetry_space_group_name_H-M "P -1"
_symmetry_group_IT_number 2
_symmetry_cell_setting 'triclinic'
loop_
_space_group_symop_operation_xyz
x,y,z
-x,-y,-z
loop_
_atom_site_type_symbol
_atom_site_label
_atom_site_fract_x
_atom_site_fract_y
_atom_site_fract_z
Si Si1 0.160444 0.394680 0.605682
Si Si2 0.916156 0.834561 0.747776
Si Si3 0.165171 0.376019 0.372354
Si Si4 0.272798 0.625299 0.898240
Si Si5 0.705957 0.197664 0.699409
Si Si6 0.367760 0.260901 0.628357
Si Si7 0.799092 0.130563 0.226408
O O1 0.456244 0.571642 0.559942
O O2 0.865829 0.378747 0.311062
O O3 0.015846 0.326542 0.689703
O O4 0.327292 0.309143 0.870964
O O5 0.518442 0.736549 0.593679
O O6 0.000748 0.778178 0.843973
O O7 0.000000 0.000000 0.500000
O O8 0.152732 0.842503 0.020387
O O9 0.500000 0.500000 0.500000
O O10 0.231087 0.258335 0.602273
O O11 0.832907 0.285792 0.297747
O O12 0.083674 0.457203 0.076399
O O13 0.478263 0.047162 0.713952
O O14 0.063952 0.140243 0.514927
O O15 0.631239 0.212162 0.964776
#
# Coordination Sequence:
#
# PCOD8041663 Si02
#       7
#     2   2   2   2   2   2   2
#     4  11  22  37  57  89 119 151 192 232 293 346
#     4  10  20  39  63  84 109 156 204 231 269 351
#     4  10  19  34  59  86 114 152 201 227 278 343
#     4  10  19  33  56  84 114 148 195 238 264 338
#     4  11  22  40  64  83 113 160 197 226 283 361
#     4  11  22  35  58  90 118 143 187 252 288 322
#     4  11  22  38  59  87 116 145 195 246 285 323
#
# _framework density 20.963533000000002
#
# number of rings (size 3 to 8) (size 9 to 14) (size 15 to 20)
#    0.000    1.429    2.857    6.857    2.000    0.000 
#    0.000    4.286    0.000    5.143    0.000    0.000 
#    0.000    0.000    0.000    0.000    0.000    0.000 
#
# Total GULP energy -173512.127928 kJ/mol
# GULP energy per Si atom -12393.723423 kJ/mol
# Density = 2.091582 g / cm^3
# Si number density = 20.963533 Si / 1000 Ang^3
#
#
#
# Elastic Constant Matrix: (Units=GPa)
#
#
# Indices 1 2 3 4 5 6 
#
# 1 55.8830 -11.9977 20.4507 7.3104 22.3195 -4.3601
# 2 -11.9977 27.1525 10.8824 14.3017 0.5930 -3.3131
# 3 20.4507 10.8824 82.0543 21.9437 7.2632 -4.5582
# 4 7.3104 14.3017 21.9437 24.4617 -2.8790 1.2293
# 5 22.3195 0.5930 7.2632 -2.8790 47.7945 10.9575
# 6 -4.3601 -3.3131 -4.5582 1.2293 10.9575 30.8773
#
#
#
# Elastic Compliance Matrix: (Units=1/GPa)
#
#
# Indices 1 2 3 4 5 6 
#
# 1 0.054170 0.056990 -0.002162 -0.053137 -0.035317 0.028093
# 2 0.056990 0.116432 0.001331 -0.093353 -0.042987 0.039709
# 3 -0.002162 0.001331 0.017534 -0.016514 -0.003672 0.004387
# 4 -0.053137 -0.093353 -0.016514 0.133669 0.046079 -0.041632
# 5 -0.035317 -0.042987 -0.003672 0.046079 0.047928 -0.028984
# 6 0.028093 0.039709 0.004387 -0.041632 -0.028984 0.053205
#
#
# Mechanical properties :
#
#
# Convention : Reuss Voigt Hill
#
# Bulk Modulus (GPa) = 3.32831 22.64006 12.98419
# Shear Modulus (GPa) = 12.17220 30.34366 21.25793
#
# Velocity S-wave (km/s) = 2.41226 3.80866 3.18786
# Velocity P-wave (km/s) = 3.05774 5.49221 4.44489
#
# Compressibility (1/GPa) = 0.30045295
#
# Stress axis : x y z
#
# Youngs Moduli (GPa) = 18.46055 8.58870 57.03056
#
# Poissons Ratio (x) = -0.48947 0.12330
# Poissons Ratio (y) = -1.05206 -0.07590
# Poissons Ratio (z) = 0.03991 -0.01143
#
# Static dielectric constant tensor:
#      x y z
#    x 4.535990 0.162220 0.484410 
#    y 0.162220 3.290540 0.309270 
#    z 0.484410 0.309270 3.949770 
# 
# 
# High freq. dielectric constant tensor:
#      x y z
#    x 1.844250 0.001790 0.016320 
#    y 0.001790 1.759590 0.038100 
#    z 0.016320 0.038100 1.831530 
# 
# From -- ./inp_files/128553.got.cif
#   From: 2010.06.25/outbox.cif.g09.slc.cpg/sg2_65_cif.got.tgz:128553.got - 2010.06.27 13:26:56.
