data_PCOD8041967
_publ_section_title
;
Structure prediction by ZEFSAII (Michael W. Deem and Ramdas Pophale) SiO2 
 PCOD8041967
Probable space group: P -1
;
_chemical_formula_sum "Si O2"
_cell_formula_units_Z 16
_cell_length_a 11.230893
_cell_length_b 13.171765
_cell_length_c 6.948975
_cell_angle_alpha 135.473117
_cell_angle_beta 94.680166
_cell_angle_gamma 94.523140
_cell_volume 704.507099
_symmetry_space_group_name_H-M "P -1"
_symmetry_group_IT_number 2
_symmetry_cell_setting 'triclinic'
loop_
_space_group_symop_operation_xyz
x,y,z
-x,-y,-z
loop_
_atom_site_type_symbol
_atom_site_label
_atom_site_fract_x
_atom_site_fract_y
_atom_site_fract_z
Si Si1 0.985324 0.650594 0.466037
Si Si2 0.895611 0.800701 0.337124
Si Si3 0.299955 0.868150 0.112139
Si Si4 0.610847 0.320923 0.829209
Si Si5 0.272969 0.429598 0.542015
Si Si6 0.655072 0.795321 0.493136
Si Si7 0.251638 0.616922 0.463589
Si Si8 0.032957 0.877941 0.096114
O O1 0.104265 0.579817 0.396771
O O2 0.952384 0.671849 0.268127
O O3 0.865938 0.548683 0.406772
O O4 0.006188 0.811443 0.791210
O O5 0.750105 0.772708 0.308040
O O6 0.924275 0.797425 0.111387
O O7 0.962596 0.948386 0.656026
O O8 0.374327 0.826241 0.249624
O O9 0.162811 0.849183 0.147491
O O10 0.351668 0.032518 0.259759
O O11 0.307100 0.762334 0.789450
O O12 0.474482 0.300503 0.706816
O O13 0.702446 0.356689 0.710604
O O14 0.635320 0.459060 0.161116
O O15 0.297411 0.266296 0.380787
O O16 0.296040 0.477280 0.384908
#
# Coordination Sequence:
#
# PCOD8041967 Si02
#       8
#     2   2   2   2   2   2   2   2
#     4  10  19  34  55  81 110 141 183 231 276 328
#     4   9  18  32  53  83 112 143 180 224 281 334
#     4   9  20  39  60  86 112 140 189 237 277 332
#     4  11  22  39  59  80 114 155 188 226 276 328
#     4  10  23  39  56  82 114 149 190 230 275 333
#     4  10  21  39  59  82 115 149 187 234 274 325
#     4  10  22  38  59  84 113 149 184 229 284 333
#     4   9  17  32  55  82 113 141 175 229 286 330
#
# _framework density 22.710916000000001
#
# number of rings (size 3 to 8) (size 9 to 14) (size 15 to 20)
#    0.000    2.250    0.000    2.250    0.000    4.500 
#    0.000    6.250    0.000    0.000    0.000    0.000 
#    0.000    0.000    0.000    0.000    0.000    0.000 
#
# Total GULP energy -198300.533098 kJ/mol
# GULP energy per Si atom -12393.783319 kJ/mol
# Density = 2.265922 g / cm^3
# Si number density = 22.710916 Si / 1000 Ang^3
#
#
#
# Elastic Constant Matrix: (Units=GPa)
#
#
# Indices 1 2 3 4 5 6 
#
# 1 67.9680 20.0194 3.1732 -0.1961 22.2417 -2.9055
# 2 20.0194 146.9050 16.6237 -8.7002 -3.7514 -14.9056
# 3 3.1732 16.6237 19.8176 -3.0780 1.9112 -1.7963
# 4 -0.1961 -8.7002 -3.0780 27.7331 5.5457 7.2191
# 5 22.2417 -3.7514 1.9112 5.5457 24.9643 0.4307
# 6 -2.9055 -14.9056 -1.7963 7.2191 0.4307 26.4569
#
#
#
# Elastic Compliance Matrix: (Units=1/GPa)
#
#
# Indices 1 2 3 4 5 6 
#
# 1 0.022886 -0.003710 0.002119 0.003633 -0.021916 -0.000067
# 2 -0.003710 0.008600 -0.006772 -0.000117 0.005074 0.003927
# 3 0.002119 -0.006772 0.057510 0.006342 -0.008695 -0.001266
# 4 0.003633 -0.000117 0.006342 0.042066 -0.012903 -0.010504
# 5 -0.021916 0.005074 -0.008695 -0.012903 0.063837 0.002343
# 6 -0.000067 0.003927 -0.001266 -0.010504 0.002343 0.042745
#
#
# Mechanical properties :
#
#
# Convention : Reuss Voigt Hill
#
# Bulk Modulus (GPa) = 13.83677 34.92479 24.38078
# Shear Modulus (GPa) = 17.95605 28.82246 23.38925
#
# Velocity S-wave (km/s) = 2.81487 3.56631 3.21264
# Velocity P-wave (km/s) = 4.08295 5.68942 4.95176
#
# Compressibility (1/GPa) = 0.07227120
#
# Stress axis : x y z
#
# Youngs Moduli (GPa) = 43.69529 116.27802 17.38832
#
# Poissons Ratio (x) = 0.43137 -0.03685
# Poissons Ratio (y) = 0.16210 0.11775
# Poissons Ratio (z) = -0.09260 0.78738
#
# Static dielectric constant tensor:
#      x y z
#    x 3.963320 -0.025290 0.144670 
#    y -0.025290 4.246220 0.022700 
#    z 0.144670 0.022700 3.840560 
# 
# 
# High freq. dielectric constant tensor:
#      x y z
#    x 1.884560 -0.000920 0.016720 
#    y -0.000920 1.909890 -0.001340 
#    z 0.016720 -0.001340 1.876030 
# 
# From -- ./inp_files/72387.got.cif
#   From: 2010.06.25/outbox.cif.g09.slc.cpg/sg2_37_cif.got.tgz:72387.got - 2010.06.27 13:26:56.
