data_PCOD8041741
_publ_section_title
;
Structure prediction by ZEFSAII (Michael W. Deem and Ramdas Pophale) SiO2 
 PCOD8041741
Probable space group: P -1
;
_chemical_formula_sum "Si O2"
_cell_formula_units_Z 16
_cell_length_a 11.815015
_cell_length_b 16.249312
_cell_length_c 18.446725
_cell_angle_alpha 28.457386
_cell_angle_beta 148.715201
_cell_angle_gamma 129.814503
_cell_volume 783.153577
_symmetry_space_group_name_H-M "P -1"
_symmetry_group_IT_number 2
_symmetry_cell_setting 'triclinic'
loop_
_space_group_symop_operation_xyz
x,y,z
-x,-y,-z
loop_
_atom_site_type_symbol
_atom_site_label
_atom_site_fract_x
_atom_site_fract_y
_atom_site_fract_z
Si Si1 0.913597 0.921743 0.348099
Si Si2 0.046377 0.769973 0.123822
Si Si3 0.641701 0.063299 0.761395
Si Si4 0.221907 0.727004 0.090639
Si Si5 0.253608 0.353835 0.605864
Si Si6 0.470177 0.179083 0.004435
Si Si7 0.869234 0.600810 0.777793
Si Si8 0.836300 0.212623 0.274832
O O1 0.862069 0.789619 0.364978
O O2 0.158267 0.799658 0.624469
O O3 0.944558 0.092484 0.191352
O O4 0.687529 0.008207 0.212706
O O5 0.238576 0.798919 0.257772
O O6 0.112540 0.773513 0.074252
O O7 0.057022 0.566683 0.310964
O O8 0.774641 0.938861 0.859275
O O9 0.358715 0.194312 0.486577
O O10 0.678972 0.916262 0.962050
O O11 0.498051 0.700633 0.261353
O O12 0.221378 0.532160 0.213148
O O13 0.301711 0.339880 0.729725
O O14 0.569395 0.281263 0.039825
O O15 0.062560 0.636273 0.808400
O O16 0.000000 0.500000 0.000000
O O17 0.000000 0.000000 0.500000
#
# Coordination Sequence:
#
# PCOD8041741 Si02
#       8
#     2   2   2   2   2   2   2   2
#     4  10  19  34  60  89 116 150 202 262 295 346
#     4  11  24  38  58  92 128 162 190 252 309 367
#     4  11  23  40  59  87 131 158 196 245 316 358
#     4  11  22  36  62  91 120 156 206 254 299 352
#     4  11  20  35  62  89 117 154 213 248 300 348
#     4  10  20  36  59  89 116 158 197 257 297 355
#     4  12  22  37  65  93 117 159 207 253 297 365
#     4  10  19  33  57  88 115 147 200 253 297 340
#
# _framework density 20.430221
#
# number of rings (size 3 to 8) (size 9 to 14) (size 15 to 20)
#    0.000    1.250    3.750    6.375    0.000    0.500 
#    0.000    0.625    0.000    1.500    0.000    0.000 
#    0.000    0.000    0.000    0.000    0.000    0.000 
#
# Total GULP energy -198399.180708 kJ/mol
# GULP energy per Si atom -12399.948794 kJ/mol
# Density = 2.038372 g / cm^3
# Si number density = 20.430221 Si / 1000 Ang^3
#
#
#
# Elastic Constant Matrix: (Units=GPa)
#
#
# Indices 1 2 3 4 5 6 
#
# 1 86.0525 21.6444 49.1350 -10.7067 -15.3816 -12.2957
# 2 21.6444 97.9246 34.1157 -2.1365 -10.7009 0.5327
# 3 49.1350 34.1157 81.5813 -0.9658 -19.6451 -11.7358
# 4 -10.7067 -2.1365 -0.9658 27.8907 -1.5749 -11.6922
# 5 -15.3816 -10.7009 -19.6451 -1.5749 31.0785 -2.3995
# 6 -12.2957 0.5327 -11.7358 -11.6922 -2.3995 32.7759
#
#
#
# Elastic Compliance Matrix: (Units=1/GPa)
#
#
# Indices 1 2 3 4 5 6 
#
# 1 0.021001 -0.000457 -0.009730 0.011763 0.005376 0.008992
# 2 -0.000457 0.012115 -0.004963 -0.000311 0.000622 -0.002211
# 3 -0.009730 -0.004963 0.022894 -0.000776 0.008290 0.004958
# 4 0.011763 -0.000311 -0.000776 0.050428 0.009542 0.022828
# 5 0.005376 0.000622 0.008290 0.009542 0.041658 0.011429
# 6 0.008992 -0.002211 0.004958 0.022828 0.011429 0.044675
#
#
# Mechanical properties :
#
#
# Convention : Reuss Voigt Hill
#
# Bulk Modulus (GPa) = 38.89568 52.81653 45.85611
# Shear Modulus (GPa) = 21.58521 29.05990 25.32255
#
# Velocity S-wave (km/s) = 3.25396 3.77556 3.52442
# Velocity P-wave (km/s) = 5.76171 6.70185 6.24948
#
# Compressibility (1/GPa) = 0.02570980
#
# Stress axis : x y z
#
# Youngs Moduli (GPa) = 47.61730 82.54087 43.67987
#
# Poissons Ratio (x) = 0.03770 0.42500
# Poissons Ratio (y) = 0.02175 0.21679
# Poissons Ratio (z) = 0.46332 0.40967
#
# Static dielectric constant tensor:
#      x y z
#    x 3.670820 -0.000130 -0.353690 
#    y -0.000130 4.284510 0.123330 
#    z -0.353690 0.123330 3.778140 
# 
# 
# High freq. dielectric constant tensor:
#      x y z
#    x 1.784740 0.006560 -0.034310 
#    y 0.006560 1.805940 -0.002540 
#    z -0.034310 -0.002540 1.777490 
# 
# From -- ./inp_files/174981.got.cif
#   From: 2010.06.25/outbox.cif.g09.slc.cpg/sg2_88_cif.got.tgz:174981.got - 2010.06.27 13:26:56.
