data_PCOD8041973
_publ_section_title
;
Structure prediction by ZEFSAII (Michael W. Deem and Ramdas Pophale) SiO2 
 PCOD8041973
Probable space group: P -1
;
_chemical_formula_sum "Si O2"
_cell_formula_units_Z 16
_cell_length_a 8.615635
_cell_length_b 12.563535
_cell_length_c 9.324148
_cell_angle_alpha 80.682789
_cell_angle_beta 115.944632
_cell_angle_gamma 110.592983
_cell_volume 849.526021
_symmetry_space_group_name_H-M "P -1"
_symmetry_group_IT_number 2
_symmetry_cell_setting 'triclinic'
loop_
_space_group_symop_operation_xyz
x,y,z
-x,-y,-z
loop_
_atom_site_type_symbol
_atom_site_label
_atom_site_fract_x
_atom_site_fract_y
_atom_site_fract_z
Si Si1 0.530229 0.728336 0.649043
Si Si2 0.858782 0.518394 0.326886
Si Si3 0.688814 0.274322 0.186454
Si Si4 0.267768 0.126091 0.555857
Si Si5 0.871155 0.131301 0.459661
Si Si6 0.402238 0.725087 0.174454
Si Si7 0.178402 0.719394 0.345251
Si Si8 0.500781 0.490471 0.671697
O O1 0.492753 0.777298 0.776718
O O2 0.670120 0.822312 0.588434
O O3 0.329894 0.677065 0.501718
O O4 0.600636 0.620750 0.734003
O O5 0.775518 0.409879 0.214707
O O6 0.701718 0.556150 0.333436
O O7 0.000000 0.500000 0.500000
O O8 0.983159 0.624657 0.262211
O O9 0.831687 0.211158 0.303318
O O10 0.634551 0.246213 0.007541
O O11 0.399500 0.195113 0.717402
O O12 0.074527 0.135041 0.514809
O O13 0.266226 0.996373 0.581643
O O14 0.847197 0.174882 0.600077
O O15 0.255235 0.756031 0.209271
O O16 0.387950 0.592358 0.214395
O O17 0.500000 0.500000 0.500000
#
# Coordination Sequence:
#
# PCOD8041973 Si02
#       8
#     2   2   2   2   2   2   2   2
#     4   9  19  34  56  83 110 149 189 226 273 338
#     4  11  18  33  57  82 113 152 187 227 275 332
#     4  10  23  37  55  86 120 146 185 231 289 334
#     4  10  21  38  63  84 104 147 202 231 277 332
#     4  10  21  39  61  84 106 148 197 238 269 339
#     4  11  23  36  55  88 118 149 183 233 287 335
#     4  10  19  34  55  82 112 151 190 223 278 333
#     4  11  18  32  56  81 113 149 190 224 270 338
#
# _framework density 18.834032000000001
#
# number of rings (size 3 to 8) (size 9 to 14) (size 15 to 20)
#    0.000    1.750    6.250    0.750    0.000    8.500 
#    0.000    2.500    0.000    3.000    0.000    0.000 
#    0.000    0.000    0.000    0.000    0.000    0.000 
#
# Total GULP energy -198315.585402 kJ/mol
# GULP energy per Si atom -12394.724088 kJ/mol
# Density = 1.879116 g / cm^3
# Si number density = 18.834032 Si / 1000 Ang^3
#
#
#
# Elastic Constant Matrix: (Units=GPa)
#
#
# Indices 1 2 3 4 5 6 
#
# 1 95.8172 41.6369 43.0062 -0.9261 -20.9252 -0.3430
# 2 41.6369 105.1471 33.2597 9.0298 -5.3369 -1.7328
# 3 43.0062 33.2597 112.2813 2.0014 -30.1965 0.4139
# 4 -0.9261 9.0298 2.0014 13.8051 1.4466 -1.0582
# 5 -20.9252 -5.3369 -30.1965 1.4466 23.2396 1.2296
# 6 -0.3430 -1.7328 0.4139 -1.0582 1.2296 30.6788
#
#
#
# Elastic Compliance Matrix: (Units=1/GPa)
#
#
# Indices 1 2 3 4 5 6 
#
# 1 0.015994 -0.005604 -0.001635 0.003814 0.010774 -0.000416
# 2 -0.005604 0.013115 -0.003114 -0.007862 -0.005627 0.000674
# 3 -0.001635 -0.003114 0.015320 -0.002264 0.017923 -0.001197
# 4 0.003814 -0.007862 -0.002264 0.079031 -0.006369 0.002610
# 5 0.010774 -0.005627 0.017923 -0.006369 0.075319 -0.003678
# 6 -0.000416 0.000674 -0.001197 0.002610 -0.003678 0.032883
#
#
# Mechanical properties :
#
#
# Convention : Reuss Voigt Hill
#
# Bulk Modulus (GPa) = 42.15282 61.00572 51.57927
# Shear Modulus (GPa) = 19.21051 26.56754 22.88903
#
# Velocity S-wave (km/s) = 3.19719 3.75989 3.48990
# Velocity P-wave (km/s) = 6.00493 7.16314 6.60945
#
# Compressibility (1/GPa) = 0.02372320
#
# Stress axis : x y z
#
# Youngs Moduli (GPa) = 62.52434 76.24724 65.27548
#
# Poissons Ratio (x) = 0.42727 0.10672
# Poissons Ratio (y) = 0.35037 0.20328
# Poissons Ratio (z) = 0.10222 0.23744
#
# Static dielectric constant tensor:
#      x y z
#    x 3.902100 0.073030 -0.198260 
#    y 0.073030 3.917240 0.062500 
#    z -0.198260 0.062500 3.168080 
# 
# 
# High freq. dielectric constant tensor:
#      x y z
#    x 1.743980 -0.004170 -0.021840 
#    y -0.004170 1.729500 0.002660 
#    z -0.021840 0.002660 1.694080 
# 
# From -- ./inp_files/179360.got.cif
#   From: 2010.06.25/outbox.cif.g09.slc.cpg/sg2_90_cif.got.tgz:179360.got - 2010.06.27 13:26:56.
