data_PCOD8041101
_publ_section_title
;
Structure prediction by ZEFSAII (Michael W. Deem and Ramdas Pophale) SiO2 
 PCOD8041101
Probable space group: P -1
;
_chemical_formula_sum "Si O2"
_cell_formula_units_Z 16
_cell_length_a 13.727492
_cell_length_b 11.460226
_cell_length_c 19.734262
_cell_angle_alpha 52.610060
_cell_angle_beta 32.048217
_cell_angle_gamma 32.091234
_cell_volume 804.706380
_symmetry_space_group_name_H-M "P -1"
_symmetry_group_IT_number 2
_symmetry_cell_setting 'triclinic'
loop_
_space_group_symop_operation_xyz
x,y,z
-x,-y,-z
loop_
_atom_site_type_symbol
_atom_site_label
_atom_site_fract_x
_atom_site_fract_y
_atom_site_fract_z
Si Si1 0.770324 0.498046 0.074186
Si Si2 0.141235 0.036572 0.684121
Si Si3 0.236428 0.771723 0.487135
Si Si4 0.116631 0.550365 0.820503
Si Si5 0.740745 0.528141 0.502722
Si Si6 0.134979 0.479608 0.359441
Si Si7 0.366369 0.731495 0.776877
Si Si8 0.124450 0.012576 0.245348
O O1 0.879428 0.410461 0.117039
O O2 0.782620 0.328903 0.091902
O O3 0.444941 0.776615 0.170697
O O4 0.992939 0.463463 0.913167
O O5 0.026417 0.271394 0.657755
O O6 0.484219 0.809359 0.535088
O O7 0.139759 0.988207 0.782373
O O8 0.929185 0.056685 0.763155
O O9 0.558078 0.643403 0.336151
O O10 0.235785 0.601483 0.526025
O O11 0.140333 0.848974 0.593936
O O12 0.000000 0.000000 0.500000
O O13 0.887807 0.808951 0.830484
O O14 0.628058 0.521370 0.641894
O O15 0.061548 0.406269 0.369692
O O16 0.485582 0.288355 0.235805
O O17 0.000000 0.500000 0.500000
#
# Coordination Sequence:
#
# PCOD8041101 Si02
#       8
#     2   2   2   2   2   2   2   2
#     4  11  20  36  55  80 115 143 190 227 271 330
#     4  10  19  31  51  78 111 138 181 223 284 318
#     4  12  22  37  55  81 119 153 180 220 278 337
#     4  11  22  36  52  81 114 150 185 229 265 335
#     4   9  19  33  45  79 109 141 182 223 270 322
#     4  10  19  30  53  73 110 140 180 229 282 316
#     4   9  17  32  50  75 106 138 174 229 275 311
#     4  12  21  35  58  79 118 150 180 222 286 331
#
# _framework density 19.883027999999999
#
# number of rings (size 3 to 8) (size 9 to 14) (size 15 to 20)
#    0.750    0.750    6.250    1.125    1.750    0.000 
#    0.000    0.000    0.000    0.000    0.000    1.750 
#    3.750    0.000    0.000    0.000    0.000    0.000 
#
# Total GULP energy -198257.244149 kJ/mol
# GULP energy per Si atom -12391.077759 kJ/mol
# Density = 1.983777 g / cm^3
# Si number density = 19.883028 Si / 1000 Ang^3
#
#
#
# Elastic Constant Matrix: (Units=GPa)
#
#
# Indices 1 2 3 4 5 6 
#
# 1 65.5839 19.4797 33.9203 -9.5491 -24.8312 -1.6497
# 2 19.4797 110.1335 34.5535 -24.6272 -5.6151 -16.3773
# 3 33.9203 34.5535 74.3853 -20.2021 -18.2564 6.6807
# 4 -9.5491 -24.6272 -20.2021 26.2394 9.0602 -1.2885
# 5 -24.8312 -5.6151 -18.2564 9.0602 24.6747 -8.1375
# 6 -1.6497 -16.3773 6.6807 -1.2885 -8.1375 21.9308
#
#
#
# Elastic Compliance Matrix: (Units=1/GPa)
#
#
# Indices 1 2 3 4 5 6 
#
# 1 0.032670 0.000377 -0.010126 -0.006312 0.033712 0.017962
# 2 0.000377 0.015206 -0.005457 0.010741 0.000420 0.013833
# 3 -0.010126 -0.005457 0.023961 0.009441 -0.001128 -0.012000
# 4 -0.006312 0.010741 0.009441 0.059565 -0.018344 0.001363
# 5 0.033712 0.000420 -0.001128 -0.018344 0.092462 0.036424
# 6 0.017962 0.013833 -0.012000 0.001363 0.036424 0.074530
#
#
# Mechanical properties :
#
#
# Convention : Reuss Voigt Hill
#
# Bulk Modulus (GPa) = 24.14097 47.33441 35.73769
# Shear Modulus (GPa) = 14.59369 25.37893 19.98631
#
# Velocity S-wave (km/s) = 2.71214 3.57657 3.17392
# Velocity P-wave (km/s) = 4.68780 6.39640 5.60756
#
# Compressibility (1/GPa) = 0.04142336
#
# Stress axis : x y z
#
# Youngs Moduli (GPa) = 30.60938 65.76491 41.73408
#
# Poissons Ratio (x) = -0.02480 0.42261
# Poissons Ratio (y) = -0.01154 0.22776
# Poissons Ratio (z) = 0.30996 0.35891
#
# Static dielectric constant tensor:
#      x y z
#    x 3.739470 -0.218230 -0.475900 
#    y -0.218230 3.634940 -0.275070 
#    z -0.475900 -0.275070 3.282600 
# 
# 
# High freq. dielectric constant tensor:
#      x y z
#    x 1.773320 -0.022260 -0.036150 
#    y -0.022260 1.779480 -0.025280 
#    z -0.036150 -0.025280 1.728280 
# 
# From -- ./inp_files/597829.got.cif
#   From: 2010.06.25/outbox.cif.g09.slc.cpg/sg2_299_cif.got.tgz:597829.got - 2010.06.27 13:26:56.
