data_PCOD8041876
_publ_section_title
;
Structure prediction by ZEFSAII (Michael W. Deem and Ramdas Pophale) SiO2 
 PCOD8041876
Probable space group: P -1
;
_chemical_formula_sum "Si O2"
_cell_formula_units_Z 16
_cell_length_a 13.996686
_cell_length_b 19.194567
_cell_length_c 9.403802
_cell_angle_alpha 55.739708
_cell_angle_beta 98.109959
_cell_angle_gamma 144.241142
_cell_volume 923.334155
_symmetry_space_group_name_H-M "P -1"
_symmetry_group_IT_number 2
_symmetry_cell_setting 'triclinic'
loop_
_space_group_symop_operation_xyz
x,y,z
-x,-y,-z
loop_
_atom_site_type_symbol
_atom_site_label
_atom_site_fract_x
_atom_site_fract_y
_atom_site_fract_z
Si Si1 0.209858 0.192589 0.738230
Si Si2 0.082239 0.357698 0.300036
Si Si3 0.774861 0.565999 0.181161
Si Si4 0.741327 0.214826 0.332569
Si Si5 0.712870 0.785845 0.586163
Si Si6 0.037706 0.170510 0.305796
Si Si7 0.873523 0.494451 0.107024
Si Si8 0.686328 0.534357 0.518069
O O1 0.184859 0.138203 0.636825
O O2 0.426346 0.325104 0.705250
O O3 0.228891 0.307699 0.604406
O O4 0.000000 0.000000 0.000000
O O5 0.021324 0.219211 0.381653
O O6 0.224912 0.461679 0.351763
O O7 0.860353 0.235749 0.428309
O O8 0.217914 0.517367 0.027216
O O9 0.540978 0.400829 0.256836
O O10 0.848899 0.527575 0.209699
O O11 0.785185 0.587096 0.326620
O O12 0.934528 0.756087 0.919018
O O13 0.740945 0.304090 0.311745
O O14 0.500000 0.000000 0.500000
O O15 0.873471 0.328139 0.080248
O O16 0.764710 0.740335 0.733942
O O17 0.814465 0.944618 0.507618
#
# Coordination Sequence:
#
# PCOD8041876 Si02
#       8
#     2   2   2   2   2   2   2   2
#     4  10  20  36  50  71 110 154 183 212 255 303
#     4   9  18  36  54  80 106 133 180 218 261 316
#     4  10  20  33  55  73 108 142 168 217 268 307
#     4   9  18  36  60  77 104 130 167 227 272 316
#     4  10  20  32  50  76 105 141 186 212 260 299
#     4  10  19  34  49  78 106 136 180 225 247 313
#     4   8  19  35  54  83  98 128 179 212 273 317
#     4  10  20  36  52  75 110 144 179 216 257 312
#
# _framework density 17.328506000000001
#
# number of rings (size 3 to 8) (size 9 to 14) (size 15 to 20)
#    0.750    1.750    1.250    1.125    1.750    0.000 
#   11.250    0.625    0.000    0.750    0.000    0.000 
#    0.000    0.000    0.000    0.000    0.000    0.000 
#
# Total GULP energy -198319.448073 kJ/mol
# GULP energy per Si atom -12394.965505 kJ/mol
# Density = 1.728907 g / cm^3
# Si number density = 17.328506 Si / 1000 Ang^3
#
#
#
# Elastic Constant Matrix: (Units=GPa)
#
#
# Indices 1 2 3 4 5 6 
#
# 1 94.2389 45.6089 21.7795 -2.3453 13.4080 -13.1614
# 2 45.6089 85.5037 25.6717 0.1349 11.1182 -0.1245
# 3 21.7795 25.6717 51.7993 -4.0280 5.5109 0.7357
# 4 -2.3453 0.1349 -4.0280 26.2793 -4.2208 2.8541
# 5 13.4080 11.1182 5.5109 -4.2208 17.9524 -3.2403
# 6 -13.1614 -0.1245 0.7357 2.8541 -3.2403 28.3854
#
#
#
# Elastic Compliance Matrix: (Units=1/GPa)
#
#
# Indices 1 2 3 4 5 6 
#
# 1 0.016588 -0.007187 -0.002936 -0.000655 -0.005904 0.007128
# 2 -0.007187 0.017802 -0.005362 -0.001996 -0.005112 -0.003498
# 3 -0.002936 -0.005362 0.023648 0.003439 -0.001388 -0.002502
# 4 -0.000655 -0.001996 0.003439 0.040435 0.009567 -0.003375
# 5 -0.005904 -0.005112 -0.001388 0.009567 0.066662 0.003924
# 6 0.007128 -0.003498 -0.002502 -0.003375 0.003924 0.039371
#
#
# Mechanical properties :
#
#
# Convention : Reuss Voigt Hill
#
# Bulk Modulus (GPa) = 36.94751 46.40690 41.67720
# Shear Modulus (GPa) = 20.44996 23.75553 22.10275
#
# Velocity S-wave (km/s) = 3.43903 3.70657 3.57531
# Velocity P-wave (km/s) = 6.09404 6.71990 6.41461
#
# Compressibility (1/GPa) = 0.02706543
#
# Stress axis : x y z
#
# Youngs Moduli (GPa) = 60.28632 56.17363 42.28651
#
# Poissons Ratio (x) = 0.40374 0.12417
# Poissons Ratio (y) = 0.43330 0.22676
# Poissons Ratio (z) = 0.17703 0.30122
#
# Static dielectric constant tensor:
#      x y z
#    x 3.347740 -0.149060 -0.002360 
#    y -0.149060 3.112250 0.005780 
#    z -0.002360 0.005780 2.976140 
# 
# 
# High freq. dielectric constant tensor:
#      x y z
#    x 1.671060 -0.013850 0.001430 
#    y -0.013850 1.659490 -0.007940 
#    z 0.001430 -0.007940 1.649520 
# 
# From -- ./inp_files/317570.got.cif
#   From: 2010.06.25/outbox.cif.g09.slc.cpg/sg2_159_cif.got.tgz:317570.got - 2010.06.27 13:26:56.
