data_PCOD8041626
_publ_section_title
;
Structure prediction by ZEFSAII (Michael W. Deem and Ramdas Pophale) SiO2 
 PCOD8041626
Probable space group: P -1
;
_chemical_formula_sum "Si O2"
_cell_formula_units_Z 14
_cell_length_a 13.926021
_cell_length_b 5.244290
_cell_length_c 12.280769
_cell_angle_alpha 76.519273
_cell_angle_beta 115.212017
_cell_angle_gamma 119.404156
_cell_volume 706.590659
_symmetry_space_group_name_H-M "P -1"
_symmetry_group_IT_number 2
_symmetry_cell_setting 'triclinic'
loop_
_space_group_symop_operation_xyz
x,y,z
-x,-y,-z
loop_
_atom_site_type_symbol
_atom_site_label
_atom_site_fract_x
_atom_site_fract_y
_atom_site_fract_z
Si Si1 0.746048 0.941867 0.793747
Si Si2 0.646602 0.533180 0.180456
Si Si3 0.638616 0.969986 0.299640
Si Si4 0.999216 0.709223 0.074041
Si Si5 0.252110 0.478599 0.981511
Si Si6 0.417301 0.988828 0.126501
Si Si7 0.419365 0.163085 0.477002
O O1 0.674949 0.855009 0.656725
O O2 0.879996 0.189158 0.807698
O O3 0.684014 0.084703 0.826541
O O4 0.747566 0.667550 0.887092
O O5 0.684114 0.775550 0.269094
O O6 0.707683 0.677169 0.080124
O O7 0.702986 0.310584 0.260433
O O8 0.502597 0.339068 0.116618
O O9 0.497402 0.835685 0.223313
O O10 0.657874 0.962868 0.438636
O O11 0.878737 0.545375 0.103138
O O12 0.000000 0.500000 0.000000
O O13 0.000000 0.000000 0.000000
O O14 0.350485 0.822990 0.999455
O O15 0.500000 0.500000 0.500000
O O16 0.500000 0.000000 0.500000
#
# Coordination Sequence:
#
# PCOD8041626 Si02
#       7
#     2   2   2   2   2   2   2
#     4  11  23  36  62  88 119 151 194 243 294 344
#     4  10  23  36  56  82 122 153 190 229 292 346
#     4  10  22  38  51  86 115 155 189 230 290 345
#     4  10  22  39  57  83 117 154 195 236 287 342
#     4  11  22  37  58  85 120 153 193 237 287 351
#     4  10  19  33  55  86 115 146 186 227 294 344
#     4  12  22  38  60  85 119 153 192 241 293 345
#
# _framework density 19.813451000000001
#
# number of rings (size 3 to 8) (size 9 to 14) (size 15 to 20)
#    0.857    0.571    2.857    3.857    2.000    1.143 
#    0.000    0.000    0.000    1.714    0.000    0.000 
#    0.000    0.000    0.000    0.000    0.000    0.000 
#
# Total GULP energy -173445.249135 kJ/mol
# GULP energy per Si atom -12388.946367 kJ/mol
# Density = 1.976836 g / cm^3
# Si number density = 19.813451 Si / 1000 Ang^3
#
#
#
# Elastic Constant Matrix: (Units=GPa)
#
#
# Indices 1 2 3 4 5 6 
#
# 1 110.0342 27.5769 54.6231 15.1494 -5.2744 -7.0780
# 2 27.5769 82.7887 30.8975 12.7372 1.0356 -22.3694
# 3 54.6231 30.8975 112.5381 15.6378 -0.0934 4.7616
# 4 15.1494 12.7372 15.6378 23.9404 -1.8341 -7.7567
# 5 -5.2744 1.0356 -0.0934 -1.8341 29.5034 9.5012
# 6 -7.0780 -22.3694 4.7616 -7.7567 9.5012 32.7743
#
#
#
# Elastic Compliance Matrix: (Units=1/GPa)
#
#
# Indices 1 2 3 4 5 6 
#
# 1 0.012729 -0.001386 -0.005405 -0.003225 0.001675 0.001340
# 2 -0.001386 0.018504 -0.004786 -0.001651 -0.005607 0.014261
# 3 -0.005405 -0.004786 0.013969 -0.005717 0.001553 -0.008267
# 4 -0.003225 -0.001651 -0.005717 0.052116 -0.001047 0.011646
# 5 0.001675 -0.005607 0.001553 -0.001047 0.039265 -0.015322
# 6 0.001340 0.014261 -0.008267 0.011646 -0.015322 0.048933
#
#
# Mechanical properties :
#
#
# Convention : Reuss Voigt Hill
#
# Bulk Modulus (GPa) = 45.35607 59.06177 52.20892
# Shear Modulus (GPa) = 23.14598 30.06120 26.60359
#
# Velocity S-wave (km/s) = 3.42160 3.89937 3.66827
# Velocity P-wave (km/s) = 6.20895 7.08146 6.65951
#
# Compressibility (1/GPa) = 0.02204777
#
# Stress axis : x y z
#
# Youngs Moduli (GPa) = 78.56083 54.04179 71.58708
#
# Poissons Ratio (x) = 0.07488 0.38694
# Poissons Ratio (y) = 0.10886 0.34265
# Poissons Ratio (z) = 0.42463 0.25867
#
# Static dielectric constant tensor:
#      x y z
#    x 3.714710 0.051080 0.088640 
#    y 0.051080 3.571080 0.068850 
#    z 0.088640 0.068850 3.647360 
# 
# 
# High freq. dielectric constant tensor:
#      x y z
#    x 1.766190 -0.018170 -0.010430 
#    y -0.018170 1.774450 0.007200 
#    z -0.010430 0.007200 1.742050 
# 
# From -- ./inp_files/410606.got.cif
#   From: 2010.06.25/outbox.cif.g09.slc.cpg/sg2_206_cif.got.tgz:410606.got - 2010.06.27 13:26:56.
