data_PCOD8041609
_publ_section_title
;
Structure prediction by ZEFSAII (Michael W. Deem and Ramdas Pophale) SiO2 
 PCOD8041609
Probable space group: P -1
;
_chemical_formula_sum "Si O2"
_cell_formula_units_Z 14
_cell_length_a 30.319987
_cell_length_b 9.169391
_cell_length_c 11.576231
_cell_angle_alpha 33.861923
_cell_angle_beta 25.548757
_cell_angle_gamma 29.059830
_cell_volume 660.671613
_symmetry_space_group_name_H-M "P -1"
_symmetry_group_IT_number 2
_symmetry_cell_setting 'triclinic'
loop_
_space_group_symop_operation_xyz
x,y,z
-x,-y,-z
loop_
_atom_site_type_symbol
_atom_site_label
_atom_site_fract_x
_atom_site_fract_y
_atom_site_fract_z
Si Si1 0.539182 0.675040 0.181010
Si Si2 0.940132 0.354884 0.390454
Si Si3 0.380220 0.961960 0.684339
Si Si4 0.301006 0.772130 0.676805
Si Si5 0.834394 0.703238 0.195702
Si Si6 0.725649 0.798070 0.743820
Si Si7 0.639549 0.844370 0.143936
O O1 0.593952 0.383890 0.156066
O O2 0.425307 0.685480 0.509422
O O3 0.648323 0.621077 0.044337
O O4 0.500000 0.000000 0.000000
O O5 0.854593 0.458101 0.409921
O O6 0.863861 0.540178 0.561703
O O7 0.000000 0.000000 0.500000
O O8 0.045239 0.428676 0.076755
O O9 0.498065 0.979656 0.371696
O O10 0.278837 0.208539 0.675221
O O11 0.331678 0.071148 0.856536
O O12 0.284324 0.521572 0.815866
O O13 0.188891 0.993861 0.877045
O O14 0.321223 0.942661 0.410077
O O15 0.695429 0.959600 0.835685
#
# Coordination Sequence:
#
# PCOD8041609 Si02
#       7
#     2   2   2   2   2   2   2
#     4   9  17  31  53  81 107 135 179 222 263 316
#     4  10  20  34  56  82 103 135 182 232 275 308
#     4  10  20  35  54  81 113 147 178 215 270 322
#     4   9  18  33  53  79 105 139 180 220 269 317
#     4  10  20  35  56  79 107 137 182 231 264 314
#     4  10  19  33  55  78 104 140 180 224 268 315
#     4  10  20  35  54  78 116 147 172 214 265 327
#
# _framework density 21.190557999999999
#
# number of rings (size 3 to 8) (size 9 to 14) (size 15 to 20)
#    0.000    2.286    0.000    3.429    0.000    3.429 
#    0.000   17.857    0.000   12.000    0.000    0.000 
#    0.000    0.000    0.000    0.000    0.000    0.000 
#
# Total GULP energy -173457.032134 kJ/mol
# GULP energy per Si atom -12389.788010 kJ/mol
# Density = 2.114233 g / cm^3
# Si number density = 21.190558 Si / 1000 Ang^3
#
#
#
# Elastic Constant Matrix: (Units=GPa)
#
#
# Indices 1 2 3 4 5 6 
#
# 1 116.4777 58.5205 29.4735 16.4628 16.5794 0.4051
# 2 58.5205 99.7420 17.4019 13.4845 3.4134 -5.9608
# 3 29.4735 17.4019 70.6322 23.8258 20.4477 6.5670
# 4 16.4628 13.4845 23.8258 33.6969 10.2569 5.2835
# 5 16.5794 3.4134 20.4477 10.2569 26.6506 6.9941
# 6 0.4051 -5.9608 6.5670 5.2835 6.9941 35.0786
#
#
#
# Elastic Compliance Matrix: (Units=1/GPa)
#
#
# Indices 1 2 3 4 5 6 
#
# 1 0.013742 -0.007419 -0.002040 -0.000547 -0.005880 0.000217
# 2 -0.007419 0.014997 -0.000844 -0.003387 0.003988 0.002507
# 3 -0.002040 -0.000844 0.022206 -0.010841 -0.011390 -0.000373
# 4 -0.000547 -0.003387 -0.010841 0.041313 -0.005865 -0.003593
# 5 -0.005880 0.003988 -0.011390 -0.005865 0.053478 -0.006901
# 6 0.000217 0.002507 -0.000373 -0.003593 -0.006901 0.030918
#
#
# Mechanical properties :
#
#
# Convention : Reuss Voigt Hill
#
# Bulk Modulus (GPa) = 32.96032 55.29374 44.12703
# Shear Modulus (GPa) = 24.11107 31.18228 27.64668
#
# Velocity S-wave (km/s) = 3.37682 3.84020 3.61594
# Velocity P-wave (km/s) = 5.54905 6.76853 6.18890
#
# Compressibility (1/GPa) = 0.03033951
#
# Stress axis : x y z
#
# Youngs Moduli (GPa) = 72.76704 66.67900 45.03264
#
# Poissons Ratio (x) = 0.49468 0.09187
# Poissons Ratio (y) = 0.53985 0.03802
# Poissons Ratio (z) = 0.14845 0.05629
#
# Static dielectric constant tensor:
#      x y z
#    x 3.837560 -0.217380 0.312940 
#    y -0.217380 4.062800 0.140500 
#    z 0.312940 0.140500 4.056670 
# 
# 
# High freq. dielectric constant tensor:
#      x y z
#    x 1.808220 -0.022350 0.035620 
#    y -0.022350 1.838710 0.006870 
#    z 0.035620 0.006870 1.832780 
# 
# From -- ./inp_files/253413.got.cif
#   From: 2010.06.25/outbox.cif.g09.slc.cpg/sg2_127_cif.got.tgz:253413.got - 2010.06.27 13:26:56.
