data_PCOD8041678
_publ_section_title
;
Structure prediction by ZEFSAII (Michael W. Deem and Ramdas Pophale) SiO2 
 PCOD8041678
Probable space group: P -1
;
_chemical_formula_sum "Si O2"
_cell_formula_units_Z 16
_cell_length_a 15.552845
_cell_length_b 11.056009
_cell_length_c 15.263084
_cell_angle_alpha 129.199349
_cell_angle_beta 26.914348
_cell_angle_gamma 112.485413
_cell_volume 788.449183
_symmetry_space_group_name_H-M "P -1"
_symmetry_group_IT_number 2
_symmetry_cell_setting 'triclinic'
loop_
_space_group_symop_operation_xyz
x,y,z
-x,-y,-z
loop_
_atom_site_type_symbol
_atom_site_label
_atom_site_fract_x
_atom_site_fract_y
_atom_site_fract_z
Si Si1 0.392519 0.322684 0.018544
Si Si2 0.742808 0.081248 0.260147
Si Si3 0.503594 0.484806 0.594386
Si Si4 0.147141 0.566925 0.089540
Si Si5 0.346162 0.253287 0.345198
Si Si6 0.600721 0.813430 0.233556
Si Si7 0.733942 0.853946 0.815252
Si Si8 0.787921 0.303603 0.731314
O O1 0.471499 0.229514 0.811095
O O2 0.613253 0.241258 0.841574
O O3 0.228543 0.271865 0.192311
O O4 0.262704 0.538377 0.220455
O O5 0.647695 0.272325 0.386420
O O6 0.628692 0.093970 0.462638
O O7 0.694744 0.945277 0.186136
O O8 0.000000 0.000000 0.000000
O O9 0.500000 0.500000 0.500000
O O10 0.608017 0.589342 0.595917
O O11 0.258129 0.564794 0.894916
O O12 0.240608 0.638613 0.114647
O O13 0.884014 0.697846 0.376695
O O14 0.208474 0.363992 0.969416
O O15 0.323060 0.240141 0.255764
O O16 0.543392 0.057129 0.107093
O O17 0.957908 0.855457 0.590622
#
# Coordination Sequence:
#
# PCOD8041678 Si02
#       8
#     2   2   2   2   2   2   2   2
#     4  10  19  33  56  87 116 146 184 244 286 339
#     4  10  21  40  60  81 114 154 197 244 289 344
#     4  11  24  39  60  87 117 153 200 244 288 349
#     4   9  19  40  61  81 117 156 189 238 287 353
#     4  10  22  39  57  83 115 160 191 225 297 346
#     4   9  20  36  59  85 111 149 195 236 293 339
#     4  10  21  36  58  84 118 151 191 233 281 356
#     4   9  19  35  58  87 115 148 191 231 295 342
#
# _framework density 20.293002000000001
#
# number of rings (size 3 to 8) (size 9 to 14) (size 15 to 20)
#    0.000    2.250    0.000    1.875    1.750    3.500 
#    2.250    3.750    0.000    0.000    0.000    0.000 
#    0.000    0.000    0.000    0.000    0.000    0.000 
#
# Total GULP energy -198347.339608 kJ/mol
# GULP energy per Si atom -12396.708725 kJ/mol
# Density = 2.024681 g / cm^3
# Si number density = 20.293002 Si / 1000 Ang^3
#
#
#
# Elastic Constant Matrix: (Units=GPa)
#
#
# Indices 1 2 3 4 5 6 
#
# 1 70.8288 45.0873 47.4646 -3.1927 1.2653 6.0245
# 2 45.0873 92.5160 45.7535 -5.7070 5.0697 6.4005
# 3 47.4646 45.7535 145.9632 -9.5290 -8.6498 2.8360
# 4 -3.1927 -5.7070 -9.5290 26.1180 -0.2743 6.3714
# 5 1.2653 5.0697 -8.6498 -0.2743 22.2652 -4.3316
# 6 6.0245 6.4005 2.8360 6.3714 -4.3316 34.6642
#
#
#
# Elastic Compliance Matrix: (Units=1/GPa)
#
#
# Indices 1 2 3 4 5 6 
#
# 1 0.023068 -0.008606 -0.004882 -0.000330 -0.001674 -0.002169
# 2 -0.008606 0.016842 -0.002572 0.002228 -0.004787 -0.002411
# 3 -0.004882 -0.002572 0.009661 0.002241 0.004784 0.000719
# 4 -0.000330 0.002228 0.002241 0.041560 -0.000714 -0.008265
# 5 -0.001674 -0.004787 0.004784 -0.000714 0.049325 0.007078
# 6 -0.002169 -0.002411 0.000719 -0.008265 0.007078 0.032015
#
#
# Mechanical properties :
#
#
# Convention : Reuss Voigt Hill
#
# Bulk Modulus (GPa) = 57.30806 65.10207 61.20506
# Shear Modulus (GPa) = 23.76329 28.00967 25.88648
#
# Velocity S-wave (km/s) = 3.42571 3.71922 3.57548
# Velocity P-wave (km/s) = 6.62940 7.11296 6.87543
#
# Compressibility (1/GPa) = 0.01744955
#
# Stress axis : x y z
#
# Youngs Moduli (GPa) = 43.34942 59.37661 103.51251
#
# Poissons Ratio (x) = 0.51101 0.50538
# Poissons Ratio (y) = 0.37308 0.26623
# Poissons Ratio (z) = 0.21165 0.15271
#
# Static dielectric constant tensor:
#      x y z
#    x 3.531360 0.090600 0.058820 
#    y 0.090600 3.764640 0.083630 
#    z 0.058820 0.083630 3.853640 
# 
# 
# High freq. dielectric constant tensor:
#      x y z
#    x 1.777980 0.004390 0.005680 
#    y 0.004390 1.791020 -0.003580 
#    z 0.005680 -0.003580 1.801960 
# 
# From -- ./inp_files/474782.got.cif
#   From: 2010.06.25/outbox.cif.g09.slc.cpg/sg2_238_cif.got.tgz:474782.got - 2010.06.27 13:26:56.
