data_PCOD8041824
_publ_section_title
;
Structure prediction by ZEFSAII (Michael W. Deem and Ramdas Pophale) SiO2 
 PCOD8041824
Probable space group: P -1
;
_chemical_formula_sum "Si O2"
_cell_formula_units_Z 14
_cell_length_a 9.123586
_cell_length_b 13.631960
_cell_length_c 13.292301
_cell_angle_alpha 138.116622
_cell_angle_beta 43.097421
_cell_angle_gamma 115.555968
_cell_volume 730.907693
_symmetry_space_group_name_H-M "P -1"
_symmetry_group_IT_number 2
_symmetry_cell_setting 'triclinic'
loop_
_space_group_symop_operation_xyz
x,y,z
-x,-y,-z
loop_
_atom_site_type_symbol
_atom_site_label
_atom_site_fract_x
_atom_site_fract_y
_atom_site_fract_z
Si Si1 0.742385 0.451698 0.384378
Si Si2 0.139593 0.798839 0.006418
Si Si3 0.596938 0.653599 0.782118
Si Si4 0.393078 0.547303 0.983415
Si Si5 0.171979 0.344345 0.821941
Si Si6 0.748408 0.905279 0.805606
Si Si7 0.907995 0.701591 0.384498
O O1 0.500000 0.500000 0.500000
O O2 0.843590 0.275126 0.170903
O O3 0.725178 0.493847 0.543386
O O4 0.892961 0.544771 0.322607
O O5 0.361044 0.723390 0.900413
O O6 0.928483 0.768251 0.145993
O O7 0.102320 0.980154 0.149811
O O8 0.757500 0.768938 0.776607
O O9 0.560916 0.621527 0.892070
O O10 0.166294 0.677515 0.208786
O O11 0.500000 0.500000 0.000000
O O12 0.368374 0.394449 0.821127
O O13 0.241231 0.264652 0.617488
O O14 0.000000 0.500000 0.000000
O O15 0.823578 0.841871 0.608503
O O16 0.500000 0.000000 0.000000
#
# Coordination Sequence:
#
# PCOD8041824 Si02
#       7
#     2   2   2   2   2   2   2
#     4   9  15  26  52  76 101 132 167 215 261 300
#     4  10  15  29  52  82 105 131 170 214 267 316
#     4   9  17  32  48  77 109 132 169 222 260 312
#     4  11  21  34  55  79 105 141 182 219 258 308
#     4  10  16  30  54  79 102 131 177 226 261 298
#     4   9  20  31  50  85 111 134 167 219 271 316
#     4  10  18  34  54  80 109 136 170 222 268 305
#
# _framework density 19.154267000000001
#
# number of rings (size 3 to 8) (size 9 to 14) (size 15 to 20)
#    0.000    2.286    5.714    1.714    0.000    0.571 
#    0.000    2.857    0.000    1.714    0.000    0.000 
#    0.000    0.000    0.000    0.000    0.000    0.000 
#
# Total GULP energy -173440.368975 kJ/mol
# GULP energy per Si atom -12388.597784 kJ/mol
# Density = 1.911067 g / cm^3
# Si number density = 19.154267 Si / 1000 Ang^3
#
#
#
# Elastic Constant Matrix: (Units=GPa)
#
#
# Indices 1 2 3 4 5 6 
#
# 1 49.1719 25.7810 27.6640 -0.9465 22.5651 -6.5027
# 2 25.7810 139.4957 70.0164 -3.0379 26.6211 9.2487
# 3 27.6640 70.0164 151.8104 -0.1226 32.5453 -0.6961
# 4 -0.9465 -3.0379 -0.1226 36.8052 2.0102 9.8408
# 5 22.5651 26.6211 32.5453 2.0102 19.8360 -3.7204
# 6 -6.5027 9.2487 -0.6961 9.8408 -3.7204 17.1535
#
#
#
# Elastic Compliance Matrix: (Units=1/GPa)
#
#
# Indices 1 2 3 4 5 6 
#
# 1 0.045068 0.000932 0.004094 0.004082 -0.059363 0.001532
# 2 0.000932 0.012386 -0.002307 0.005507 -0.016942 -0.013252
# 3 0.004094 -0.002307 0.011348 0.001678 -0.020765 -0.002210
# 4 0.004082 0.005507 0.001678 0.036326 -0.023591 -0.027310
# 5 -0.059363 -0.016942 -0.020765 -0.023591 0.184519 0.039341
# 6 0.001532 -0.013252 -0.002210 -0.027310 0.039341 0.090134
#
#
# Mechanical properties :
#
#
# Convention : Reuss Voigt Hill
#
# Bulk Modulus (GPa) = 13.46979 65.26675 39.36827
# Shear Modulus (GPa) = 12.52858 29.22670 20.87764
#
# Velocity S-wave (km/s) = 2.56029 3.91046 3.30506
# Velocity P-wave (km/s) = 3.97337 7.38493 5.92979
#
# Compressibility (1/GPa) = 0.07424019
#
# Stress axis : x y z
#
# Youngs Moduli (GPa) = 22.18882 80.73668 88.12334
#
# Poissons Ratio (x) = -0.07523 -0.36080
# Poissons Ratio (y) = -0.02067 0.20327
# Poissons Ratio (z) = -0.09085 0.18623
#
# Static dielectric constant tensor:
#      x y z
#    x 3.095590 0.372620 0.468260 
#    y 0.372620 3.987470 0.079390 
#    z 0.468260 0.079390 3.972200 
# 
# 
# High freq. dielectric constant tensor:
#      x y z
#    x 1.675250 0.027320 0.028530 
#    y 0.027320 1.746640 -0.018390 
#    z 0.028530 -0.018390 1.753060 
# 
# From -- ./inp_files/153966.got.cif
#   From: 2010.06.25/outbox.cif.g09.slc.cpg/sg2_77_cif.got.tgz:153966.got - 2010.06.27 13:26:56.
