data_PCOD8041578
_publ_section_title
;
Structure prediction by ZEFSAII (Michael W. Deem and Ramdas Pophale) SiO2 
 PCOD8041578
Probable space group: P -1
;
_chemical_formula_sum "Si O2"
_cell_formula_units_Z 16
_cell_length_a 21.320130
_cell_length_b 13.254123
_cell_length_c 9.901865
_cell_angle_alpha 128.869019
_cell_angle_beta 51.735805
_cell_angle_gamma 157.907238
_cell_volume 812.495468
_symmetry_space_group_name_H-M "P -1"
_symmetry_group_IT_number 2
_symmetry_cell_setting 'triclinic'
loop_
_space_group_symop_operation_xyz
x,y,z
-x,-y,-z
loop_
_atom_site_type_symbol
_atom_site_label
_atom_site_fract_x
_atom_site_fract_y
_atom_site_fract_z
Si Si1 0.122394 0.436630 0.616708
Si Si2 0.590767 0.491809 0.363948
Si Si3 0.185692 0.023675 0.166710
Si Si4 0.033506 0.918727 0.718303
Si Si5 0.847479 0.916781 0.015770
Si Si6 0.571844 0.970984 0.320560
Si Si7 0.361247 0.539546 0.445247
Si Si8 0.495750 0.689325 0.959791
O O1 0.228132 0.721828 0.706099
O O2 0.237869 0.486053 0.561669
O O3 0.970680 0.242308 0.757952
O O4 0.057846 0.316807 0.450731
O O5 0.500000 0.500000 0.500000
O O6 0.789594 0.793961 0.342856
O O7 0.555653 0.358212 0.432305
O O8 0.519071 0.307533 0.178193
O O9 0.129860 0.946905 0.019440
O O10 0.252717 0.259579 0.317873
O O11 0.327028 0.118680 0.076451
O O12 0.056434 0.896039 0.820766
O O13 0.919730 0.883278 0.842596
O O14 0.650668 0.618413 0.059907
O O15 0.500000 0.000000 0.500000
O O16 0.519185 0.781411 0.335334
O O17 0.487397 0.813847 0.156257
#
# Coordination Sequence:
#
# PCOD8041578 Si02
#       8
#     2   2   2   2   2   2   2   2
#     4  11  21  38  57  84 121 156 191 231 290 350
#     4  11  21  35  58  94 119 144 190 251 297 334
#     4  12  20  34  62  89 114 145 198 248 287 337
#     4  10  19  33  54  81 120 146 185 242 293 331
#     4  10  20  32  54  89 111 143 191 247 288 336
#     4  10  23  40  58  80 118 162 195 232 285 354
#     4  11  20  37  62  88 114 156 197 235 288 349
#     4  11  22  37  59  86 120 149 195 241 296 337
#
# _framework density 19.692418
#
# number of rings (size 3 to 8) (size 9 to 14) (size 15 to 20)
#    0.000    1.250    5.000    2.250    0.000    0.500 
#    0.000    3.750    0.000    3.750    0.000    0.000 
#    0.000    0.000    0.000    0.000    0.000    0.000 
#
# Total GULP energy -198381.417654 kJ/mol
# GULP energy per Si atom -12398.838603 kJ/mol
# Density = 1.964760 g / cm^3
# Si number density = 19.692418 Si / 1000 Ang^3
#
#
#
# Elastic Constant Matrix: (Units=GPa)
#
#
# Indices 1 2 3 4 5 6 
#
# 1 79.3403 36.7995 46.2248 -2.6928 29.7472 16.2466
# 2 36.7995 109.6177 40.2786 -13.2528 17.0547 -2.2547
# 3 46.2248 40.2786 121.9042 7.6675 37.9410 0.8629
# 4 -2.6928 -13.2528 7.6675 35.9301 7.5845 2.7367
# 5 29.7472 17.0547 37.9410 7.5845 40.9770 -2.6209
# 6 16.2466 -2.2547 0.8629 2.7367 -2.6209 21.3415
#
#
#
# Elastic Compliance Matrix: (Units=1/GPa)
#
#
# Indices 1 2 3 4 5 6 
#
# 1 0.030360 -0.005415 -0.004046 0.007211 -0.019088 -0.026789
# 2 -0.005415 0.012379 -0.002551 0.004171 0.000694 0.005083
# 3 -0.004046 -0.002551 0.013070 -0.002575 -0.007518 0.001689
# 4 0.007211 0.004171 -0.002575 0.033703 -0.011508 -0.010680
# 5 -0.019088 0.000694 -0.007518 -0.011508 0.048492 0.022339
# 6 -0.026789 0.005083 0.001689 -0.010680 0.022339 0.071833
#
#
# Mechanical properties :
#
#
# Convention : Reuss Voigt Hill
#
# Bulk Modulus (GPa) = 31.46171 61.94090 46.70131
# Shear Modulus (GPa) = 20.45365 32.15368 26.30367
#
# Velocity S-wave (km/s) = 3.22631 4.04517 3.65872
# Velocity P-wave (km/s) = 5.46718 7.30345 6.45098
#
# Compressibility (1/GPa) = 0.03178467
#
# Stress axis : x y z
#
# Youngs Moduli (GPa) = 32.93822 80.78455 76.50952
#
# Poissons Ratio (x) = 0.43743 0.30957
# Poissons Ratio (y) = 0.17835 0.19519
# Poissons Ratio (z) = 0.13327 0.20610
#
# Static dielectric constant tensor:
#      x y z
#    x 2.095010 3.526720 -1.597190 
#    y 3.526720 -4.446830 4.422320 
#    z -1.597190 4.422320 1.416210 
# 
# 
# High freq. dielectric constant tensor:
#      x y z
#    x 1.745010 0.019040 0.018950 
#    y 0.019040 1.760920 -0.017580 
#    z 0.018950 -0.017580 1.783380 
# 
# From -- ./inp_files/354582.got.cif
#   From: 2010.06.25/outbox.cif.g09.slc.cpg/sg2_178_cif.got.tgz:354582.got - 2010.06.27 13:26:56.
