data_PCOD8041621
_publ_section_title
;
Structure prediction by ZEFSAII (Michael W. Deem and Ramdas Pophale) SiO2 
 PCOD8041621
Probable space group: P -1
;
_chemical_formula_sum "Si O2"
_cell_formula_units_Z 12
_cell_length_a 8.773329
_cell_length_b 11.236034
_cell_length_c 17.213052
_cell_angle_alpha 31.668756
_cell_angle_beta 81.454067
_cell_angle_gamma 61.480208
_cell_volume 649.139366
_symmetry_space_group_name_H-M "P -1"
_symmetry_group_IT_number 2
_symmetry_cell_setting 'triclinic'
loop_
_space_group_symop_operation_xyz
x,y,z
-x,-y,-z
loop_
_atom_site_type_symbol
_atom_site_label
_atom_site_fract_x
_atom_site_fract_y
_atom_site_fract_z
Si Si1 0.244641 0.732667 0.475811
Si Si2 0.376428 0.724078 0.637646
Si Si3 0.951656 0.663464 0.596075
Si Si4 0.695911 0.708545 0.099312
Si Si5 0.839584 0.283613 0.798105
Si Si6 0.700822 0.103076 0.773465
O O1 0.264825 0.838392 0.498058
O O2 0.453193 0.386421 0.633563
O O3 0.203847 0.957676 0.286114
O O4 0.056245 0.738520 0.487480
O O5 0.345054 0.510056 0.798919
O O6 0.621233 0.530336 0.722473
O O7 0.271046 0.018158 0.535720
O O8 0.917904 0.455938 0.671944
O O9 0.097800 0.475554 0.763062
O O10 0.500000 0.000000 0.000000
O O11 0.736944 0.809947 0.961487
O O12 0.813831 0.165947 0.787443
O O13 0.000000 0.000000 0.000000
#
# Coordination Sequence:
#
# PCOD8041621 Si02
#       6
#     2   2   2   2   2   2
#     4   9  19  34  54  80 107 132 175 221 261 300
#     4  10  21  35  54  81 106 139 174 213 267 309
#     4  11  20  34  54  79 110 141 169 213 266 316
#     4  11  16  33  56  79 101 135 185 214 247 307
#     4  11  20  34  57  79 102 136 183 217 252 312
#     4  10  19  33  55  84 101 133 178 224 256 295
#
# _framework density 18.486013
#
# number of rings (size 3 to 8) (size 9 to 14) (size 15 to 20)
#    0.000    1.667    6.667    2.500    0.000    0.667 
#    0.000    3.333    0.000    1.000    0.000    0.000 
#    0.000    0.000    0.000    0.000    0.000    0.000 
#
# Total GULP energy -148792.008344 kJ/mol
# GULP energy per Si atom -12399.334029 kJ/mol
# Density = 1.844394 g / cm^3
# Si number density = 18.486013 Si / 1000 Ang^3
#
#
#
# Elastic Constant Matrix: (Units=GPa)
#
#
# Indices 1 2 3 4 5 6 
#
# 1 91.4739 24.6926 26.3520 4.4739 -5.5935 -14.0956
# 2 24.6926 65.5405 39.2629 13.9745 -11.1182 -12.4944
# 3 26.3520 39.2629 90.3577 15.6262 -11.7772 -10.7910
# 4 4.4739 13.9745 15.6262 34.8690 -11.1062 -11.7817
# 5 -5.5935 -11.1182 -11.7772 -11.1062 34.0359 -0.1485
# 6 -14.0956 -12.4944 -10.7910 -11.7817 -0.1485 20.2288
#
#
#
# Elastic Compliance Matrix: (Units=1/GPa)
#
#
# Indices 1 2 3 4 5 6 
#
# 1 0.013576 -0.002602 -0.002181 0.003940 0.001951 0.008999
# 2 -0.002602 0.023302 -0.007644 -0.001774 0.003993 0.007498
# 3 -0.002181 -0.007644 0.015818 -0.003096 0.001610 0.000406
# 4 0.003940 -0.001774 -0.003096 0.042928 0.013114 0.025097
# 5 0.001951 0.003993 0.001610 0.013114 0.035897 0.012586
# 6 0.008999 0.007498 0.000406 0.025097 0.012586 0.075262
#
#
# Mechanical properties :
#
#
# Convention : Reuss Voigt Hill
#
# Bulk Modulus (GPa) = 35.91583 47.55413 41.73498
# Shear Modulus (GPa) = 20.75383 28.29772 24.52577
#
# Velocity S-wave (km/s) = 3.35427 3.91674 3.64637
# Velocity P-wave (km/s) = 5.87132 6.79961 6.35244
#
# Compressibility (1/GPa) = 0.02784288
#
# Stress axis : x y z
#
# Youngs Moduli (GPa) = 73.65928 42.91419 63.21749
#
# Poissons Ratio (x) = 0.11165 0.13789
# Poissons Ratio (y) = 0.19165 0.48323
# Poissons Ratio (z) = 0.16066 0.32803
#
# Static dielectric constant tensor:
#      x y z
#    x 3.564610 -0.194950 -0.145380 
#    y -0.194950 3.308050 0.207570 
#    z -0.145380 0.207570 3.739950 
# 
# 
# High freq. dielectric constant tensor:
#      x y z
#    x 1.723470 -0.018470 -0.007540 
#    y -0.018470 1.684380 -0.002780 
#    z -0.007540 -0.002780 1.719860 
# 
# From -- ./inp_files/145403.got.cif
#   From: 2010.06.25/outbox.cif.g09.slc.cpg/sg2_73_cif.got.tgz:145403.got - 2010.06.27 13:26:56.
