data_PCOD8041650
_publ_section_title
;
Structure prediction by ZEFSAII (Michael W. Deem and Ramdas Pophale) SiO2 
 PCOD8041650
Probable space group: P -1
;
_chemical_formula_sum "Si O2"
_cell_formula_units_Z 14
_cell_length_a 12.274068
_cell_length_b 8.474277
_cell_length_c 12.581297
_cell_angle_alpha 110.172858
_cell_angle_beta 142.092463
_cell_angle_gamma 88.470814
_cell_volume 682.948728
_symmetry_space_group_name_H-M "P -1"
_symmetry_group_IT_number 2
_symmetry_cell_setting 'triclinic'
loop_
_space_group_symop_operation_xyz
x,y,z
-x,-y,-z
loop_
_atom_site_type_symbol
_atom_site_label
_atom_site_fract_x
_atom_site_fract_y
_atom_site_fract_z
Si Si1 0.861632 0.602371 0.909689
Si Si2 0.324365 0.583175 0.078655
Si Si3 0.942894 0.647241 0.751709
Si Si4 0.799874 0.487748 0.389872
Si Si5 0.375620 0.240107 0.962661
Si Si6 0.043804 0.036341 0.810948
Si Si7 0.719453 0.830534 0.359357
O O1 0.675376 0.484222 0.814216
O O2 0.811397 0.612673 0.749387
O O3 0.971028 0.811250 0.086971
O O4 0.000000 0.500000 0.000000
O O5 0.515728 0.774026 0.253000
O O6 0.135694 0.616312 0.914468
O O7 0.333944 0.424541 0.971793
O O8 0.810203 0.499651 0.528651
O O9 0.003323 0.854379 0.804891
O O10 0.780853 0.662601 0.366636
O O11 0.000000 0.500000 0.500000
O O12 0.609033 0.299523 0.169665
O O13 0.257297 0.106101 0.936800
O O14 0.305082 0.124900 0.771891
O O15 0.884946 0.005195 0.587482
#
# Coordination Sequence:
#
# PCOD8041650 Si02
#       7
#     2   2   2   2   2   2   2
#     4   9  19  37  58  77 103 142 183 219 263 321
#     4   9  18  35  57  78 105 145 184 213 257 322
#     4  10  19  35  55  81 111 139 173 227 269 303
#     4  10  19  33  56  82 107 141 181 218 262 314
#     4  10  19  35  55  79 110 146 178 212 260 324
#     4  10  21  35  53  82 110 138 177 223 269 310
#     4  10  19  34  55  79 110 145 177 218 264 314
#
# _framework density 20.499343
#
# number of rings (size 3 to 8) (size 9 to 14) (size 15 to 20)
#    0.000    2.286    0.000    4.286    0.000    0.000 
#    0.000   27.857    0.000    0.000    0.000    0.000 
#    0.000    0.000    0.000    0.000    0.000    0.000 
#
# Total GULP energy -173531.007398 kJ/mol
# GULP energy per Si atom -12395.071957 kJ/mol
# Density = 2.045269 g / cm^3
# Si number density = 20.499343 Si / 1000 Ang^3
#
#
#
# Elastic Constant Matrix: (Units=GPa)
#
#
# Indices 1 2 3 4 5 6 
#
# 1 119.3587 26.0313 54.5700 -8.8988 -22.9597 14.5268
# 2 26.0313 53.0824 17.3163 -10.0366 -9.6932 9.2146
# 3 54.5700 17.3163 102.5686 -10.1523 -19.2829 8.2898
# 4 -8.8988 -10.0366 -10.1523 19.4739 0.2267 -0.2580
# 5 -22.9597 -9.6932 -19.2829 0.2267 38.4046 -6.6023
# 6 14.5268 9.2146 8.2898 -0.2580 -6.6023 26.2649
#
#
#
# Elastic Compliance Matrix: (Units=1/GPa)
#
#
# Indices 1 2 3 4 5 6 
#
# 1 0.012570 -0.002980 -0.005086 0.001470 0.003620 -0.003377
# 2 -0.002980 0.024003 -0.000369 0.010705 0.003033 -0.005789
# 3 -0.005086 -0.000369 0.013689 0.004574 0.003641 -0.000418
# 4 0.001470 0.010705 0.004574 0.059812 0.004799 -0.004218
# 5 0.003620 0.003033 0.003641 0.004799 0.031409 0.003727
# 6 -0.003377 -0.005789 -0.000418 -0.004218 0.003727 0.043000
#
#
# Mechanical properties :
#
#
# Convention : Reuss Voigt Hill
#
# Bulk Modulus (GPa) = 29.94730 52.31611 41.13170
# Shear Modulus (GPa) = 23.53126 28.63482 26.08304
#
# Velocity S-wave (km/s) = 3.39175 3.74152 3.57092
# Velocity P-wave (km/s) = 5.47533 6.65143 6.09183
#
# Compressibility (1/GPa) = 0.03339199
#
# Stress axis : x y z
#
# Youngs Moduli (GPa) = 79.55377 41.66111 73.05360
#
# Poissons Ratio (x) = 0.12415 0.37152
# Poissons Ratio (y) = 0.23708 0.02698
# Poissons Ratio (z) = 0.40458 0.01538
#
# Static dielectric constant tensor:
#      x y z
#    x 4.221430 0.258030 -0.133220 
#    y 0.258030 3.555050 -0.028060 
#    z -0.133220 -0.028060 3.932570 
# 
# 
# High freq. dielectric constant tensor:
#      x y z
#    x 1.815320 0.011390 -0.006210 
#    y 0.011390 1.783890 -0.003700 
#    z -0.006210 -0.003700 1.791120 
# 
# From -- ./inp_files/164391.got.cif
#   From: 2010.06.25/outbox.cif.g09.slc.cpg/sg2_83_cif.got.tgz:164391.got - 2010.06.27 13:26:56.
