data_PCOD8041469
_publ_section_title
;
Structure prediction by ZEFSAII (Michael W. Deem and Ramdas Pophale) SiO2 
 PCOD8041469
Probable space group: P -1
;
_chemical_formula_sum "Si O2"
_cell_formula_units_Z 16
_cell_length_a 10.607020
_cell_length_b 12.086221
_cell_length_c 9.784859
_cell_angle_alpha 58.625212
_cell_angle_beta 125.171487
_cell_angle_gamma 141.053049
_cell_volume 638.088351
_symmetry_space_group_name_H-M "P -1"
_symmetry_group_IT_number 2
_symmetry_cell_setting 'triclinic'
loop_
_space_group_symop_operation_xyz
x,y,z
-x,-y,-z
loop_
_atom_site_type_symbol
_atom_site_label
_atom_site_fract_x
_atom_site_fract_y
_atom_site_fract_z
Si Si1 0.660185 0.384750 0.381803
Si Si2 0.997377 0.062720 0.300530
Si Si3 0.953123 0.864753 0.168710
Si Si4 0.863102 0.250857 0.510554
Si Si5 0.890553 0.261280 0.206114
Si Si6 0.308813 0.602525 0.108974
Si Si7 0.312017 0.361013 0.085391
Si Si8 0.421835 0.307787 0.553082
O O1 0.676636 0.245084 0.431028
O O2 0.530586 0.404487 0.185722
O O3 0.542062 0.313979 0.498139
O O4 0.899889 0.566772 0.428136
O O5 0.161993 0.133814 0.490582
O O6 0.846567 0.098928 0.208597
O O7 0.167647 0.200425 0.203324
O O8 0.877452 0.876673 0.263963
O O9 0.771542 0.677524 0.098464
O O10 0.156639 0.889453 0.315483
O O11 0.000000 0.000000 0.000000
O O12 0.854150 0.209571 0.373824
O O13 0.125330 0.447430 0.197334
O O14 0.725535 0.273567 0.047107
O O15 0.520800 0.735407 0.245895
O O16 0.340105 0.523730 0.052479
O O17 0.500000 0.500000 0.500000
#
# Coordination Sequence:
#
# PCOD8041469 Si02
#       8
#     2   2   2   2   2   2   2   2
#     4  10  21  35  58  93 123 153 188 250 312 339
#     4   9  19  37  62  82 115 156 206 237 287 356
#     4  10  23  42  59  83 117 167 205 231 290 365
#     4  11  23  37  57  88 128 155 191 248 302 356
#     4  10  20  35  55  91 117 154 190 246 300 341
#     4  10  19  32  62  90 119 146 193 248 298 350
#     4   9  19  37  59  89 118 151 198 243 294 355
#     4  11  16  35  60  91 114 151 201 246 291 343
#
# _framework density 25.074898999999998
#
# number of rings (size 3 to 8) (size 9 to 14) (size 15 to 20)
#    0.000    2.000    5.000    0.000    3.500    3.000 
#    0.000    6.875    0.000    1.500    0.000    0.000 
#    0.000    0.000    0.000    0.000    0.000    0.000 
#
# Total GULP energy -198224.595759 kJ/mol
# GULP energy per Si atom -12389.037235 kJ/mol
# Density = 2.501783 g / cm^3
# Si number density = 25.074899 Si / 1000 Ang^3
#
#
#
# Elastic Constant Matrix: (Units=GPa)
#
#
# Indices 1 2 3 4 5 6 
#
# 1 166.9209 52.3893 72.6510 9.9758 22.4597 -43.7994
# 2 52.3893 71.5541 55.6271 14.4706 6.1582 -28.3638
# 3 72.6510 55.6271 170.5626 28.4215 22.5789 -34.1248
# 4 9.9758 14.4706 28.4215 43.4079 -12.7646 -7.4830
# 5 22.4597 6.1582 22.5789 -12.7646 43.6714 -6.8858
# 6 -43.7994 -28.3638 -34.1248 -7.4830 -6.8858 51.2647
#
#
#
# Elastic Compliance Matrix: (Units=1/GPa)
#
#
# Indices 1 2 3 4 5 6 
#
# 1 0.009375 -0.003609 -0.001526 0.000026 -0.002787 0.004627
# 2 -0.003609 0.023034 -0.004414 -0.002484 0.001192 0.006520
# 3 -0.001526 -0.004414 0.009900 -0.005990 -0.005263 0.001263
# 4 0.000026 -0.002484 -0.005990 0.031743 0.012873 0.001023
# 5 -0.002787 0.001192 -0.005263 0.012873 0.030771 0.000788
# 6 0.004627 0.006520 0.001263 0.001023 0.000788 0.028162
#
#
# Mechanical properties :
#
#
# Convention : Reuss Voigt Hill
#
# Bulk Modulus (GPa) = 43.08483 85.59693 64.34088
# Shear Modulus (GPa) = 31.28477 42.89348 37.08912
#
# Velocity S-wave (km/s) = 3.53604 4.14044 3.85012
# Velocity P-wave (km/s) = 5.82162 7.55436 6.74387
#
# Compressibility (1/GPa) = 0.02321003
#
# Stress axis : x y z
#
# Youngs Moduli (GPa) = 106.66336 43.41409 101.00956
#
# Poissons Ratio (x) = 0.15669 0.15414
# Poissons Ratio (y) = 0.38498 0.44589
# Poissons Ratio (z) = 0.16277 0.19164
#
# Static dielectric constant tensor:
#      x y z
#    x 4.879660 -0.444410 -0.112330 
#    y -0.444410 5.099220 0.640150 
#    z -0.112330 0.640150 5.711070 
# 
# 
# High freq. dielectric constant tensor:
#      x y z
#    x 2.002830 -0.009450 -0.008150 
#    y -0.009450 1.995730 -0.002990 
#    z -0.008150 -0.002990 2.021220 
# 
# From -- ./inp_files/262316.got.cif
#   From: 2010.06.25/outbox.cif.g09.slc.cpg/sg2_132_cif.got.tgz:262316.got - 2010.06.27 13:26:56.
