data_PCOD8041015
_publ_section_title
;
Structure prediction by ZEFSAII (Michael W. Deem and Ramdas Pophale) SiO2 
 PCOD8041015
Probable space group: P -1
;
_chemical_formula_sum "Si O2"
_cell_formula_units_Z 16
_cell_length_a 9.568258
_cell_length_b 14.069350
_cell_length_c 11.256293
_cell_angle_alpha 31.703942
_cell_angle_beta 80.858798
_cell_angle_gamma 68.311410
_cell_volume 701.424048
_symmetry_space_group_name_H-M "P -1"
_symmetry_group_IT_number 2
_symmetry_cell_setting 'triclinic'
loop_
_space_group_symop_operation_xyz
x,y,z
-x,-y,-z
loop_
_atom_site_type_symbol
_atom_site_label
_atom_site_fract_x
_atom_site_fract_y
_atom_site_fract_z
Si Si1 0.028536 0.806745 0.966343
Si Si2 0.575066 0.743975 0.205955
Si Si3 0.903208 0.819712 0.475075
Si Si4 0.867613 0.930419 0.615972
Si Si5 0.294752 0.355348 0.440874
Si Si6 0.742631 0.391504 0.383800
Si Si7 0.279544 0.978775 0.121076
Si Si8 0.575783 0.345283 0.258449
O O1 0.919224 0.810113 0.862845
O O2 0.107908 0.958255 0.781314
O O3 0.165189 0.586312 0.203714
O O4 0.908367 0.866865 0.034391
O O5 0.654685 0.700025 0.371413
O O6 0.634701 0.538040 0.344983
O O7 0.381573 0.852326 0.126719
O O8 0.627927 0.899068 0.968527
O O9 0.872208 0.792004 0.648637
O O10 0.775000 0.793536 0.439052
O O11 0.076921 0.645604 0.597054
O O12 0.695416 0.121907 0.435103
O O13 0.000000 0.000000 0.500000
O O14 0.444540 0.322870 0.378610
O O15 0.729066 0.180107 0.615285
O O16 0.664139 0.461501 0.191491
O O17 0.500000 0.500000 0.000000
#
# Coordination Sequence:
#
# PCOD8041015 Si02
#       8
#     2   2   2   2   2   2   2   2
#     4  10  21  42  68  91 136 182 217 268 333 398
#     4  11  24  42  69  98 135 173 227 278 319 394
#     4  10  23  41  67  97 132 182 218 264 337 400
#     4  10  18  42  67  89 131 178 216 259 329 400
#     4  12  26  42  65 108 135 162 232 282 318 382
#     4  11  22  45  72  93 131 187 219 257 349 398
#     4  10  21  43  66  93 130 180 221 267 329 396
#     4  12  24  44  70 103 134 168 224 284 322 395
#
# _framework density 22.810739000000002
#
# number of rings (size 3 to 8) (size 9 to 14) (size 15 to 20)
#    0.000    1.250    5.000    2.625    0.000    4.000 
#    9.000    2.500    0.000    0.000    0.000    0.000 
#    0.000    0.000    0.000    0.000    0.000    0.000 
#
# Total GULP energy -198242.057862 kJ/mol
# GULP energy per Si atom -12390.128616 kJ/mol
# Density = 2.275882 g / cm^3
# Si number density = 22.810739 Si / 1000 Ang^3
#
#
#
# Elastic Constant Matrix: (Units=GPa)
#
#
# Indices 1 2 3 4 5 6 
#
# 1 81.9118 46.5401 13.3532 -8.4011 9.9111 -14.4138
# 2 46.5401 129.0934 28.8077 -10.4266 10.0615 -18.4655
# 3 13.3532 28.8077 66.4006 -11.0805 13.5759 -2.2021
# 4 -8.4011 -10.4266 -11.0805 29.4258 -1.6979 13.9270
# 5 9.9111 10.0615 13.5759 -1.6979 25.9307 -10.5315
# 6 -14.4138 -18.4655 -2.2021 13.9270 -10.5315 47.5454
#
#
#
# Elastic Compliance Matrix: (Units=1/GPa)
#
#
# Indices 1 2 3 4 5 6 
#
# 1 0.015995 -0.005145 0.000068 0.001832 -0.003397 0.001565
# 2 -0.005145 0.010737 -0.003761 -0.000318 0.000852 0.002718
# 3 0.000068 -0.003761 0.020034 0.008098 -0.010655 -0.005244
# 4 0.001832 -0.000318 0.008098 0.043437 -0.007486 -0.013574
# 5 -0.003397 0.000852 -0.010655 -0.007486 0.049478 0.011960
# 6 0.001565 0.002718 -0.005244 -0.013574 0.011960 0.028945
#
#
# Mechanical properties :
#
#
# Convention : Reuss Voigt Hill
#
# Bulk Modulus (GPa) = 34.37599 50.53419 42.45509
# Shear Modulus (GPa) = 25.51059 33.16070 29.33564
#
# Velocity S-wave (km/s) = 3.34781 3.81692 3.59004
# Velocity P-wave (km/s) = 5.48148 6.45190 5.98638
#
# Compressibility (1/GPa) = 0.02909007
#
# Stress axis : x y z
#
# Youngs Moduli (GPa) = 62.52070 93.13553 49.91528
#
# Poissons Ratio (x) = 0.47917 -0.00338
# Poissons Ratio (y) = 0.32166 0.18772
# Poissons Ratio (z) = -0.00424 0.35026
#
# Static dielectric constant tensor:
#      x y z
#    x 4.352410 -0.308100 -0.002850 
#    y -0.308100 5.116040 0.566220 
#    z -0.002850 0.566220 4.470880 
# 
# 
# High freq. dielectric constant tensor:
#      x y z
#    x 1.900430 -0.025630 0.003490 
#    y -0.025630 1.909140 -0.006970 
#    z 0.003490 -0.006970 1.889460 
# 
# From -- ./inp_files/398110.got.cif
#   From: 2010.06.25/outbox.cif.g09.slc.cpg/sg2_200_cif.got.tgz:398110.got - 2010.06.27 13:26:56.
