data_PCOD8041124
_publ_section_title
;
Structure prediction by ZEFSAII (Michael W. Deem and Ramdas Pophale) SiO2 
 PCOD8041124
Probable space group: P -1
;
_chemical_formula_sum "Si O2"
_cell_formula_units_Z 16
_cell_length_a 14.933361
_cell_length_b 6.588113
_cell_length_c 14.692437
_cell_angle_alpha 57.720576
_cell_angle_beta 71.591079
_cell_angle_gamma 107.096124
_cell_volume 947.296631
_symmetry_space_group_name_H-M "P -1"
_symmetry_group_IT_number 2
_symmetry_cell_setting 'triclinic'
loop_
_space_group_symop_operation_xyz
x,y,z
-x,-y,-z
loop_
_atom_site_type_symbol
_atom_site_label
_atom_site_fract_x
_atom_site_fract_y
_atom_site_fract_z
Si Si1 0.737785 0.188768 0.701284
Si Si2 0.118397 0.506588 0.586089
Si Si3 0.002830 0.834866 0.767039
Si Si4 0.942451 0.672585 0.627235
Si Si5 0.129809 0.174520 0.019199
Si Si6 0.511917 0.855004 0.945170
Si Si7 0.085993 0.453942 0.808949
Si Si8 0.328522 0.322799 0.042386
O O1 0.773309 0.255614 0.567975
O O2 0.817995 0.475801 0.668462
O O3 0.605999 0.087011 0.784512
O O4 0.750414 0.931627 0.795690
O O5 0.158362 0.553981 0.667361
O O6 0.016210 0.551272 0.598413
O O7 0.077059 0.184000 0.642952
O O8 0.083998 0.721057 0.785874
O O9 0.928238 0.659167 0.743923
O O10 0.920129 0.742225 0.901830
O O11 0.000000 0.000000 0.500000
O O12 0.254000 0.257947 0.990994
O O13 0.149996 0.375926 0.878299
O O14 0.044282 0.832216 0.101823
O O15 0.559017 0.674442 0.017435
O O16 0.385084 0.646730 0.989174
O O17 0.500000 0.000000 0.000000
#
# Coordination Sequence:
#
# PCOD8041124 Si02
#       8
#     2   2   2   2   2   2   2   2
#     4  10  19  33  51  73 107 139 161 212 268 300
#     4  10  20  33  46  72 113 137 166 208 248 321
#     4  10  19  31  46  75 110 137 171 205 249 317
#     4  11  21  28  46  79 109 139 172 195 256 330
#     4  10  19  33  56  72 106 139 175 219 255 295
#     4   9  21  36  50  76 103 127 182 216 260 312
#     4   9  20  34  48  80 104 140 179 205 251 316
#     4   9  20  35  52  76 100 133 171 220 265 296
#
# _framework density 16.890167999999999
#
# number of rings (size 3 to 8) (size 9 to 14) (size 15 to 20)
#    0.750    1.500    1.250    3.000    3.500    0.000 
#    0.000    0.000    0.000    0.750    0.000    1.750 
#    0.000    0.000    0.000    0.000    0.000    0.000 
#
# Total GULP energy -198255.526855 kJ/mol
# GULP energy per Si atom -12390.970428 kJ/mol
# Density = 1.685173 g / cm^3
# Si number density = 16.890168 Si / 1000 Ang^3
#
#
#
# Elastic Constant Matrix: (Units=GPa)
#
#
# Indices 1 2 3 4 5 6 
#
# 1 67.4658 33.8082 39.0902 -2.3659 10.0499 11.8002
# 2 33.8082 89.4433 41.2248 -5.5720 0.5677 -4.0285
# 3 39.0902 41.2248 103.1960 2.8597 6.6064 7.8975
# 4 -2.3659 -5.5720 2.8597 30.5608 0.2688 0.5867
# 5 10.0499 0.5677 6.6064 0.2688 24.5905 -1.2977
# 6 11.8002 -4.0285 7.8975 0.5867 -1.2977 27.7067
#
#
#
# Elastic Compliance Matrix: (Units=1/GPa)
#
#
# Indices 1 2 3 4 5 6 
#
# 1 0.024694 -0.007336 -0.005065 0.001332 -0.009136 -0.010596
# 2 -0.007336 0.016595 -0.004735 0.002729 0.004228 0.007027
# 3 -0.005065 -0.004735 0.013867 -0.002490 -0.001651 -0.002509
# 4 0.001332 0.002729 -0.002490 0.033562 -0.000315 -0.000186
# 5 -0.009136 0.004228 -0.001651 -0.000315 0.045124 0.007097
# 6 -0.010596 0.007027 -0.002509 -0.000186 0.007097 0.042678
#
#
# Mechanical properties :
#
#
# Convention : Reuss Voigt Hill
#
# Bulk Modulus (GPa) = 47.87999 54.26128 51.07063
# Shear Modulus (GPa) = 22.96198 26.30375 24.63286
#
# Velocity S-wave (km/s) = 3.69112 3.95060 3.82306
# Velocity P-wave (km/s) = 6.82461 7.28047 7.05622
#
# Compressibility (1/GPa) = 0.02088555
#
# Stress axis : x y z
#
# Youngs Moduli (GPa) = 40.49594 60.25923 72.11467
#
# Poissons Ratio (x) = 0.44206 0.36522
# Poissons Ratio (y) = 0.29708 0.34143
# Poissons Ratio (z) = 0.20509 0.28530
#
# Static dielectric constant tensor:
#      x y z
#    x 2.949470 0.026850 0.105010 
#    y 0.026850 3.394150 -0.100940 
#    z 0.105010 -0.100940 3.265340 
# 
# 
# High freq. dielectric constant tensor:
#      x y z
#    x 1.611740 -0.006910 0.011710 
#    y -0.006910 1.662460 -0.000190 
#    z 0.011710 -0.000190 1.642650 
# 
# From -- ./inp_files/524954.got.cif
#   From: 2010.06.25/outbox.cif.g09.slc.cpg/sg2_263_cif.got.tgz:524954.got - 2010.06.27 13:26:56.
