data_PCOD8041643
_publ_section_title
;
Structure prediction by ZEFSAII (Michael W. Deem and Ramdas Pophale) SiO2 
 PCOD8041643
Probable space group: P -1
;
_chemical_formula_sum "Si O2"
_cell_formula_units_Z 16
_cell_length_a 8.875903
_cell_length_b 11.721726
_cell_length_c 19.459745
_cell_angle_alpha 40.408057
_cell_angle_beta 64.006559
_cell_angle_gamma 95.561067
_cell_volume 794.641241
_symmetry_space_group_name_H-M "P -1"
_symmetry_group_IT_number 2
_symmetry_cell_setting 'triclinic'
loop_
_space_group_symop_operation_xyz
x,y,z
-x,-y,-z
loop_
_atom_site_type_symbol
_atom_site_label
_atom_site_fract_x
_atom_site_fract_y
_atom_site_fract_z
Si Si1 0.540348 0.676052 0.048394
Si Si2 0.540977 0.571813 0.685435
Si Si3 0.498294 0.670006 0.331905
Si Si4 0.386353 0.852477 0.905195
Si Si5 0.134597 0.137942 0.715104
Si Si6 0.354995 0.563347 0.938905
Si Si7 0.816493 0.435682 0.173292
Si Si8 0.856405 0.078883 0.315837
O O1 0.417273 0.762681 0.009903
O O2 0.413960 0.520208 0.216505
O O3 0.476560 0.473509 0.097888
O O4 0.839094 0.926222 0.880134
O O5 0.461354 0.385344 0.724769
O O6 0.329743 0.552931 0.750540
O O7 0.788422 0.876878 0.478319
O O8 0.249704 0.409525 0.539277
O O9 0.748354 0.817250 0.255719
O O10 0.462124 0.851217 0.249696
O O11 0.504712 0.834065 0.824987
O O12 0.101702 0.675510 0.027618
O O13 0.217860 0.048853 0.686498
O O14 0.215984 0.525005 0.916300
O O15 0.150650 0.342343 0.137198
O O16 0.719914 0.158555 0.323583
#
# Coordination Sequence:
#
# PCOD8041643 Si02
#       8
#     2   2   2   2   2   2   2   2
#     4  10  21  35  52  75 106 136 168 208 257 303
#     4  10  21  34  51  74 105 139 167 208 254 300
#     4  10  20  35  56  76 100 134 175 210 250 301
#     4  11  20  32  54  79 103 135 171 207 252 305
#     4   9  19  36  56  78 100 130 170 217 255 295
#     4   9  18  35  57  78 101 129 170 217 256 295
#     4  10  19  33  56  80 102 129 171 216 253 297
#     4   9  16  32  56  78  99 127 169 214 255 292
#
# _framework density 20.134872999999999
#
# number of rings (size 3 to 8) (size 9 to 14) (size 15 to 20)
#    0.000    2.250    0.000    5.250    0.000    3.000 
#    0.000    2.500    0.000   19.500    0.000    0.000 
#    0.000    0.000    0.000    0.000    0.000    0.000 
#
# Total GULP energy -198306.500926 kJ/mol
# GULP energy per Si atom -12394.156308 kJ/mol
# Density = 2.008904 g / cm^3
# Si number density = 20.134873 Si / 1000 Ang^3
#
#
#
# Elastic Constant Matrix: (Units=GPa)
#
#
# Indices 1 2 3 4 5 6 
#
# 1 74.2061 36.4496 39.7421 -3.7873 32.8383 -5.8369
# 2 36.4496 125.0366 57.7700 -7.7955 24.5594 -17.8842
# 3 39.7421 57.7700 105.1125 -0.7319 33.3939 -4.0809
# 4 -3.7873 -7.7955 -0.7319 31.3089 -4.7986 7.6359
# 5 32.8383 24.5594 33.3939 -4.7986 30.5714 -8.9014
# 6 -5.8369 -17.8842 -4.0809 7.6359 -8.9014 19.0914
#
#
#
# Elastic Compliance Matrix: (Units=1/GPa)
#
#
# Indices 1 2 3 4 5 6 
#
# 1 0.027438 -0.003805 0.000906 -0.000020 -0.030021 -0.008971
# 2 -0.003805 0.012978 -0.006604 0.000497 0.004264 0.011372
# 3 0.000906 -0.006604 0.018437 -0.001525 -0.019025 -0.010228
# 4 -0.000020 0.000497 -0.001525 0.035591 0.003204 -0.012608
# 5 -0.030021 0.004264 -0.019025 0.003204 0.092277 0.032491
# 6 -0.008971 0.011372 -0.010228 -0.012608 0.032491 0.078295
#
#
# Mechanical properties :
#
#
# Convention : Reuss Voigt Hill
#
# Bulk Modulus (GPa) = 25.09536 63.58653 44.34094
# Shear Modulus (GPa) = 16.81782 27.55392 22.18587
#
# Velocity S-wave (km/s) = 2.89322 3.70329 3.32303
# Velocity P-wave (km/s) = 4.86330 7.06645 6.06574
#
# Compressibility (1/GPa) = 0.03984801
#
# Stress axis : x y z
#
# Youngs Moduli (GPa) = 36.44564 77.05389 54.23952
#
# Poissons Ratio (x) = 0.29319 -0.04916
# Poissons Ratio (y) = 0.13868 0.35818
# Poissons Ratio (z) = -0.03303 0.50884
#
# Static dielectric constant tensor:
#      x y z
#    x 3.444970 -0.171230 0.302430 
#    y -0.171230 3.924850 -0.180200 
#    z 0.302430 -0.180200 3.738860 
# 
# 
# High freq. dielectric constant tensor:
#      x y z
#    x 1.767870 -0.004190 0.025830 
#    y -0.004190 1.793250 -0.010090 
#    z 0.025830 -0.010090 1.778240 
# 
# From -- ./inp_files/213846.got.cif
#   From: 2010.06.25/outbox.cif.g09.slc.cpg/sg2_107_cif.got.tgz:213846.got - 2010.06.27 13:26:56.
