data_PCOD8041540
_publ_section_title
;
Structure prediction by ZEFSAII (Michael W. Deem and Ramdas Pophale) SiO2 
 PCOD8041540
Probable space group: P -1
;
_chemical_formula_sum "Si O2"
_cell_formula_units_Z 14
_cell_length_a 21.229195
_cell_length_b 5.263955
_cell_length_c 13.923678
_cell_angle_alpha 56.486272
_cell_angle_beta 32.403075
_cell_angle_gamma 65.395855
_cell_volume 690.846186
_symmetry_space_group_name_H-M "P -1"
_symmetry_group_IT_number 2
_symmetry_cell_setting 'triclinic'
loop_
_space_group_symop_operation_xyz
x,y,z
-x,-y,-z
loop_
_atom_site_type_symbol
_atom_site_label
_atom_site_fract_x
_atom_site_fract_y
_atom_site_fract_z
Si Si1 0.161424 0.079055 0.650440
Si Si2 0.577212 0.142412 0.149053
Si Si3 0.076863 0.222349 0.957336
Si Si4 0.656331 0.195583 0.392033
Si Si5 0.712494 0.889150 0.186598
Si Si6 0.758309 0.384854 0.474640
Si Si7 0.510030 0.794278 0.122459
O O1 0.219884 0.437118 0.488076
O O2 0.236201 0.850266 0.663965
O O3 0.169887 0.910151 0.570201
O O4 0.024439 0.068050 0.866859
O O5 0.577763 0.508556 0.064234
O O6 0.460891 0.010317 0.382793
O O7 0.691146 0.067838 0.078414
O O8 0.583637 0.995934 0.065923
O O9 0.147645 0.158494 0.976964
O O10 0.182866 0.302514 0.725578
O O11 0.000000 0.500000 0.000000
O O12 0.636458 0.554418 0.350208
O O13 0.679890 0.103231 0.271710
O O14 0.620500 0.312478 0.644375
O O15 0.500000 0.000000 0.000000
#
# Coordination Sequence:
#
# PCOD8041540 Si02
#       7
#     2   2   2   2   2   2   2
#     4  11  19  31  55  78 120 143 184 216 255 331
#     4  12  23  39  54  86 115 146 188 234 280 347
#     4  10  19  33  53  84 118 154 180 212 261 346
#     4  12  19  35  53  83 123 157 177 211 274 350
#     4  12  23  32  54  82 124 161 174 213 279 342
#     4  11  19  35  52  82 110 141 183 234 268 320
#     4  12  24  42  62  79 105 148 199 250 286 315
#
# _framework density 20.265004000000001
#
# number of rings (size 3 to 8) (size 9 to 14) (size 15 to 20)
#    0.000    0.571    7.143    3.429    0.000    0.000 
#    0.000    0.000    0.000    0.000    0.000   14.000 
#    0.000    0.000    0.000    0.000    0.000    0.000 
#
# Total GULP energy -173437.168980 kJ/mol
# GULP energy per Si atom -12388.369213 kJ/mol
# Density = 2.021888 g / cm^3
# Si number density = 20.265004 Si / 1000 Ang^3
#
#
#
# Elastic Constant Matrix: (Units=GPa)
#
#
# Indices 1 2 3 4 5 6 
#
# 1 118.7553 43.6193 33.7036 -4.1752 -5.9269 -8.5570
# 2 43.6193 137.6261 16.7087 -5.6562 5.3999 17.9066
# 3 33.7036 16.7087 33.9636 1.5802 -6.9709 -7.9986
# 4 -4.1752 -5.6562 1.5802 16.3518 -2.0734 1.3188
# 5 -5.9269 5.3999 -6.9709 -2.0734 22.9645 3.5721
# 6 -8.5570 17.9066 -7.9986 1.3188 3.5721 43.8152
#
#
#
# Elastic Compliance Matrix: (Units=1/GPa)
#
#
# Indices 1 2 3 4 5 6 
#
# 1 0.012842 -0.002817 -0.011019 0.003338 0.000702 0.001490
# 2 -0.002817 0.009513 -0.003827 0.002951 -0.003085 -0.004974
# 3 -0.011019 -0.003827 0.046461 -0.007907 0.010311 0.007291
# 4 0.003338 0.002951 -0.007907 0.064681 0.004275 -0.004293
# 5 0.000702 -0.003085 0.010311 0.004275 0.048088 -0.000769
# 6 0.001490 -0.004974 0.007291 -0.004293 -0.000769 0.026670
#
#
# Mechanical properties :
#
#
# Convention : Reuss Voigt Hill
#
# Bulk Modulus (GPa) = 29.85733 53.15645 41.50689
# Shear Modulus (GPa) = 19.62765 29.71387 24.67076
#
# Velocity S-wave (km/s) = 3.11553 3.83334 3.49292
# Velocity P-wave (km/s) = 5.26379 6.77350 6.06579
#
# Compressibility (1/GPa) = 0.03349261
#
# Stress axis : x y z
#
# Youngs Moduli (GPa) = 77.86847 105.12116 21.52320
#
# Poissons Ratio (x) = 0.29609 0.23716
# Poissons Ratio (y) = 0.21933 0.08236
# Poissons Ratio (z) = 0.85800 0.40227
#
# Static dielectric constant tensor:
#      x y z
#    x 3.999530 0.356240 -0.463730 
#    y 0.356240 4.064560 0.111420 
#    z -0.463730 0.111420 3.617710 
# 
# 
# High freq. dielectric constant tensor:
#      x y z
#    x 1.779620 0.036070 -0.028850 
#    y 0.036070 1.816470 0.013550 
#    z -0.028850 0.013550 1.741850 
# 
# From -- ./inp_files/63826.got.cif
#   From: 2010.06.25/outbox.cif.g09.slc.cpg/sg2_32_cif.got.tgz:63826.got - 2010.06.27 13:26:56.
