data_PCOD8042331
_publ_section_title
;
Structure prediction by ZEFSAII (Michael W. Deem and Ramdas Pophale) SiO2 
 PCOD8042331
Probable space group: P -1
;
_chemical_formula_sum "Si O2"
_cell_formula_units_Z 16
_cell_length_a 14.588388
_cell_length_b 9.023430
_cell_length_c 8.824132
_cell_angle_alpha 106.223832
_cell_angle_beta 67.148186
_cell_angle_gamma 137.452333
_cell_volume 723.776084
_symmetry_space_group_name_H-M "P -1"
_symmetry_group_IT_number 2
_symmetry_cell_setting 'triclinic'
loop_
_space_group_symop_operation_xyz
x,y,z
-x,-y,-z
loop_
_atom_site_type_symbol
_atom_site_label
_atom_site_fract_x
_atom_site_fract_y
_atom_site_fract_z
Si Si1 0.889903 0.974555 0.663279
Si Si2 0.287308 0.465814 0.207097
Si Si3 0.689906 0.232660 0.304639
Si Si4 0.656031 0.880631 0.602474
Si Si5 0.491179 0.232820 0.621875
Si Si6 0.994005 0.414897 0.816898
Si Si7 0.848670 0.370549 0.626198
Si Si8 0.423529 0.764710 0.916800
O O1 0.819070 0.795854 0.792527
O O2 0.773467 0.893241 0.589512
O O3 0.957043 0.192005 0.772515
O O4 0.000000 0.000000 0.500000
O O5 0.421547 0.569693 0.256914
O O6 0.199887 0.511666 0.347046
O O7 0.338780 0.568902 0.036855
O O8 0.601534 0.239258 0.476230
O O9 0.687487 0.303408 0.158628
O O10 0.851422 0.398509 0.306612
O O11 0.624346 0.989133 0.271017
O O12 0.582206 0.740747 0.452951
O O13 0.541147 0.781060 0.777672
O O14 0.725687 0.121122 0.576378
O O15 0.871050 0.369641 0.792384
O O16 0.000000 0.500000 0.000000
O O17 0.000000 0.500000 0.500000
O O18 0.500000 0.000000 0.000000
#
# Coordination Sequence:
#
# PCOD8042331 Si02
#       8
#     2   2   2   2   2   2   2   2
#     4  11  26  45  65  95 140 180 215 273 339 394
#     4  12  22  38  65  94 130 173 219 271 340 389
#     4  10  19  35  59  95 125 157 215 277 318 372
#     4  10  22  39  61  93 131 169 221 269 325 397
#     4  10  19  34  63  95 120 161 218 273 321 379
#     4  11  24  41  65  92 127 176 223 270 316 390
#     4  11  20  36  62  92 126 175 227 266 316 392
#     4  11  20  37  62  95 133 168 210 276 335 390
#
# _framework density 22.106285
#
# number of rings (size 3 to 8) (size 9 to 14) (size 15 to 20)
#    0.000    1.250    2.500    6.000    1.750    1.000 
#    0.000    2.500    0.000    4.500    0.000    0.000 
#    0.000    0.000    0.000    0.000    0.000    0.000 
#
# Total GULP energy -198362.243858 kJ/mol
# GULP energy per Si atom -12397.640241 kJ/mol
# Density = 2.205597 g / cm^3
# Si number density = 22.106285 Si / 1000 Ang^3
#
#
#
# Elastic Constant Matrix: (Units=GPa)
#
#
# Indices 1 2 3 4 5 6 
#
# 1 107.0193 29.2164 28.4308 3.9632 2.9726 9.8981
# 2 29.2164 126.9300 42.9848 -19.4338 8.1106 -7.0917
# 3 28.4308 42.9848 99.0820 -10.5728 11.2893 -0.3322
# 4 3.9632 -19.4338 -10.5728 38.4994 7.2901 3.8124
# 5 2.9726 8.1106 11.2893 7.2901 28.2870 1.1571
# 6 9.8981 -7.0917 -0.3322 3.8124 1.1571 35.7336
#
#
#
# Elastic Compliance Matrix: (Units=1/GPa)
#
#
# Indices 1 2 3 4 5 6 
#
# 1 0.011076 -0.002399 -0.002643 -0.003034 0.001495 -0.003293
# 2 -0.002399 0.010541 -0.002995 0.005083 -0.002978 0.002283
# 3 -0.002643 -0.002995 0.013061 0.003272 -0.004922 0.000069
# 4 -0.003034 0.005083 0.003272 0.031877 -0.010612 -0.001178
# 5 0.001495 -0.002978 -0.004922 -0.010612 0.040799 -0.001240
# 6 -0.003293 0.002283 0.000069 -0.001178 -0.001240 0.029517
#
#
# Mechanical properties :
#
#
# Convention : Reuss Voigt Hill
#
# Bulk Modulus (GPa) = 53.75032 59.36613 56.55822
# Shear Modulus (GPa) = 31.41782 35.99730 33.70756
#
# Velocity S-wave (km/s) = 3.77399 4.03969 3.90910
# Velocity P-wave (km/s) = 6.58468 6.97653 6.78343
#
# Compressibility (1/GPa) = 0.01860454
#
# Stress axis : x y z
#
# Youngs Moduli (GPa) = 90.28162 94.86845 76.56597
#
# Poissons Ratio (x) = 0.22755 0.20235
# Poissons Ratio (y) = 0.21655 0.22934
# Poissons Ratio (z) = 0.23860 0.28416
#
# Static dielectric constant tensor:
#      x y z
#    x 4.326740 0.301030 0.313950 
#    y 0.301030 4.056290 -0.167600 
#    z 0.313950 -0.167600 4.013220 
# 
# 
# High freq. dielectric constant tensor:
#      x y z
#    x 1.877460 0.020270 0.015250 
#    y 0.020270 1.864440 -0.016960 
#    z 0.015250 -0.016960 1.866250 
# 
# From -- ./inp_files/260355.got.cif
#   From: 2010.06.25/outbox.cif.g09.slc.cpg/sg2_131_cif.got.tgz:260355.got - 2010.06.27 13:26:56.
