data_PCOD8042494
_publ_section_title
;
Structure prediction by ZEFSAII (Michael W. Deem and Ramdas Pophale) SiO2 
 PCOD8042494
Probable space group: P -1
;
_chemical_formula_sum "Si O2"
_cell_formula_units_Z 16
_cell_length_a 8.903404
_cell_length_b 12.325080
_cell_length_c 11.249671
_cell_angle_alpha 46.792076
_cell_angle_beta 65.169225
_cell_angle_gamma 68.942122
_cell_volume 811.775803
_symmetry_space_group_name_H-M "P -1"
_symmetry_group_IT_number 2
_symmetry_cell_setting 'triclinic'
loop_
_space_group_symop_operation_xyz
x,y,z
-x,-y,-z
loop_
_atom_site_type_symbol
_atom_site_label
_atom_site_fract_x
_atom_site_fract_y
_atom_site_fract_z
Si Si1 0.301017 0.326210 0.600070
Si Si2 0.370709 0.216232 0.917746
Si Si3 0.060349 0.360803 0.003431
Si Si4 0.073274 0.175660 0.629121
Si Si5 0.713591 0.108810 0.824115
Si Si6 0.087448 0.543463 0.643046
Si Si7 0.891510 0.084501 0.368087
Si Si8 0.659517 0.262489 0.478870
O O1 0.356148 0.301266 0.735081
O O2 0.205777 0.193678 0.675377
O O3 0.176091 0.480481 0.536968
O O4 0.470916 0.339466 0.459716
O O5 0.568325 0.183287 0.906673
O O6 0.262622 0.316389 0.976972
O O7 0.280949 0.067787 0.039261
O O8 0.978781 0.214442 0.177733
O O9 0.000000 0.500000 0.000000
O O10 0.013913 0.412187 0.843336
O O11 0.893898 0.156294 0.762294
O O12 0.057493 0.326747 0.440927
O O13 0.142755 0.035978 0.629894
O O14 0.666045 0.154215 0.671370
O O15 0.218911 0.610516 0.637217
O O16 0.717763 0.159768 0.423249
O O17 0.000000 0.000000 0.500000
#
# Coordination Sequence:
#
# PCOD8042494 Si02
#       8
#     2   2   2   2   2   2   2   2
#     4  10  22  34  55  84 112 144 184 228 281 324
#     4   9  18  33  53  81 109 139 180 229 270 320
#     4  11  19  33  55  86 107 136 184 231 270 318
#     4  11  21  36  56  84 111 148 180 227 280 329
#     4   9  17  33  55  78 109 139 182 226 271 318
#     4  10  20  37  57  81 108 148 183 228 270 326
#     4  12  20  36  59  84 110 145 186 224 272 329
#     4  10  19  35  57  82 108 144 191 227 267 322
#
# _framework density 19.709876000000001
#
# number of rings (size 3 to 8) (size 9 to 14) (size 15 to 20)
#    0.000    1.750    5.000    0.750    0.000    2.000 
#    0.000    0.000    0.000    0.750    0.000    0.000 
#    0.000    0.000    0.000    0.000    0.000    0.000 
#
# Total GULP energy -198235.337366 kJ/mol
# GULP energy per Si atom -12389.708585 kJ/mol
# Density = 1.966502 g / cm^3
# Si number density = 19.709876 Si / 1000 Ang^3
#
#
#
# Elastic Constant Matrix: (Units=GPa)
#
#
# Indices 1 2 3 4 5 6 
#
# 1 52.5432 31.7900 -3.5015 13.0566 -16.0642 -4.1152
# 2 31.7900 165.9831 19.0466 16.9004 -10.9035 -20.5100
# 3 -3.5015 19.0466 72.6031 -3.8220 -5.6185 -20.7737
# 4 13.0566 16.9004 -3.8220 30.9134 -9.4984 -8.8298
# 5 -16.0642 -10.9035 -5.6185 -9.4984 13.8448 1.2812
# 6 -4.1152 -20.5100 -20.7737 -8.8298 1.2812 28.6016
#
#
#
# Elastic Compliance Matrix: (Units=1/GPa)
#
#
# Indices 1 2 3 4 5 6 
#
# 1 0.034738 -0.004329 0.008338 0.003749 0.042185 0.007218
# 2 -0.004329 0.007526 -0.001498 -0.001996 -0.001362 0.003131
# 3 0.008338 -0.001498 0.022905 0.013546 0.025250 0.019813
# 4 0.003749 -0.001996 0.013546 0.053371 0.042716 0.023511
# 5 0.042185 -0.001362 0.025250 0.042716 0.156919 0.029591
# 6 0.007218 0.003131 0.019813 0.023511 0.029591 0.058570
#
#
# Mechanical properties :
#
#
# Convention : Reuss Voigt Hill
#
# Bulk Modulus (GPa) = 14.24666 42.86665 28.55665
# Shear Modulus (GPa) = 14.18834 30.92490 22.55662
#
# Velocity S-wave (km/s) = 2.68593 3.96536 3.38662
# Velocity P-wave (km/s) = 4.10644 6.53923 5.46005
#
# Compressibility (1/GPa) = 0.07019190
#
# Stress axis : x y z
#
# Youngs Moduli (GPa) = 28.78721 132.86796 43.65935
#
# Poissons Ratio (x) = 0.57513 -0.36403
# Poissons Ratio (y) = 0.12461 0.06539
# Poissons Ratio (z) = -0.24003 0.19899
#
# Static dielectric constant tensor:
#      x y z
#    x 3.425200 -0.543170 -0.188960 
#    y -0.543170 4.142290 0.114880 
#    z -0.188960 0.114880 3.804370 
# 
# 
# High freq. dielectric constant tensor:
#      x y z
#    x 1.720300 -0.033590 -0.012740 
#    y -0.033590 1.783950 -0.008420 
#    z -0.012740 -0.008420 1.769210 
# 
# From -- ./inp_files/239052.got.cif
#   From: 2010.06.25/outbox.cif.g09.slc.cpg/sg2_120_cif.got.tgz:239052.got - 2010.06.27 13:26:56.
