data_PCOD8042077
_publ_section_title
;
Structure prediction by ZEFSAII (Michael W. Deem and Ramdas Pophale) SiO2 
 PCOD8042077
Probable space group: P -1
;
_chemical_formula_sum "Si O2"
_cell_formula_units_Z 16
_cell_length_a 12.289350
_cell_length_b 19.609545
_cell_length_c 19.734671
_cell_angle_alpha 19.466926
_cell_angle_beta 40.177881
_cell_angle_gamma 32.763212
_cell_volume 846.715018
_symmetry_space_group_name_H-M "P -1"
_symmetry_group_IT_number 2
_symmetry_cell_setting 'triclinic'
loop_
_space_group_symop_operation_xyz
x,y,z
-x,-y,-z
loop_
_atom_site_type_symbol
_atom_site_label
_atom_site_fract_x
_atom_site_fract_y
_atom_site_fract_z
Si Si1 0.531792 0.035822 0.596227
Si Si2 0.174202 0.016308 0.805604
Si Si3 0.812894 0.683812 0.162888
Si Si4 0.264797 0.421005 0.154702
Si Si5 0.231809 0.551144 0.467305
Si Si6 0.389241 0.045653 0.792808
Si Si7 0.447248 0.468344 0.153893
Si Si8 0.468987 0.788380 0.132627
O O1 0.317836 0.073467 0.640763
O O2 0.563167 0.973803 0.720219
O O3 0.515807 0.288091 0.354492
O O4 0.709051 0.817613 0.670014
O O5 0.202683 0.048729 0.842137
O O6 0.944221 0.201736 0.717938
O O7 0.248094 0.735468 0.018064
O O8 0.841268 0.487964 0.389253
O O9 0.687466 0.675279 0.168274
O O10 0.027092 0.618109 0.094769
O O11 0.702469 0.957381 0.988722
O O12 0.389114 0.352647 0.229660
O O13 0.355811 0.530056 0.958890
O O14 0.304712 0.316931 0.605504
O O15 0.415648 0.585990 0.357177
O O16 0.486436 0.838873 0.998236
#
# Coordination Sequence:
#
# PCOD8042077 Si02
#       8
#     2   2   2   2   2   2   2   2
#     4   9  20  35  52  79 118 143 175 221 272 328
#     4   9  20  33  53  86 115 138 176 224 272 329
#     4  10  22  39  57  82 110 141 185 235 270 312
#     4  10  20  34  56  83 110 142 183 226 273 320
#     4  11  20  35  59  82 110 148 182 221 276 329
#     4   9  22  36  53  82 117 146 176 227 271 321
#     4  10  19  34  57  85 110 148 176 220 280 331
#     4  10  22  39  58  79 109 146 188 226 269 322
#
# _framework density 18.896559
#
# number of rings (size 3 to 8) (size 9 to 14) (size 15 to 20)
#    0.750    1.500    0.000    2.625    1.750    4.500 
#    0.000    0.625    0.000    1.500    0.000    0.000 
#    0.000    0.000    0.000    0.000    0.000    0.000 
#
# Total GULP energy -198343.208093 kJ/mol
# GULP energy per Si atom -12396.450506 kJ/mol
# Density = 1.885355 g / cm^3
# Si number density = 18.896559 Si / 1000 Ang^3
#
#
#
# Elastic Constant Matrix: (Units=GPa)
#
#
# Indices 1 2 3 4 5 6 
#
# 1 100.3394 38.4889 40.2777 0.4173 8.7408 7.5660
# 2 38.4889 70.5083 29.2485 -3.8765 -3.0041 1.2792
# 3 40.2777 29.2485 89.0207 2.1070 -4.2876 10.7145
# 4 0.4173 -3.8765 2.1070 16.9432 1.4984 -1.0430
# 5 8.7408 -3.0041 -4.2876 1.4984 24.6119 -1.1204
# 6 7.5660 1.2792 10.7145 -1.0430 -1.1204 25.6846
#
#
#
# Elastic Compliance Matrix: (Units=1/GPa)
#
#
# Indices 1 2 3 4 5 6 
#
# 1 0.015228 -0.006657 -0.004721 -0.000838 -0.007107 -0.002529
# 2 -0.006657 0.019767 -0.003761 0.004985 0.003951 0.002921
# 3 -0.004721 -0.003761 0.015453 -0.003308 0.003891 -0.004833
# 4 -0.000838 0.004985 -0.003308 0.061107 -0.003221 0.003719
# 5 -0.007107 0.003951 0.003891 -0.003221 0.044606 0.002089
# 6 -0.002529 0.002921 -0.004833 0.003719 0.002089 0.041792
#
#
# Mechanical properties :
#
#
# Convention : Reuss Voigt Hill
#
# Bulk Modulus (GPa) = 49.58379 52.87762 51.23070
# Shear Modulus (GPa) = 21.28074 23.57149 22.42611
#
# Velocity S-wave (km/s) = 3.35949 3.53568 3.44871
# Velocity P-wave (km/s) = 6.42999 6.68666 6.55958
#
# Compressibility (1/GPa) = 0.02016788
#
# Stress axis : x y z
#
# Youngs Moduli (GPa) = 65.66758 50.59026 64.71441
#
# Poissons Ratio (x) = 0.33680 0.30550
# Poissons Ratio (y) = 0.43718 0.24342
# Poissons Ratio (z) = 0.31000 0.19030
#
# Static dielectric constant tensor:
#      x y z
#    x 3.424300 0.178350 -0.066650 
#    y 0.178350 3.259760 0.087580 
#    z -0.066650 0.087580 3.356570 
# 
# 
# High freq. dielectric constant tensor:
#      x y z
#    x 1.725150 0.018220 -0.010200 
#    y 0.018220 1.716720 0.009320 
#    z -0.010200 0.009320 1.735380 
# 
# From -- ./inp_files/596218.got.cif
#   From: 2010.06.25/outbox.cif.g09.slc.cpg/sg2_299_cif.got.tgz:596218.got - 2010.06.27 13:26:56.
