data_PCOD8042289
_publ_section_title
;
Structure prediction by ZEFSAII (Michael W. Deem and Ramdas Pophale) SiO2 
 PCOD8042289
Probable space group: P -1
;
_chemical_formula_sum "Si O2"
_cell_formula_units_Z 14
_cell_length_a 15.153398
_cell_length_b 9.360772
_cell_length_c 9.179863
_cell_angle_alpha 62.571636
_cell_angle_beta 103.778313
_cell_angle_gamma 143.297495
_cell_volume 669.310134
_symmetry_space_group_name_H-M "P -1"
_symmetry_group_IT_number 2
_symmetry_cell_setting 'triclinic'
loop_
_space_group_symop_operation_xyz
x,y,z
-x,-y,-z
loop_
_atom_site_type_symbol
_atom_site_label
_atom_site_fract_x
_atom_site_fract_y
_atom_site_fract_z
Si Si1 0.486327 0.665896 0.383910
Si Si2 0.755731 0.216968 0.119097
Si Si3 0.840741 0.860228 0.001489
Si Si4 0.804968 0.743686 0.372429
Si Si5 0.704734 0.476111 0.871051
Si Si6 0.042116 0.271560 0.371041
Si Si7 0.914547 0.305677 0.872484
O O1 0.500000 0.500000 0.500000
O O2 0.360224 0.553717 0.498214
O O3 0.433135 0.631138 0.214865
O O4 0.653750 0.984713 0.312396
O O5 0.915595 0.510376 0.105466
O O6 0.657728 0.230528 0.019369
O O7 0.801717 0.160521 0.034180
O O8 0.778609 0.750386 0.192261
O O9 0.731654 0.625013 0.952083
O O10 0.850406 0.064692 0.867220
O O11 0.000000 0.000000 0.000000
O O12 0.923400 0.764205 0.442502
O O13 0.870098 0.990970 0.375691
O O14 0.852223 0.665523 0.737526
O O15 0.073622 0.506133 0.293813
#
# Coordination Sequence:
#
# PCOD8042289 Si02
#       7
#     2   2   2   2   2   2   2
#     4  11  22  37  58  86 115 150 193 238 279 335
#     4  10  19  37  59  85 110 151 197 234 272 339
#     4  12  20  37  59  88 118 148 186 239 291 337
#     4  10  20  35  58  83 118 151 187 234 288 333
#     4  10  21  37  61  84 113 152 192 232 285 338
#     4   9  18  36  59  84 111 150 197 235 270 333
#     4  10  19  34  62  87 110 147 198 237 275 335
#
# _framework density 20.917058999999998
#
# number of rings (size 3 to 8) (size 9 to 14) (size 15 to 20)
#    0.000    1.714    2.857    3.857    0.000    0.000 
#    0.000    5.714    0.000    0.000    0.000    0.000 
#    0.000    0.000    0.000    0.000    0.000    0.000 
#
# Total GULP energy -173468.599234 kJ/mol
# GULP energy per Si atom -12390.614231 kJ/mol
# Density = 2.086945 g / cm^3
# Si number density = 20.917059 Si / 1000 Ang^3
#
#
#
# Elastic Constant Matrix: (Units=GPa)
#
#
# Indices 1 2 3 4 5 6 
#
# 1 81.4970 44.9695 43.9205 -8.1185 18.1833 -7.4157
# 2 44.9695 66.9331 40.4992 -11.7656 -5.0573 -12.2441
# 3 43.9205 40.4992 83.2992 -16.5286 25.2543 -14.6754
# 4 -8.1185 -11.7656 -16.5286 41.4494 3.3260 -0.2864
# 5 18.1833 -5.0573 25.2543 3.3260 33.0423 -6.5234
# 6 -7.4157 -12.2441 -14.6754 -0.2864 -6.5234 26.2716
#
#
#
# Elastic Compliance Matrix: (Units=1/GPa)
#
#
# Indices 1 2 3 4 5 6 
#
# 1 0.028288 -0.022912 0.002012 0.001569 -0.022162 -0.007056
# 2 -0.022912 0.048366 -0.021378 -0.002343 0.039325 0.013871
# 3 0.002012 -0.021378 0.032634 0.009758 -0.030010 0.001489
# 4 0.001569 -0.002343 0.009758 0.028565 -0.011089 0.002359
# 5 -0.022162 0.039325 -0.030010 -0.011089 0.075271 0.013878
# 6 -0.007056 0.013871 0.001489 0.002359 0.013878 0.046841
#
#
# Mechanical properties :
#
#
# Convention : Reuss Voigt Hill
#
# Bulk Modulus (GPa) = 40.43304 54.50085 47.46695
# Shear Modulus (GPa) = 14.17372 26.97534 20.57453
#
# Velocity S-wave (km/s) = 2.60593 3.59504 3.13968
# Velocity P-wave (km/s) = 5.33166 6.58367 5.99046
#
# Compressibility (1/GPa) = 0.02473225
#
# Stress axis : x y z
#
# Youngs Moduli (GPa) = 35.35062 20.67577 30.64247
#
# Poissons Ratio (x) = 0.47373 -0.06165
# Poissons Ratio (y) = 0.80996 0.65506
# Poissons Ratio (z) = -0.07112 0.44200
#
# Static dielectric constant tensor:
#      x y z
#    x 3.868290 0.172120 0.111920 
#    y 0.172120 4.374330 0.148770 
#    z 0.111920 0.148770 4.265600 
# 
# 
# High freq. dielectric constant tensor:
#      x y z
#    x 1.813780 0.006390 0.024870 
#    y 0.006390 1.794210 -0.029180 
#    z 0.024870 -0.029180 1.815900 
# 
# From -- ./inp_files/294909.got.cif
#   From: 2010.06.25/outbox.cif.g09.slc.cpg/sg2_148_cif.got.tgz:294909.got - 2010.06.27 13:26:56.
