data_PCOD8042614
_publ_section_title
;
Structure prediction by ZEFSAII (Michael W. Deem and Ramdas Pophale) SiO2 
 PCOD8042614
Probable space group: P -1
;
_chemical_formula_sum "Si O2"
_cell_formula_units_Z 16
_cell_length_a 8.645992
_cell_length_b 20.620740
_cell_length_c 12.296071
_cell_angle_alpha 152.755412
_cell_angle_beta 46.666856
_cell_angle_gamma 126.782921
_cell_volume 729.557205
_symmetry_space_group_name_H-M "P -1"
_symmetry_group_IT_number 2
_symmetry_cell_setting 'triclinic'
loop_
_space_group_symop_operation_xyz
x,y,z
-x,-y,-z
loop_
_atom_site_type_symbol
_atom_site_label
_atom_site_fract_x
_atom_site_fract_y
_atom_site_fract_z
Si Si1 0.842142 0.409654 0.229792
Si Si2 0.000115 0.107566 0.761871
Si Si3 0.305348 0.089994 0.981343
Si Si4 0.714269 0.553073 0.031424
Si Si5 0.016591 0.948686 0.733055
Si Si6 0.688643 0.300091 0.798235
Si Si7 0.418689 0.167380 0.559760
Si Si8 0.546499 0.637075 0.791662
O O1 0.731260 0.513725 0.528726
O O2 0.681912 0.422339 0.222909
O O3 0.074563 0.467193 0.175315
O O4 0.850894 0.247560 0.024904
O O5 0.245912 0.150065 0.713052
O O6 0.929447 0.040459 0.809975
O O7 0.000000 0.000000 0.500000
O O8 0.382483 0.246203 0.154623
O O9 0.171650 0.095958 0.164637
O O10 0.180654 0.038624 0.858302
O O11 0.508601 0.984173 0.751222
O O12 0.755131 0.463190 0.988337
O O13 0.500000 0.500000 0.000000
O O14 0.677171 0.723298 0.323526
O O15 0.117827 0.804923 0.415008
O O16 0.620886 0.237891 0.621807
O O17 0.494066 0.296284 0.970901
#
# Coordination Sequence:
#
# PCOD8042614 Si02
#       8
#     2   2   2   2   2   2   2   2
#     4  10  23  39  56  83 118 154 194 238 296 361
#     4  11  21  38  59  83 116 153 192 242 296 350
#     4  10  20  37  58  84 118 154 197 249 292 339
#     4   9  19  37  57  81 114 147 186 240 292 345
#     4  10  21  35  59  88 114 154 204 245 290 348
#     4  10  19  35  59  84 112 155 199 241 292 344
#     4   9  19  35  56  83 114 149 196 242 292 352
#     4  11  22  38  58  83 118 157 196 243 294 349
#
# _framework density 21.93111
#
# number of rings (size 3 to 8) (size 9 to 14) (size 15 to 20)
#    0.000    2.000    0.000    3.750    0.000    4.500 
#    0.000   17.500    0.000    0.000    0.000    0.000 
#    0.000    0.000    0.000    0.000    0.000    0.000 
#
# Total GULP energy -198274.079849 kJ/mol
# GULP energy per Si atom -12392.129991 kJ/mol
# Density = 2.188119 g / cm^3
# Si number density = 21.931110 Si / 1000 Ang^3
#
#
#
# Elastic Constant Matrix: (Units=GPa)
#
#
# Indices 1 2 3 4 5 6 
#
# 1 55.4871 32.9937 30.8468 -2.0121 -16.6838 -1.5630
# 2 32.9937 145.6770 69.7135 3.8223 -14.3417 -14.4798
# 3 30.8468 69.7135 175.4269 6.5613 -37.4675 -10.7226
# 4 -2.0121 3.8223 6.5613 35.3625 -3.3692 -6.5847
# 5 -16.6838 -14.3417 -37.4675 -3.3692 34.3676 -0.8381
# 6 -1.5630 -14.4798 -10.7226 -6.5847 -0.8381 29.4130
#
#
#
# Elastic Compliance Matrix: (Units=1/GPa)
#
#
# Indices 1 2 3 4 5 6 
#
# 1 0.023817 -0.004273 -0.000597 0.002793 0.009398 -0.000162
# 2 -0.004273 0.009516 -0.003138 -0.000230 -0.001469 0.003220
# 3 -0.000597 -0.003138 0.008913 -0.000228 0.008140 0.001853
# 4 0.002793 -0.000230 -0.000228 0.030169 0.004136 0.006824
# 5 0.009398 -0.001469 0.008140 0.004136 0.042445 0.004879
# 6 -0.000162 0.003220 0.001853 0.006824 0.004879 0.037918
#
#
# Mechanical properties :
#
#
# Convention : Reuss Voigt Hill
#
# Bulk Modulus (GPa) = 38.12556 71.52211 54.82383
# Shear Modulus (GPa) = 28.16302 36.03109 32.09705
#
# Velocity S-wave (km/s) = 3.58740 4.05769 3.82977
# Velocity P-wave (km/s) = 5.88058 7.39163 6.67897
#
# Compressibility (1/GPa) = 0.02622913
#
# Stress axis : x y z
#
# Youngs Moduli (GPa) = 41.98628 105.09088 112.19603
#
# Poissons Ratio (x) = 0.44902 0.06701
# Poissons Ratio (y) = 0.17939 0.35212
# Poissons Ratio (z) = 0.02508 0.32982
#
# Static dielectric constant tensor:
#      x y z
#    x 3.713900 0.063500 -0.357150 
#    y 0.063500 4.099750 0.325760 
#    z -0.357150 0.325760 4.146060 
# 
# 
# High freq. dielectric constant tensor:
#      x y z
#    x 1.839630 0.008660 -0.026290 
#    y 0.008660 1.866980 0.017030 
#    z -0.026290 0.017030 1.865580 
# 
# From -- ./inp_files/405024.got.cif
#   From: 2010.06.25/outbox.cif.g09.slc.cpg/sg2_203_cif.got.tgz:405024.got - 2010.06.27 13:26:56.
