data_PCOD8042470
_publ_section_title
;
Structure prediction by ZEFSAII (Michael W. Deem and Ramdas Pophale) SiO2 
 PCOD8042470
Probable space group: P -1
;
_chemical_formula_sum "Si O2"
_cell_formula_units_Z 16
_cell_length_a 13.180226
_cell_length_b 10.797820
_cell_length_c 20.922311
_cell_angle_alpha 149.806709
_cell_angle_beta 37.068270
_cell_angle_gamma 145.092504
_cell_volume 814.847874
_symmetry_space_group_name_H-M "P -1"
_symmetry_group_IT_number 2
_symmetry_cell_setting 'triclinic'
loop_
_space_group_symop_operation_xyz
x,y,z
-x,-y,-z
loop_
_atom_site_type_symbol
_atom_site_label
_atom_site_fract_x
_atom_site_fract_y
_atom_site_fract_z
Si Si1 0.759501 0.036398 0.879971
Si Si2 0.898738 0.030930 0.938945
Si Si3 0.290905 0.125458 0.778112
Si Si4 0.818049 0.779995 0.456141
Si Si5 0.447359 0.812796 0.634902
Si Si6 0.656116 0.784402 0.068613
Si Si7 0.104788 0.402021 0.796106
Si Si8 0.594430 0.426134 0.178997
O O1 0.754206 0.925110 0.905317
O O2 0.962892 0.152347 0.798599
O O3 0.619585 0.785409 0.795489
O O4 0.696823 0.280833 0.021312
O O5 0.072483 0.972985 0.802769
O O6 0.954960 0.351232 0.062681
O O7 0.818597 0.866844 0.971254
O O8 0.283064 0.264308 0.912771
O O9 0.402217 0.327264 0.755593
O O10 0.392698 0.925854 0.647806
O O11 0.668775 0.893531 0.559879
O O12 0.691276 0.508553 0.438961
O O13 0.902981 0.696872 0.315768
O O14 0.000000 0.000000 0.500000
O O15 0.411758 0.971219 0.784688
O O16 0.500000 0.500000 0.000000
O O17 0.308992 0.481585 0.759375
#
# Coordination Sequence:
#
# PCOD8042470 Si02
#       8
#     2   2   2   2   2   2   2   2
#     4  10  20  32  57  91 125 162 201 230 300 373
#     4  11  18  35  57  91 129 158 194 244 304 368
#     4  10  19  36  57  87 131 156 186 251 307 357
#     4  11  24  46  66  82 117 163 216 259 293 353
#     4   9  24  42  60  91 118 158 205 256 301 358
#     4  10  21  34  57  93 125 158 194 245 317 368
#     4  11  20  38  61  86 118 164 202 248 296 350
#     4  10  19  35  56  89 128 159 191 248 299 366
#
# _framework density 19.635567999999999
#
# number of rings (size 3 to 8) (size 9 to 14) (size 15 to 20)
#    0.750    1.000    3.750    1.875    0.000    4.000 
#    2.250    0.625    0.000    1.500    0.000    0.000 
#    0.000    0.000    0.000    0.000    0.000    0.000 
#
# Total GULP energy -198262.092688 kJ/mol
# GULP energy per Si atom -12391.380793 kJ/mol
# Density = 1.959088 g / cm^3
# Si number density = 19.635568 Si / 1000 Ang^3
#
#
#
# Elastic Constant Matrix: (Units=GPa)
#
#
# Indices 1 2 3 4 5 6 
#
# 1 106.7050 33.6398 28.7022 14.3648 -7.5693 11.4100
# 2 33.6398 82.2194 17.3483 14.4851 5.5752 18.6147
# 3 28.7022 17.3483 39.9174 8.4988 -9.9498 16.5744
# 4 14.3648 14.4851 8.4988 23.2714 1.8852 1.1019
# 5 -7.5693 5.5752 -9.9498 1.8852 35.5397 2.4782
# 6 11.4100 18.6147 16.5744 1.1019 2.4782 38.3120
#
#
#
# Elastic Compliance Matrix: (Units=1/GPa)
#
#
# Indices 1 2 3 4 5 6 
#
# 1 0.012806 -0.003475 -0.007010 -0.003340 0.001424 0.000911
# 2 -0.003475 0.016738 -0.001462 -0.007212 -0.002970 -0.006066
# 3 -0.007010 -0.001462 0.042828 -0.010642 0.012423 -0.016227
# 4 -0.003340 -0.007212 -0.010642 0.053514 -0.005952 0.007948
# 5 0.001424 -0.002970 0.012423 -0.005952 0.033141 -0.006328
# 6 0.000911 -0.006066 -0.016227 0.007948 -0.006328 0.035978
#
#
# Mechanical properties :
#
#
# Convention : Reuss Voigt Hill
#
# Bulk Modulus (GPa) = 20.62806 43.13582 31.88194
# Shear Modulus (GPa) = 21.27130 29.36806 25.31968
#
# Velocity S-wave (km/s) = 3.29493 3.87157 3.59483
# Velocity P-wave (km/s) = 5.00037 6.48084 5.78813
#
# Compressibility (1/GPa) = 0.04847767
#
# Stress axis : x y z
#
# Youngs Moduli (GPa) = 78.08885 59.74451 23.34936
#
# Poissons Ratio (x) = 0.20759 0.16368
# Poissons Ratio (y) = 0.27133 0.03414
# Poissons Ratio (z) = 0.54741 0.08736
#
# Static dielectric constant tensor:
#      x y z
#    x 3.957270 0.049850 -0.131070 
#    y 0.049850 3.663370 0.093690 
#    z -0.131070 0.093690 3.245720 
# 
# 
# High freq. dielectric constant tensor:
#      x y z
#    x 1.772900 0.003260 -0.004190 
#    y 0.003260 1.766680 0.003580 
#    z -0.004190 0.003580 1.722240 
# 
# From -- ./inp_files/611892.got.cif
#   From: 2010.06.25/outbox.cif.g09.slc.cpg/sg2_306_cif.got.tgz:611892.got - 2010.06.27 13:26:56.
