data_PCOD8042238
_publ_section_title
;
Structure prediction by ZEFSAII (Michael W. Deem and Ramdas Pophale) SiO2 
 PCOD8042238
Probable space group: P -1
;
_chemical_formula_sum "Si O2"
_cell_formula_units_Z 16
_cell_length_a 13.184259
_cell_length_b 16.983848
_cell_length_c 15.560162
_cell_angle_alpha 26.290197
_cell_angle_beta 53.662682
_cell_angle_gamma 35.778513
_cell_volume 770.307498
_symmetry_space_group_name_H-M "P -1"
_symmetry_group_IT_number 2
_symmetry_cell_setting 'triclinic'
loop_
_space_group_symop_operation_xyz
x,y,z
-x,-y,-z
loop_
_atom_site_type_symbol
_atom_site_label
_atom_site_fract_x
_atom_site_fract_y
_atom_site_fract_z
Si Si1 0.179558 0.944316 0.968698
Si Si2 0.056682 0.028390 0.646562
Si Si3 0.700379 0.567550 0.845361
Si Si4 0.931264 0.353591 0.555134
Si Si5 0.536244 0.657668 0.549709
Si Si6 0.903415 0.771577 0.098087
Si Si7 0.339376 0.015195 0.464907
Si Si8 0.685083 0.218978 0.626230
O O1 0.204777 0.015173 0.976755
O O2 0.392732 0.604480 0.182443
O O3 0.128388 0.146469 0.722712
O O4 0.000000 0.000000 0.000000
O O5 0.135435 0.121464 0.471006
O O6 0.982051 0.138684 0.674355
O O7 0.852164 0.183581 0.551437
O O8 0.238322 0.681065 0.892495
O O9 0.706956 0.724954 0.754810
O O10 0.863234 0.424335 0.828584
O O11 0.483635 0.787866 0.692546
O O12 0.730328 0.541504 0.526815
O O13 0.899071 0.565640 0.309702
O O14 0.381865 0.791335 0.419541
O O15 0.431479 0.895830 0.440569
O O16 0.791943 0.945864 0.895236
O O17 0.500000 0.500000 0.500000
#
# Coordination Sequence:
#
# PCOD8042238 Si02
#       8
#     2   2   2   2   2   2   2   2
#     4  10  19  34  60  89 126 158 203 268 324 362
#     4  11  22  42  66  88 125 173 213 253 320 378
#     4  10  21  40  65  92 128 170 205 258 325 383
#     4  11  21  37  64  96 124 161 211 270 322 373
#     4  11  22  41  61  93 128 167 212 265 310 367
#     4  11  21  38  63  96 126 165 215 260 316 382
#     4  11  23  40  63  94 131 163 211 261 318 386
#     4  11  21  42  66  88 124 173 215 259 311 373
#
# _framework density 20.770925999999999
#
# number of rings (size 3 to 8) (size 9 to 14) (size 15 to 20)
#    0.000    1.250    3.750    5.250    0.000    1.000 
#    2.250    2.500    0.000    0.000    0.000    0.000 
#    0.000    0.000    0.000    0.000    0.000    0.000 
#
# Total GULP energy -198373.424929 kJ/mol
# GULP energy per Si atom -12398.339058 kJ/mol
# Density = 2.072365 g / cm^3
# Si number density = 20.770926 Si / 1000 Ang^3
#
#
#
# Elastic Constant Matrix: (Units=GPa)
#
#
# Indices 1 2 3 4 5 6 
#
# 1 89.9994 15.5376 48.5694 11.5349 1.2793 12.3238
# 2 15.5376 69.9508 29.1386 1.8175 -8.9372 10.9225
# 3 48.5694 29.1386 93.8682 1.3893 -4.3416 0.7677
# 4 11.5349 1.8175 1.3893 23.1353 6.8823 -5.0783
# 5 1.2793 -8.9372 -4.3416 6.8823 33.3923 -4.4900
# 6 12.3238 10.9225 0.7677 -5.0783 -4.4900 37.3910
#
#
#
# Elastic Compliance Matrix: (Units=1/GPa)
#
#
# Indices 1 2 3 4 5 6 
#
# 1 0.018594 0.001396 -0.009862 -0.010341 -0.000539 -0.007803
# 2 0.001396 0.018010 -0.006015 -0.004213 0.004089 -0.005679
# 3 -0.009862 -0.006015 0.017532 0.005331 0.000682 0.005454
# 4 -0.010341 -0.004213 0.005331 0.053600 -0.009653 0.010650
# 5 -0.000539 0.004089 0.000682 -0.009653 0.033364 0.001664
# 6 -0.007803 -0.005679 0.005454 0.010650 0.001664 0.032509
#
#
# Mechanical properties :
#
#
# Convention : Reuss Voigt Hill
#
# Bulk Modulus (GPa) = 39.72529 48.92328 44.32428
# Shear Modulus (GPa) = 23.70091 29.48856 26.59474
#
# Velocity S-wave (km/s) = 3.38163 3.77198 3.58213
# Velocity P-wave (km/s) = 5.86636 6.52498 6.20441
#
# Compressibility (1/GPa) = 0.02517288
#
# Stress axis : x y z
#
# Youngs Moduli (GPa) = 53.78094 55.52483 57.04009
#
# Poissons Ratio (x) = -0.07753 0.56255
# Poissons Ratio (y) = -0.07510 0.34311
# Poissons Ratio (z) = 0.53041 0.33399
#
# Static dielectric constant tensor:
#      x y z
#    x 3.715020 0.053880 0.073450 
#    y 0.053880 3.637600 -0.112290 
#    z 0.073450 -0.112290 4.061580 
# 
# 
# High freq. dielectric constant tensor:
#      x y z
#    x 1.808090 0.004730 -0.007630 
#    y 0.004730 1.800770 -0.013650 
#    z -0.007630 -0.013650 1.813560 
# 
# From -- ./inp_files/522143.got.cif
#   From: 2010.06.25/outbox.cif.g09.slc.cpg/sg2_262_cif.got.tgz:522143.got - 2010.06.27 13:26:56.
