data_PCOD8042543
_publ_section_title
;
Structure prediction by ZEFSAII (Michael W. Deem and Ramdas Pophale) SiO2 
 PCOD8042543
Probable space group: P -1
;
_chemical_formula_sum "Si O2"
_cell_formula_units_Z 12
_cell_length_a 17.446589
_cell_length_b 11.865538
_cell_length_c 9.200098
_cell_angle_alpha 141.027651
_cell_angle_beta 43.596561
_cell_angle_gamma 146.284183
_cell_volume 648.293532
_symmetry_space_group_name_H-M "P -1"
_symmetry_group_IT_number 2
_symmetry_cell_setting 'triclinic'
loop_
_space_group_symop_operation_xyz
x,y,z
-x,-y,-z
loop_
_atom_site_type_symbol
_atom_site_label
_atom_site_fract_x
_atom_site_fract_y
_atom_site_fract_z
Si Si1 0.304631 0.310935 0.204318
Si Si2 0.635638 0.918636 0.658699
Si Si3 0.657518 0.351808 0.063240
Si Si4 0.843127 0.120906 0.837315
Si Si5 0.628012 0.610337 0.132814
Si Si6 0.167736 0.481669 0.732261
O O1 0.462289 0.414521 0.136977
O O2 0.267157 0.469782 0.475756
O O3 0.197215 0.056281 0.158333
O O4 0.286971 0.296417 0.040818
O O5 0.484472 0.719309 0.735708
O O6 0.659346 0.825192 0.389525
O O7 0.755934 0.989409 0.680302
O O8 0.640622 0.129836 0.814153
O O9 0.688158 0.501464 0.030244
O O10 0.787715 0.505513 0.149071
O O11 0.006844 0.259121 0.711218
O O12 0.811107 0.288894 0.107182
#
# Coordination Sequence:
#
# PCOD8042543 Si02
#       6
#     2   2   2   2   2   2
#     4  11  22  35  54  83 114 145 174 220 279 321
#     4  10  19  35  58  80 105 143 186 223 261 312
#     4  10  19  35  58  80 105 143 186 223 261 312
#     4  10  21  38  59  81 107 142 184 225 265 317
#     4  11  22  34  54  84 116 140 175 226 271 321
#     4  10  21  38  59  81 107 142 184 225 265 317
#
# _framework density 18.510133
#
# number of rings (size 3 to 8) (size 9 to 14) (size 15 to 20)
#    0.000    1.667    3.333    2.000    0.000    1.333 
#    0.000    6.667    0.000    6.000    0.000    0.000 
#    0.000    0.000    0.000    0.000    0.000    0.000 
#
# Total GULP energy -148866.606406 kJ/mol
# GULP energy per Si atom -12405.550534 kJ/mol
# Density = 1.846800 g / cm^3
# Si number density = 18.510133 Si / 1000 Ang^3
#
#
#
# Elastic Constant Matrix: (Units=GPa)
#
#
# Indices 1 2 3 4 5 6 
#
# 1 92.0177 25.0723 35.6771 2.1802 6.2432 -9.5059
# 2 25.0723 46.1331 28.4194 8.7761 8.3148 -3.2064
# 3 35.6771 28.4194 86.2748 8.5286 13.1964 -29.5111
# 4 2.1802 8.7761 8.5286 18.3389 -0.2956 -1.9976
# 5 6.2432 8.3148 13.1964 -0.2956 25.2925 -2.3177
# 6 -9.5059 -3.2064 -29.5111 -1.9976 -2.3177 35.0391
#
#
#
# Elastic Compliance Matrix: (Units=1/GPa)
#
#
# Indices 1 2 3 4 5 6 
#
# 1 0.013960 -0.005590 -0.004420 0.003058 0.000713 -0.000225
# 2 -0.005590 0.032995 -0.008959 -0.011821 -0.005580 -0.007086
# 3 -0.004420 -0.008959 0.023774 -0.004469 -0.006835 0.017297
# 4 0.003058 -0.011821 -0.004469 0.061992 0.006181 -0.000073
# 5 0.000713 -0.005580 -0.006835 0.006181 0.044580 -0.002773
# 6 -0.000225 -0.007086 0.017297 -0.000073 -0.002773 0.042211
#
#
# Mechanical properties :
#
#
# Convention : Reuss Voigt Hill
#
# Bulk Modulus (GPa) = 30.49567 44.75148 37.62357
# Shear Modulus (GPa) = 18.63022 24.75123 21.69073
#
# Velocity S-wave (km/s) = 3.17596 3.66070 3.42691
# Velocity P-wave (km/s) = 5.47356 6.48821 6.00236
#
# Compressibility (1/GPa) = 0.03279155
#
# Stress axis : x y z
#
# Youngs Moduli (GPa) = 71.63202 30.30718 42.06336
#
# Poissons Ratio (x) = 0.16942 0.18592
# Poissons Ratio (y) = 0.40043 0.37684
# Poissons Ratio (z) = 0.31661 0.27152
#
# Static dielectric constant tensor:
#      x y z
#    x 3.524800 0.054410 -0.074680 
#    y 0.054410 3.310510 0.147940 
#    z -0.074680 0.147940 3.357770 
# 
# 
# High freq. dielectric constant tensor:
#      x y z
#    x 1.726750 0.004560 -0.008980 
#    y 0.004560 1.708210 0.019890 
#    z -0.008980 0.019890 1.714080 
# 
# From -- ./inp_files/146929.got.cif
#   From: 2010.06.25/outbox.cif.g09.slc.cpg/sg2_74_cif.got.tgz:146929.got - 2010.06.27 13:26:56.
