data_PCOD8042307
_publ_section_title
;
Structure prediction by ZEFSAII (Michael W. Deem and Ramdas Pophale) SiO2 
 PCOD8042307
Probable space group: P -1
;
_chemical_formula_sum "Si O2"
_cell_formula_units_Z 16
_cell_length_a 8.045409
_cell_length_b 15.722019
_cell_length_c 16.859787
_cell_angle_alpha 29.333190
_cell_angle_beta 44.248920
_cell_angle_gamma 34.427137
_cell_volume 590.617731
_symmetry_space_group_name_H-M "P -1"
_symmetry_group_IT_number 2
_symmetry_cell_setting 'triclinic'
loop_
_space_group_symop_operation_xyz
x,y,z
-x,-y,-z
loop_
_atom_site_type_symbol
_atom_site_label
_atom_site_fract_x
_atom_site_fract_y
_atom_site_fract_z
Si Si1 0.225285 0.841773 0.800891
Si Si2 0.349705 0.709428 0.498851
Si Si3 0.652640 0.687453 0.559744
Si Si4 0.172548 0.708265 0.362348
Si Si5 0.883934 0.818232 0.814037
Si Si6 0.882167 0.275320 0.902712
Si Si7 0.609684 0.154634 0.966546
Si Si8 0.223624 0.171141 0.336424
O O1 0.550958 0.779940 0.748758
O O2 0.195385 0.743440 0.808840
O O3 0.160662 0.738542 0.978126
O O4 0.963731 0.104964 0.674675
O O5 0.539039 0.600537 0.603843
O O6 0.564229 0.533883 0.500925
O O7 0.049589 0.725931 0.594169
O O8 0.324187 0.925691 0.325764
O O9 0.790548 0.512668 0.724901
O O10 0.896026 0.716178 0.417775
O O11 0.375658 0.917818 0.497864
O O12 0.326115 0.753845 0.204643
O O13 0.903571 0.735713 0.784784
O O14 0.734016 0.745199 0.985072
O O15 0.695551 0.206118 0.978436
O O16 0.215856 0.100810 0.900891
#
# Coordination Sequence:
#
# PCOD8042307 Si02
#       8
#     2   2   2   2   2   2   2   2
#     4  10  23  42  66  93 130 168 207 263 321 376
#     4  11  22  38  65  94 128 167 214 265 314 375
#     4  10  19  36  65  96 123 162 215 261 314 376
#     4  10  21  37  64 101 125 163 215 262 319 377
#     4  11  22  40  65  92 129 169 212 258 318 379
#     4  10  19  34  62  94 126 167 205 259 323 371
#     4  10  20  34  60  95 130 164 207 262 317 379
#     4  10  23  44  66  93 126 168 218 261 314 377
#
# _framework density 27.09028
#
# number of rings (size 3 to 8) (size 9 to 14) (size 15 to 20)
#    0.000    1.750    2.500    2.625    5.250    3.000 
#    0.000    6.250    0.000    8.250    0.000    0.000 
#    0.000    0.000    0.000    0.000    0.000    0.000 
#
# Total GULP energy -198281.037635 kJ/mol
# GULP energy per Si atom -12392.564852 kJ/mol
# Density = 2.702862 g / cm^3
# Si number density = 27.090280 Si / 1000 Ang^3
#
#
#
# Elastic Constant Matrix: (Units=GPa)
#
#
# Indices 1 2 3 4 5 6 
#
# 1 115.2833 36.9067 -8.4041 23.6541 -22.5908 9.9188
# 2 36.9067 72.5489 6.3274 8.4087 -9.5420 -34.0208
# 3 -8.4041 6.3274 69.4808 17.4329 -17.2154 7.1288
# 4 23.6541 8.4087 17.4329 29.4967 -1.1064 -17.0780
# 5 -22.5908 -9.5420 -17.2154 -1.1064 8.6533 32.8826
# 6 9.9188 -34.0208 7.1288 -17.0780 32.8826 -3.9370
#
#
#
# Elastic Compliance Matrix: (Units=1/GPa)
#
#
# Indices 1 2 3 4 5 6 
#
# 1 0.008243 -0.001516 -0.000007 -0.002667 -0.004677 0.006360
# 2 -0.001516 0.017484 0.003074 -0.004221 0.015847 0.001329
# 3 -0.000007 0.003074 0.014065 -0.004362 -0.001127 0.008400
# 4 -0.002667 -0.004221 -0.004362 0.035707 0.014961 -0.008076
# 5 -0.004677 0.015847 -0.001127 0.014961 0.028712 0.024154
# 6 0.006360 0.001329 0.008400 -0.008076 0.024154 0.002525
#
#
# Mechanical properties :
#
#
# Convention : Reuss Voigt Hill
#
# Bulk Modulus (GPa) = 23.31454 36.33033 29.82244
# Shear Modulus (GPa) = 42.39744 21.67481 32.03612
#
# Velocity S-wave (km/s) = 3.96035 2.83166 3.44258
# Velocity P-wave (km/s) = 5.43484 4.91234 5.18018
#
# Compressibility (1/GPa) = 0.04289169
#
# Stress axis : x y z
#
# Youngs Moduli (GPa) = 121.32126 57.19651 71.09831
#
# Poissons Ratio (x) = 0.08671 0.00051
# Poissons Ratio (y) = 0.18393 -0.21852
# Poissons Ratio (z) = 0.00088 -0.17580
#
# Static dielectric constant tensor:
#      x y z
#    x 4.850050 -0.114900 0.106900 
#    y -0.114900 4.969200 -0.262850 
#    z 0.106900 -0.262850 4.759690 
# 
# 
# High freq. dielectric constant tensor:
#      x y z
#    x 2.086410 -0.003620 0.001590 
#    y -0.003620 2.088320 -0.000420 
#    z 0.001590 -0.000420 2.089570 
# 
# From -- ./inp_files/562055.got.cif
#   From: 2010.06.25/outbox.cif.g09.slc.cpg/sg2_282_cif.got.tgz:562055.got - 2010.06.27 13:26:56.
