data_PCOD8042252
_publ_section_title
;
Structure prediction by ZEFSAII (Michael W. Deem and Ramdas Pophale) SiO2 
 PCOD8042252
Probable space group: P -1
;
_chemical_formula_sum "Si O2"
_cell_formula_units_Z 16
_cell_length_a 7.081094
_cell_length_b 5.370486
_cell_length_c 20.408123
_cell_angle_alpha 109.880635
_cell_angle_beta 113.742741
_cell_angle_gamma 61.081915
_cell_volume 611.511951
_symmetry_space_group_name_H-M "P -1"
_symmetry_group_IT_number 2
_symmetry_cell_setting 'triclinic'
loop_
_space_group_symop_operation_xyz
x,y,z
-x,-y,-z
loop_
_atom_site_type_symbol
_atom_site_label
_atom_site_fract_x
_atom_site_fract_y
_atom_site_fract_z
Si Si1 0.329899 0.665401 0.048051
Si Si2 0.504719 0.593514 0.415227
Si Si3 0.412558 0.169657 0.802332
Si Si4 0.043621 0.099136 0.824791
Si Si5 0.057486 0.549348 0.705401
Si Si6 0.741786 0.725128 0.565458
Si Si7 0.768121 0.850355 0.010740
Si Si8 0.667760 0.537752 0.739962
O O1 0.452245 0.651931 0.133357
O O2 0.500000 0.500000 0.000000
O O3 0.163310 0.498535 0.019873
O O4 0.193309 0.001079 0.037174
O O5 0.737674 0.580541 0.480358
O O6 0.427322 0.366725 0.422314
O O7 0.532429 0.503640 0.333567
O O8 0.330497 0.931871 0.423549
O O9 0.210730 0.233935 0.831791
O O10 0.300042 0.279774 0.724882
O O11 0.580909 0.838949 0.791441
O O12 0.083390 0.076262 0.906220
O O13 0.779370 0.292953 0.789053
O O14 0.105518 0.797661 0.770814
O O15 0.988579 0.605746 0.624132
O O16 0.858813 0.495485 0.708957
O O17 0.500000 0.000000 0.000000
#
# Coordination Sequence:
#
# PCOD8042252 Si02
#       8
#     2   2   2   2   2   2   2   2
#     4  10  19  37  58  83 111 158 200 242 301 360
#     4   9  17  35  58  87 121 157 199 245 291 357
#     4  11  23  38  62  86 122 158 199 254 306 355
#     4  11  21  38  63  84 118 159 198 251 302 367
#     4  10  21  38  61  89 118 161 203 245 297 365
#     4   9  17  33  62  86 115 164 202 235 296 357
#     4  10  19  34  61  81 111 153 202 244 297 353
#     4  10  23  39  57  93 122 155 200 252 303 357
#
# _framework density 26.164653999999999
#
# number of rings (size 3 to 8) (size 9 to 14) (size 15 to 20)
#    0.000    2.000    3.750    1.500    1.750    1.000 
#    0.000    1.875    0.000    0.750    0.000    0.000 
#    0.000    0.000    0.000    0.000    0.000    0.000 
#
# Total GULP energy -198244.006585 kJ/mol
# GULP energy per Si atom -12390.250412 kJ/mol
# Density = 2.610510 g / cm^3
# Si number density = 26.164654 Si / 1000 Ang^3
#
#
#
# Elastic Constant Matrix: (Units=GPa)
#
#
# Indices 1 2 3 4 5 6 
#
# 1 34.8428 8.4337 19.8325 -4.4926 9.2069 14.1178
# 2 8.4337 117.0942 27.9225 -9.9297 4.3903 28.2780
# 3 19.8325 27.9225 213.3635 -20.4925 29.2621 -4.2487
# 4 -4.4926 -9.9297 -20.4925 52.9644 1.1696 2.6792
# 5 9.2069 4.3903 29.2621 1.1696 29.9205 4.4489
# 6 14.1178 28.2780 -4.2487 2.6792 4.4489 32.2384
#
#
#
# Elastic Compliance Matrix: (Units=1/GPa)
#
#
# Indices 1 2 3 4 5 6 
#
# 1 0.040366 0.003422 -0.003292 0.003979 -0.006811 -0.020503
# 2 0.003422 0.011993 -0.002045 0.002364 0.000971 -0.012618
# 3 -0.003292 -0.002045 0.006280 0.001653 -0.005591 0.004697
# 4 0.003979 0.002364 0.001653 0.020619 -0.003271 -0.004861
# 5 -0.006811 0.000971 -0.005591 -0.003271 0.041577 -0.004072
# 6 -0.020503 -0.012618 0.004697 -0.004861 -0.004072 0.052650
#
#
# Mechanical properties :
#
#
# Convention : Reuss Voigt Hill
#
# Bulk Modulus (GPa) = 18.24533 53.07532 35.66032
# Shear Modulus (GPa) = 25.56451 43.63211 34.59831
#
# Velocity S-wave (km/s) = 3.12919 4.08805 3.64033
# Velocity P-wave (km/s) = 4.47707 6.52779 5.59715
#
# Compressibility (1/GPa) = 0.05480856
#
# Stress axis : x y z
#
# Youngs Moduli (GPa) = 24.77322 83.38507 159.24682
#
# Poissons Ratio (x) = -0.28534 0.52423
# Poissons Ratio (y) = -0.08477 0.32564
# Poissons Ratio (z) = 0.08155 0.17051
#
# Static dielectric constant tensor:
#      x y z
#    x 4.795110 0.774650 0.347540 
#    y 0.774650 5.582540 -0.396090 
#    z 0.347540 -0.396090 5.557880 
# 
# 
# High freq. dielectric constant tensor:
#      x y z
#    x 2.029860 0.019710 0.021010 
#    y 0.019710 2.048730 -0.016070 
#    z 0.021010 -0.016070 2.074070 
# 
# From -- ./inp_files/56450.got.cif
#   From: 2010.06.25/outbox.cif.g09.slc.cpg/sg2_29_cif.got.tgz:56450.got - 2010.06.27 13:26:56.
