data_PCOD8042692
_publ_section_title
;
Structure prediction by ZEFSAII (Michael W. Deem and Ramdas Pophale) SiO2 
 PCOD8042692
Probable space group: P -1
;
_chemical_formula_sum "Si O2"
_cell_formula_units_Z 16
_cell_length_a 26.211675
_cell_length_b 26.158560
_cell_length_c 10.481572
_cell_angle_alpha 34.081129
_cell_angle_beta 145.950386
_cell_angle_gamma 168.754285
_cell_volume 776.690331
_symmetry_space_group_name_H-M "P -1"
_symmetry_group_IT_number 2
_symmetry_cell_setting 'triclinic'
loop_
_space_group_symop_operation_xyz
x,y,z
-x,-y,-z
loop_
_atom_site_type_symbol
_atom_site_label
_atom_site_fract_x
_atom_site_fract_y
_atom_site_fract_z
Si Si1 0.042212 0.339180 0.347698
Si Si2 0.110958 0.413831 0.046916
Si Si3 0.562192 0.953772 0.753736
Si Si4 0.199835 0.299978 0.393084
Si Si5 0.573884 0.860687 0.705421
Si Si6 0.496959 0.890933 0.234327
Si Si7 0.121232 0.305413 0.827061
Si Si8 0.750276 0.749924 0.669646
O O1 0.112123 0.378404 0.267554
O O2 0.212382 0.587321 0.227552
O O3 0.114486 0.324651 0.623493
O O4 0.730785 0.067021 0.271197
O O5 0.158725 0.369579 0.151257
O O6 0.339234 0.702962 0.902525
O O7 0.839746 0.209308 0.873119
O O8 0.574102 0.905411 0.751266
O O9 0.500000 0.000000 0.500000
O O10 0.462896 0.524206 0.553927
O O11 0.219810 0.281156 0.331478
O O12 0.956201 0.026287 0.529257
O O13 0.546332 0.916308 0.432425
O O14 0.332826 0.564319 0.806953
O O15 0.841212 0.055996 0.831591
O O16 0.500000 0.000000 0.000000
O O17 0.198439 0.271284 0.063581
#
# Coordination Sequence:
#
# PCOD8042692 Si02
#       8
#     2   2   2   2   2   2   2   2
#     4  10  23  39  60  87 115 165 195 239 305 351
#     4  12  25  43  61  84 133 156 195 244 305 367
#     4  12  26  41  60  89 117 164 197 244 301 358
#     4  10  21  35  58  91 113 160 188 242 304 342
#     4  10  21  36  60  85 118 149 205 243 300 348
#     4  10  21  38  61  85 110 152 206 255 285 336
#     4  10  20  39  61  89 117 157 197 253 293 341
#     4  10  19  35  60  86 120 144 207 244 281 355
#
# _framework density 20.600228999999999
#
# number of rings (size 3 to 8) (size 9 to 14) (size 15 to 20)
#    0.000    1.500    0.000    5.250    3.500    2.000 
#    0.000    1.250    0.000    0.000    0.000    0.000 
#    0.000    0.000    0.000    0.000    0.000    0.000 
#
# Total GULP energy -198475.664082 kJ/mol
# GULP energy per Si atom -12404.729005 kJ/mol
# Density = 2.055334 g / cm^3
# Si number density = 20.600229 Si / 1000 Ang^3
#
#
#
# Elastic Constant Matrix: (Units=GPa)
#
#
# Indices 1 2 3 4 5 6 
#
# 1 60.5639 11.9006 12.7976 4.3339 -16.8689 5.5372
# 2 11.9006 108.0724 35.3464 16.4681 0.9030 6.8483
# 3 12.7976 35.3464 134.3010 4.3293 8.2379 3.0517
# 4 4.3339 16.4681 4.3293 30.1006 -0.2224 -1.5042
# 5 -16.8689 0.9030 8.2379 -0.2224 26.2730 -3.9381
# 6 5.5372 6.8483 3.0517 -1.5042 -3.9381 16.7901
#
#
#
# Elastic Compliance Matrix: (Units=1/GPa)
#
#
# Indices 1 2 3 4 5 6 
#
# 1 0.021675 -0.001165 -0.002494 -0.002173 0.014260 -0.003070
# 2 -0.001165 0.011417 -0.002531 -0.005952 -0.001087 -0.004601
# 3 -0.002494 -0.002531 0.008616 0.000438 -0.004314 -0.000684
# 4 -0.002173 -0.005952 0.000438 0.037046 -0.000060 0.006370
# 5 0.014260 -0.001087 -0.004314 -0.000060 0.049838 0.008209
# 6 -0.003070 -0.004601 -0.000684 0.006370 0.008209 0.065068
#
#
# Mechanical properties :
#
#
# Convention : Reuss Voigt Hill
#
# Bulk Modulus (GPa) = 34.09555 47.00293 40.54924
# Shear Modulus (GPa) = 23.16802 30.82560 26.99681
#
# Velocity S-wave (km/s) = 3.35722 3.87249 3.62402
# Velocity P-wave (km/s) = 5.62271 6.54684 6.10230
#
# Compressibility (1/GPa) = 0.02932934
#
# Stress axis : x y z
#
# Youngs Moduli (GPa) = 46.13527 87.59159 116.06722
#
# Poissons Ratio (x) = 0.10202 0.28945
# Poissons Ratio (y) = 0.05373 0.29373
# Poissons Ratio (z) = 0.11505 0.22166
#
# Static dielectric constant tensor:
#      x y z
#    x 3.450520 0.029910 -0.232420 
#    y 0.029910 3.949330 -0.188970 
#    z -0.232420 -0.188970 3.607930 
# 
# 
# High freq. dielectric constant tensor:
#      x y z
#    x 1.777960 0.004810 -0.011770 
#    y 0.004810 1.827980 -0.000570 
#    z -0.011770 -0.000570 1.817760 
# 
# From -- ./inp_files/371556.got.cif
#   From: 2010.06.25/outbox.cif.g09.slc.cpg/sg2_186_cif.got.tgz:371556.got - 2010.06.27 13:26:56.
