data_PCOD8042263
_publ_section_title
;
Structure prediction by ZEFSAII (Michael W. Deem and Ramdas Pophale) SiO2 
 PCOD8042263
Probable space group: P -1
;
_chemical_formula_sum "Si O2"
_cell_formula_units_Z 16
_cell_length_a 11.762510
_cell_length_b 12.981706
_cell_length_c 11.178334
_cell_angle_alpha 48.635491
_cell_angle_beta 105.092998
_cell_angle_gamma 67.222647
_cell_volume 786.575578
_symmetry_space_group_name_H-M "P -1"
_symmetry_group_IT_number 2
_symmetry_cell_setting 'triclinic'
loop_
_space_group_symop_operation_xyz
x,y,z
-x,-y,-z
loop_
_atom_site_type_symbol
_atom_site_label
_atom_site_fract_x
_atom_site_fract_y
_atom_site_fract_z
Si Si1 0.609854 0.227018 0.687234
Si Si2 0.077245 0.048350 0.818575
Si Si3 0.371600 0.813354 0.892018
Si Si4 0.574766 0.766504 0.797665
Si Si5 0.655193 0.990646 0.678030
Si Si6 0.235611 0.691327 0.796871
Si Si7 0.665108 0.462251 0.427027
Si Si8 0.075054 0.030734 0.317894
O O1 0.632465 0.326599 0.517227
O O2 0.417308 0.414794 0.561636
O O3 0.602400 0.090406 0.719250
O O4 0.791960 0.072054 0.938479
O O5 0.884509 0.300507 0.601404
O O6 0.037303 0.926662 0.859934
O O7 0.187623 0.017243 0.760944
O O8 0.551475 0.643792 0.155728
O O9 0.396750 0.913599 0.725207
O O10 0.359304 0.677311 0.926009
O O11 0.695357 0.791532 0.847516
O O12 0.518011 0.828076 0.596628
O O13 0.680766 0.531550 0.033632
O O14 0.834051 0.908361 0.741232
O O15 0.214012 0.783511 0.589678
O O16 0.042270 0.833409 0.699825
#
# Coordination Sequence:
#
# PCOD8042263 Si02
#       8
#     2   2   2   2   2   2   2   2
#     4  10  21  36  57  89 121 150 192 246 297 346
#     4  10  20  35  60  91 114 146 193 255 290 337
#     4  10  20  36  60  89 112 151 199 248 290 341
#     4  11  23  38  59  84 122 161 194 234 301 358
#     4  11  23  39  56  85 126 160 187 240 300 359
#     4  10  20  35  61  89 116 151 199 249 290 344
#     4  10  19  34  61  89 112 146 198 248 292 344
#     4  10  20  35  61  91 117 147 197 250 295 342
#
# _framework density 20.341339000000001
#
# number of rings (size 3 to 8) (size 9 to 14) (size 15 to 20)
#    0.000    1.750    2.500    2.250    0.000    1.500 
#    0.000    2.500    0.000    3.750    0.000    0.000 
#    0.000    0.000    0.000    0.000    0.000    0.000 
#
# Total GULP energy -198337.152604 kJ/mol
# GULP energy per Si atom -12396.072038 kJ/mol
# Density = 2.029504 g / cm^3
# Si number density = 20.341339 Si / 1000 Ang^3
#
#
#
# Elastic Constant Matrix: (Units=GPa)
#
#
# Indices 1 2 3 4 5 6 
#
# 1 131.1426 61.1722 41.6364 -9.6556 2.6275 5.1258
# 2 61.1722 103.7304 43.0499 11.6925 3.5818 4.3768
# 3 41.6364 43.0499 76.6051 -0.3693 9.4845 -3.5476
# 4 -9.6556 11.6925 -0.3693 26.3693 -4.4827 4.2553
# 5 2.6275 3.5818 9.4845 -4.4827 29.3781 -4.4566
# 6 5.1258 4.3768 -3.5476 4.2553 -4.4566 31.2948
#
#
#
# Elastic Compliance Matrix: (Units=1/GPa)
#
#
# Indices 1 2 3 4 5 6 
#
# 1 0.012562 -0.006986 -0.003176 0.008314 0.001668 -0.002333
# 2 -0.006986 0.017492 -0.005957 -0.010500 -0.001298 -0.000734
# 3 -0.003176 -0.005957 0.018824 0.000519 -0.004568 0.002766
# 4 0.008314 -0.010500 0.000519 0.047653 0.006830 -0.005341
# 5 0.001668 -0.001298 -0.004568 0.006830 0.037134 0.003750
# 6 -0.002333 -0.000734 0.002766 -0.005341 0.003750 0.034013
#
#
# Mechanical properties :
#
#
# Convention : Reuss Voigt Hill
#
# Bulk Modulus (GPa) = 60.09721 67.02168 63.55945
# Shear Modulus (GPa) = 24.33523 28.44975 26.39249
#
# Velocity S-wave (km/s) = 3.46257 3.74387 3.60596
# Velocity P-wave (km/s) = 6.75236 7.19088 6.97507
#
# Compressibility (1/GPa) = 0.01663971
#
# Stress axis : x y z
#
# Youngs Moduli (GPa) = 79.60232 57.16944 53.12380
#
# Poissons Ratio (x) = 0.39941 0.16874
# Poissons Ratio (y) = 0.55613 0.31644
# Poissons Ratio (z) = 0.25284 0.34053
#
# Static dielectric constant tensor:
#      x y z
#    x 3.860070 -0.363730 0.162010 
#    y -0.363730 3.810510 0.058040 
#    z 0.162010 0.058040 3.549980 
# 
# 
# High freq. dielectric constant tensor:
#      x y z
#    x 1.785600 -0.033280 0.009970 
#    y -0.033280 1.793820 0.016430 
#    z 0.009970 0.016430 1.778590 
# 
# From -- ./inp_files/308760.got.cif
#   From: 2010.06.25/outbox.cif.g09.slc.cpg/sg2_155_cif.got.tgz:308760.got - 2010.06.27 13:26:56.
