data_PCOD8042076
_publ_section_title
;
Structure prediction by ZEFSAII (Michael W. Deem and Ramdas Pophale) SiO2 
 PCOD8042076
Probable space group: P -1
;
_chemical_formula_sum "Si O2"
_cell_formula_units_Z 16
_cell_length_a 14.929256
_cell_length_b 11.850085
_cell_length_c 12.123581
_cell_angle_alpha 142.150404
_cell_angle_beta 119.527882
_cell_angle_gamma 89.794945
_cell_volume 792.039927
_symmetry_space_group_name_H-M "P -1"
_symmetry_group_IT_number 2
_symmetry_cell_setting 'triclinic'
loop_
_space_group_symop_operation_xyz
x,y,z
-x,-y,-z
loop_
_atom_site_type_symbol
_atom_site_label
_atom_site_fract_x
_atom_site_fract_y
_atom_site_fract_z
Si Si1 0.972047 0.841536 0.754878
Si Si2 0.578548 0.424440 0.618680
Si Si3 0.310899 0.619555 0.665711
Si Si4 0.629197 0.102792 0.292540
Si Si5 0.795691 0.577778 0.029743
Si Si6 0.290862 0.211310 0.214150
Si Si7 0.918706 0.967779 0.593341
Si Si8 0.171966 0.761671 0.293833
O O1 0.826283 0.527159 0.445382
O O2 0.946368 0.941966 0.713890
O O3 0.000000 0.000000 0.000000
O O4 0.121845 0.913627 0.879490
O O5 0.624979 0.298557 0.491083
O O6 0.399185 0.214673 0.351103
O O7 0.646744 0.685798 0.793648
O O8 0.649815 0.505452 0.846631
O O9 0.317858 0.806379 0.732772
O O10 0.285829 0.401841 0.415737
O O11 0.465972 0.800522 0.965905
O O12 0.746032 0.132425 0.455478
O O13 0.925818 0.786627 0.181738
O O14 0.836760 0.697635 0.269175
O O15 0.762172 0.313511 0.804807
O O16 0.812827 0.012264 0.570035
O O17 0.000000 0.500000 0.000000
#
# Coordination Sequence:
#
# PCOD8042076 Si02
#       8
#     2   2   2   2   2   2   2   2
#     4  10  20  35  58  78 117 147 184 233 285 347
#     4   9  16  30  54  76 110 136 181 234 279 317
#     4   9  19  33  56  76 108 148 181 236 274 339
#     4   9  18  35  53  83 108 138 194 231 281 326
#     4   9  18  33  55  85 113 142 189 245 267 332
#     4   9  17  30  53  79 104 145 182 224 280 333
#     4  10  19  34  57  85 108 152 190 228 290 333
#     4   9  19  32  57  82 113 143 185 241 277 330
#
# _framework density 20.201001000000002
#
# number of rings (size 3 to 8) (size 9 to 14) (size 15 to 20)
#    0.000    2.750    1.250    0.000    7.000    0.000 
#    0.000    1.250    5.500    1.500    0.000    0.000 
#    0.000    0.000    0.000    0.000    0.000    0.125 
#
# Total GULP energy -198266.944463 kJ/mol
# GULP energy per Si atom -12391.684029 kJ/mol
# Density = 2.015502 g / cm^3
# Si number density = 20.201001 Si / 1000 Ang^3
#
#
#
# Elastic Constant Matrix: (Units=GPa)
#
#
# Indices 1 2 3 4 5 6 
#
# 1 58.9247 46.5218 33.9918 -12.9883 19.5770 -10.8750
# 2 46.5218 88.1547 52.3619 -28.6304 11.6812 -5.0720
# 3 33.9918 52.3619 105.2738 -22.5579 27.5914 -0.6035
# 4 -12.9883 -28.6304 -22.5579 36.1269 -2.5299 7.9790
# 5 19.5770 11.6812 27.5914 -2.5299 46.1066 -3.9449
# 6 -10.8750 -5.0720 -0.6035 7.9790 -3.9449 28.5053
#
#
#
# Elastic Compliance Matrix: (Units=1/GPa)
#
#
# Indices 1 2 3 4 5 6 
#
# 1 0.035778 -0.017992 -0.001210 -0.005137 -0.009286 0.010575
# 2 -0.017992 0.028126 -0.006655 0.013107 0.004787 -0.005007
# 3 -0.001210 -0.006655 0.016146 0.004652 -0.007519 -0.003646
# 4 -0.005137 0.013107 0.004652 0.041482 -0.002631 -0.011505
# 5 -0.009286 0.004787 -0.007519 -0.002631 0.028936 0.001891
# 6 0.010575 -0.005007 -0.003646 -0.011505 0.001891 0.041630
#
#
# Mechanical properties :
#
#
# Convention : Reuss Voigt Hill
#
# Bulk Modulus (GPa) = 35.28906 57.56713 46.42810
# Shear Modulus (GPa) = 19.74277 30.11294 24.92785
#
# Velocity S-wave (km/s) = 3.12960 3.86510 3.51663
# Velocity P-wave (km/s) = 5.52866 6.96259 6.28664
#
# Compressibility (1/GPa) = 0.02833739
#
# Stress axis : x y z
#
# Youngs Moduli (GPa) = 27.94985 35.55441 61.93366
#
# Poissons Ratio (x) = 0.63970 0.07491
# Poissons Ratio (y) = 0.50288 0.41216
# Poissons Ratio (z) = 0.03381 0.23661
#
# Static dielectric constant tensor:
#      x y z
#    x 3.758230 -0.121490 0.276790 
#    y -0.121490 3.716540 -0.107860 
#    z 0.276790 -0.107860 4.056110 
# 
# 
# High freq. dielectric constant tensor:
#      x y z
#    x 1.764800 -0.019590 0.009030 
#    y -0.019590 1.758130 -0.021990 
#    z 0.009030 -0.021990 1.796650 
# 
# From -- ./inp_files/389529.got.cif
#   From: 2010.06.25/outbox.cif.g09.slc.cpg/sg2_195_cif.got.tgz:389529.got - 2010.06.27 13:26:56.
