data_PCOD8042384
_publ_section_title
;
Structure prediction by ZEFSAII (Michael W. Deem and Ramdas Pophale) SiO2 
 PCOD8042384
Probable space group: P -1
;
_chemical_formula_sum "Si O2"
_cell_formula_units_Z 14
_cell_length_a 12.607811
_cell_length_b 14.518107
_cell_length_c 12.007368
_cell_angle_alpha 76.217637
_cell_angle_beta 103.782845
_cell_angle_gamma 159.094085
_cell_volume 760.905511
_symmetry_space_group_name_H-M "P -1"
_symmetry_group_IT_number 2
_symmetry_cell_setting 'triclinic'
loop_
_space_group_symop_operation_xyz
x,y,z
-x,-y,-z
loop_
_atom_site_type_symbol
_atom_site_label
_atom_site_fract_x
_atom_site_fract_y
_atom_site_fract_z
Si Si1 0.165641 0.418256 0.484372
Si Si2 0.865043 0.992579 0.446554
Si Si3 0.796248 0.046370 0.204923
Si Si4 0.327666 0.897610 0.688484
Si Si5 0.758334 0.434868 0.918963
Si Si6 0.924299 0.469034 0.159772
Si Si7 0.099139 0.662406 0.396164
O O1 0.518228 0.712029 0.474517
O O2 0.007911 0.358091 0.369527
O O3 0.056183 0.366079 0.593642
O O4 0.047935 0.215792 0.502099
O O5 0.918067 0.059680 0.309585
O O6 0.000000 0.000000 0.500000
O O7 0.587981 0.941107 0.266015
O O8 0.061452 0.326335 0.143191
O O9 0.593604 0.836571 0.117447
O O10 0.343840 0.819835 0.796142
O O11 0.540939 0.050181 0.592705
O O12 0.837628 0.400720 0.886709
O O13 0.806689 0.460192 0.056078
O O14 0.038958 0.602699 0.266653
O O15 0.000000 0.500000 0.500000
#
# Coordination Sequence:
#
# PCOD8042384 Si02
#       7
#     2   2   2   2   2   2   2
#     4  11  23  35  56  84 115 149 184 225 285 339
#     4  11  23  41  61  83 107 139 188 248 297 333
#     4  10  19  35  54  77 107 143 183 231 280 317
#     4  10  20  32  51  78 121 153 182 212 264 332
#     4  10  21  34  50  78 113 153 189 223 251 320
#     4  10  21  31  50  75 116 157 192 211 255 318
#     4  12  21  33  52  82 122 162 185 213 271 334
#
# _framework density 18.399131000000001
#
# number of rings (size 3 to 8) (size 9 to 14) (size 15 to 20)
#    0.000    1.429    2.857    5.143    4.000    1.714 
#    0.000    0.000    0.000    0.000    0.000    6.000 
#    0.000    0.000    0.000    0.000    0.000    0.000 
#
# Total GULP energy -173441.381908 kJ/mol
# GULP energy per Si atom -12388.670136 kJ/mol
# Density = 1.835725 g / cm^3
# Si number density = 18.399131 Si / 1000 Ang^3
#
#
#
# Elastic Constant Matrix: (Units=GPa)
#
#
# Indices 1 2 3 4 5 6 
#
# 1 81.4591 34.9479 50.0950 -3.2928 18.8493 -8.6391
# 2 34.9479 95.7689 28.6834 -5.0515 11.6116 -7.3323
# 3 50.0950 28.6834 116.3182 -2.6194 14.3859 -4.8081
# 4 -3.2928 -5.0515 -2.6194 21.2905 -5.4763 -3.2958
# 5 18.8493 11.6116 14.3859 -5.4763 28.8829 -0.7058
# 6 -8.6391 -7.3323 -4.8081 -3.2958 -0.7058 23.1408
#
#
#
# Elastic Compliance Matrix: (Units=1/GPa)
#
#
# Indices 1 2 3 4 5 6 
#
# 1 0.020544 -0.004149 -0.006598 -0.000034 -0.008344 0.004725
# 2 -0.004149 0.012751 -0.001025 0.002291 -0.001411 0.002561
# 3 -0.006598 -0.001025 0.011821 -0.000183 -0.001214 -0.000395
# 4 -0.000034 0.002291 -0.000183 0.051095 0.009081 0.008229
# 5 -0.008344 -0.001411 -0.001214 0.009081 0.042932 -0.001211
# 6 0.004725 0.002561 -0.000395 0.008229 -0.001211 0.046842
#
#
# Mechanical properties :
#
#
# Convention : Reuss Voigt Hill
#
# Bulk Modulus (GPa) = 46.35841 57.88874 52.12358
# Shear Modulus (GPa) = 23.07105 26.65084 24.86094
#
# Velocity S-wave (km/s) = 3.54492 3.81002 3.67986
# Velocity P-wave (km/s) = 6.48120 7.13345 6.81513
#
# Compressibility (1/GPa) = 0.02157106
#
# Stress axis : x y z
#
# Youngs Moduli (GPa) = 48.67499 78.42487 84.59273
#
# Poissons Ratio (x) = 0.32540 0.55816
# Poissons Ratio (y) = 0.20196 0.08675
# Poissons Ratio (z) = 0.32117 0.08042
#
# Static dielectric constant tensor:
#      x y z
#    x 3.201030 -0.152220 -0.159080 
#    y -0.152220 3.454260 -0.011350 
#    z -0.159080 -0.011350 4.072350 
# 
# 
# High freq. dielectric constant tensor:
#      x y z
#    x 1.663390 -0.027100 0.003300 
#    y -0.027100 1.723850 0.002180 
#    z 0.003300 0.002180 1.714500 
# 
# From -- ./inp_files/63567.got.cif
#   From: 2010.06.25/outbox.cif.g09.slc.cpg/sg2_32_cif.got.tgz:63567.got - 2010.06.27 13:26:56.
