data_PCOD8042718
_publ_section_title
;
Structure prediction by ZEFSAII (Michael W. Deem and Ramdas Pophale) SiO2 
 PCOD8042718
Probable space group: P -1
;
_chemical_formula_sum "Si O2"
_cell_formula_units_Z 16
_cell_length_a 15.813846
_cell_length_b 14.955801
_cell_length_c 14.477540
_cell_angle_alpha 160.155060
_cell_angle_beta 140.651220
_cell_angle_gamma 40.560975
_cell_volume 728.634793
_symmetry_space_group_name_H-M "P -1"
_symmetry_group_IT_number 2
_symmetry_cell_setting 'triclinic'
loop_
_space_group_symop_operation_xyz
x,y,z
-x,-y,-z
loop_
_atom_site_type_symbol
_atom_site_label
_atom_site_fract_x
_atom_site_fract_y
_atom_site_fract_z
Si Si1 0.351590 0.576605 0.489564
Si Si2 0.608949 0.735670 0.061897
Si Si3 0.946790 0.112793 0.796000
Si Si4 0.290349 0.776102 0.443779
Si Si5 0.248673 0.067935 0.992781
Si Si6 0.647889 0.014452 0.804424
Si Si7 0.357940 0.475348 0.808218
Si Si8 0.162617 0.374137 0.706225
O O1 0.500000 0.500000 0.500000
O O2 0.253146 0.701475 0.444088
O O3 0.296496 0.323288 0.236819
O O4 0.347074 0.802181 0.784417
O O5 0.743146 0.674083 0.173544
O O6 0.628946 0.972515 0.238384
O O7 0.489727 0.821533 0.114807
O O8 0.597177 0.464370 0.733588
O O9 0.843453 0.167895 0.676712
O O10 0.921243 0.870538 0.605473
O O11 0.939484 0.357708 0.098952
O O12 0.095329 0.054030 0.820173
O O13 0.253292 0.083624 0.123175
O O14 0.616404 0.757320 0.472323
O O15 0.705895 0.235124 0.004918
O O16 0.247074 0.392154 0.702581
O O17 0.500000 0.500000 0.000000
#
# Coordination Sequence:
#
# PCOD8042718 Si02
#       8
#     2   2   2   2   2   2   2   2
#     4  12  24  42  67  95 129 162 214 263 320 367
#     4  10  19  35  60  89 127 157 199 261 319 371
#     4  10  23  42  63  89 128 172 216 247 307 374
#     4  10  21  37  62  93 121 166 213 258 306 361
#     4  12  26  44  64  90 131 175 206 255 312 382
#     4  12  24  39  61  93 131 163 208 255 329 374
#     4  12  24  39  65 100 127 155 210 269 322 370
#     4  10  21  39  63  90 125 160 208 265 308 370
#
# _framework density 21.958874000000002
#
# number of rings (size 3 to 8) (size 9 to 14) (size 15 to 20)
#    0.000    1.000    1.250    6.000    3.500    1.000 
#    0.000    3.750    0.000    0.000    0.000    0.000 
#    0.000    0.000    0.000    0.000    0.000    0.000 
#
# Total GULP energy -198410.487050 kJ/mol
# GULP energy per Si atom -12400.655441 kJ/mol
# Density = 2.190889 g / cm^3
# Si number density = 21.958874 Si / 1000 Ang^3
#
#
#
# Elastic Constant Matrix: (Units=GPa)
#
#
# Indices 1 2 3 4 5 6 
#
# 1 108.1349 49.9130 52.0656 3.5646 18.4929 15.3212
# 2 49.9130 67.9737 51.1857 10.6589 11.6664 9.4265
# 3 52.0656 51.1857 135.2306 18.0530 12.9919 10.3811
# 4 3.5646 10.6589 18.0530 27.4659 9.3336 1.6880
# 5 18.4929 11.6664 12.9919 9.3336 49.5136 8.5932
# 6 15.3212 9.4265 10.3811 1.6880 8.5932 35.9482
#
#
#
# Elastic Compliance Matrix: (Units=1/GPa)
#
#
# Indices 1 2 3 4 5 6 
#
# 1 0.015582 -0.009255 -0.002564 0.004562 -0.003324 -0.002893
# 2 -0.009255 0.026897 -0.005807 -0.005295 -0.000160 -0.001145
# 3 -0.002564 -0.005807 0.011235 -0.004899 0.000387 -0.000491
# 4 0.004562 -0.005295 -0.004899 0.043602 -0.007495 0.000603
# 5 -0.003324 -0.000160 0.000387 -0.007495 0.023466 -0.003910
# 6 -0.002893 -0.001145 -0.000491 0.000603 -0.003910 0.030399
#
#
# Mechanical properties :
#
#
# Convention : Reuss Voigt Hill
#
# Bulk Modulus (GPa) = 54.16620 68.62975 61.39798
# Shear Modulus (GPa) = 25.96239 33.13053 29.54646
#
# Velocity S-wave (km/s) = 3.44222 3.88848 3.67213
# Velocity P-wave (km/s) = 6.36546 7.17510 6.78237
#
# Compressibility (1/GPa) = 0.01846170
#
# Stress axis : x y z
#
# Youngs Moduli (GPa) = 64.17616 37.17887 89.01116
#
# Poissons Ratio (x) = 0.34409 0.22821
# Poissons Ratio (y) = 0.59394 0.51691
# Poissons Ratio (z) = 0.16454 0.21591
#
# Static dielectric constant tensor:
#      x y z
#    x 3.962920 0.207140 -0.050580 
#    y 0.207140 4.064780 0.282350 
#    z -0.050580 0.282350 4.459300 
# 
# 
# High freq. dielectric constant tensor:
#      x y z
#    x 1.859810 0.012640 0.000990 
#    y 0.012640 1.860470 0.017400 
#    z 0.000990 0.017400 1.880530 
# 
# From -- ./inp_files/485837.got.cif
#   From: 2010.06.25/outbox.cif.g09.slc.cpg/sg2_243_cif.got.tgz:485837.got - 2010.06.27 13:26:56.
