data_PCOD8042415
_publ_section_title
;
Structure prediction by ZEFSAII (Michael W. Deem and Ramdas Pophale) SiO2 
 PCOD8042415
Probable space group: P -1
;
_chemical_formula_sum "Si O2"
_cell_formula_units_Z 14
_cell_length_a 11.114768
_cell_length_b 14.631841
_cell_length_c 12.109335
_cell_angle_alpha 132.125960
_cell_angle_beta 125.428482
_cell_angle_gamma 30.409530
_cell_volume 739.319104
_symmetry_space_group_name_H-M "P -1"
_symmetry_group_IT_number 2
_symmetry_cell_setting 'triclinic'
loop_
_space_group_symop_operation_xyz
x,y,z
-x,-y,-z
loop_
_atom_site_type_symbol
_atom_site_label
_atom_site_fract_x
_atom_site_fract_y
_atom_site_fract_z
Si Si1 0.198067 0.172716 0.580865
Si Si2 0.826541 0.157730 0.943265
Si Si3 0.511785 0.797688 0.304089
Si Si4 0.716403 0.065245 0.397814
Si Si5 0.901760 0.140153 0.725275
Si Si6 0.338763 0.510627 0.494074
Si Si7 0.387399 0.501667 0.754816
O O1 0.265310 0.272332 0.682019
O O2 0.911661 0.350638 0.586236
O O3 0.301922 0.028202 0.415616
O O4 0.330609 0.036389 0.652404
O O5 0.597245 0.218718 0.862077
O O6 0.965239 0.068603 0.828131
O O7 0.743211 0.347625 0.091108
O O8 0.000000 0.000000 0.000000
O O9 0.598184 0.654800 0.336783
O O10 0.863968 0.040716 0.552360
O O11 0.484602 0.288659 0.412146
O O12 0.881166 0.928584 0.268691
O O13 0.657261 0.377608 0.787700
O O14 0.500000 0.500000 0.500000
O O15 0.270474 0.605065 0.657010
#
# Coordination Sequence:
#
# PCOD8042415 Si02
#       7
#     2   2   2   2   2   2   2
#     4  11  20  37  57  84 122 150 185 237 291 341
#     4  11  21  35  57  86 112 148 199 239 277 343
#     4  10  21  37  55  82 120 153 185 235 294 338
#     4  10  19  35  55  82 118 145 184 241 280 333
#     4   9  17  33  54  79 112 144 185 234 286 319
#     4  11  22  33  59  90 113 149 196 237 284 335
#     4  10  20  35  57  84 112 152 190 236 290 334
#
# _framework density 18.936343000000001
#
# number of rings (size 3 to 8) (size 9 to 14) (size 15 to 20)
#    0.000    1.714    4.286    5.143    2.000    0.571 
#    2.571    0.000    0.000    8.571    0.000    0.000 
#    0.000    0.000    0.000    0.000    0.000    0.000 
#
# Total GULP energy -173451.109820 kJ/mol
# GULP energy per Si atom -12389.364987 kJ/mol
# Density = 1.889324 g / cm^3
# Si number density = 18.936343 Si / 1000 Ang^3
#
#
#
# Elastic Constant Matrix: (Units=GPa)
#
#
# Indices 1 2 3 4 5 6 
#
# 1 126.6972 51.6065 40.5168 0.5854 -4.0993 0.9243
# 2 51.6065 99.3984 20.9182 -1.9902 -5.2640 10.7841
# 3 40.5168 20.9182 69.5144 -0.2248 -15.4706 9.2023
# 4 0.5854 -1.9902 -0.2248 25.9529 1.9719 -6.1979
# 5 -4.0993 -5.2640 -15.4706 1.9719 26.5667 0.5939
# 6 0.9243 10.7841 9.2023 -6.1979 0.5939 27.9640
#
#
#
# Elastic Compliance Matrix: (Units=1/GPa)
#
#
# Indices 1 2 3 4 5 6 
#
# 1 0.012130 -0.005499 -0.006674 0.000469 -0.003231 0.004088
# 2 -0.005499 0.013528 0.000304 -0.000249 0.002144 -0.005236
# 3 -0.006674 0.000304 0.021930 -0.002450 0.012160 -0.007915
# 4 0.000469 -0.000249 -0.002450 0.041256 -0.004693 0.010131
# 5 -0.003231 0.002144 0.012160 -0.004693 0.045147 -0.006721
# 6 0.004088 -0.005236 -0.007915 0.010131 -0.006721 0.042637
#
#
# Mechanical properties :
#
#
# Convention : Reuss Voigt Hill
#
# Bulk Modulus (GPa) = 41.92848 57.96587 49.94717
# Shear Modulus (GPa) = 24.00180 28.26798 26.13489
#
# Velocity S-wave (km/s) = 3.56406 3.86786 3.71906
# Velocity P-wave (km/s) = 6.25512 7.11509 6.69892
#
# Compressibility (1/GPa) = 0.02385014
#
# Stress axis : x y z
#
# Youngs Moduli (GPa) = 82.43731 73.92016 45.59902
#
# Poissons Ratio (x) = 0.40646 0.30434
# Poissons Ratio (y) = 0.45329 -0.01385
# Poissons Ratio (z) = 0.55021 -0.02244
#
# Static dielectric constant tensor:
#      x y z
#    x 3.657110 0.047310 -0.382160 
#    y 0.047310 3.504030 0.218230 
#    z -0.382160 0.218230 3.635790 
# 
# 
# High freq. dielectric constant tensor:
#      x y z
#    x 1.724510 0.014290 -0.028690 
#    y 0.014290 1.739330 0.010160 
#    z -0.028690 0.010160 1.702120 
# 
# From -- ./inp_files/431862.got.cif
#   From: 2010.06.25/outbox.cif.g09.slc.cpg/sg2_216_cif.got.tgz:431862.got - 2010.06.27 13:26:56.
