data_PCOD8042990
_publ_section_title
;
Structure prediction by ZEFSAII (Michael W. Deem and Ramdas Pophale) SiO2 
 PCOD8042990
Probable space group: P -1
;
_chemical_formula_sum "Si O2"
_cell_formula_units_Z 16
_cell_length_a 9.005062
_cell_length_b 9.412343
_cell_length_c 10.790756
_cell_angle_alpha 101.391038
_cell_angle_beta 68.983891
_cell_angle_gamma 93.867105
_cell_volume 836.947310
_symmetry_space_group_name_H-M "P -1"
_symmetry_group_IT_number 2
_symmetry_cell_setting 'triclinic'
loop_
_space_group_symop_operation_xyz
x,y,z
-x,-y,-z
loop_
_atom_site_type_symbol
_atom_site_label
_atom_site_fract_x
_atom_site_fract_y
_atom_site_fract_z
Si Si1 0.739075 0.052709 0.404896
Si Si2 0.076633 0.100359 0.867606
Si Si3 0.017010 0.784906 0.773205
Si Si4 0.564761 0.956864 0.668086
Si Si5 0.890756 0.365739 0.042136
Si Si6 0.554094 0.500676 0.123272
Si Si7 0.614024 0.808001 0.092581
Si Si8 0.332152 0.273450 0.209009
O O1 0.576857 0.092507 0.387879
O O2 0.859898 0.187986 0.372824
O O3 0.820804 0.909474 0.293349
O O4 0.706775 0.024453 0.554189
O O5 0.202126 0.143740 0.944970
O O6 0.000449 0.938601 0.883080
O O7 0.941480 0.224532 0.921006
O O8 0.856338 0.721797 0.753144
O O9 0.089175 0.666412 0.823726
O O10 0.631893 0.820286 0.697523
O O11 0.509799 0.071464 0.806310
O O12 0.708662 0.400284 0.076312
O O13 0.000000 0.500000 0.000000
O O14 0.590490 0.669281 0.167902
O O15 0.409348 0.433284 0.237115
O O16 0.500000 0.500000 0.000000
O O17 0.581369 0.782724 0.952272
#
# Coordination Sequence:
#
# PCOD8042990 Si02
#       8
#     2   2   2   2   2   2   2   2
#     4   8  20  37  57  79 110 149 184 227 265 327
#     4   9  19  35  57  82 109 139 189 224 265 332
#     4  10  21  35  57  82 113 141 185 223 277 326
#     4  10  19  36  61  79 111 142 191 228 274 315
#     4  12  19  33  58  81 112 148 174 226 279 324
#     4  10  22  35  49  82 119 142 176 220 286 331
#     4  10  19  36  54  85 113 143 181 231 273 325
#     4  11  21  33  55  87 113 143 176 234 283 320
#
# _framework density 19.117093000000001
#
# number of rings (size 3 to 8) (size 9 to 14) (size 15 to 20)
#    0.750    1.250    2.500    2.250    0.000    2.500 
#    0.000    0.000    2.750    3.750    0.000    0.000 
#    0.000    0.000    0.000    0.000    0.000    0.000 
#
# Total GULP energy -198266.521013 kJ/mol
# GULP energy per Si atom -12391.657563 kJ/mol
# Density = 1.907358 g / cm^3
# Si number density = 19.117093 Si / 1000 Ang^3
#
#
#
# Elastic Constant Matrix: (Units=GPa)
#
#
# Indices 1 2 3 4 5 6 
#
# 1 117.0031 52.7164 22.5499 -23.7259 -8.6042 7.8038
# 2 52.7164 102.3104 24.8708 -36.0304 -6.5639 7.2141
# 3 22.5499 24.8708 53.4754 -33.7955 -2.3341 3.8706
# 4 -23.7259 -36.0304 -33.7955 34.0086 4.4321 -2.4451
# 5 -8.6042 -6.5639 -2.3341 4.4321 18.8862 -10.7194
# 6 7.8038 7.2141 3.8706 -2.4451 -10.7194 38.3339
#
#
#
# Elastic Compliance Matrix: (Units=1/GPa)
#
#
# Indices 1 2 3 4 5 6 
#
# 1 0.011573 -0.005315 -0.002626 -0.000588 0.003089 -0.000264
# 2 -0.005315 0.019888 0.011086 0.028491 -0.002305 -0.002607
# 3 -0.002626 0.011086 0.057617 0.067985 -0.009388 -0.005658
# 4 -0.000588 0.028491 0.067985 0.128330 -0.017003 -0.008676
# 5 0.003089 -0.002305 -0.009388 -0.017003 0.066798 0.018347
# 6 -0.000264 -0.002607 -0.005658 -0.008676 0.018347 0.031780
#
#
# Mechanical properties :
#
#
# Convention : Reuss Voigt Hill
#
# Bulk Modulus (GPa) = 10.48587 52.56258 31.52422
# Shear Modulus (GPa) = 14.64192 29.75585 22.19889
#
# Velocity S-wave (km/s) = 2.77050 3.94954 3.41134
# Velocity P-wave (km/s) = 3.96626 6.95365 5.66059
#
# Compressibility (1/GPa) = 0.09536645
#
# Stress axis : x y z
#
# Youngs Moduli (GPa) = 86.40679 50.28261 17.35600
#
# Poissons Ratio (x) = 0.26726 0.04558
# Poissons Ratio (y) = 0.45927 -0.19240
# Poissons Ratio (z) = 0.22692 -0.55742
#
# Static dielectric constant tensor:
#      x y z
#    x 3.601660 0.321810 -0.108480 
#    y 0.321810 3.958930 -0.166640 
#    z -0.108480 -0.166640 3.307400 
# 
# 
# High freq. dielectric constant tensor:
#      x y z
#    x 1.748850 0.013860 -0.011380 
#    y 0.013860 1.741940 -0.026870 
#    z -0.011380 -0.026870 1.709960 
# 
# From -- ./inp_files/379505.got.cif
#   From: 2010.06.25/outbox.cif.g09.slc.cpg/sg2_190_cif.got.tgz:379505.got - 2010.06.27 13:26:56.
