data_PCOD8042605
_publ_section_title
;
Structure prediction by ZEFSAII (Michael W. Deem and Ramdas Pophale) SiO2 
 PCOD8042605
Probable space group: P -1
;
_chemical_formula_sum "Si O2"
_cell_formula_units_Z 12
_cell_length_a 14.936970
_cell_length_b 15.470633
_cell_length_c 6.520148
_cell_angle_alpha 126.446389
_cell_angle_beta 115.749442
_cell_angle_gamma 28.741901
_cell_volume 568.075393
_symmetry_space_group_name_H-M "P -1"
_symmetry_group_IT_number 2
_symmetry_cell_setting 'triclinic'
loop_
_space_group_symop_operation_xyz
x,y,z
-x,-y,-z
loop_
_atom_site_type_symbol
_atom_site_label
_atom_site_fract_x
_atom_site_fract_y
_atom_site_fract_z
Si Si1 0.532823 0.927853 0.706144
Si Si2 0.417880 0.640085 0.926702
Si Si3 0.633962 0.509406 0.574524
Si Si4 0.182507 0.323696 0.680611
Si Si5 0.020692 0.660050 0.239768
Si Si6 0.346454 0.877933 0.497252
O O1 0.756051 0.736781 0.585398
O O2 0.483580 0.848110 0.523587
O O3 0.389459 0.135558 0.729112
O O4 0.500000 0.000000 0.000000
O O5 0.583421 0.535675 0.798525
O O6 0.294142 0.669862 0.709177
O O7 0.500000 0.500000 0.000000
O O8 0.305039 0.842990 0.204601
O O9 0.801014 0.441467 0.632976
O O10 0.445162 0.724154 0.567436
O O11 0.060635 0.332894 0.639013
O O12 0.074365 0.532824 0.925856
O O13 0.860565 0.887384 0.308609
#
# Coordination Sequence:
#
# PCOD8042605 Si02
#       6
#     2   2   2   2   2   2
#     4  10  19  35  59  82 114 159 194 228 282 338
#     4   9  20  40  61  82 112 150 190 237 289 343
#     4  10  20  39  61  81 114 152 189 236 290 340
#     4   9  20  37  54  83 123 151 189 240 276 331
#     4  10  20  37  60  87 118 154 191 236 288 335
#     4  10  21  36  57  87 115 147 193 235 282 339
#
# _framework density 21.123957000000001
#
# number of rings (size 3 to 8) (size 9 to 14) (size 15 to 20)
#    0.000    2.333    0.000    2.000    0.000    3.333 
#    0.000   34.167    0.000    0.000    0.000    0.000 
#    0.000    0.000    0.000    0.000    0.000    0.000 
#
# Total GULP energy -148708.368949 kJ/mol
# GULP energy per Si atom -12392.364079 kJ/mol
# Density = 2.107588 g / cm^3
# Si number density = 21.123957 Si / 1000 Ang^3
#
#
#
# Elastic Constant Matrix: (Units=GPa)
#
#
# Indices 1 2 3 4 5 6 
#
# 1 112.2692 42.3370 78.5833 10.4128 -1.5643 -9.1818
# 2 42.3370 77.4846 53.2218 12.1756 0.8823 -0.1597
# 3 78.5833 53.2218 163.9403 20.3112 -9.8460 -0.1507
# 4 10.4128 12.1756 20.3112 28.5196 2.8940 1.2375
# 5 -1.5643 0.8823 -9.8460 2.8940 42.5808 0.6186
# 6 -9.1818 -0.1597 -0.1507 1.2375 0.6186 28.1312
#
#
#
# Elastic Compliance Matrix: (Units=1/GPa)
#
#
# Indices 1 2 3 4 5 6 
#
# 1 0.014963 -0.004153 -0.005919 0.000400 -0.000830 0.004829
# 2 -0.004153 0.018173 -0.003533 -0.003568 -0.001088 -0.001091
# 3 -0.005919 -0.003533 0.010760 -0.004187 0.002654 -0.001768
# 4 0.000400 -0.003568 -0.004187 0.039853 -0.003565 -0.001587
# 5 -0.000830 -0.001088 0.002654 -0.003565 0.024342 -0.000641
# 6 0.004829 -0.001091 -0.001768 -0.001587 -0.000641 0.037192
#
#
# Mechanical properties :
#
#
# Convention : Reuss Voigt Hill
#
# Bulk Modulus (GPa) = 59.93356 77.99758 68.96557
# Shear Modulus (GPa) = 28.08122 31.81646 29.94884
#
# Velocity S-wave (km/s) = 3.64999 3.88516 3.76941
# Velocity P-wave (km/s) = 6.79685 7.55843 7.18773
#
# Compressibility (1/GPa) = 0.01668514
#
# Stress axis : x y z
#
# Youngs Moduli (GPa) = 66.83340 55.02767 92.93410
#
# Poissons Ratio (x) = 0.22856 0.55006
# Poissons Ratio (y) = 0.27759 0.32833
# Poissons Ratio (z) = 0.39557 0.19441
#
# Static dielectric constant tensor:
#      x y z
#    x 4.982290 0.190160 -0.227070 
#    y 0.190160 3.679120 0.157170 
#    z -0.227070 0.157170 4.521050 
# 
# 
# High freq. dielectric constant tensor:
#      x y z
#    x 1.831100 0.011310 0.004870 
#    y 0.011310 1.803320 0.008990 
#    z 0.004870 0.008990 1.842160 
# 
# From -- ./inp_files/46145.got.cif
#   From: 2010.06.25/outbox.cif.g09.slc.cpg/sg2_24_cif.got.tgz:46145.got - 2010.06.27 13:26:56.
