data_PCOD8042260
_publ_section_title
;
Structure prediction by ZEFSAII (Michael W. Deem and Ramdas Pophale) SiO2 
 PCOD8042260
Probable space group: P -1
;
_chemical_formula_sum "Si O2"
_cell_formula_units_Z 16
_cell_length_a 15.892675
_cell_length_b 16.060644
_cell_length_c 9.283423
_cell_angle_alpha 152.840774
_cell_angle_beta 46.220658
_cell_angle_gamma 137.963480
_cell_volume 720.510283
_symmetry_space_group_name_H-M "P -1"
_symmetry_group_IT_number 2
_symmetry_cell_setting 'triclinic'
loop_
_space_group_symop_operation_xyz
x,y,z
-x,-y,-z
loop_
_atom_site_type_symbol
_atom_site_label
_atom_site_fract_x
_atom_site_fract_y
_atom_site_fract_z
Si Si1 0.219641 0.130092 0.440870
Si Si2 0.867668 0.664693 0.905814
Si Si3 0.743067 0.213637 0.775502
Si Si4 0.127832 0.700488 0.957905
Si Si5 0.913450 0.349379 0.532421
Si Si6 0.356009 0.442792 0.535253
Si Si7 0.440591 0.122805 0.355751
Si Si8 0.675307 0.486584 0.636026
O O1 0.258830 0.241565 0.413701
O O2 0.347381 0.178176 0.450590
O O3 0.142806 0.896143 0.148919
O O4 0.129289 0.209851 0.763105
O O5 0.855722 0.441371 0.615925
O O6 0.747832 0.647737 0.920661
O O7 0.999437 0.759109 0.805112
O O8 0.855121 0.249286 0.814733
O O9 0.801148 0.196374 0.524619
O O10 0.628762 0.005529 0.621561
O O11 0.687752 0.383241 0.098067
O O12 0.242555 0.640305 0.690019
O O13 0.993752 0.530049 0.821700
O O14 0.500000 0.500000 0.500000
O O15 0.344658 0.407900 0.322939
O O16 0.542575 0.329729 0.611625
O O17 0.500000 0.000000 0.000000
#
# Coordination Sequence:
#
# PCOD8042260 Si02
#       8
#     2   2   2   2   2   2   2   2
#     4  11  20  36  62  93 115 150 202 242 292 336
#     4  10  23  38  60  83 123 157 191 245 296 349
#     4  10  19  34  61  88 111 154 199 237 286 350
#     4   9  20  35  64  86 112 155 202 244 277 345
#     4  10  20  41  60  81 118 163 200 232 295 351
#     4  11  19  33  60  91 118 148 195 244 280 353
#     4  11  18  36  61  88 119 150 193 243 294 346
#     4  10  20  38  60  87 122 159 185 234 308 353
#
# _framework density 22.206484
#
# number of rings (size 3 to 8) (size 9 to 14) (size 15 to 20)
#    0.000    1.750    6.250    0.375    0.000    1.000 
#    0.000    3.125   16.500    0.000    0.000    0.000 
#    0.000    0.000    0.000    0.000    0.000    0.000 
#
# Total GULP energy -198361.581253 kJ/mol
# GULP energy per Si atom -12397.598828 kJ/mol
# Density = 2.215594 g / cm^3
# Si number density = 22.206484 Si / 1000 Ang^3
#
#
#
# Elastic Constant Matrix: (Units=GPa)
#
#
# Indices 1 2 3 4 5 6 
#
# 1 82.7500 30.3874 2.4304 -2.8413 -12.1871 -6.0700
# 2 30.3874 170.1784 25.6036 -9.9505 -6.3133 -18.2360
# 3 2.4304 25.6036 38.7407 0.5950 -6.5098 -2.8597
# 4 -2.8413 -9.9505 0.5950 27.4391 -6.5400 -5.7540
# 5 -12.1871 -6.3133 -6.5098 -6.5400 21.8767 0.6513
# 6 -6.0700 -18.2360 -2.8597 -5.7540 0.6513 28.4335
#
#
#
# Elastic Compliance Matrix: (Units=1/GPa)
#
#
# Indices 1 2 3 4 5 6 
#
# 1 0.014408 -0.002107 0.002123 0.003325 0.008972 0.002405
# 2 -0.002107 0.007701 -0.004544 0.003846 0.000703 0.004794
# 3 0.002123 -0.004544 0.030203 0.000117 0.008882 0.000397
# 4 0.003325 0.003846 0.000117 0.044458 0.015936 0.011820
# 5 0.008972 0.000703 0.008882 0.015936 0.058166 0.005152
# 6 0.002405 0.004794 0.000397 0.011820 0.005152 0.041072
#
#
# Mechanical properties :
#
#
# Convention : Reuss Voigt Hill
#
# Bulk Modulus (GPa) = 23.11896 45.39022 34.25459
# Shear Modulus (GPa) = 22.78092 31.09970 26.94031
#
# Velocity S-wave (km/s) = 3.20639 3.74636 3.48684
# Velocity P-wave (km/s) = 4.91339 6.26083 5.62759
#
# Compressibility (1/GPa) = 0.04325454
#
# Stress axis : x y z
#
# Youngs Moduli (GPa) = 69.40579 129.85582 33.10960
#
# Poissons Ratio (x) = 0.27362 -0.07029
# Poissons Ratio (y) = 0.14625 0.15046
# Poissons Ratio (z) = -0.14734 0.59010
#
# Static dielectric constant tensor:
#      x y z
#    x 4.455750 -0.124480 -0.060330 
#    y -0.124480 4.157830 -0.146700 
#    z -0.060330 -0.146700 3.821130 
# 
# 
# High freq. dielectric constant tensor:
#      x y z
#    x 1.875180 -0.002100 -0.018370 
#    y -0.002100 1.874980 -0.011270 
#    z -0.018370 -0.011270 1.849100 
# 
# From -- ./inp_files/299571.got.cif
#   From: 2010.06.25/outbox.cif.g09.slc.cpg/sg2_150_cif.got.tgz:299571.got - 2010.06.27 13:26:56.
