data_PCOD8042907
_publ_section_title
;
Structure prediction by ZEFSAII (Michael W. Deem and Ramdas Pophale) SiO2 
 PCOD8042907
Probable space group: P -1
;
_chemical_formula_sum "Si O2"
_cell_formula_units_Z 16
_cell_length_a 15.923872
_cell_length_b 14.482930
_cell_length_c 9.651608
_cell_angle_alpha 125.225185
_cell_angle_beta 36.180180
_cell_angle_gamma 142.362798
_cell_volume 790.298162
_symmetry_space_group_name_H-M "P -1"
_symmetry_group_IT_number 2
_symmetry_cell_setting 'triclinic'
loop_
_space_group_symop_operation_xyz
x,y,z
-x,-y,-z
loop_
_atom_site_type_symbol
_atom_site_label
_atom_site_fract_x
_atom_site_fract_y
_atom_site_fract_z
Si Si1 0.231658 0.786523 0.583111
Si Si2 0.454394 0.154932 0.206351
Si Si3 0.789597 0.863360 0.716596
Si Si4 0.798509 0.192925 0.675411
Si Si5 0.441066 0.706363 0.536776
Si Si6 0.635845 0.907831 0.211869
Si Si7 0.092943 0.653759 0.925186
Si Si8 0.862053 0.648297 0.433302
O O1 0.154240 0.760175 0.508455
O O2 0.427353 0.818777 0.342743
O O3 0.070943 0.640809 0.774190
O O4 0.262169 0.921961 0.735272
O O5 0.371130 0.173693 0.202154
O O6 0.485444 0.267159 0.380920
O O7 0.303779 0.982414 0.316778
O O8 0.660630 0.214253 0.941279
O O9 0.760025 0.713600 0.640109
O O10 0.771063 0.912766 0.931663
O O11 0.000000 0.000000 0.500000
O O12 0.007002 0.309300 0.571121
O O13 0.617471 0.816593 0.291454
O O14 0.323694 0.764368 0.738959
O O15 0.310473 0.533315 0.509564
O O16 0.000000 0.500000 0.000000
O O17 0.003688 0.718781 0.169740
#
# Coordination Sequence:
#
# PCOD8042907 Si02
#       8
#     2   2   2   2   2   2   2   2
#     4  10  19  35  64  94 119 159 213 257 303 367
#     4  11  22  38  64  93 129 160 216 261 308 375
#     4  12  24  40  60  94 128 164 207 266 319 369
#     4  11  21  37  64 101 120 162 217 262 303 372
#     4  10  21  41  64  89 124 171 206 258 313 376
#     4  10  21  37  61  93 124 161 207 260 316 368
#     4   9  19  37  61  92 124 163 199 255 312 363
#     4  11  23  40  64  90 131 167 204 255 327 373
#
# _framework density 20.245524
#
# number of rings (size 3 to 8) (size 9 to 14) (size 15 to 20)
#    0.000    1.500    5.000    0.750    0.000    1.000 
#    0.000   11.875    0.000    0.000    0.000    0.000 
#    0.000    0.000    0.000    0.000    0.000    0.000 
#
# Total GULP energy -198316.938747 kJ/mol
# GULP energy per Si atom -12394.808672 kJ/mol
# Density = 2.019944 g / cm^3
# Si number density = 20.245524 Si / 1000 Ang^3
#
#
#
# Elastic Constant Matrix: (Units=GPa)
#
#
# Indices 1 2 3 4 5 6 
#
# 1 109.1331 36.1423 43.2585 4.8422 27.9962 -0.0282
# 2 36.1423 89.1765 39.9467 6.7437 6.9411 -1.0214
# 3 43.2585 39.9467 126.7696 12.0580 29.3060 -10.4407
# 4 4.8422 6.7437 12.0580 28.3722 -4.2609 2.4213
# 5 27.9962 6.9411 29.3060 -4.2609 38.6508 3.0186
# 6 -0.0282 -1.0214 -10.4407 2.4213 3.0186 27.2603
#
#
#
# Elastic Compliance Matrix: (Units=1/GPa)
#
#
# Indices 1 2 3 4 5 6 
#
# 1 0.013133 -0.004043 -0.001046 -0.002126 -0.008272 0.000566
# 2 -0.004043 0.014404 -0.004036 -0.000382 0.003466 -0.001360
# 3 -0.001046 -0.004036 0.012814 -0.006265 -0.009420 0.006355
# 4 -0.002126 -0.000382 -0.006265 0.040699 0.011416 -0.007295
# 5 -0.008272 0.003466 -0.009420 0.011416 0.040344 -0.008968
# 6 0.000566 -0.001360 0.006355 -0.007295 -0.008968 0.040708
#
#
# Mechanical properties :
#
#
# Convention : Reuss Voigt Hill
#
# Bulk Modulus (GPa) = 45.24827 62.64159 53.94493
# Shear Modulus (GPa) = 26.63536 32.57211 29.60373
#
# Velocity S-wave (km/s) = 3.63108 4.01540 3.82807
# Velocity P-wave (km/s) = 6.32281 7.24611 6.80015
#
# Compressibility (1/GPa) = 0.02210029
#
# Stress axis : x y z
#
# Youngs Moduli (GPa) = 76.14172 69.42605 78.03727
#
# Poissons Ratio (x) = 0.28069 0.08166
# Poissons Ratio (y) = 0.30784 0.31498
# Poissons Ratio (z) = 0.07968 0.28022
#
# Static dielectric constant tensor:
#      x y z
#    x 4.641410 -0.628130 -0.323860 
#    y -0.628130 3.812090 0.380380 
#    z -0.323860 0.380380 4.311660 
# 
# 
# High freq. dielectric constant tensor:
#      x y z
#    x 1.781320 -0.003670 0.023070 
#    y -0.003670 1.777490 0.003950 
#    z 0.023070 0.003950 1.792540 
# 
# From -- ./inp_files/313795.got.cif
#   From: 2010.06.25/outbox.cif.g09.slc.cpg/sg2_157_cif.got.tgz:313795.got - 2010.06.27 13:26:56.
