data_PCOD8042657
_publ_section_title
;
Structure prediction by ZEFSAII (Michael W. Deem and Ramdas Pophale) SiO2 
 PCOD8042657
Probable space group: P -1
;
_chemical_formula_sum "Si O2"
_cell_formula_units_Z 14
_cell_length_a 15.337875
_cell_length_b 11.636415
_cell_length_c 7.431804
_cell_angle_alpha 96.137823
_cell_angle_beta 48.196518
_cell_angle_gamma 131.210193
_cell_volume 599.244478
_symmetry_space_group_name_H-M "P -1"
_symmetry_group_IT_number 2
_symmetry_cell_setting 'triclinic'
loop_
_space_group_symop_operation_xyz
x,y,z
-x,-y,-z
loop_
_atom_site_type_symbol
_atom_site_label
_atom_site_fract_x
_atom_site_fract_y
_atom_site_fract_z
Si Si1 0.242495 0.615106 0.066235
Si Si2 0.969015 0.327028 0.700220
Si Si3 0.673249 0.873191 0.486188
Si Si4 0.057955 0.174948 0.414097
Si Si5 0.346937 0.318906 0.804782
Si Si6 0.954632 0.699273 0.011843
Si Si7 0.684889 0.637816 0.588150
O O1 0.159065 0.519062 0.362526
O O2 0.204807 0.720304 0.094013
O O3 0.470317 0.776490 0.773424
O O4 0.137821 0.458679 0.031323
O O5 0.902250 0.153130 0.661697
O O6 0.008935 0.342580 0.859520
O O7 0.700422 0.843366 0.239310
O O8 0.689429 0.781484 0.592734
O O9 0.844551 0.098017 0.315244
O O10 0.224424 0.340240 0.353156
O O11 0.155977 0.248538 0.093119
O O12 0.000000 0.000000 0.500000
O O13 0.500000 0.500000 0.500000
O O14 0.469792 0.411817 0.838937
O O15 0.810946 0.693416 0.251367
#
# Coordination Sequence:
#
# PCOD8042657 Si02
#       7
#     2   2   2   2   2   2   2
#     4  11  24  46  69  89 137 177 213 270 317 394
#     4  10  24  44  66  96 129 178 221 258 329 387
#     4  11  23  40  66 100 125 169 218 266 331 385
#     4  11  23  38  64  96 129 165 213 272 321 384
#     4  10  19  35  59  89 124 163 205 257 320 378
#     4  11  23  42  67  97 130 170 220 271 324 380
#     4  10  21  37  62  96 130 167 212 264 330 385
#
# _framework density 23.362749999999998
#
# number of rings (size 3 to 8) (size 9 to 14) (size 15 to 20)
#    0.000    1.429    1.429    4.714    4.000    1.714 
#    0.000    2.857    3.143    0.000    0.000    0.000 
#    0.000    0.000    0.000    0.000    0.000    0.000 
#
# Total GULP energy -173454.442455 kJ/mol
# GULP energy per Si atom -12389.603032 kJ/mol
# Density = 2.330958 g / cm^3
# Si number density = 23.362750 Si / 1000 Ang^3
#
#
#
# Elastic Constant Matrix: (Units=GPa)
#
#
# Indices 1 2 3 4 5 6 
#
# 1 70.9840 22.7747 36.9841 6.6167 -14.0718 -23.8785
# 2 22.7747 87.0505 44.9431 5.4057 -23.3250 -24.8332
# 3 36.9841 44.9431 132.4740 12.1044 -19.7623 -15.2662
# 4 6.6167 5.4057 12.1044 35.3930 -4.8208 -9.0639
# 5 -14.0718 -23.3250 -19.7623 -4.8208 43.2718 10.4838
# 6 -23.8785 -24.8332 -15.2662 -9.0639 10.4838 37.2169
#
#
#
# Elastic Compliance Matrix: (Units=1/GPa)
#
#
# Indices 1 2 3 4 5 6 
#
# 1 0.020294 0.000723 -0.004332 0.000781 0.002373 0.011248
# 2 0.000723 0.017639 -0.004440 0.001834 0.005676 0.009260
# 3 -0.004332 -0.004440 0.010401 -0.002524 0.001259 -0.002445
# 4 0.000781 0.001834 -0.002524 0.030901 0.001655 0.007749
# 5 0.002373 0.005676 0.001259 0.001655 0.028110 -0.001689
# 6 0.011248 0.009260 -0.002445 0.007749 -0.001689 0.041625
#
#
# Mechanical properties :
#
#
# Convention : Reuss Voigt Hill
#
# Bulk Modulus (GPa) = 31.02022 55.54582 43.28302
# Shear Modulus (GPa) = 28.43904 35.56345 32.00124
#
# Velocity S-wave (km/s) = 3.49274 3.90581 3.70504
# Velocity P-wave (km/s) = 5.43802 6.64586 6.07205
#
# Compressibility (1/GPa) = 0.03223704
#
# Stress axis : x y z
#
# Youngs Moduli (GPa) = 49.27509 56.69097 96.14356
#
# Poissons Ratio (x) = -0.04100 0.41652
# Poissons Ratio (y) = -0.03564 0.42686
# Poissons Ratio (z) = 0.21347 0.25170
#
# Static dielectric constant tensor:
#      x y z
#    x 6.479450 2.454330 -0.620310 
#    y 2.454330 7.055860 -0.348630 
#    z -0.620310 -0.348630 3.702860 
# 
# 
# High freq. dielectric constant tensor:
#      x y z
#    x 1.937740 0.011590 0.007160 
#    y 0.011590 1.911190 0.019670 
#    z 0.007160 0.019670 1.932730 
# 
# From -- ./inp_files/333323.got.cif
#   From: 2010.06.25/outbox.cif.g09.slc.cpg/sg2_167_cif.got.tgz:333323.got - 2010.06.27 13:26:56.
