data_PCOD8042178
_publ_section_title
;
Structure prediction by ZEFSAII (Michael W. Deem and Ramdas Pophale) SiO2 
 PCOD8042178
Probable space group: P -1
;
_chemical_formula_sum "Si O2"
_cell_formula_units_Z 14
_cell_length_a 12.514772
_cell_length_b 11.151704
_cell_length_c 11.704399
_cell_angle_alpha 147.674973
_cell_angle_beta 51.427003
_cell_angle_gamma 129.124270
_cell_volume 661.361659
_symmetry_space_group_name_H-M "P -1"
_symmetry_group_IT_number 2
_symmetry_cell_setting 'triclinic'
loop_
_space_group_symop_operation_xyz
x,y,z
-x,-y,-z
loop_
_atom_site_type_symbol
_atom_site_label
_atom_site_fract_x
_atom_site_fract_y
_atom_site_fract_z
Si Si1 0.939468 0.847027 0.582324
Si Si2 0.771787 0.168979 0.873794
Si Si3 0.923162 0.926522 0.110663
Si Si4 0.175630 0.600645 0.193990
Si Si5 0.581275 0.773905 0.550423
Si Si6 0.297723 0.569959 0.668981
Si Si7 0.651194 0.028071 0.479629
O O1 0.818274 0.608793 0.470432
O O2 0.083843 0.790957 0.404796
O O3 0.901266 0.041703 0.682547
O O4 0.960047 0.941524 0.772932
O O5 0.787882 0.393528 0.960765
O O6 0.632033 0.982398 0.774860
O O7 0.765114 0.245541 0.071012
O O8 0.770891 0.988917 0.278795
O O9 0.901447 0.651438 0.915906
O O10 0.000000 0.000000 0.000000
O O11 0.304511 0.714263 0.285532
O O12 0.411149 0.707171 0.612625
O O13 0.632400 0.551820 0.376840
O O14 0.635978 0.838179 0.437478
O O15 0.500000 0.000000 0.500000
#
# Coordination Sequence:
#
# PCOD8042178 Si02
#       7
#     2   2   2   2   2   2   2
#     4  10  22  36  58  90 117 153 196 239 294 354
#     4  10  19  35  60  89 118 152 192 236 298 358
#     4  11  25  43  61  85 117 158 205 245 291 350
#     4  10  22  40  60  85 121 154 190 247 297 345
#     4   9  20  36  55  87 121 152 194 239 292 351
#     4  10  19  34  59  86 121 156 186 239 294 349
#     4  10  23  41  62  86 116 155 201 247 291 345
#
# _framework density 21.168447
#
# number of rings (size 3 to 8) (size 9 to 14) (size 15 to 20)
#    0.000    2.000    0.000    2.571    0.000   10.857 
#    0.000    2.857    0.000    0.000    0.000    0.000 
#    0.000    0.000    0.000    0.000    0.000    0.000 
#
# Total GULP energy -173500.694792 kJ/mol
# GULP energy per Si atom -12392.906771 kJ/mol
# Density = 2.112027 g / cm^3
# Si number density = 21.168447 Si / 1000 Ang^3
#
#
#
# Elastic Constant Matrix: (Units=GPa)
#
#
# Indices 1 2 3 4 5 6 
#
# 1 117.5760 41.1088 41.9880 3.0515 16.5840 22.4799
# 2 41.1088 110.4834 39.7549 -5.9550 7.6653 4.4113
# 3 41.9880 39.7549 88.7782 -0.6213 9.3941 3.9312
# 4 3.0515 -5.9550 -0.6213 33.0009 0.7614 1.9129
# 5 16.5840 7.6653 9.3941 0.7614 29.9600 3.9750
# 6 22.4799 4.4113 3.9312 1.9129 3.9750 23.5988
#
#
#
# Elastic Compliance Matrix: (Units=1/GPa)
#
#
# Indices 1 2 3 4 5 6 
#
# 1 0.013781 -0.002919 -0.004301 -0.001146 -0.004032 -0.011094
# 2 -0.002919 0.011611 -0.003814 0.002236 -0.000365 0.001126
# 3 -0.004301 -0.003814 0.015071 -0.000118 -0.001711 0.002597
# 4 -0.001146 0.002236 -0.000118 0.030921 -0.000456 -0.001736
# 5 -0.004032 -0.000365 -0.001711 -0.000456 0.036506 -0.001918
# 6 -0.011094 0.001126 0.002597 -0.001736 -0.001918 0.052764
#
#
# Mechanical properties :
#
#
# Convention : Reuss Voigt Hill
#
# Bulk Modulus (GPa) = 54.36336 62.50454 58.43395
# Shear Modulus (GPa) = 26.47564 30.24432 28.35998
#
# Velocity S-wave (km/s) = 3.54038 3.78398 3.66420
# Velocity P-wave (km/s) = 6.51532 6.97729 6.75026
#
# Compressibility (1/GPa) = 0.01839474
#
# Stress axis : x y z
#
# Youngs Moduli (GPa) = 72.56281 86.12755 66.35145
#
# Poissons Ratio (x) = 0.25143 0.28536
# Poissons Ratio (y) = 0.21183 0.25308
# Poissons Ratio (z) = 0.31207 0.32851
#
# Static dielectric constant tensor:
#      x y z
#    x 3.886760 0.164800 0.102960 
#    y 0.164800 3.741220 0.031400 
#    z 0.102960 0.031400 3.797100 
# 
# 
# High freq. dielectric constant tensor:
#      x y z
#    x 1.822210 0.012300 0.006930 
#    y 0.012300 1.826730 0.005320 
#    z 0.006930 0.005320 1.830950 
# 
# From -- ./inp_files/66537.got.cif
#   From: 2010.06.25/outbox.cif.g09.slc.cpg/sg2_34_cif.got.tgz:66537.got - 2010.06.27 13:26:56.
