data_PCOD8042573
_publ_section_title
;
Structure prediction by ZEFSAII (Michael W. Deem and Ramdas Pophale) SiO2 
 PCOD8042573
Probable space group: P -1
;
_chemical_formula_sum "Si O2"
_cell_formula_units_Z 16
_cell_length_a 11.788615
_cell_length_b 11.872904
_cell_length_c 12.069572
_cell_angle_alpha 52.324552
_cell_angle_beta 98.269669
_cell_angle_gamma 56.412565
_cell_volume 760.114372
_symmetry_space_group_name_H-M "P -1"
_symmetry_group_IT_number 2
_symmetry_cell_setting 'triclinic'
loop_
_space_group_symop_operation_xyz
x,y,z
-x,-y,-z
loop_
_atom_site_type_symbol
_atom_site_label
_atom_site_fract_x
_atom_site_fract_y
_atom_site_fract_z
Si Si1 0.423195 0.004572 0.340281
Si Si2 0.518198 0.613341 0.667722
Si Si3 0.171096 0.801620 0.429607
Si Si4 0.207680 0.838026 0.173302
Si Si5 0.788081 0.784899 0.585256
Si Si6 0.096177 0.251422 0.990486
Si Si7 0.946377 0.220224 0.378446
Si Si8 0.178517 0.647326 0.952360
O O1 0.544054 0.733271 0.532056
O O2 0.591886 0.955845 0.378962
O O3 0.282585 0.173583 0.324539
O O4 0.282096 0.150086 0.126530
O O5 0.285280 0.807004 0.516597
O O6 0.626035 0.373076 0.765142
O O7 0.604661 0.550116 0.841938
O O8 0.262912 0.699800 0.380074
O O9 0.170157 0.658345 0.590972
O O10 0.942225 0.083114 0.213196
O O11 0.192182 0.024132 0.071380
O O12 0.000000 0.000000 0.000000
O O13 0.967578 0.493222 0.753981
O O14 0.861395 0.872297 0.528808
O O15 0.949838 0.342597 0.010505
O O16 0.804819 0.412656 0.139590
O O17 0.000000 0.000000 0.500000
#
# Coordination Sequence:
#
# PCOD8042573 Si02
#       8
#     2   2   2   2   2   2   2   2
#     4  11  21  33  58  92 115 151 196 238 295 340
#     4  12  20  36  61  94 114 149 199 246 287 331
#     4  10  21  36  55  86 119 152 190 233 292 346
#     4  11  20  36  64  89 114 150 196 252 287 327
#     4  11  22  36  58  84 123 151 190 241 292 350
#     4  11  20  36  56  89 119 149 191 245 292 334
#     4  10  21  39  58  81 122 160 185 233 294 358
#     4  10  19  35  58  87 120 149 190 240 291 340
#
# _framework density 21.049465999999999
#
# number of rings (size 3 to 8) (size 9 to 14) (size 15 to 20)
#    0.000    1.250    7.500    1.500    0.000    0.500 
#    0.000    2.500    0.000    3.750    0.000    0.000 
#    0.000    0.000    0.000    0.000    0.000    0.000 
#
# Total GULP energy -198209.404640 kJ/mol
# GULP energy per Si atom -12388.087790 kJ/mol
# Density = 2.100156 g / cm^3
# Si number density = 21.049466 Si / 1000 Ang^3
#
#
#
# Elastic Constant Matrix: (Units=GPa)
#
#
# Indices 1 2 3 4 5 6 
#
# 1 116.1398 26.9567 39.5566 15.1902 14.2523 16.8474
# 2 26.9567 59.7291 16.4688 -6.6108 -6.1599 14.7109
# 3 39.5566 16.4688 74.9291 12.1535 19.6392 8.4799
# 4 15.1902 -6.6108 12.1535 35.4707 13.7915 -3.5737
# 5 14.2523 -6.1599 19.6392 13.7915 36.8495 8.6083
# 6 16.8474 14.7109 8.4799 -3.5737 8.6083 22.0257
#
#
#
# Elastic Compliance Matrix: (Units=1/GPa)
#
#
# Indices 1 2 3 4 5 6 
#
# 1 0.012476 -0.003309 -0.004368 -0.005342 0.000519 -0.006721
# 2 -0.003309 0.025073 -0.005186 0.001786 0.011393 -0.016382
# 3 -0.004368 -0.005186 0.019227 -0.001734 -0.009432 0.002807
# 4 -0.005342 0.001786 -0.001734 0.038772 -0.014882 0.015667
# 5 0.000519 0.011393 -0.009432 -0.014882 0.045146 -0.024434
# 6 -0.006721 -0.016382 0.002807 0.015667 -0.024434 0.072494
#
#
# Mechanical properties :
#
#
# Convention : Reuss Voigt Hill
#
# Bulk Modulus (GPa) = 32.20551 46.30690 39.25620
# Shear Modulus (GPa) = 20.05906 30.05691 25.05799
#
# Velocity S-wave (km/s) = 3.09034 3.78288 3.45401
# Velocity P-wave (km/s) = 5.29780 6.41304 5.88191
#
# Compressibility (1/GPa) = 0.03105059
#
# Stress axis : x y z
#
# Youngs Moduli (GPa) = 80.15462 39.88376 52.00904
#
# Poissons Ratio (x) = 0.13196 0.22718
# Poissons Ratio (y) = 0.26520 0.26973
# Poissons Ratio (z) = 0.35012 0.20684
#
# Static dielectric constant tensor:
#      x y z
#    x 3.866260 0.448810 -0.071930 
#    y 0.448810 1.915690 0.744340 
#    z -0.071930 0.744340 3.988130 
# 
# 
# High freq. dielectric constant tensor:
#      x y z
#    x 1.809590 0.024040 0.024700 
#    y 0.024040 1.788120 -0.002090 
#    z 0.024700 -0.002090 1.827440 
# 
# From -- ./inp_files/427590.got.cif
#   From: 2010.06.25/outbox.cif.g09.slc.cpg/sg2_214_cif.got.tgz:427590.got - 2010.06.27 13:26:56.
