data_PCOD8042309
_publ_section_title
;
Structure prediction by ZEFSAII (Michael W. Deem and Ramdas Pophale) SiO2 
 PCOD8042309
Probable space group: P -1
;
_chemical_formula_sum "Si O2"
_cell_formula_units_Z 16
_cell_length_a 11.042494
_cell_length_b 7.397735
_cell_length_c 14.960794
_cell_angle_alpha 120.903278
_cell_angle_beta 68.278342
_cell_angle_gamma 67.177265
_cell_volume 670.891433
_symmetry_space_group_name_H-M "P -1"
_symmetry_group_IT_number 2
_symmetry_cell_setting 'triclinic'
loop_
_space_group_symop_operation_xyz
x,y,z
-x,-y,-z
loop_
_atom_site_type_symbol
_atom_site_label
_atom_site_fract_x
_atom_site_fract_y
_atom_site_fract_z
Si Si1 0.219106 0.525057 0.103265
Si Si2 0.883251 0.748212 0.171923
Si Si3 0.221195 0.651515 0.689747
Si Si4 0.620981 0.934004 0.813614
Si Si5 0.197810 0.922451 0.084970
Si Si6 0.488310 0.131945 0.339568
Si Si7 0.569916 0.386099 0.233658
Si Si8 0.204731 0.702830 0.336437
O O1 0.224943 0.648591 0.039827
O O2 0.204375 0.716314 0.233230
O O3 0.033414 0.588234 0.172564
O O4 0.408329 0.164983 0.971100
O O5 0.820753 0.059699 0.249506
O O6 0.685718 0.850693 0.268114
O O7 0.000000 0.500000 0.000000
O O8 0.333844 0.407978 0.517638
O O9 0.346578 0.507528 0.710268
O O10 0.024222 0.761267 0.787245
O O11 0.602266 0.957576 0.714774
O O12 0.746722 0.592594 0.724756
O O13 0.715705 0.034474 0.849573
O O14 0.296080 0.839913 0.941896
O O15 0.549659 0.217641 0.265138
O O16 0.359660 0.683947 0.329340
O O17 0.000000 0.000000 0.500000
#
# Coordination Sequence:
#
# PCOD8042309 Si02
#       8
#     2   2   2   2   2   2   2   2
#     4  11  23  41  64  98 134 165 220 263 326 386
#     4  10  19  34  62  95 121 162 212 266 307 376
#     4  10  23  40  63  95 131 171 213 265 326 376
#     4  11  23  42  66  93 132 171 219 262 320 393
#     4  11  24  40  68  99 129 176 210 267 323 389
#     4  10  22  39  65  97 125 169 218 267 317 374
#     4  10  21  40  67  89 129 164 220 259 322 376
#     4  11  26  40  66  99 125 167 217 278 324 371
#
# _framework density 23.848866000000001
#
# number of rings (size 3 to 8) (size 9 to 14) (size 15 to 20)
#    0.000    1.500    2.500    2.625   10.500    0.500 
#    0.000    0.000    0.000    1.500    0.000    0.000 
#    0.000    0.000    0.000    0.000    0.000    0.000 
#
# Total GULP energy -198234.493234 kJ/mol
# GULP energy per Si atom -12389.655827 kJ/mol
# Density = 2.379459 g / cm^3
# Si number density = 23.848866 Si / 1000 Ang^3
#
#
#
# Elastic Constant Matrix: (Units=GPa)
#
#
# Indices 1 2 3 4 5 6 
#
# 1 157.7037 30.9660 74.7472 -4.3318 0.8437 -64.5654
# 2 30.9660 40.3085 36.7576 5.9423 -9.7116 -16.9100
# 3 74.7472 36.7576 216.7094 16.1033 -4.4864 -31.6116
# 4 -4.3318 5.9423 16.1033 26.5202 -10.6528 -4.1617
# 5 0.8437 -9.7116 -4.4864 -10.6528 43.9540 3.3272
# 6 -64.5654 -16.9100 -31.6116 -4.1617 3.3272 46.7999
#
#
#
# Elastic Compliance Matrix: (Units=1/GPa)
#
#
# Indices 1 2 3 4 5 6 
#
# 1 0.017579 -0.003035 -0.002993 0.008440 -0.000930 0.021951
# 2 -0.003035 0.034608 -0.003753 -0.002642 0.006295 0.005101
# 3 -0.002993 -0.003753 0.006353 -0.004148 -0.001016 -0.001490
# 4 0.008440 -0.002642 -0.004148 0.047833 0.009556 0.011462
# 5 -0.000930 0.006295 -0.001016 0.009556 0.026427 -0.000723
# 6 0.021951 0.005101 -0.001490 0.011462 -0.000723 0.053558
#
#
# Mechanical properties :
#
#
# Convention : Reuss Voigt Hill
#
# Bulk Modulus (GPa) = 25.65462 77.74034 51.69748
# Shear Modulus (GPa) = 22.84013 41.60487 32.22250
#
# Velocity S-wave (km/s) = 3.09804 4.18128 3.67974
# Velocity P-wave (km/s) = 4.85568 7.48189 6.30699
#
# Compressibility (1/GPa) = 0.03897933
#
# Stress axis : x y z
#
# Youngs Moduli (GPa) = 56.88560 28.89481 157.40346
#
# Poissons Ratio (x) = 0.08769 0.47112
# Poissons Ratio (y) = 0.17264 0.59068
# Poissons Ratio (z) = 0.17026 0.10843
#
# Static dielectric constant tensor:
#      x y z
#    x 5.669080 -0.955320 0.044340 
#    y -0.955320 4.219750 0.116330 
#    z 0.044340 0.116330 4.284270 
# 
# 
# High freq. dielectric constant tensor:
#      x y z
#    x 1.967880 -0.038250 0.001460 
#    y -0.038250 1.917750 0.012390 
#    z 0.001460 0.012390 1.941490 
# 
# From -- ./inp_files/516095.got.cif
#   From: 2010.06.25/outbox.cif.g09.slc.cpg/sg2_259_cif.got.tgz:516095.got - 2010.06.27 13:26:56.
