data_PCOD8042741
_publ_section_title
;
Structure prediction by ZEFSAII (Michael W. Deem and Ramdas Pophale) SiO2 
 PCOD8042741
Probable space group: P -1
;
_chemical_formula_sum "Si O2"
_cell_formula_units_Z 16
_cell_length_a 10.939664
_cell_length_b 12.038977
_cell_length_c 9.532040
_cell_angle_alpha 68.871739
_cell_angle_beta 41.262527
_cell_angle_gamma 48.173537
_cell_volume 591.082623
_symmetry_space_group_name_H-M "P -1"
_symmetry_group_IT_number 2
_symmetry_cell_setting 'triclinic'
loop_
_space_group_symop_operation_xyz
x,y,z
-x,-y,-z
loop_
_atom_site_type_symbol
_atom_site_label
_atom_site_fract_x
_atom_site_fract_y
_atom_site_fract_z
Si Si1 0.668631 0.032231 0.263208
Si Si2 0.085285 0.151944 0.622120
Si Si3 0.743749 0.437620 0.393211
Si Si4 0.173348 0.816805 0.420163
Si Si5 0.180537 0.547527 0.165665
Si Si6 0.262215 0.377396 0.913047
Si Si7 0.502050 0.634928 0.774549
Si Si8 0.567814 0.942635 0.127087
O O1 0.582491 0.201574 0.278341
O O2 0.700520 0.987830 0.089593
O O3 0.500000 0.000000 0.500000
O O4 0.911105 0.924746 0.199514
O O5 0.311386 0.024795 0.386797
O O6 0.843354 0.218223 0.712569
O O7 0.063125 0.303305 0.612280
O O8 0.500000 0.500000 0.500000
O O9 0.914562 0.251186 0.363350
O O10 0.857261 0.493062 0.169420
O O11 0.697100 0.511287 0.550890
O O12 0.452029 0.721850 0.259733
O O13 0.000000 0.000000 0.500000
O O14 0.364753 0.406422 0.173850
O O15 0.119459 0.475290 0.132300
O O16 0.290120 0.623871 0.968935
O O17 0.245589 0.245334 0.949290
O O18 0.500000 0.000000 0.000000
#
# Coordination Sequence:
#
# PCOD8042741 Si02
#       8
#     2   2   2   2   2   2   2   2
#     4  10  24  44  66  90 132 186 225 263 321 393
#     4  11  23  43  65  97 133 163 227 278 325 401
#     4  10  19  35  60  95 133 170 204 257 338 394
#     4  11  20  36  67 104 127 163 212 277 335 385
#     4  11  22  39  65 102 131 164 213 279 352 385
#     4  11  22  42  69  96 137 172 214 274 336 394
#     4  11  20  39  65  94 138 175 210 266 342 400
#     4  11  24  47  69  91 129 185 229 265 324 396
#
# _framework density 27.068974999999998
#
# number of rings (size 3 to 8) (size 9 to 14) (size 15 to 20)
#    0.000    1.250    5.000    3.000    1.750    0.500 
#    2.250    6.250    0.000    0.000    0.000    0.000 
#    0.000    0.000    0.000    0.000    0.000    0.000 
#
# Total GULP energy -198235.423615 kJ/mol
# GULP energy per Si atom -12389.713976 kJ/mol
# Density = 2.700736 g / cm^3
# Si number density = 27.068975 Si / 1000 Ang^3
#
#
#
# Elastic Constant Matrix: (Units=GPa)
#
#
# Indices 1 2 3 4 5 6 
#
# 1 99.3580 37.3805 38.9100 -4.7035 33.9332 -14.6306
# 2 37.3805 222.7793 52.9149 6.0275 16.2833 -15.1189
# 3 38.9100 52.9149 93.5355 -8.2140 30.7960 2.1522
# 4 -4.7035 6.0275 -8.2140 48.1615 10.1681 13.7284
# 5 33.9332 16.2833 30.7960 10.1681 48.1846 -4.0258
# 6 -14.6306 -15.1189 2.1522 13.7284 -4.0258 44.5659
#
#
#
# Elastic Compliance Matrix: (Units=1/GPa)
#
#
# Indices 1 2 3 4 5 6 
#
# 1 0.015076 -0.001086 -0.002695 0.002042 -0.008683 0.003298
# 2 -0.001086 0.005663 -0.003711 -0.002655 0.002012 0.002743
# 3 -0.002695 -0.003711 0.018154 0.007287 -0.010508 -0.006214
# 4 0.002042 -0.002655 0.007287 0.027997 -0.011966 -0.010287
# 5 -0.008683 0.002012 -0.010508 -0.011966 0.035870 0.005266
# 6 0.003298 0.002743 -0.006214 -0.010287 0.005266 0.028397
#
#
# Mechanical properties :
#
#
# Convention : Reuss Voigt Hill
#
# Bulk Modulus (GPa) = 41.82321 74.89819 58.36070
# Shear Modulus (GPa) = 32.44435 47.28022 39.86229
#
# Velocity S-wave (km/s) = 3.46581 4.18384 3.84163
# Velocity P-wave (km/s) = 5.61248 7.14624 6.42529
#
# Compressibility (1/GPa) = 0.02391017
#
# Stress axis : x y z
#
# Youngs Moduli (GPa) = 66.32865 176.57491 55.08467
#
# Poissons Ratio (x) = 0.19184 0.14843
# Poissons Ratio (y) = 0.07206 0.20440
# Poissons Ratio (z) = 0.17873 0.65521
#
# Static dielectric constant tensor:
#      x y z
#    x 5.903080 -0.033100 0.584760 
#    y -0.033100 7.543800 0.168740 
#    z 0.584760 0.168740 5.400620 
# 
# 
# High freq. dielectric constant tensor:
#      x y z
#    x 2.111240 -0.014950 0.018630 
#    y -0.014950 2.112150 0.006260 
#    z 0.018630 0.006260 2.077240 
# 
# From -- ./inp_files/257956.got.cif
#   From: 2010.06.25/outbox.cif.g09.slc.cpg/sg2_129_cif.got.tgz:257956.got - 2010.06.27 13:26:56.
