data_PCOD8042736
_publ_section_title
;
Structure prediction by ZEFSAII (Michael W. Deem and Ramdas Pophale) SiO2 
 PCOD8042736
Probable space group: P -1
;
_chemical_formula_sum "Si O2"
_cell_formula_units_Z 14
_cell_length_a 16.764255
_cell_length_b 10.022143
_cell_length_c 8.717358
_cell_angle_alpha 149.506157
_cell_angle_beta 125.181522
_cell_angle_gamma 60.835457
_cell_volume 607.311304
_symmetry_space_group_name_H-M "P -1"
_symmetry_group_IT_number 2
_symmetry_cell_setting 'triclinic'
loop_
_space_group_symop_operation_xyz
x,y,z
-x,-y,-z
loop_
_atom_site_type_symbol
_atom_site_label
_atom_site_fract_x
_atom_site_fract_y
_atom_site_fract_z
Si Si1 0.752911 0.517911 0.224662
Si Si2 0.969396 0.976286 0.268052
Si Si3 0.459763 0.961448 0.085320
Si Si4 0.158020 0.532082 0.407677
Si Si5 0.432329 0.545458 0.223787
Si Si6 0.708152 0.269591 0.491317
Si Si7 0.174367 0.961732 0.342110
O O1 0.766913 0.522823 0.426712
O O2 0.775102 0.804810 0.465286
O O3 0.640834 0.433837 0.980649
O O4 0.824204 0.308799 0.019350
O O5 0.062530 0.026509 0.313078
O O6 0.888798 0.184344 0.339284
O O7 0.927737 0.684480 0.904372
O O8 0.000000 0.000000 0.500000
O O9 0.483956 0.225469 0.469987
O O10 0.514721 0.728270 0.999069
O O11 0.344540 0.895656 0.869757
O O12 0.500000 0.000000 0.000000
O O13 0.216260 0.527301 0.305766
O O14 0.370337 0.567887 0.336219
O O15 0.765969 0.069012 0.463855
#
# Coordination Sequence:
#
# PCOD8042736 Si02
#       7
#     2   2   2   2   2   2   2
#     4  11  24  43  63  94 126 168 208 248 314 371
#     4  12  26  43  66  95 127 157 212 262 313 356
#     4  10  19  35  60  93 119 156 209 257 295 361
#     4  12  27  42  65  94 130 161 206 264 307 372
#     4  10  21  37  62  87 125 160 205 253 301 368
#     4  10  22  39  65  94 121 164 210 256 310 358
#     4  11  24  42  67  87 126 170 209 254 306 373
#
# _framework density 23.052427000000002
#
# number of rings (size 3 to 8) (size 9 to 14) (size 15 to 20)
#    0.000    1.143    1.429    6.429    4.000    8.000 
#    0.000    1.429    0.000    0.000    0.000    1.000 
#    0.000    0.000    0.000    0.000    0.000    0.000 
#
# Total GULP energy -173646.738486 kJ/mol
# GULP energy per Si atom -12403.338463 kJ/mol
# Density = 2.299996 g / cm^3
# Si number density = 23.052427 Si / 1000 Ang^3
#
#
#
# Elastic Constant Matrix: (Units=GPa)
#
#
# Indices 1 2 3 4 5 6 
#
# 1 38.3169 18.5805 5.9091 3.2021 7.5727 -5.3153
# 2 18.5805 140.6578 45.1120 -5.6950 0.3450 7.2285
# 3 5.9091 45.1120 92.8250 8.9801 8.7125 -1.1159
# 4 3.2021 -5.6950 8.9801 42.8829 -4.2160 2.0142
# 5 7.5727 0.3450 8.7125 -4.2160 29.5311 -0.0314
# 6 -5.3153 7.2285 -1.1159 2.0142 -0.0314 18.7302
#
#
#
# Elastic Compliance Matrix: (Units=1/GPa)
#
#
# Indices 1 2 3 4 5 6 
#
# 1 0.032644 -0.005881 0.002347 -0.005241 -0.009730 0.012221
# 2 -0.005881 0.010015 -0.005227 0.003493 0.003425 -0.006216
# 3 0.002347 -0.005227 0.014155 -0.004549 -0.005362 0.004007
# 4 -0.005241 0.003493 -0.004549 0.026029 0.006355 -0.005895
# 5 -0.009730 0.003425 -0.005362 0.006355 0.038802 -0.005021
# 6 0.012221 -0.006216 0.004007 -0.005895 -0.005021 0.060121
#
#
# Mechanical properties :
#
#
# Convention : Reuss Voigt Hill
#
# Bulk Modulus (GPa) = 25.44984 45.66698 35.55841
# Shear Modulus (GPa) = 23.54204 31.70870 27.62537
#
# Velocity S-wave (km/s) = 3.19915 3.71280 3.46551
# Velocity P-wave (km/s) = 4.97092 6.18328 5.60994
#
# Compressibility (1/GPa) = 0.03929297
#
# Stress axis : x y z
#
# Youngs Moduli (GPa) = 30.63307 99.84808 70.64466
#
# Poissons Ratio (x) = 0.58726 -0.16583
# Poissons Ratio (y) = 0.18017 0.36926
# Poissons Ratio (z) = -0.07191 0.52190
#
# Static dielectric constant tensor:
#      x y z
#    x 4.070640 -0.291300 0.409930 
#    y -0.291300 4.463120 -0.277820 
#    z 0.409930 -0.277820 4.841580 
# 
# 
# High freq. dielectric constant tensor:
#      x y z
#    x 1.888090 -0.014030 0.015690 
#    y -0.014030 1.919190 0.000840 
#    z 0.015690 0.000840 1.919840 
# 
# From -- ./inp_files/90098.got.cif
#   From: 2010.06.25/outbox.cif.g09.slc.cpg/sg2_46_cif.got.tgz:90098.got - 2010.06.27 13:26:56.
