data_PCOD8042451
_publ_section_title
;
Structure prediction by ZEFSAII (Michael W. Deem and Ramdas Pophale) SiO2 
 PCOD8042451
Probable space group: P -1
;
_chemical_formula_sum "Si O2"
_cell_formula_units_Z 14
_cell_length_a 16.717408
_cell_length_b 7.304124
_cell_length_c 9.078299
_cell_angle_alpha 52.079527
_cell_angle_beta 137.038584
_cell_angle_gamma 118.124809
_cell_volume 595.471790
_symmetry_space_group_name_H-M "P -1"
_symmetry_group_IT_number 2
_symmetry_cell_setting 'triclinic'
loop_
_space_group_symop_operation_xyz
x,y,z
-x,-y,-z
loop_
_atom_site_type_symbol
_atom_site_label
_atom_site_fract_x
_atom_site_fract_y
_atom_site_fract_z
Si Si1 0.860488 0.748034 0.357729
Si Si2 0.243367 0.009734 0.485390
Si Si3 0.330790 0.410534 0.622770
Si Si4 0.243338 0.311689 0.069811
Si Si5 0.870233 0.222538 0.291900
Si Si6 0.491772 0.698579 0.509807
Si Si7 0.488441 0.895490 0.873947
O O1 0.786381 0.560167 0.451619
O O2 0.829206 0.725199 0.157634
O O3 0.995648 0.692233 0.593358
O O4 0.832933 0.009683 0.240065
O O5 0.302444 0.228720 0.543846
O O6 0.350118 0.834827 0.685721
O O7 0.143381 0.868490 0.512122
O O8 0.193782 0.115681 0.215451
O O9 0.385215 0.647987 0.506863
O O10 0.431666 0.326202 0.912005
O O11 0.215097 0.569758 0.963395
O O12 0.382384 0.287794 0.244329
O O13 0.500000 0.500000 0.500000
O O14 0.462296 0.935127 0.272207
O O15 0.500000 0.000000 0.000000
#
# Coordination Sequence:
#
# PCOD8042451 Si02
#       7
#     2   2   2   2   2   2   2
#     4  10  24  41  60  93 120 155 211 247 290 368
#     4   9  19  34  61  92 112 155 212 238 289 374
#     4  10  19  35  56  83 128 154 192 245 298 352
#     4  11  22  40  65  90 119 157 205 251 294 356
#     4  10  22  44  65  80 123 167 193 252 312 335
#     4  11  19  32  61  93 114 160 199 233 304 366
#     4   9  16  29  54  85 113 150 194 235 288 354
#
# _framework density 23.510770999999998
#
# number of rings (size 3 to 8) (size 9 to 14) (size 15 to 20)
#    0.000    2.000    4.286    1.286    4.000    1.143 
#    0.000   15.000    0.000    0.000    0.000    0.000 
#    0.000    0.000    0.000    0.000    0.000    0.000 
#
# Total GULP energy -173550.381619 kJ/mol
# GULP energy per Si atom -12396.455830 kJ/mol
# Density = 2.345726 g / cm^3
# Si number density = 23.510771 Si / 1000 Ang^3
#
#
#
# Elastic Constant Matrix: (Units=GPa)
#
#
# Indices 1 2 3 4 5 6 
#
# 1 133.1349 33.0841 36.3767 -21.0510 -2.0950 43.0190
# 2 33.0841 38.2263 18.8740 -3.4270 -1.3326 20.7714
# 3 36.3767 18.8740 84.2317 -13.4090 -13.0587 14.6254
# 4 -21.0510 -3.4270 -13.4090 25.2552 9.0601 -12.8865
# 5 -2.0950 -1.3326 -13.0587 9.0601 16.8858 1.7892
# 6 43.0190 20.7714 14.6254 -12.8865 1.7892 35.4403
#
#
#
# Elastic Compliance Matrix: (Units=1/GPa)
#
#
# Indices 1 2 3 4 5 6 
#
# 1 0.013513 -0.003853 -0.002568 0.004056 -0.001568 -0.011531
# 2 -0.003853 0.045272 -0.004810 -0.017452 0.011579 -0.026803
# 3 -0.002568 -0.004810 0.016139 0.001388 0.011122 -0.000782
# 4 0.004056 -0.017452 0.001388 0.074096 -0.043144 0.033853
# 5 -0.001568 0.011579 0.011122 -0.043144 0.094864 -0.029950
# 6 -0.011531 -0.026803 -0.000782 0.033853 -0.029950 0.072065
#
#
# Mechanical properties :
#
#
# Convention : Reuss Voigt Hill
#
# Bulk Modulus (GPa) = 19.06056 48.02918 33.54487
# Shear Modulus (GPa) = 14.04897 26.66682 20.35790
#
# Velocity S-wave (km/s) = 2.44715 3.37150 2.94580
# Velocity P-wave (km/s) = 4.01366 5.96900 5.08618
#
# Compressibility (1/GPa) = 0.05246436
#
# Stress axis : x y z
#
# Youngs Moduli (GPa) = 74.00506 22.08859 61.96009
#
# Poissons Ratio (x) = 0.08510 0.15909
# Poissons Ratio (y) = 0.28512 0.29801
# Poissons Ratio (z) = 0.19002 0.10624
#
# Static dielectric constant tensor:
#      x y z
#    x 4.020740 -0.303490 0.100260 
#    y -0.303490 3.501510 0.028030 
#    z 0.100260 0.028030 4.209410 
# 
# 
# High freq. dielectric constant tensor:
#      x y z
#    x 1.935410 0.009100 -0.010520 
#    y 0.009100 1.913140 -0.000570 
#    z -0.010520 -0.000570 1.920360 
# 
# From -- ./inp_files/307289.got.cif
#   From: 2010.06.25/outbox.cif.g09.slc.cpg/sg2_154_cif.got.tgz:307289.got - 2010.06.27 13:26:56.
