data_PCOD8042902
_publ_section_title
;
Structure prediction by ZEFSAII (Michael W. Deem and Ramdas Pophale) SiO2 
 PCOD8042902
Probable space group: P -1
;
_chemical_formula_sum "Si O2"
_cell_formula_units_Z 14
_cell_length_a 8.965176
_cell_length_b 9.005663
_cell_length_c 10.219010
_cell_angle_alpha 105.105085
_cell_angle_beta 106.749926
_cell_angle_gamma 111.068753
_cell_volume 673.221853
_symmetry_space_group_name_H-M "P -1"
_symmetry_group_IT_number 2
_symmetry_cell_setting 'triclinic'
loop_
_space_group_symop_operation_xyz
x,y,z
-x,-y,-z
loop_
_atom_site_type_symbol
_atom_site_label
_atom_site_fract_x
_atom_site_fract_y
_atom_site_fract_z
Si Si1 0.994310 0.372319 0.582397
Si Si2 0.449539 0.221596 0.476102
Si Si3 0.536973 0.279131 0.882996
Si Si4 0.668991 0.613261 0.709435
Si Si5 0.372080 0.508596 0.806412
Si Si6 0.868320 0.464516 0.839419
Si Si7 0.662749 0.037684 0.380224
O O1 0.191943 0.403560 0.657071
O O2 0.000000 0.500000 0.500000
O O3 0.922654 0.393158 0.710158
O O4 0.868143 0.177142 0.454228
O O5 0.594358 0.420172 0.584414
O O6 0.296892 0.236887 0.354323
O O7 0.546494 0.132470 0.401904
O O8 0.355388 0.109136 0.553231
O O9 0.409448 0.366630 0.856039
O O10 0.674773 0.321230 0.807531
O O11 0.411547 0.069485 0.799597
O O12 0.641558 0.354329 0.063009
O O13 0.529430 0.623802 0.775282
O O14 0.848391 0.637909 0.834248
O O15 0.000000 0.500000 0.000000
#
# Coordination Sequence:
#
# PCOD8042902 Si02
#       7
#     2   2   2   2   2   2   2
#     4  12  25  38  62  98 129 161 212 273 319 368
#     4  10  19  35  64  93 120 165 211 260 311 378
#     4  10  21  39  65  90 120 171 213 250 311 386
#     4  10  20  38  64  91 124 167 214 252 313 386
#     4  10  21  38  60  92 128 162 208 254 318 379
#     4  11  20  39  66  91 120 173 214 250 309 393
#     4  11  20  39  65  95 126 166 215 262 315 378
#
# _framework density 20.795521000000001
#
# number of rings (size 3 to 8) (size 9 to 14) (size 15 to 20)
#    0.000    1.429    5.714    1.714    2.000    0.571 
#    0.000    2.857    0.000    3.429    0.000    0.000 
#    0.000    0.000    0.000    0.000    0.000    0.000 
#
# Total GULP energy -173474.033013 kJ/mol
# GULP energy per Si atom -12391.002358 kJ/mol
# Density = 2.074819 g / cm^3
# Si number density = 20.795521 Si / 1000 Ang^3
#
#
#
# Elastic Constant Matrix: (Units=GPa)
#
#
# Indices 1 2 3 4 5 6 
#
# 1 62.1841 16.4695 28.8608 -2.9528 5.6542 -7.7952
# 2 16.4695 105.3503 46.1967 0.1747 12.3312 -16.2561
# 3 28.8608 46.1967 117.5825 10.0894 6.2969 -5.9760
# 4 -2.9528 0.1747 10.0894 29.0265 -9.0910 10.4187
# 5 5.6542 12.3312 6.2969 -9.0910 47.4998 -6.2365
# 6 -7.7952 -16.2561 -5.9760 10.4187 -6.2365 20.6229
#
#
#
# Elastic Compliance Matrix: (Units=1/GPa)
#
#
# Indices 1 2 3 4 5 6 
#
# 1 0.018914 -0.000216 -0.004414 0.001553 -0.000695 0.004705
# 2 -0.000216 0.013163 -0.004267 -0.002800 -0.002069 0.009847
# 3 -0.004414 -0.004267 0.011770 -0.005003 -0.000797 0.000665
# 4 0.001553 -0.002800 -0.005003 0.047522 0.007024 -0.024954
# 5 -0.000695 -0.002069 -0.000797 0.007024 0.023303 0.001374
# 6 0.004705 0.009847 0.000665 -0.024954 0.001374 0.071245
#
#
# Mechanical properties :
#
#
# Convention : Reuss Voigt Hill
#
# Bulk Modulus (GPa) = 38.38448 52.01898 45.20173
# Shear Modulus (GPa) = 23.54070 32.33583 27.93826
#
# Velocity S-wave (km/s) = 3.36818 3.94755 3.66932
# Velocity P-wave (km/s) = 5.79865 6.77100 6.30360
#
# Compressibility (1/GPa) = 0.02605220
#
# Stress axis : x y z
#
# Youngs Moduli (GPa) = 52.87052 75.96853 84.95832
#
# Poissons Ratio (x) = 0.01644 0.37504
# Poissons Ratio (y) = 0.01144 0.36252
# Poissons Ratio (z) = 0.23339 0.32416
#
# Static dielectric constant tensor:
#      x y z
#    x 3.833470 -0.216400 0.151230 
#    y -0.216400 3.789060 -0.271390 
#    z 0.151230 -0.271390 4.271140 
# 
# 
# High freq. dielectric constant tensor:
#      x y z
#    x 1.810140 -0.015040 -0.002870 
#    y -0.015040 1.789100 -0.019040 
#    z -0.002870 -0.019040 1.816430 
# 
# From -- ./inp_files/382985.got.cif
#   From: 2010.06.25/outbox.cif.g09.slc.cpg/sg2_192_cif.got.tgz:382985.got - 2010.06.27 13:26:56.
