data_PCOD8042832
_publ_section_title
;
Structure prediction by ZEFSAII (Michael W. Deem and Ramdas Pophale) SiO2 
 PCOD8042832
Probable space group: P -1
;
_chemical_formula_sum "Si O2"
_cell_formula_units_Z 16
_cell_length_a 19.844457
_cell_length_b 8.991640
_cell_length_c 26.191221
_cell_angle_alpha 39.849330
_cell_angle_beta 160.384254
_cell_angle_gamma 149.028243
_cell_volume 785.526896
_symmetry_space_group_name_H-M "P -1"
_symmetry_group_IT_number 2
_symmetry_cell_setting 'triclinic'
loop_
_space_group_symop_operation_xyz
x,y,z
-x,-y,-z
loop_
_atom_site_type_symbol
_atom_site_label
_atom_site_fract_x
_atom_site_fract_y
_atom_site_fract_z
Si Si1 0.804658 0.796589 0.578650
Si Si2 0.166159 0.736409 0.115668
Si Si3 0.641894 0.295674 0.910285
Si Si4 0.385419 0.105892 0.927769
Si Si5 0.511836 0.329279 0.708413
Si Si6 0.479792 0.821131 0.411386
Si Si7 0.644525 0.948047 0.657602
Si Si8 0.770064 0.675818 0.002031
O O1 0.725356 0.851610 0.452996
O O2 0.752848 0.932891 0.553908
O O3 0.638017 0.443581 0.561576
O O4 0.104599 0.968463 0.744377
O O5 0.255283 0.666933 0.146833
O O6 0.291416 0.691816 0.263639
O O7 0.247049 0.062544 0.084460
O O8 0.867871 0.502465 0.976378
O O9 0.416609 0.184144 0.736522
O O10 0.669744 0.493682 0.924904
O O11 0.622748 0.015448 0.989688
O O12 0.574826 0.463603 0.964615
O O13 0.500000 0.000000 0.000000
O O14 0.620383 0.666401 0.700097
O O15 0.496227 0.084500 0.380804
O O16 0.500000 0.000000 0.500000
O O17 0.949184 0.221320 0.810117
#
# Coordination Sequence:
#
# PCOD8042832 Si02
#       8
#     2   2   2   2   2   2   2   2
#     4  10  20  39  62  90 123 160 207 248 312 359
#     4  11  20  38  63  93 124 156 215 253 305 358
#     4  11  20  38  64  90 125 159 210 252 300 367
#     4  10  22  40  66  87 126 169 205 242 309 386
#     4  11  24  35  63  96 123 157 203 270 303 348
#     4  10  19  35  62  91 119 160 204 258 297 365
#     4  12  22  35  61  94 126 151 210 260 305 349
#     4  11  23  40  63  92 126 168 201 250 314 376
#
# _framework density 20.368494999999999
#
# number of rings (size 3 to 8) (size 9 to 14) (size 15 to 20)
#    0.000    1.250    5.000    2.250    0.000    0.000 
#    0.000    5.625    2.750    0.000    0.000    0.000 
#    0.000    0.000    0.000    0.000    0.000    0.000 
#
# Total GULP energy -198229.618304 kJ/mol
# GULP energy per Si atom -12389.351144 kJ/mol
# Density = 2.032214 g / cm^3
# Si number density = 20.368495 Si / 1000 Ang^3
#
#
#
# Elastic Constant Matrix: (Units=GPa)
#
#
# Indices 1 2 3 4 5 6 
#
# 1 111.1976 68.5941 54.5354 -2.2195 -5.4282 -7.9624
# 2 68.5941 81.7264 46.4447 -16.7355 -4.0878 13.0128
# 3 54.5354 46.4447 105.2101 -9.2075 7.3387 9.4785
# 4 -2.2195 -16.7355 -9.2075 23.7883 4.8274 0.3531
# 5 -5.4282 -4.0878 7.3387 4.8274 36.2228 -11.9728
# 6 -7.9624 13.0128 9.4785 0.3531 -11.9728 36.5548
#
#
#
# Elastic Compliance Matrix: (Units=1/GPa)
#
#
# Indices 1 2 3 4 5 6 
#
# 1 0.040978 -0.038812 -0.011131 -0.032106 0.018916 0.032134
# 2 -0.038812 0.056107 0.003352 0.041194 -0.017346 -0.035375
# 3 -0.011131 0.003352 0.016310 0.009735 -0.009550 -0.011069
# 4 -0.032106 0.041194 0.009735 0.076968 -0.023136 -0.032503
# 5 0.018916 -0.017346 -0.009550 -0.023136 0.042386 0.026878
# 6 0.032134 -0.035375 -0.011069 -0.032503 0.026878 0.058936
#
#
# Mechanical properties :
#
#
# Convention : Reuss Voigt Hill
#
# Bulk Modulus (GPa) = 49.47571 70.80917 60.14244
# Shear Modulus (GPa) = 12.76794 27.88384 20.32589
#
# Velocity S-wave (km/s) = 2.50641 3.70397 3.16240
# Velocity P-wave (km/s) = 5.72007 7.28918 6.55176
#
# Compressibility (1/GPa) = 0.02021194
#
# Stress axis : x y z
#
# Youngs Moduli (GPa) = 24.40352 17.82310 61.31045
#
# Poissons Ratio (x) = 0.69175 0.68247
# Poissons Ratio (y) = 0.94715 -0.20551
# Poissons Ratio (z) = 0.27165 -0.05974
#
# Static dielectric constant tensor:
#      x y z
#    x 4.195030 0.182680 -0.105450 
#    y 0.182680 4.073800 -0.529460 
#    z -0.105450 -0.529460 4.149230 
# 
# 
# High freq. dielectric constant tensor:
#      x y z
#    x 1.803450 -0.008970 -0.015290 
#    y -0.008970 1.769650 -0.029190 
#    z -0.015290 -0.029190 1.804570 
# 
# From -- ./inp_files/263117.got.cif
#   From: 2010.06.25/outbox.cif.g09.slc.cpg/sg2_132_cif.got.tgz:263117.got - 2010.06.27 13:26:56.
