data_PCOD8042596
_publ_section_title
;
Structure prediction by ZEFSAII (Michael W. Deem and Ramdas Pophale) SiO2 
 PCOD8042596
Probable space group: P -1
;
_chemical_formula_sum "Si O2"
_cell_formula_units_Z 16
_cell_length_a 15.206816
_cell_length_b 8.355857
_cell_length_c 7.619008
_cell_angle_alpha 78.688881
_cell_angle_beta 116.767245
_cell_angle_gamma 86.160575
_cell_volume 834.147303
_symmetry_space_group_name_H-M "P -1"
_symmetry_group_IT_number 2
_symmetry_cell_setting 'triclinic'
loop_
_space_group_symop_operation_xyz
x,y,z
-x,-y,-z
loop_
_atom_site_type_symbol
_atom_site_label
_atom_site_fract_x
_atom_site_fract_y
_atom_site_fract_z
Si Si1 0.762886 0.682438 0.161716
Si Si2 0.410996 0.066077 0.179142
Si Si3 0.372568 0.003816 0.538148
Si Si4 0.998948 0.802079 0.841278
Si Si5 0.895360 0.918289 0.070504
Si Si6 0.707015 0.176219 0.765614
Si Si7 0.198429 0.275042 0.436755
Si Si8 0.196420 0.538313 0.077148
O O1 0.845552 0.797529 0.173879
O O2 0.782130 0.622730 0.393112
O O3 0.650122 0.783949 0.020041
O O4 0.774632 0.524159 0.079684
O O5 0.397202 0.110522 0.366399
O O6 0.528714 0.039341 0.240954
O O7 0.364609 0.897355 0.141723
O O8 0.283587 0.110948 0.544985
O O9 0.341161 0.832220 0.471868
O O10 0.909820 0.778936 0.635311
O O11 0.962071 0.809914 0.007775
O O12 0.037123 0.972006 0.783048
O O13 0.086181 0.643354 0.943844
O O14 0.811638 0.049922 0.869143
O O15 0.721702 0.356925 0.799978
O O16 0.200514 0.382916 0.241609
#
# Coordination Sequence:
#
# PCOD8042596 Si02
#       8
#     2   2   2   2   2   2   2   2
#     4  11  22  36  54  79 114 140 174 223 266 320
#     4   8  16  36  61  83  98 134 184 229 264 303
#     4   9  16  35  62  83  96 136 191 217 267 312
#     4  10  19  35  59  75 105 146 179 224 259 307
#     4   9  17  35  57  78 102 138 186 223 263 298
#     4   8  15  32  60  78 102 141 175 219 266 310
#     4  12  22  35  55  80 110 146 177 214 269 320
#     4  11  21  36  52  78 116 144 173 210 269 326
#
# _framework density 19.181263000000001
#
# number of rings (size 3 to 8) (size 9 to 14) (size 15 to 20)
#    0.750    1.500    3.750    0.375    0.000    1.500 
#    0.000    6.250    0.000    1.500    0.000    0.000 
#    0.000    0.000    0.000    0.000    0.000    0.000 
#
# Total GULP energy -198253.717760 kJ/mol
# GULP energy per Si atom -12390.857360 kJ/mol
# Density = 1.913761 g / cm^3
# Si number density = 19.181263 Si / 1000 Ang^3
#
#
#
# Elastic Constant Matrix: (Units=GPa)
#
#
# Indices 1 2 3 4 5 6 
#
# 1 59.3686 35.6037 40.3798 9.2163 30.3908 -6.8513
# 2 35.6037 96.3924 42.3166 22.8020 19.7403 -7.6379
# 3 40.3798 42.3166 86.9648 18.0239 22.4064 -14.8310
# 4 9.2163 22.8020 18.0239 25.8966 -0.2301 3.4032
# 5 30.3908 19.7403 22.4064 -0.2301 36.7387 4.0085
# 6 -6.8513 -7.6379 -14.8310 3.4032 4.0085 17.9684
#
#
#
# Elastic Compliance Matrix: (Units=1/GPa)
#
#
# Indices 1 2 3 4 5 6 
#
# 1 0.043544 -0.001876 -0.002437 -0.015741 -0.036339 0.024882
# 2 -0.001876 0.017987 0.000382 -0.017192 -0.009839 0.012697
# 3 -0.002437 0.000382 0.026542 -0.021943 -0.017706 0.029247
# 4 -0.015741 -0.017192 -0.021943 0.082425 0.042320 -0.056474
# 5 -0.036339 -0.009839 -0.017706 0.042320 0.080014 -0.058518
# 6 0.024882 0.012697 0.029247 -0.056474 -0.058518 0.118429
#
#
# Mechanical properties :
#
#
# Convention : Reuss Voigt Hill
#
# Bulk Modulus (GPa) = 12.46710 53.25843 32.86277
# Shear Modulus (GPa) = 12.39037 24.41579 18.40308
#
# Velocity S-wave (km/s) = 2.54434 3.57164 3.10083
# Velocity P-wave (km/s) = 3.89169 6.69589 5.47632
#
# Compressibility (1/GPa) = 0.08021109
#
# Stress axis : x y z
#
# Youngs Moduli (GPa) = 22.96554 55.59422 37.67656
#
# Poissons Ratio (x) = 0.10432 0.09180
# Poissons Ratio (y) = 0.04309 -0.01440
# Poissons Ratio (z) = 0.05596 -0.02125
#
# Static dielectric constant tensor:
#      x y z
#    x 3.416420 0.053190 0.383740 
#    y 0.053190 3.344160 0.246200 
#    z 0.383740 0.246200 3.391280 
# 
# 
# High freq. dielectric constant tensor:
#      x y z
#    x 1.731510 -0.008690 0.029120 
#    y -0.008690 1.726030 0.018300 
#    z 0.029120 0.018300 1.732320 
# 
# From -- ./inp_files/326211.got.cif
#   From: 2010.06.25/outbox.cif.g09.slc.cpg/sg2_164_cif.got.tgz:326211.got - 2010.06.27 13:26:56.
