data_PCOD8042118
_publ_section_title
;
Structure prediction by ZEFSAII (Michael W. Deem and Ramdas Pophale) SiO2 
 PCOD8042118
Probable space group: P -1
;
_chemical_formula_sum "Si O2"
_cell_formula_units_Z 14
_cell_length_a 10.700454
_cell_length_b 5.151740
_cell_length_c 18.524501
_cell_angle_alpha 89.391231
_cell_angle_beta 129.312861
_cell_angle_gamma 83.226395
_cell_volume 779.714515
_symmetry_space_group_name_H-M "P -1"
_symmetry_group_IT_number 2
_symmetry_cell_setting 'triclinic'
loop_
_space_group_symop_operation_xyz
x,y,z
-x,-y,-z
loop_
_atom_site_type_symbol
_atom_site_label
_atom_site_fract_x
_atom_site_fract_y
_atom_site_fract_z
Si Si1 0.029470 0.454275 0.189851
Si Si2 0.719431 0.878188 0.225628
Si Si3 0.966628 0.486125 0.650832
Si Si4 0.811345 0.006983 0.106336
Si Si5 0.819935 0.530950 0.901018
Si Si6 0.007095 0.985937 0.587826
Si Si7 0.651686 0.073112 0.898991
O O1 0.114094 0.474243 0.299318
O O2 0.898854 0.711593 0.122866
O O3 0.171812 0.425540 0.182103
O O4 0.946895 0.194495 0.159040
O O5 0.836027 0.592687 0.262932
O O6 0.712409 0.024943 0.145245
O O7 0.803949 0.045614 0.315786
O O8 0.540705 0.842140 0.186055
O O9 0.902986 0.249189 0.584770
O O10 0.924509 0.743615 0.585840
O O11 0.684378 0.099812 0.995897
O O12 0.747974 0.264888 0.889046
O O13 0.704134 0.775619 0.893117
O O14 0.000000 0.500000 0.000000
O O15 0.000000 0.000000 0.500000
#
# Coordination Sequence:
#
# PCOD8042118 Si02
#       7
#     2   2   2   2   2   2   2
#     4  11  19  35  52  73 103 145 178 223 241 301
#     4   9  23  33  54  80 113 132 179 206 278 324
#     4   9  19  35  54  78 109 127 170 216 264 320
#     4  11  19  34  53  72 110 142 179 214 258 303
#     4  12  23  35  51  72 106 146 198 216 247 290
#     4  10  19  34  58  83 107 129 161 216 277 326
#     4  12  23  34  52  76 109 152 174 225 253 298
#
# _framework density 17.955289
#
# number of rings (size 3 to 8) (size 9 to 14) (size 15 to 20)
#    0.857    0.571    4.286    2.143    2.000    0.000 
#    0.000    3.571    0.000    0.000    0.000    6.000 
#    0.000    0.000    0.000    0.000    0.000    0.000 
#
# Total GULP energy -173544.067302 kJ/mol
# GULP energy per Si atom -12396.004807 kJ/mol
# Density = 1.791442 g / cm^3
# Si number density = 17.955289 Si / 1000 Ang^3
#
#
#
# Elastic Constant Matrix: (Units=GPa)
#
#
# Indices 1 2 3 4 5 6 
#
# 1 76.6067 16.6401 38.9964 0.0417 -20.7337 6.0048
# 2 16.6401 93.6997 20.4569 -5.1832 -14.5145 8.6896
# 3 38.9964 20.4569 76.0571 7.6658 -38.8138 -2.7692
# 4 0.0417 -5.1832 7.6658 20.5598 -0.1401 -9.4313
# 5 -20.7337 -14.5145 -38.8138 -0.1401 35.4809 1.1017
# 6 6.0048 8.6896 -2.7692 -9.4313 1.1017 26.8277
#
#
#
# Elastic Compliance Matrix: (Units=1/GPa)
#
#
# Indices 1 2 3 4 5 6 
#
# 1 0.018412 -0.000688 -0.009330 0.001231 0.000415 -0.004446
# 2 -0.000688 0.012036 -0.001972 0.002301 0.002474 -0.003241
# 3 -0.009330 -0.001972 0.037755 -0.014232 0.034981 0.000184
# 4 0.001231 0.002301 -0.014232 0.063849 -0.014294 0.020543
# 5 0.000415 0.002474 0.034981 -0.014294 0.067807 -0.005093
# 6 -0.004446 -0.003241 0.000184 0.020543 -0.005093 0.046770
#
#
# Mechanical properties :
#
#
# Convention : Reuss Voigt Hill
#
# Bulk Modulus (GPa) = 22.61210 44.28336 33.44773
# Shear Modulus (GPa) = 17.52236 27.92502 22.72369
#
# Velocity S-wave (km/s) = 3.12731 3.94795 3.56135
# Velocity P-wave (km/s) = 5.06567 6.74525 5.96487
#
# Compressibility (1/GPa) = 0.04422411
#
# Stress axis : x y z
#
# Youngs Moduli (GPa) = 54.31094 83.08270 26.48683
#
# Poissons Ratio (x) = 0.05719 0.24711
# Poissons Ratio (y) = 0.03738 0.05222
# Poissons Ratio (z) = 0.50670 0.16380
#
# Static dielectric constant tensor:
#      x y z
#    x 3.190770 -0.004680 -0.362630 
#    y -0.004680 3.412070 0.032810 
#    z -0.362630 0.032810 3.111920 
# 
# 
# High freq. dielectric constant tensor:
#      x y z
#    x 1.671070 0.003780 -0.039330 
#    y 0.003780 1.711810 0.002260 
#    z -0.039330 0.002260 1.668030 
# 
# From -- ./inp_files/43326.got.cif
#   From: 2010.06.25/outbox.cif.g09.slc.cpg/sg2_22_cif.got.tgz:43326.got - 2010.06.27 13:26:56.
