data_PCOD8042791
_publ_section_title
;
Structure prediction by ZEFSAII (Michael W. Deem and Ramdas Pophale) SiO2 
 PCOD8042791
Probable space group: P -1
;
_chemical_formula_sum "Si O2"
_cell_formula_units_Z 16
_cell_length_a 23.299939
_cell_length_b 8.759036
_cell_length_c 12.138358
_cell_angle_alpha 48.818274
_cell_angle_beta 29.525985
_cell_angle_gamma 40.260311
_cell_volume 788.859613
_symmetry_space_group_name_H-M "P -1"
_symmetry_group_IT_number 2
_symmetry_cell_setting 'triclinic'
loop_
_space_group_symop_operation_xyz
x,y,z
-x,-y,-z
loop_
_atom_site_type_symbol
_atom_site_label
_atom_site_fract_x
_atom_site_fract_y
_atom_site_fract_z
Si Si1 0.291610 0.535808 0.825258
Si Si2 0.067914 0.527533 0.085074
Si Si3 0.970566 0.892016 0.704400
Si Si4 0.864004 0.001250 0.253998
Si Si5 0.520800 0.062249 0.558052
Si Si6 0.187295 0.699286 0.615094
Si Si7 0.694249 0.234277 0.104662
Si Si8 0.485026 0.374087 0.191176
O O1 0.411817 0.321956 0.659315
O O2 0.330512 0.541561 0.885348
O O3 0.260689 0.788397 0.705414
O O4 0.158393 0.513014 0.046615
O O5 0.079347 0.279602 0.172464
O O6 0.907769 0.732135 0.276095
O O7 0.133346 0.570779 0.846760
O O8 0.109349 0.753118 0.605518
O O9 0.000000 0.000000 0.500000
O O10 0.853118 0.092999 0.879417
O O11 0.834274 0.060633 0.405602
O O12 0.000000 0.000000 0.000000
O O13 0.660940 0.063295 0.315310
O O14 0.500000 0.000000 0.500000
O O15 0.516777 0.861492 0.734492
O O16 0.345813 0.535603 0.409586
O O17 0.605753 0.320453 0.099969
O O18 0.500000 0.500000 0.000000
#
# Coordination Sequence:
#
# PCOD8042791 Si02
#       8
#     2   2   2   2   2   2   2   2
#     4  10  19  35  61  93 117 146 198 254 296 344
#     4  10  19  36  61  88 116 151 195 245 295 354
#     4  12  24  38  58  88 120 157 199 244 294 352
#     4   8  16  32  55  84 113 142 184 241 291 338
#     4  10  20  36  61  88 114 153 196 240 291 348
#     4  10  20  38  59  84 115 155 195 241 293 347
#     4  11  21  39  62  87 117 156 200 248 292 350
#     4  11  23  40  59  86 123 160 196 241 293 351
#
# _framework density 20.282443000000001
#
# number of rings (size 3 to 8) (size 9 to 14) (size 15 to 20)
#    0.000    2.000    0.000    9.000    0.000    1.000 
#    0.000    4.375    0.000    1.500    0.000    0.000 
#    0.000    0.000    0.000    0.000    0.000    0.000 
#
# Total GULP energy -198220.343038 kJ/mol
# GULP energy per Si atom -12388.771440 kJ/mol
# Density = 2.023628 g / cm^3
# Si number density = 20.282443 Si / 1000 Ang^3
#
#
#
# Elastic Constant Matrix: (Units=GPa)
#
#
# Indices 1 2 3 4 5 6 
#
# 1 93.6253 29.4730 15.3443 -8.7465 8.7032 6.8473
# 2 29.4730 95.1195 62.1782 11.5321 19.9328 10.3761
# 3 15.3443 62.1782 78.6769 1.4742 13.6099 3.8884
# 4 -8.7465 11.5321 1.4742 38.8227 -8.2667 7.8793
# 5 8.7032 19.9328 13.6099 -8.2667 15.1577 10.2459
# 6 6.8473 10.3761 3.8884 7.8793 10.2459 30.1450
#
#
#
# Elastic Compliance Matrix: (Units=1/GPa)
#
#
# Indices 1 2 3 4 5 6 
#
# 1 0.013136 -0.007795 0.002098 0.008429 0.009473 -0.005994
# 2 -0.007795 0.039596 -0.020321 -0.028312 -0.056537 0.017379
# 3 0.002098 -0.020321 0.027455 0.006508 0.004614 -0.000293
# 4 0.008429 -0.028312 0.006508 0.062092 0.086538 -0.038652
# 5 0.009473 -0.056537 0.004614 0.086538 0.236192 -0.086185
# 6 -0.005994 0.017379 -0.000293 -0.038652 -0.086185 0.067986
#
#
# Mechanical properties :
#
#
# Convention : Reuss Voigt Hill
#
# Bulk Modulus (GPa) = 35.52201 53.49030 44.50615
# Shear Modulus (GPa) = 9.84491 27.52016 18.68254
#
# Velocity S-wave (km/s) = 2.20555 3.68754 3.03829
# Velocity P-wave (km/s) = 4.90282 6.67537 5.85654
#
# Compressibility (1/GPa) = 0.02815156
#
# Stress axis : x y z
#
# Youngs Moduli (GPa) = 76.12625 25.25496 36.42313
#
# Poissons Ratio (x) = 0.19686 -0.07641
# Poissons Ratio (y) = 0.59339 0.74015
# Poissons Ratio (z) = -0.15971 0.51321
#
# Static dielectric constant tensor:
#      x y z
#    x 3.845680 0.299440 -0.087130 
#    y 0.299440 4.419270 0.431090 
#    z -0.087130 0.431090 3.293030 
# 
# 
# High freq. dielectric constant tensor:
#      x y z
#    x 1.793120 0.012680 -0.005310 
#    y 0.012680 1.793260 0.029730 
#    z -0.005310 0.029730 1.769030 
# 
# From -- ./inp_files/474108.got.cif
#   From: 2010.06.25/outbox.cif.g09.slc.cpg/sg2_238_cif.got.tgz:474108.got - 2010.06.27 13:26:56.
