data_PCOD8042941
_publ_section_title
;
Structure prediction by ZEFSAII (Michael W. Deem and Ramdas Pophale) SiO2 
 PCOD8042941
Probable space group: P -1
;
_chemical_formula_sum "Si O2"
_cell_formula_units_Z 16
_cell_length_a 21.167778
_cell_length_b 9.253377
_cell_length_c 18.056154
_cell_angle_alpha 135.712142
_cell_angle_beta 19.779298
_cell_angle_gamma 135.050529
_cell_volume 826.935892
_symmetry_space_group_name_H-M "P -1"
_symmetry_group_IT_number 2
_symmetry_cell_setting 'triclinic'
loop_
_space_group_symop_operation_xyz
x,y,z
-x,-y,-z
loop_
_atom_site_type_symbol
_atom_site_label
_atom_site_fract_x
_atom_site_fract_y
_atom_site_fract_z
Si Si1 0.005904 0.150008 0.222375
Si Si2 0.303706 0.341893 0.849795
Si Si3 0.060184 0.688656 0.241525
Si Si4 0.801478 0.014106 0.261690
Si Si5 0.664289 0.441196 0.574803
Si Si6 0.081008 0.602976 0.350662
Si Si7 0.872514 0.914904 0.786262
Si Si8 0.571263 0.570117 0.027511
O O1 0.958368 0.377861 0.384146
O O2 0.023424 0.007066 0.222999
O O3 0.836176 0.024019 0.315709
O O4 0.201381 0.201186 0.978392
O O5 0.495446 0.476524 0.718184
O O6 0.340870 0.188592 0.684049
O O7 0.168965 0.501002 0.025870
O O8 0.104570 0.733836 0.295882
O O9 0.838465 0.628102 0.444937
O O10 0.138890 0.898150 0.188281
O O11 0.723587 0.224049 0.401769
O O12 0.000000 0.000000 0.000000
O O13 0.601640 0.435466 0.727305
O O14 0.969174 0.726227 0.576374
O O15 0.282949 0.575195 0.152611
O O16 0.665211 0.810949 0.002411
O O17 0.500000 0.500000 0.000000
#
# Coordination Sequence:
#
# PCOD8042941 Si02
#       8
#     2   2   2   2   2   2   2   2
#     4   9  17  36  60  86 114 152 202 246 290 352
#     4  10  20  40  61  89 117 156 207 251 292 363
#     4  11  22  40  60  88 127 161 198 244 308 362
#     4  10  19  35  66  92 113 155 211 254 296 353
#     4  12  20  38  67  89 119 158 208 248 295 364
#     4  10  19  39  60  81 124 164 201 237 295 368
#     4  11  22  38  60  87 127 164 192 253 309 349
#     4  11  23  37  62  95 119 158 210 253 290 356
#
# _framework density 19.348538000000001
#
# number of rings (size 3 to 8) (size 9 to 14) (size 15 to 20)
#    0.000    1.500    7.500    3.000    1.750    0.000 
#    2.250    1.875    0.000    1.500    0.000    0.000 
#    0.000    0.000    0.000    0.000    0.000    0.000 
#
# Total GULP energy -198279.072972 kJ/mol
# GULP energy per Si atom -12392.442061 kJ/mol
# Density = 1.930450 g / cm^3
# Si number density = 19.348538 Si / 1000 Ang^3
#
#
#
# Elastic Constant Matrix: (Units=GPa)
#
#
# Indices 1 2 3 4 5 6 
#
# 1 146.6524 49.0265 16.1473 -2.5200 -8.4863 4.5949
# 2 49.0265 62.4774 26.5683 -6.2218 3.8138 -7.8145
# 3 16.1473 26.5683 56.5817 7.9542 -5.5470 -1.0732
# 4 -2.5200 -6.2218 7.9542 21.7117 10.4521 6.4059
# 5 -8.4863 3.8138 -5.5470 10.4521 26.7295 -0.1006
# 6 4.5949 -7.8145 -1.0732 6.4059 -0.1006 34.1831
#
#
#
# Elastic Compliance Matrix: (Units=1/GPa)
#
#
# Indices 1 2 3 4 5 6 
#
# 1 0.010792 -0.011906 0.004342 -0.007222 0.008840 -0.002657
# 2 -0.011906 0.039400 -0.021465 0.028456 -0.024966 0.004528
# 3 0.004342 -0.021465 0.032786 -0.028788 0.022506 0.001000
# 4 -0.007222 0.028456 -0.028788 0.089861 -0.047505 -0.010408
# 5 0.008840 -0.024966 0.022506 -0.047505 0.067038 0.002911
# 6 -0.002657 0.004528 0.001000 -0.010408 0.002911 0.032637
#
#
# Mechanical properties :
#
#
# Convention : Reuss Voigt Hill
#
# Bulk Modulus (GPa) = 40.12770 49.91065 45.01918
# Shear Modulus (GPa) = 14.75460 28.12282 21.43871
#
# Velocity S-wave (km/s) = 2.76446 3.81660 3.33232
# Velocity P-wave (km/s) = 5.56544 6.72855 6.17444
#
# Compressibility (1/GPa) = 0.02492044
#
# Stress axis : x y z
#
# Youngs Moduli (GPa) = 92.66453 25.38040 30.50110
#
# Poissons Ratio (x) = 0.30218 -0.13244
# Poissons Ratio (y) = 1.10326 0.65471
# Poissons Ratio (z) = -0.40238 0.54479
#
# Static dielectric constant tensor:
#      x y z
#    x 4.134190 0.333330 0.004580 
#    y 0.333330 3.270840 0.117370 
#    z 0.004580 0.117370 3.597220 
# 
# 
# High freq. dielectric constant tensor:
#      x y z
#    x 1.772850 0.016800 -0.004310 
#    y 0.016800 1.710520 0.013540 
#    z -0.004310 0.013540 1.744840 
# 
# From -- ./inp_files/577596.got.cif
#   From: 2010.06.25/outbox.cif.g09.slc.cpg/sg2_289_cif.got.tgz:577596.got - 2010.06.27 13:26:56.
