data_PCOD8042161
_publ_section_title
;
Structure prediction by ZEFSAII (Michael W. Deem and Ramdas Pophale) SiO2 
 PCOD8042161
Probable space group: P -1
;
_chemical_formula_sum "Si O2"
_cell_formula_units_Z 14
_cell_length_a 13.078430
_cell_length_b 9.105979
_cell_length_c 7.493958
_cell_angle_alpha 106.486606
_cell_angle_beta 121.110561
_cell_angle_gamma 100.874650
_cell_volume 668.800092
_symmetry_space_group_name_H-M "P -1"
_symmetry_group_IT_number 2
_symmetry_cell_setting 'triclinic'
loop_
_space_group_symop_operation_xyz
x,y,z
-x,-y,-z
loop_
_atom_site_type_symbol
_atom_site_label
_atom_site_fract_x
_atom_site_fract_y
_atom_site_fract_z
Si Si1 0.528050 0.682916 0.021125
Si Si2 0.642923 0.289250 0.830468
Si Si3 0.762702 0.867374 0.073047
Si Si4 0.138646 0.396618 0.989315
Si Si5 0.082286 0.514518 0.338023
Si Si6 0.504461 0.681314 0.614397
Si Si7 0.151707 0.759455 0.788421
O O1 0.473020 0.767825 0.149740
O O2 0.500000 0.500000 0.000000
O O3 0.682793 0.795865 0.162557
O O4 0.447730 0.669189 0.759759
O O5 0.735257 0.488695 0.975564
O O6 0.574190 0.243309 0.559125
O O7 0.739045 0.200907 0.942333
O O8 0.868801 0.790580 0.099200
O O9 0.657070 0.812391 0.796797
O O10 0.840902 0.066803 0.224238
O O11 0.162876 0.470106 0.239888
O O12 0.004969 0.395615 0.794199
O O13 0.175794 0.645567 0.613808
O O14 0.991910 0.340307 0.292855
O O15 0.500000 0.500000 0.500000
#
# Coordination Sequence:
#
# PCOD8042161 Si02
#       7
#     2   2   2   2   2   2   2
#     4  10  19  35  59  91 121 158 198 241 294 377
#     4  11  20  37  62  84 132 162 196 233 317 357
#     4  10  22  36  62  93 124 150 213 246 298 357
#     4  10  19  38  66  86 112 168 202 259 289 369
#     4   9  22  41  62  83 119 161 213 242 320 353
#     4  10  19  34  58  93 118 158 201 241 282 386
#     4  10  23  41  57  90 122 165 197 261 301 358
#
# _framework density 20.933011
#
# number of rings (size 3 to 8) (size 9 to 14) (size 15 to 20)
#    0.857    1.143    4.286    0.000    2.000    2.286 
#    0.000    4.286    0.000    0.000    0.000    0.000 
#    0.000    0.000    0.000    0.000    0.000    0.000 
#
# Total GULP energy -173440.055177 kJ/mol
# GULP energy per Si atom -12388.575370 kJ/mol
# Density = 2.088537 g / cm^3
# Si number density = 20.933011 Si / 1000 Ang^3
#
#
#
# Elastic Constant Matrix: (Units=GPa)
#
#
# Indices 1 2 3 4 5 6 
#
# 1 102.6958 52.7510 23.7146 -1.8324 -16.2385 5.0908
# 2 52.7510 132.5822 26.7865 9.2171 -5.7218 5.6746
# 3 23.7146 26.7865 68.0971 -13.8553 -11.2526 8.6808
# 4 -1.8324 9.2171 -13.8553 32.9551 6.3413 -4.3596
# 5 -16.2385 -5.7218 -11.2526 6.3413 27.1892 -7.1807
# 6 5.0908 5.6746 8.6808 -4.3596 -7.1807 17.1972
#
#
#
# Elastic Compliance Matrix: (Units=1/GPa)
#
#
# Indices 1 2 3 4 5 6 
#
# 1 0.013644 -0.004835 -0.001876 0.000218 0.006658 0.001338
# 2 -0.004835 0.010490 -0.003363 -0.004600 -0.001568 -0.002153
# 3 -0.001876 -0.003363 0.019367 0.007740 0.003100 -0.004854
# 4 0.000218 -0.004600 0.007740 0.036465 -0.004884 0.004751
# 5 0.006658 -0.001568 0.003100 -0.004884 0.046895 0.015325
# 6 0.001338 -0.002153 -0.004854 0.004751 0.015325 0.068517
#
#
# Mechanical properties :
#
#
# Convention : Reuss Voigt Hill
#
# Bulk Modulus (GPa) = 42.81969 56.65328 49.73649
# Shear Modulus (GPa) = 22.39033 28.80984 25.60008
#
# Velocity S-wave (km/s) = 3.27405 3.71386 3.50087
# Velocity P-wave (km/s) = 5.89852 6.74635 6.33663
#
# Compressibility (1/GPa) = 0.02335374
#
# Stress axis : x y z
#
# Youngs Moduli (GPa) = 73.28972 95.32976 51.63443
#
# Poissons Ratio (x) = 0.46091 0.09686
# Poissons Ratio (y) = 0.35435 0.17365
# Poissons Ratio (z) = 0.13748 0.32059
#
# Static dielectric constant tensor:
#      x y z
#    x 4.117620 0.214970 -0.036200 
#    y 0.214970 3.571960 -0.254310 
#    z -0.036200 -0.254310 3.765620 
# 
# 
# High freq. dielectric constant tensor:
#      x y z
#    x 1.808490 0.010530 -0.002230 
#    y 0.010530 1.802200 -0.015080 
#    z -0.002230 -0.015080 1.805430 
# 
# From -- ./inp_files/295860.got.cif
#   From: 2010.06.25/outbox.cif.g09.slc.cpg/sg2_148_cif.got.tgz:295860.got - 2010.06.27 13:26:56.
