data_PCOD8042330
_publ_section_title
;
Structure prediction by ZEFSAII (Michael W. Deem and Ramdas Pophale) SiO2 
 PCOD8042330
Probable space group: P -1
;
_chemical_formula_sum "Si O2"
_cell_formula_units_Z 16
_cell_length_a 16.020271
_cell_length_b 16.268708
_cell_length_c 9.296631
_cell_angle_alpha 43.891632
_cell_angle_beta 141.677086
_cell_angle_gamma 153.908662
_cell_volume 659.642055
_symmetry_space_group_name_H-M "P -1"
_symmetry_group_IT_number 2
_symmetry_cell_setting 'triclinic'
loop_
_space_group_symop_operation_xyz
x,y,z
-x,-y,-z
loop_
_atom_site_type_symbol
_atom_site_label
_atom_site_fract_x
_atom_site_fract_y
_atom_site_fract_z
Si Si1 0.580548 0.830447 0.936432
Si Si2 0.229967 0.457665 0.454881
Si Si3 0.959274 0.783024 0.937274
Si Si4 0.300242 0.297612 0.548909
Si Si5 0.332156 0.476915 0.866971
Si Si6 0.529752 0.164615 0.724645
Si Si7 0.981236 0.403696 0.937317
Si Si8 0.321937 0.808763 0.808890
O O1 0.632024 0.785554 0.203052
O O2 0.458762 0.677522 0.840833
O O3 0.432247 0.838696 0.773743
O O4 0.803662 0.029417 0.924037
O O5 0.228690 0.325592 0.555137
O O6 0.173672 0.407531 0.611022
O O7 0.460716 0.685387 0.471725
O O8 0.069660 0.435868 0.178339
O O9 0.882758 0.832235 0.657690
O O10 0.803403 0.674922 0.998526
O O11 0.945707 0.649259 0.004910
O O12 0.500000 0.500000 0.500000
O O13 0.500000 0.500000 0.000000
O O14 0.730172 0.244442 0.807902
O O15 0.327055 0.957667 0.639377
O O16 0.530501 0.137971 0.928393
O O17 0.085070 0.595119 0.772224
#
# Coordination Sequence:
#
# PCOD8042330 Si02
#       8
#     2   2   2   2   2   2   2   2
#     4  12  22  39  64  90 126 160 205 249 310 363
#     4  10  21  37  61  90 119 163 201 246 310 360
#     4  11  23  38  65  92 120 159 208 256 304 363
#     4  11  19  39  65  92 117 158 205 259 306 354
#     4  12  24  44  60  84 130 168 200 249 309 371
#     4  10  20  37  64  94 124 150 210 256 303 358
#     4  10  19  40  66  91 122 152 208 262 302 352
#     4  10  19  34  63  95 116 158 195 253 310 350
#
# _framework density 24.255579000000001
#
# number of rings (size 3 to 8) (size 9 to 14) (size 15 to 20)
#    0.000    1.250    5.000    3.375    0.000    0.500 
#    0.000    6.250    0.000    0.000    0.000    0.000 
#    0.000    0.000    0.000    0.000    0.000    0.000 
#
# Total GULP energy -198320.891776 kJ/mol
# GULP energy per Si atom -12395.055736 kJ/mol
# Density = 2.420037 g / cm^3
# Si number density = 24.255579 Si / 1000 Ang^3
#
#
#
# Elastic Constant Matrix: (Units=GPa)
#
#
# Indices 1 2 3 4 5 6 
#
# 1 118.2302 29.2863 15.8466 5.1575 -23.7814 0.9364
# 2 29.2863 99.1417 7.7156 -6.7844 -16.1153 0.4038
# 3 15.8466 7.7156 59.3937 3.0331 -17.6919 -4.0074
# 4 5.1575 -6.7844 3.0331 26.7724 -4.5906 3.2861
# 5 -23.7814 -16.1153 -17.6919 -4.5906 33.6103 -0.6784
# 6 0.9364 0.4038 -4.0074 3.2861 -0.6784 34.2411
#
#
#
# Elastic Compliance Matrix: (Units=1/GPa)
#
#
# Indices 1 2 3 4 5 6 
#
# 1 0.010295 -0.002164 -0.000707 -0.001468 0.005672 -0.000085
# 2 -0.002164 0.011782 0.000240 0.004246 0.004817 -0.000364
# 3 -0.000707 0.000240 0.020258 -0.000668 0.010241 0.002654
# 4 -0.001468 0.004246 -0.000668 0.040298 0.006072 -0.003835
# 5 0.005672 0.004817 0.010241 0.006072 0.042321 0.001242
# 6 -0.000085 -0.000364 0.002654 -0.003835 0.001242 0.029915
#
#
# Mechanical properties :
#
#
# Convention : Reuss Voigt Hill
#
# Bulk Modulus (GPa) = 26.97340 42.49586 34.73463
# Shear Modulus (GPa) = 28.98765 33.85256 31.42010
#
# Velocity S-wave (km/s) = 3.46076 3.73991 3.60304
# Velocity P-wave (km/s) = 5.20709 6.01725 5.62677
#
# Compressibility (1/GPa) = 0.03707356
#
# Stress axis : x y z
#
# Youngs Moduli (GPa) = 97.13910 84.87379 49.36359
#
# Poissons Ratio (x) = 0.18368 0.03489
# Poissons Ratio (y) = 0.21022 -0.01186
# Poissons Ratio (z) = 0.06865 -0.02040
#
# Static dielectric constant tensor:
#      x y z
#    x 4.450610 -0.337960 0.034060 
#    y -0.337960 4.654600 -0.311120 
#    z 0.034060 -0.311120 4.442010 
# 
# 
# High freq. dielectric constant tensor:
#      x y z
#    x 1.973980 -0.011410 -0.004070 
#    y -0.011410 1.965110 -0.014200 
#    z -0.004070 -0.014200 1.925660 
# 
# From -- ./inp_files/314747.got.cif
#   From: 2010.06.25/outbox.cif.g09.slc.cpg/sg2_158_cif.got.tgz:314747.got - 2010.06.27 13:26:56.
