data_PCOD8042394
_publ_section_title
;
Structure prediction by ZEFSAII (Michael W. Deem and Ramdas Pophale) SiO2 
 PCOD8042394
Probable space group: P -1
;
_chemical_formula_sum "Si O2"
_cell_formula_units_Z 16
_cell_length_a 12.488825
_cell_length_b 17.850006
_cell_length_c 9.971970
_cell_angle_alpha 55.747976
_cell_angle_beta 134.625100
_cell_angle_gamma 87.026280
_cell_volume 849.547862
_symmetry_space_group_name_H-M "P -1"
_symmetry_group_IT_number 2
_symmetry_cell_setting 'triclinic'
loop_
_space_group_symop_operation_xyz
x,y,z
-x,-y,-z
loop_
_atom_site_type_symbol
_atom_site_label
_atom_site_fract_x
_atom_site_fract_y
_atom_site_fract_z
Si Si1 0.746943 0.915795 0.160894
Si Si2 0.948972 0.889452 0.877181
Si Si3 0.794367 0.834872 0.569922
Si Si4 0.666620 0.138584 0.792919
Si Si5 0.163267 0.391327 0.134775
Si Si6 0.510080 0.167341 0.341184
Si Si7 0.073043 0.248876 0.782866
Si Si8 0.823228 0.533672 0.215632
O O1 0.857540 0.816222 0.487751
O O2 0.878538 0.817053 0.249875
O O3 0.475933 0.020147 0.798594
O O4 0.786582 0.006464 0.122925
O O5 0.932961 0.845655 0.766313
O O6 0.716691 0.054178 0.533643
O O7 0.000187 0.795008 0.134689
O O8 0.165021 0.857007 0.095947
O O9 0.871947 0.700256 0.825175
O O10 0.435714 0.283122 0.517085
O O11 0.596521 0.112453 0.624277
O O12 0.104420 0.473604 0.865443
O O13 0.000000 0.500000 0.000000
O O14 0.296599 0.198202 0.091108
O O15 0.429469 0.310364 0.123737
O O16 0.849824 0.415099 0.390009
O O17 0.000000 0.500000 0.500000
#
# Coordination Sequence:
#
# PCOD8042394 Si02
#       8
#     2   2   2   2   2   2   2   2
#     4  10  19  35  54  83 111 140 197 235 276 320
#     4  12  21  35  60  82 117 153 185 229 288 327
#     4  10  21  34  58  84 107 148 193 237 266 335
#     4  10  22  36  56  85 114 148 188 234 282 339
#     4  10  20  40  61  78 110 150 187 230 287 334
#     4  10  19  35  56  84 113 149 187 227 278 330
#     4  11  19  33  61  85 108 147 193 235 271 333
#     4   9  19  33  55  85 112 135 186 236 270 325
#
# _framework density 18.833546999999999
#
# number of rings (size 3 to 8) (size 9 to 14) (size 15 to 20)
#    0.000    1.750    2.500    4.500    0.000    0.500 
#    0.000    3.125    2.750    0.000    0.000    0.000 
#    0.000    0.000    0.000    0.000    0.000    0.000 
#
# Total GULP energy -198302.056722 kJ/mol
# GULP energy per Si atom -12393.878545 kJ/mol
# Density = 1.879068 g / cm^3
# Si number density = 18.833547 Si / 1000 Ang^3
#
#
#
# Elastic Constant Matrix: (Units=GPa)
#
#
# Indices 1 2 3 4 5 6 
#
# 1 110.5080 54.4283 48.7518 0.2862 -0.9640 14.8437
# 2 54.4283 94.4659 40.8464 -7.4919 1.3677 -3.1506
# 3 48.7518 40.8464 64.8817 -15.0388 -11.7217 7.7007
# 4 0.2862 -7.4919 -15.0388 31.9524 -2.5094 -3.7647
# 5 -0.9640 1.3677 -11.7217 -2.5094 31.7692 -0.9411
# 6 14.8437 -3.1506 7.7007 -3.7647 -0.9411 25.6643
#
#
#
# Elastic Compliance Matrix: (Units=1/GPa)
#
#
# Indices 1 2 3 4 5 6 
#
# 1 0.018707 -0.006785 -0.011415 -0.008607 -0.004318 -0.009649
# 2 -0.006785 0.018285 -0.007722 0.001451 -0.003474 0.008571
# 3 -0.011415 -0.007722 0.035327 0.015786 0.014205 -0.002109
# 4 -0.008607 0.001451 0.015786 0.040634 0.008909 0.006707
# 5 -0.004318 -0.003474 0.014205 0.008909 0.037455 0.000489
# 6 -0.009649 0.008571 -0.002109 0.006707 0.000489 0.047232
#
#
# Mechanical properties :
#
#
# Convention : Reuss Voigt Hill
#
# Bulk Modulus (GPa) = 48.83855 61.98984 55.41420
# Shear Modulus (GPa) = 19.50766 26.26577 22.88671
#
# Velocity S-wave (km/s) = 3.22187 3.73852 3.48977
# Velocity P-wave (km/s) = 6.31099 7.18481 6.76203
#
# Compressibility (1/GPa) = 0.02047563
#
# Stress axis : x y z
#
# Youngs Moduli (GPa) = 53.45501 54.68930 28.30671
#
# Poissons Ratio (x) = 0.37104 0.32313
# Poissons Ratio (y) = 0.36267 0.21859
# Poissons Ratio (z) = 0.61020 0.42232
#
# Static dielectric constant tensor:
#      x y z
#    x 3.433520 0.118910 -0.540980 
#    y 0.118910 3.779860 -0.704690 
#    z -0.540980 -0.704690 4.405590 
# 
# 
# High freq. dielectric constant tensor:
#      x y z
#    x 1.718700 -0.004310 -0.023980 
#    y -0.004310 1.735500 -0.013480 
#    z -0.023980 -0.013480 1.720840 
# 
# From -- ./inp_files/211951.got.cif
#   From: 2010.06.25/outbox.cif.g09.slc.cpg/sg2_106_cif.got.tgz:211951.got - 2010.06.27 13:26:56.
