data_PCOD8042193
_publ_section_title
;
Structure prediction by ZEFSAII (Michael W. Deem and Ramdas Pophale) SiO2 
 PCOD8042193
Probable space group: P -1
;
_chemical_formula_sum "Si O2"
_cell_formula_units_Z 16
_cell_length_a 12.333835
_cell_length_b 14.332920
_cell_length_c 8.250584
_cell_angle_alpha 109.231411
_cell_angle_beta 129.217630
_cell_angle_gamma 42.715142
_cell_volume 740.756084
_symmetry_space_group_name_H-M "P -1"
_symmetry_group_IT_number 2
_symmetry_cell_setting 'triclinic'
loop_
_space_group_symop_operation_xyz
x,y,z
-x,-y,-z
loop_
_atom_site_type_symbol
_atom_site_label
_atom_site_fract_x
_atom_site_fract_y
_atom_site_fract_z
Si Si1 0.850512 0.944935 0.542227
Si Si2 0.757327 0.921799 0.100174
Si Si3 0.169852 0.838105 0.010333
Si Si4 0.217713 0.438738 0.155258
Si Si5 0.342455 0.224315 0.901701
Si Si6 0.218928 0.223648 0.462505
Si Si7 0.928972 0.299079 0.980715
Si Si8 0.509033 0.213643 0.557570
O O1 0.864581 0.922654 0.351449
O O2 0.752659 0.902037 0.520076
O O3 0.686304 0.110849 0.532170
O O4 0.082497 0.850031 0.758685
O O5 0.711977 0.831547 0.049868
O O6 0.896710 0.849025 0.033678
O O7 0.562391 0.084659 0.960390
O O8 0.201361 0.722467 0.079114
O O9 0.389511 0.778580 0.189566
O O10 0.000000 0.000000 0.000000
O O11 0.201859 0.564682 0.182655
O O12 0.335701 0.365972 0.393949
O O13 0.335349 0.330633 0.052003
O O14 0.000000 0.500000 0.000000
O O15 0.194874 0.302549 0.649119
O O16 0.410389 0.163347 0.503949
O O17 0.021529 0.325469 0.220483
#
# Coordination Sequence:
#
# PCOD8042193 Si02
#       8
#     2   2   2   2   2   2   2   2
#     4   9  19  36  59  88 118 150 196 255 291 343
#     4  10  19  34  59  90 122 147 200 246 298 341
#     4   9  22  40  60  87 119 156 201 245 294 350
#     4  12  22  39  59  89 127 155 195 238 301 356
#     4  10  21  33  56  94 121 151 192 254 291 348
#     4  10  21  32  60  89 116 151 201 244 296 338
#     4  11  23  39  61  89 118 163 193 242 299 356
#     4  11  20  38  58  86 121 161 193 243 297 351
#
# _framework density 21.599553
#
# number of rings (size 3 to 8) (size 9 to 14) (size 15 to 20)
#    0.000    1.750    3.750    0.375    8.750    1.000 
#    0.000    3.750    0.000    1.500    0.000    0.000 
#    0.000    0.000    0.000    0.000    0.000    0.000 
#
# Total GULP energy -198269.057493 kJ/mol
# GULP energy per Si atom -12391.816093 kJ/mol
# Density = 2.155039 g / cm^3
# Si number density = 21.599553 Si / 1000 Ang^3
#
#
#
# Elastic Constant Matrix: (Units=GPa)
#
#
# Indices 1 2 3 4 5 6 
#
# 1 32.6334 11.6118 32.3779 -3.1702 0.2787 12.2399
# 2 11.6118 55.5242 14.8325 -0.5950 0.9592 5.4981
# 3 32.3779 14.8325 138.0516 -5.8081 6.0275 11.0092
# 4 -3.1702 -0.5950 -5.8081 28.5358 1.2354 -4.1305
# 5 0.2787 0.9592 6.0275 1.2354 31.1503 3.5786
# 6 12.2399 5.4981 11.0092 -4.1305 3.5786 25.5035
#
#
#
# Elastic Compliance Matrix: (Units=1/GPa)
#
#
# Indices 1 2 3 4 5 6 
#
# 1 0.049281 -0.005960 -0.009569 0.000540 0.003718 -0.018670
# 2 -0.005960 0.019533 -0.000621 -0.000533 -0.000277 -0.001130
# 3 -0.009569 -0.000621 0.009603 0.001111 -0.001916 0.001030
# 4 0.000540 -0.000533 0.001111 0.036222 -0.002279 0.005563
# 5 0.003718 -0.000277 -0.001916 -0.002279 0.033220 -0.005928
# 6 -0.018670 -0.001130 0.001030 0.005563 -0.005928 0.049703
#
#
# Mechanical properties :
#
#
# Convention : Reuss Voigt Hill
#
# Bulk Modulus (GPa) = 21.68322 38.20595 29.94458
# Shear Modulus (GPa) = 20.38868 28.19705 24.29286
#
# Velocity S-wave (km/s) = 3.07569 3.61702 3.35728
# Velocity P-wave (km/s) = 4.76169 5.93047 5.37792
#
# Compressibility (1/GPa) = 0.04611862
#
# Stress axis : x y z
#
# Youngs Moduli (GPa) = 20.29172 51.19426 104.13608
#
# Poissons Ratio (x) = 0.30511 0.99643
# Poissons Ratio (y) = 0.12093 0.06468
# Poissons Ratio (z) = 0.19416 0.03180
#
# Static dielectric constant tensor:
#      x y z
#    x 3.626130 0.179300 -0.062400 
#    y 0.179300 3.626410 0.112310 
#    z -0.062400 0.112310 4.425110 
# 
# 
# High freq. dielectric constant tensor:
#      x y z
#    x 1.823850 0.017330 -0.014160 
#    y 0.017330 1.814910 0.004900 
#    z -0.014160 0.004900 1.862130 
# 
# From -- ./inp_files/273906.got.cif
#   From: 2010.06.25/outbox.cif.g09.slc.cpg/sg2_137_cif.got.tgz:273906.got - 2010.06.27 13:26:56.
