data_PCOD8042014
_publ_section_title
;
Structure prediction by ZEFSAII (Michael W. Deem and Ramdas Pophale) SiO2 
 PCOD8042014
Probable space group: P -1
;
_chemical_formula_sum "Si O2"
_cell_formula_units_Z 16
_cell_length_a 12.550343
_cell_length_b 21.293677
_cell_length_c 8.918605
_cell_angle_alpha 151.687337
_cell_angle_beta 52.848393
_cell_angle_gamma 135.234269
_cell_volume 794.459168
_symmetry_space_group_name_H-M "P -1"
_symmetry_group_IT_number 2
_symmetry_cell_setting 'triclinic'
loop_
_space_group_symop_operation_xyz
x,y,z
-x,-y,-z
loop_
_atom_site_type_symbol
_atom_site_label
_atom_site_fract_x
_atom_site_fract_y
_atom_site_fract_z
Si Si1 0.994422 0.020115 0.797664
Si Si2 0.780757 0.803886 0.769676
Si Si3 0.168553 0.455391 0.872337
Si Si4 0.860096 0.526341 0.716825
Si Si5 0.925675 0.155904 0.871105
Si Si6 0.593550 0.961382 0.219067
Si Si7 0.305959 0.762130 0.895391
Si Si8 0.819421 0.278977 0.750818
O O1 0.915099 0.094195 0.918007
O O2 0.086718 0.963209 0.493633
O O3 0.114659 0.143372 0.063130
O O4 0.867012 0.884192 0.713165
O O5 0.728554 0.626505 0.420269
O O6 0.639807 0.838031 0.983457
O O7 0.998746 0.340900 0.721279
O O8 0.174202 0.496097 0.126023
O O9 0.232596 0.609091 0.047676
O O10 0.713972 0.399350 0.485030
O O11 0.000000 0.500000 0.500000
O O12 0.909667 0.695804 0.978118
O O13 0.781408 0.184001 0.033334
O O14 0.500000 0.000000 0.500000
O O15 0.744097 0.119150 0.389297
O O16 0.483958 0.884856 0.008025
O O17 0.230588 0.742348 0.080057
#
# Coordination Sequence:
#
# PCOD8042014 Si02
#       8
#     2   2   2   2   2   2   2   2
#     4  10  20  33  60  88 119 147 191 250 302 345
#     4  11  21  37  59  89 120 155 196 253 294 338
#     4  11  21  35  60  94 120 145 199 256 297 342
#     4  10  19  34  56  82 117 149 188 239 293 346
#     4  10  19  35  58  90 118 150 193 245 299 347
#     4  10  22  40  61  82 121 163 200 239 291 359
#     4  10  20  38  59  82 117 159 196 232 287 366
#     4  10  20  36  62  90 117 153 197 245 298 347
#
# _framework density 20.139488
#
# number of rings (size 3 to 8) (size 9 to 14) (size 15 to 20)
#    0.000    1.750    3.750    3.000    1.750    3.000 
#    0.000    5.625    5.500    0.000    0.000    0.000 
#    0.000    0.000    0.000    0.000    0.000    0.000 
#
# Total GULP energy -198343.441489 kJ/mol
# GULP energy per Si atom -12396.465093 kJ/mol
# Density = 2.009365 g / cm^3
# Si number density = 20.139488 Si / 1000 Ang^3
#
#
#
# Elastic Constant Matrix: (Units=GPa)
#
#
# Indices 1 2 3 4 5 6 
#
# 1 98.1497 27.8594 57.5501 8.5863 2.7301 -13.0629
# 2 27.8594 34.2406 22.4333 3.7321 3.5432 -15.7911
# 3 57.5501 22.4333 126.0294 13.6244 0.2628 -5.0375
# 4 8.5863 3.7321 13.6244 33.2031 6.1826 0.9051
# 5 2.7301 3.5432 0.2628 6.1826 42.7248 5.3218
# 6 -13.0629 -15.7911 -5.0375 0.9051 5.3218 34.2955
#
#
#
# Elastic Compliance Matrix: (Units=1/GPa)
#
#
# Indices 1 2 3 4 5 6 
#
# 1 0.016305 -0.008716 -0.005744 -0.000856 -0.000338 0.001428
# 2 -0.008716 0.048346 -0.003721 -0.001124 -0.005671 0.019304
# 3 -0.005744 -0.003721 0.011445 -0.002976 0.001328 -0.002347
# 4 -0.000856 -0.001124 -0.002976 0.032538 -0.004360 -0.001463
# 5 -0.000338 -0.005671 0.001328 -0.004360 0.025312 -0.006358
# 6 0.001428 0.019304 -0.002347 -0.001463 -0.006358 0.039271
#
#
# Mechanical properties :
#
#
# Convention : Reuss Voigt Hill
#
# Bulk Modulus (GPa) = 25.16654 52.67836 38.92245
# Shear Modulus (GPa) = 22.43931 32.08315 27.26123
#
# Velocity S-wave (km/s) = 3.34158 3.99563 3.68315
# Velocity P-wave (km/s) = 5.23559 6.89204 6.12012
#
# Compressibility (1/GPa) = 0.03973530
#
# Stress axis : x y z
#
# Youngs Moduli (GPa) = 61.33211 20.68405 87.37570
#
# Poissons Ratio (x) = 0.18028 0.50185
# Poissons Ratio (y) = 0.53457 0.32510
# Poissons Ratio (z) = 0.35227 0.07696
#
# Static dielectric constant tensor:
#      x y z
#    x 3.817370 0.046480 0.270020 
#    y 0.046480 3.551830 0.436270 
#    z 0.270020 0.436270 4.457730 
# 
# 
# High freq. dielectric constant tensor:
#      x y z
#    x 1.770590 -0.018200 0.003160 
#    y -0.018200 1.752780 0.003510 
#    z 0.003160 0.003510 1.809290 
# 
# From -- ./inp_files/252961.got.cif
#   From: 2010.06.25/outbox.cif.g09.slc.cpg/sg2_127_cif.got.tgz:252961.got - 2010.06.27 13:26:56.
