data_PCOD8042753
_publ_section_title
;
Structure prediction by ZEFSAII (Michael W. Deem and Ramdas Pophale) SiO2 
 PCOD8042753
Probable space group: P -1
;
_chemical_formula_sum "Si O2"
_cell_formula_units_Z 16
_cell_length_a 16.008083
_cell_length_b 10.647604
_cell_length_c 8.382667
_cell_angle_alpha 34.660307
_cell_angle_beta 74.931666
_cell_angle_gamma 63.355634
_cell_volume 709.424365
_symmetry_space_group_name_H-M "P -1"
_symmetry_group_IT_number 2
_symmetry_cell_setting 'triclinic'
loop_
_space_group_symop_operation_xyz
x,y,z
-x,-y,-z
loop_
_atom_site_type_symbol
_atom_site_label
_atom_site_fract_x
_atom_site_fract_y
_atom_site_fract_z
Si Si1 0.902301 0.898434 0.571916
Si Si2 0.265939 0.581580 0.865218
Si Si3 0.204878 0.019874 0.979722
Si Si4 0.574487 0.313312 0.442532
Si Si5 0.012650 0.141470 0.100691
Si Si6 0.311175 0.198610 0.977184
Si Si7 0.836010 0.614060 0.665521
Si Si8 0.373482 0.525833 0.419114
O O1 0.959867 0.772199 0.835039
O O2 0.857540 0.732490 0.688582
O O3 0.817758 0.153411 0.400946
O O4 0.972805 0.939592 0.366316
O O5 0.368380 0.596581 0.807559
O O6 0.258379 0.428825 0.876666
O O7 0.247749 0.467546 0.157308
O O8 0.236132 0.106167 0.037594
O O9 0.203176 0.198555 0.653483
O O10 0.100702 0.027404 0.053022
O O11 0.276398 0.746746 0.172420
O O12 0.459997 0.449675 0.326346
O O13 0.596659 0.375090 0.542749
O O14 0.609870 0.019861 0.728996
O O15 0.930988 0.379577 0.809892
O O16 0.359090 0.282778 0.719942
#
# Coordination Sequence:
#
# PCOD8042753 Si02
#       8
#     2   2   2   2   2   2   2   2
#     4  10  21  38  59  83 108 143 192 235 274 323
#     4  10  20  36  59  84 111 146 186 232 274 322
#     4  11  23  37  54  84 118 150 183 222 279 336
#     4   9  17  33  57  86 111 140 186 232 276 323
#     4  10  21  37  57  82 108 144 191 233 275 324
#     4  10  19  35  61  84 111 144 183 231 280 327
#     4  11  23  37  56  81 116 152 183 225 276 332
#     4   9  19  33  55  85 115 143 180 231 278 328
#
# _framework density 22.553497
#
# number of rings (size 3 to 8) (size 9 to 14) (size 15 to 20)
#    0.000    2.000    0.000    4.875    0.000    6.500 
#    0.000    0.625    0.000    3.750    0.000    0.000 
#    0.000    0.000    0.000    0.000    0.000    0.000 
#
# Total GULP energy -198393.152497 kJ/mol
# GULP energy per Si atom -12399.572031 kJ/mol
# Density = 2.250216 g / cm^3
# Si number density = 22.553497 Si / 1000 Ang^3
#
#
#
# Elastic Constant Matrix: (Units=GPa)
#
#
# Indices 1 2 3 4 5 6 
#
# 1 63.0020 50.7979 41.0687 -2.0083 -16.5279 -45.5618
# 2 50.7979 79.8747 48.4274 -0.1842 -7.2719 -49.0499
# 3 41.0687 48.4274 137.6823 3.2479 -6.9653 -40.4986
# 4 -2.0083 -0.1842 3.2479 28.3579 -4.0498 -5.1546
# 5 -16.5279 -7.2719 -6.9653 -4.0498 32.4109 6.9627
# 6 -45.5618 -49.0499 -40.4986 -5.1546 6.9627 50.4416
#
#
#
# Elastic Compliance Matrix: (Units=1/GPa)
#
#
# Indices 1 2 3 4 5 6 
#
# 1 0.064438 -0.009603 -0.001492 0.016286 0.022489 0.046228
# 2 -0.009603 0.034298 -0.002539 0.003748 -0.002293 0.023339
# 3 -0.001492 -0.002539 0.009784 -0.000537 -0.000155 0.004006
# 4 0.016286 0.003748 -0.000537 0.041684 0.009763 0.020837
# 5 0.022489 -0.002293 -0.000155 0.009763 0.040111 0.013420
# 6 0.046228 0.023339 0.004006 0.020837 0.013420 0.087769
#
#
# Mechanical properties :
#
#
# Convention : Reuss Voigt Hill
#
# Bulk Modulus (GPa) = 12.30723 62.34967 37.32845
# Shear Modulus (GPa) = 15.04046 31.59309 23.31677
#
# Velocity S-wave (km/s) = 2.58520 3.74680 3.21883
# Velocity P-wave (km/s) = 3.79207 6.81346 5.51376
#
# Compressibility (1/GPa) = 0.08125306
#
# Stress axis : x y z
#
# Youngs Moduli (GPa) = 15.51877 29.15616 102.20587
#
# Poissons Ratio (x) = 0.27999 0.15248
# Poissons Ratio (y) = 0.14903 0.25947
# Poissons Ratio (z) = 0.02315 0.07402
#
# Static dielectric constant tensor:
#      x y z
#    x 4.053440 -0.465830 -0.293990 
#    y -0.465830 3.960810 -0.121070 
#    z -0.293990 -0.121070 4.164230 
# 
# 
# High freq. dielectric constant tensor:
#      x y z
#    x 1.869210 -0.027120 -0.022320 
#    y -0.027120 1.877070 -0.008340 
#    z -0.022320 -0.008340 1.892350 
# 
# From -- ./inp_files/38963.got.cif
#   From: 2010.06.25/outbox.cif.g09.slc.cpg/sg2_20_cif.got.tgz:38963.got - 2010.06.27 13:26:56.
