data_PCOD8042450
_publ_section_title
;
Structure prediction by ZEFSAII (Michael W. Deem and Ramdas Pophale) SiO2 
 PCOD8042450
Probable space group: P -1
;
_chemical_formula_sum "Si O2"
_cell_formula_units_Z 16
_cell_length_a 9.187828
_cell_length_b 21.198265
_cell_length_c 17.988091
_cell_angle_alpha 18.776312
_cell_angle_beta 127.217132
_cell_angle_gamma 135.623149
_cell_volume 747.381336
_symmetry_space_group_name_H-M "P -1"
_symmetry_group_IT_number 2
_symmetry_cell_setting 'triclinic'
loop_
_space_group_symop_operation_xyz
x,y,z
-x,-y,-z
loop_
_atom_site_type_symbol
_atom_site_label
_atom_site_fract_x
_atom_site_fract_y
_atom_site_fract_z
Si Si1 0.938819 0.653585 0.764486
Si Si2 0.517580 0.598276 0.049513
Si Si3 0.206681 0.690400 0.202657
Si Si4 0.391249 0.115531 0.379634
Si Si5 0.361428 0.928805 0.375058
Si Si6 0.445909 0.230937 0.667836
Si Si7 0.876223 0.604670 0.632181
Si Si8 0.725360 0.373499 0.446460
O O1 0.729525 0.633939 0.760440
O O2 0.875044 0.541332 0.787910
O O3 0.131540 0.928872 0.517734
O O4 0.000000 0.500000 0.000000
O O5 0.687976 0.548149 0.192412
O O6 0.572330 0.669599 0.899566
O O7 0.509399 0.794187 0.877615
O O8 0.401388 0.679557 0.311949
O O9 0.171758 0.608001 0.198315
O O10 0.988101 0.522051 0.371950
O O11 0.266979 0.953715 0.926874
O O12 0.521872 0.191294 0.414016
O O13 0.500000 0.000000 0.500000
O O14 0.356860 0.867929 0.354796
O O15 0.117141 0.831026 0.437137
O O16 0.313264 0.351263 0.490127
O O17 0.602723 0.299965 0.568309
#
# Coordination Sequence:
#
# PCOD8042450 Si02
#       8
#     2   2   2   2   2   2   2   2
#     4  12  20  34  62  90 118 162 201 238 294 349
#     4  11  21  37  59  83 120 161 197 245 291 346
#     4  10  25  42  63  90 121 155 197 255 304 354
#     4  10  19  35  56  83 121 160 197 240 291 343
#     4  10  21  39  59  88 122 160 200 244 292 353
#     4  11  23  43  64  89 121 155 199 251 307 357
#     4  11  21  40  65  89 119 161 203 241 296 366
#     4  11  24  38  63  91 118 155 201 245 302 361
#
# _framework density 21.408079000000001
#
# number of rings (size 3 to 8) (size 9 to 14) (size 15 to 20)
#    0.000    1.250    6.250    1.500    1.750    0.500 
#    0.000    0.625    0.000    8.250    0.000    0.000 
#    0.000    0.000    0.000    0.000    0.000    0.000 
#
# Total GULP energy -198381.258965 kJ/mol
# GULP energy per Si atom -12398.828685 kJ/mol
# Density = 2.135935 g / cm^3
# Si number density = 21.408079 Si / 1000 Ang^3
#
#
#
# Elastic Constant Matrix: (Units=GPa)
#
#
# Indices 1 2 3 4 5 6 
#
# 1 71.4239 24.2723 23.2056 -10.7769 -20.2700 15.6491
# 2 24.2723 92.0674 20.0731 -5.4847 -9.9170 10.1824
# 3 23.2056 20.0731 41.4598 -1.5774 -17.0359 0.2738
# 4 -10.7769 -5.4847 -1.5774 31.4822 9.7828 -5.7015
# 5 -20.2700 -9.9170 -17.0359 9.7828 35.1304 1.7257
# 6 15.6491 10.1824 0.2738 -5.7015 1.7257 29.5359
#
#
#
# Elastic Compliance Matrix: (Units=1/GPa)
#
#
# Indices 1 2 3 4 5 6 
#
# 1 0.022448 -0.001882 -0.008023 0.002300 0.008441 -0.011220
# 2 -0.001882 0.012882 -0.005127 0.000749 0.000015 -0.003253
# 3 -0.008023 -0.005127 0.036059 -0.005033 0.012616 0.003976
# 4 0.002300 0.000749 -0.005033 0.037190 -0.011574 0.006425
# 5 0.008441 0.000015 0.012616 -0.011574 0.043140 -0.009349
# 6 -0.011220 -0.003253 0.003976 0.006425 -0.009349 0.042673
#
#
# Mechanical properties :
#
#
# Convention : Reuss Voigt Hill
#
# Bulk Modulus (GPa) = 24.19900 37.78369 30.99134
# Shear Modulus (GPa) = 20.98809 28.38972 24.68890
#
# Velocity S-wave (km/s) = 3.13450 3.64555 3.39964
# Velocity P-wave (km/s) = 4.94250 5.95043 5.46973
#
# Compressibility (1/GPa) = 0.04132403
#
# Stress axis : x y z
#
# Youngs Moduli (GPa) = 44.54741 77.63029 27.73237
#
# Poissons Ratio (x) = 0.14608 0.22251
# Poissons Ratio (y) = 0.08382 0.14219
# Poissons Ratio (z) = 0.35742 0.39802
#
# Static dielectric constant tensor:
#      x y z
#    x 3.984220 0.197070 -0.305400 
#    y 0.197070 4.344760 0.023320 
#    z -0.305400 0.023320 3.704610 
# 
# 
# High freq. dielectric constant tensor:
#      x y z
#    x 1.840340 0.010970 -0.014870 
#    y 0.010970 1.855180 -0.000400 
#    z -0.014870 -0.000400 1.823580 
# 
# From -- ./inp_files/562557.got.cif
#   From: 2010.06.25/outbox.cif.g09.slc.cpg/sg2_282_cif.got.tgz:562557.got - 2010.06.27 13:26:56.
