data_PCOD8042835
_publ_section_title
;
Structure prediction by ZEFSAII (Michael W. Deem and Ramdas Pophale) SiO2 
 PCOD8042835
Probable space group: P -1
;
_chemical_formula_sum "Si O2"
_cell_formula_units_Z 16
_cell_length_a 25.885715
_cell_length_b 10.769303
_cell_length_c 11.891950
_cell_angle_alpha 143.502414
_cell_angle_beta 150.092588
_cell_angle_gamma 25.428173
_cell_volume 706.300751
_symmetry_space_group_name_H-M "P -1"
_symmetry_group_IT_number 2
_symmetry_cell_setting 'triclinic'
loop_
_space_group_symop_operation_xyz
x,y,z
-x,-y,-z
loop_
_atom_site_type_symbol
_atom_site_label
_atom_site_fract_x
_atom_site_fract_y
_atom_site_fract_z
Si Si1 0.031500 0.042604 0.393670
Si Si2 0.329195 0.532687 0.633595
Si Si3 0.943432 0.514818 0.262114
Si Si4 0.221940 0.570473 0.239269
Si Si5 0.299211 0.182547 0.809058
Si Si6 0.723587 0.341893 0.993224
Si Si7 0.507409 0.291838 0.001212
Si Si8 0.758274 0.108666 0.655891
O O1 0.880716 0.136901 0.199149
O O2 0.007351 0.324208 0.563120
O O3 0.158848 0.789257 0.535746
O O4 0.087580 0.899968 0.271153
O O5 0.338232 0.385347 0.426979
O O6 0.378836 0.698401 0.819566
O O7 0.424184 0.303256 0.746172
O O8 0.868297 0.609735 0.313915
O O9 0.823713 0.596512 0.006979
O O10 0.073541 0.171752 0.248033
O O11 0.283333 0.613372 0.279513
O O12 0.324566 0.365260 0.930773
O O13 0.407033 0.010257 0.992934
O O14 0.334494 0.948223 0.616258
O O15 0.610368 0.430691 0.938858
O O16 0.721464 0.177028 0.768401
#
# Coordination Sequence:
#
# PCOD8042835 Si02
#       8
#     2   2   2   2   2   2   2   2
#     4  10  20  39  63  93 115 161 205 257 294 348
#     4   9  21  44  68  83 116 166 219 243 283 369
#     4  12  19  33  66  93 124 155 208 250 300 360
#     4  10  19  35  62  92 113 157 207 250 293 347
#     4  12  22  37  61  92 127 165 197 246 303 370
#     4  12  25  37  64  95 129 155 191 261 322 353
#     4  11  23  43  64  87 123 171 202 241 309 365
#     4  12  20  34  59  97 126 154 198 256 309 357
#
# _framework density 22.653238999999999
#
# number of rings (size 3 to 8) (size 9 to 14) (size 15 to 20)
#    0.750    0.250    7.500    1.875    0.000    1.000 
#    0.000    0.625    5.500    1.500    0.000    0.000 
#    0.000    0.000    0.000    0.000    0.000    0.000 
#
# Total GULP energy -198311.249519 kJ/mol
# GULP energy per Si atom -12394.453095 kJ/mol
# Density = 2.260168 g / cm^3
# Si number density = 22.653239 Si / 1000 Ang^3
#
#
#
# Elastic Constant Matrix: (Units=GPa)
#
#
# Indices 1 2 3 4 5 6 
#
# 1 44.7112 19.9835 17.5518 -10.4618 -13.1534 -12.6586
# 2 19.9835 48.4789 27.2337 -13.3036 -0.4525 -6.0000
# 3 17.5518 27.2337 100.9163 -2.4952 -24.9413 10.4119
# 4 -10.4618 -13.3036 -2.4952 43.9161 1.2533 -5.8517
# 5 -13.1534 -0.4525 -24.9413 1.2533 23.3455 2.3524
# 6 -12.6586 -6.0000 10.4119 -5.8517 2.3524 24.0080
#
#
#
# Elastic Compliance Matrix: (Units=1/GPa)
#
#
# Indices 1 2 3 4 5 6 
#
# 1 0.041007 -0.011497 -0.001021 0.008246 0.019403 0.019300
# 2 -0.011497 0.039237 -0.016191 0.011070 -0.025215 0.015935
# 3 -0.001021 -0.016191 0.022459 -0.007065 0.025352 -0.018531
# 4 0.008246 0.011070 -0.007065 0.030282 -0.006143 0.018161
# 5 0.019403 -0.025215 0.025352 -0.006143 0.082369 -0.016634
# 6 0.019300 0.015935 -0.018531 0.018161 -0.016634 0.069904
#
#
# Mechanical properties :
#
#
# Convention : Reuss Voigt Hill
#
# Bulk Modulus (GPa) = 22.08312 35.96049 29.02181
# Shear Modulus (GPa) = 13.97536 26.87643 20.42589
#
# Velocity S-wave (km/s) = 2.48649 3.44819 3.00605
# Velocity P-wave (km/s) = 4.24418 5.63579 4.98875
#
# Compressibility (1/GPa) = 0.04528345
#
# Stress axis : x y z
#
# Youngs Moduli (GPa) = 24.38621 25.48604 44.52525
#
# Poissons Ratio (x) = 0.29302 0.04548
# Poissons Ratio (y) = 0.28037 0.72092
# Poissons Ratio (z) = 0.02491 0.41265
#
# Static dielectric constant tensor:
#      x y z
#    x 3.645080 -0.216110 -0.263560 
#    y -0.216110 3.836440 -0.226920 
#    z -0.263560 -0.226920 4.330900 
# 
# 
# High freq. dielectric constant tensor:
#      x y z
#    x 1.851310 -0.016060 -0.015040 
#    y -0.016060 1.876520 -0.013800 
#    z -0.015040 -0.013800 1.910190 
# 
# From -- ./inp_files/476575.got.cif
#   From: 2010.06.25/outbox.cif.g09.slc.cpg/sg2_239_cif.got.tgz:476575.got - 2010.06.27 13:26:56.
