data_PCOD8042648
_publ_section_title
;
Structure prediction by ZEFSAII (Michael W. Deem and Ramdas Pophale) SiO2 
 PCOD8042648
Probable space group: P -1
;
_chemical_formula_sum "Si O2"
_cell_formula_units_Z 16
_cell_length_a 18.983383
_cell_length_b 11.310454
_cell_length_c 9.353510
_cell_angle_alpha 103.377945
_cell_angle_beta 80.727402
_cell_angle_gamma 33.556073
_cell_volume 813.054885
_symmetry_space_group_name_H-M "P -1"
_symmetry_group_IT_number 2
_symmetry_cell_setting 'triclinic'
loop_
_space_group_symop_operation_xyz
x,y,z
-x,-y,-z
loop_
_atom_site_type_symbol
_atom_site_label
_atom_site_fract_x
_atom_site_fract_y
_atom_site_fract_z
Si Si1 0.960619 0.380376 0.492508
Si Si2 0.763638 0.646327 0.349545
Si Si3 0.793668 0.831087 0.826472
Si Si4 0.665416 0.320499 0.422868
Si Si5 0.501442 0.666437 0.119716
Si Si6 0.077850 0.256766 0.969231
Si Si7 0.716110 0.214357 0.692752
Si Si8 0.574212 0.692626 0.370353
O O1 0.097600 0.255904 0.340445
O O2 0.815331 0.568928 0.479015
O O3 0.876487 0.569723 0.715003
O O4 0.079855 0.092443 0.439367
O O5 0.695007 0.619813 0.331495
O O6 0.622806 0.965654 0.443977
O O7 0.927739 0.413767 0.135240
O O8 0.603580 0.109517 0.910682
O O9 0.787146 0.902185 0.003573
O O10 0.500000 0.500000 0.500000
O O11 0.679725 0.337594 0.589341
O O12 0.647409 0.473068 0.384434
O O13 0.825495 0.986314 0.234905
O O14 0.378700 0.770291 0.285332
O O15 0.588087 0.630837 0.183886
O O16 0.651476 0.367162 0.906318
O O17 0.000000 0.500000 0.000000
#
# Coordination Sequence:
#
# PCOD8042648 Si02
#       8
#     2   2   2   2   2   2   2   2
#     4   9  17  33  56  80 114 153 195 246 289 349
#     4  10  23  42  60  88 120 166 209 241 301 369
#     4   9  17  30  55  84 112 149 197 241 292 346
#     4  12  23  38  62  96 126 156 199 255 309 353
#     4  10  19  35  59  88 115 157 198 246 299 359
#     4  11  23  37  62  94 124 158 198 255 308 356
#     4  10  21  34  58  90 120 148 199 253 305 352
#     4  11  23  40  65  86 124 165 202 250 299 365
#
# _framework density 19.678868000000001
#
# number of rings (size 3 to 8) (size 9 to 14) (size 15 to 20)
#    0.000    1.750    2.500    2.250    7.000    0.500 
#    0.000    0.625    2.750    2.250    0.000    0.000 
#    0.000    0.000    0.000    0.000    0.000    0.000 
#
# Total GULP energy -198210.314641 kJ/mol
# GULP energy per Si atom -12388.144665 kJ/mol
# Density = 1.963408 g / cm^3
# Si number density = 19.678868 Si / 1000 Ang^3
#
#
#
# Elastic Constant Matrix: (Units=GPa)
#
#
# Indices 1 2 3 4 5 6 
#
# 1 79.8847 40.6057 33.7414 3.2937 14.3251 -6.8886
# 2 40.6057 128.7421 30.7183 7.9086 3.0599 1.2486
# 3 33.7414 30.7183 70.2268 1.7651 10.1003 0.0326
# 4 3.2937 7.9086 1.7651 32.4256 -0.6508 5.1991
# 5 14.3251 3.0599 10.1003 -0.6508 20.5088 1.2823
# 6 -6.8886 1.2486 0.0326 5.1991 1.2823 28.4185
#
#
#
# Elastic Compliance Matrix: (Units=1/GPa)
#
#
# Indices 1 2 3 4 5 6 
#
# 1 0.019821 -0.004524 -0.005973 -0.001730 -0.010647 0.005807
# 2 -0.004524 0.009830 -0.002515 -0.001520 0.002970 -0.001381
# 3 -0.005973 -0.002515 0.018873 0.000292 -0.004663 -0.001202
# 4 -0.001730 -0.001520 0.000292 0.032453 0.002722 -0.006413
# 5 -0.010647 0.002970 -0.004663 0.002722 0.058501 -0.005844
# 6 0.005807 -0.001381 -0.001202 -0.006413 -0.005844 0.038095
#
#
# Mechanical properties :
#
#
# Convention : Reuss Voigt Hill
#
# Bulk Modulus (GPa) = 44.43916 54.33161 49.38539
# Shear Modulus (GPa) = 23.68566 27.85644 25.77105
#
# Velocity S-wave (km/s) = 3.47307 3.76646 3.62274
# Velocity P-wave (km/s) = 6.22207 6.82525 6.53063
#
# Compressibility (1/GPa) = 0.02250267
#
# Stress axis : x y z
#
# Youngs Moduli (GPa) = 50.45049 101.72441 52.98517
#
# Poissons Ratio (x) = 0.46016 0.31647
# Poissons Ratio (y) = 0.22822 0.13325
# Poissons Ratio (z) = 0.30133 0.25582
#
# Static dielectric constant tensor:
#      x y z
#    x 3.349330 -0.259930 0.290430 
#    y -0.259930 4.578150 -0.025260 
#    z 0.290430 -0.025260 3.777910 
# 
# 
# High freq. dielectric constant tensor:
#      x y z
#    x 1.724150 -0.018160 0.020840 
#    y -0.018160 1.784430 0.012000 
#    z 0.020840 0.012000 1.769610 
# 
# From -- ./inp_files/244162.got.cif
#   From: 2010.06.25/outbox.cif.g09.slc.cpg/sg2_123_cif.got.tgz:244162.got - 2010.06.27 13:26:56.
