data_PCOD8042234
_publ_section_title
;
Structure prediction by ZEFSAII (Michael W. Deem and Ramdas Pophale) SiO2 
 PCOD8042234
Probable space group: P -1
;
_chemical_formula_sum "Si O2"
_cell_formula_units_Z 16
_cell_length_a 12.886096
_cell_length_b 11.554545
_cell_length_c 11.459093
_cell_angle_alpha 45.996831
_cell_angle_beta 57.892141
_cell_angle_gamma 37.739571
_cell_volume 750.553143
_symmetry_space_group_name_H-M "P -1"
_symmetry_group_IT_number 2
_symmetry_cell_setting 'triclinic'
loop_
_space_group_symop_operation_xyz
x,y,z
-x,-y,-z
loop_
_atom_site_type_symbol
_atom_site_label
_atom_site_fract_x
_atom_site_fract_y
_atom_site_fract_z
Si Si1 0.342151 0.044351 0.109862
Si Si2 0.747245 0.599988 0.941288
Si Si3 0.174246 0.743776 0.203847
Si Si4 0.133104 0.660543 0.714210
Si Si5 0.177423 0.046635 0.819548
Si Si6 0.533564 0.646839 0.839796
Si Si7 0.788750 0.152378 0.638855
Si Si8 0.895332 0.652450 0.162653
O O1 0.370572 0.829102 0.273079
O O2 0.280672 0.186845 0.164187
O O3 0.196249 0.177326 0.008014
O O4 0.500000 0.000000 0.000000
O O5 0.755370 0.494794 0.132503
O O6 0.594600 0.679338 0.897852
O O7 0.920053 0.432445 0.883671
O O8 0.323538 0.483359 0.255943
O O9 0.200118 0.754727 0.315928
O O10 0.991055 0.823211 0.247936
O O11 0.182480 0.900514 0.015481
O O12 0.238607 0.701809 0.554525
O O13 0.104938 0.538633 0.725062
O O14 0.955221 0.892040 0.701594
O O15 0.183578 0.217244 0.758608
O O16 0.347891 0.888196 0.747063
O O17 0.500000 0.500000 0.000000
#
# Coordination Sequence:
#
# PCOD8042234 Si02
#       8
#     2   2   2   2   2   2   2   2
#     4  11  21  33  58  86 119 155 197 250 295 353
#     4  11  19  37  59  90 117 152 204 251 292 350
#     4  10  20  35  58  89 120 156 196 257 294 351
#     4  10  22  36  62  87 121 159 202 245 301 365
#     4  10  19  34  60  89 117 153 202 253 301 342
#     4  10  22  33  59  94 117 150 201 257 298 344
#     4  11  21  39  57  91 123 160 201 239 307 370
#     4  11  18  38  59  87 117 154 206 252 295 352
#
# _framework density 21.317610999999999
#
# number of rings (size 3 to 8) (size 9 to 14) (size 15 to 20)
#    0.000    1.500    5.000    1.500    5.250    0.000 
#    0.000    3.125    0.000    0.750    0.000    0.000 
#    0.000    0.000    0.000    0.000    0.000    0.000 
#
# Total GULP energy -198264.342051 kJ/mol
# GULP energy per Si atom -12391.521378 kJ/mol
# Density = 2.126909 g / cm^3
# Si number density = 21.317611 Si / 1000 Ang^3
#
#
#
# Elastic Constant Matrix: (Units=GPa)
#
#
# Indices 1 2 3 4 5 6 
#
# 1 127.7846 61.4106 32.6262 4.7478 -10.8375 9.6111
# 2 61.4106 149.4862 23.5725 9.1986 1.0469 3.8502
# 3 32.6262 23.5725 72.3033 8.3659 -19.1810 4.6218
# 4 4.7478 9.1986 8.3659 13.9920 -0.8762 -2.8405
# 5 -10.8375 1.0469 -19.1810 -0.8762 21.8418 7.1997
# 6 9.6111 3.8502 4.6218 -2.8405 7.1997 43.3136
#
#
#
# Elastic Compliance Matrix: (Units=1/GPa)
#
#
# Indices 1 2 3 4 5 6 
#
# 1 0.010949 -0.004114 -0.002252 0.000097 0.004501 -0.002565
# 2 -0.004114 0.008903 -0.001919 -0.003421 -0.004575 0.000862
# 3 -0.002252 -0.001919 0.022526 -0.011362 0.020226 -0.005840
# 4 0.000097 -0.003421 -0.011362 0.081601 -0.009256 0.008385
# 5 0.004501 -0.004575 0.020226 -0.009256 0.070602 -0.015093
# 6 -0.002565 0.000862 -0.005840 0.008385 -0.015093 0.027262
#
#
# Mechanical properties :
#
#
# Convention : Reuss Voigt Hill
#
# Bulk Modulus (GPa) = 38.74960 64.97695 51.86327
# Shear Modulus (GPa) = 20.24155 31.29379 25.76767
#
# Velocity S-wave (km/s) = 3.08478 3.83558 3.48048
# Velocity P-wave (km/s) = 5.55918 7.08252 6.36658
#
# Compressibility (1/GPa) = 0.02580672
#
# Stress axis : x y z
#
# Youngs Moduli (GPa) = 91.33167 112.32565 44.39279
#
# Poissons Ratio (x) = 0.46214 0.09999
# Poissons Ratio (y) = 0.37576 0.08519
# Poissons Ratio (z) = 0.20572 0.21554
#
# Static dielectric constant tensor:
#      x y z
#    x 3.809120 0.113240 -0.238890 
#    y 0.113240 4.604390 0.046690 
#    z -0.238890 0.046690 3.380000 
# 
# 
# High freq. dielectric constant tensor:
#      x y z
#    x 1.845840 0.010180 -0.014940 
#    y 0.010180 1.852820 0.005960 
#    z -0.014940 0.005960 1.779010 
# 
# From -- ./inp_files/224265.got.cif
#   From: 2010.06.25/outbox.cif.g09.slc.cpg/sg2_113_cif.got.tgz:224265.got - 2010.06.27 13:26:56.
