data_PCOD8042242
_publ_section_title
;
Structure prediction by ZEFSAII (Michael W. Deem and Ramdas Pophale) SiO2 
 PCOD8042242
Probable space group: P -1
;
_chemical_formula_sum "Si O2"
_cell_formula_units_Z 16
_cell_length_a 11.954320
_cell_length_b 14.994710
_cell_length_c 10.350476
_cell_angle_alpha 145.756509
_cell_angle_beta 52.171665
_cell_angle_gamma 139.452244
_cell_volume 678.138781
_symmetry_space_group_name_H-M "P -1"
_symmetry_group_IT_number 2
_symmetry_cell_setting 'triclinic'
loop_
_space_group_symop_operation_xyz
x,y,z
-x,-y,-z
loop_
_atom_site_type_symbol
_atom_site_label
_atom_site_fract_x
_atom_site_fract_y
_atom_site_fract_z
Si Si1 0.675002 0.758923 0.119045
Si Si2 0.992064 0.181541 0.997855
Si Si3 0.129682 0.829059 0.657138
Si Si4 0.144027 0.574380 0.708571
Si Si5 0.534383 0.114924 0.481125
Si Si6 0.593333 0.490650 0.623736
Si Si7 0.684400 0.774202 0.683456
Si Si8 0.572210 0.129565 0.975867
O O1 0.518882 0.732022 0.284665
O O2 0.780314 0.975590 0.251587
O O3 0.581626 0.597548 0.881887
O O4 0.809792 0.737378 0.079302
O O5 0.976565 0.157727 0.135611
O O6 0.948028 0.331383 0.171335
O O7 0.866569 0.975258 0.769583
O O8 0.264594 0.787899 0.574543
O O9 0.002189 0.651990 0.440311
O O10 0.297230 0.601865 0.537897
O O11 0.235686 0.680501 0.905729
O O12 0.500000 0.000000 0.500000
O O13 0.415478 0.975841 0.282299
O O14 0.701105 0.635199 0.600132
O O15 0.399760 0.326559 0.515820
O O16 0.558511 0.812597 0.897559
O O17 0.500000 0.000000 0.000000
#
# Coordination Sequence:
#
# PCOD8042242 Si02
#       8
#     2   2   2   2   2   2   2   2
#     4  11  22  38  59  89 124 162 202 262 316 369
#     4  12  20  36  60  92 123 161 212 256 308 370
#     4  11  20  38  61  88 124 163 213 253 307 371
#     4  11  23  34  60  93 119 162 214 261 299 366
#     4  10  22  41  65  90 125 169 207 255 318 375
#     4  10  20  34  56  90 122 153 206 260 310 356
#     4  10  19  34  60  90 118 156 209 262 297 362
#     4  11  20  40  66  93 124 167 211 254 311 371
#
# _framework density 23.593990999999999
#
# number of rings (size 3 to 8) (size 9 to 14) (size 15 to 20)
#    0.000    1.250    5.000    2.250    0.000    0.000 
#    0.000    5.000    0.000    0.000    0.000    0.000 
#    0.000    0.000    0.000    0.000    0.000    0.000 
#
# Total GULP energy -198335.582194 kJ/mol
# GULP energy per Si atom -12395.973887 kJ/mol
# Density = 2.354029 g / cm^3
# Si number density = 23.593991 Si / 1000 Ang^3
#
#
#
# Elastic Constant Matrix: (Units=GPa)
#
#
# Indices 1 2 3 4 5 6 
#
# 1 108.3515 13.9557 61.9978 -0.1477 -3.1406 26.3708
# 2 13.9557 35.5070 34.1849 14.9745 9.7270 17.4685
# 3 61.9978 34.1849 182.8024 4.1969 27.5215 28.8841
# 4 -0.1477 14.9745 4.1969 40.4250 15.2420 -2.0047
# 5 -3.1406 9.7270 27.5215 15.2420 48.4014 1.2588
# 6 26.3708 17.4685 28.8841 -2.0047 1.2588 35.1680
#
#
#
# Elastic Compliance Matrix: (Units=1/GPa)
#
#
# Indices 1 2 3 4 5 6 
#
# 1 0.013424 0.002914 -0.004295 -0.002387 0.003694 -0.008255
# 2 0.002914 0.054514 -0.006825 -0.020827 0.000320 -0.024856
# 3 -0.004295 -0.006825 0.008944 0.003482 -0.005080 -0.000355
# 4 -0.002387 -0.020827 0.003482 0.036315 -0.009689 0.011692
# 5 0.003694 0.000320 -0.005080 -0.009689 0.026783 -0.000267
# 6 -0.008255 -0.024856 -0.000355 0.011692 -0.000267 0.047939
#
#
# Mechanical properties :
#
#
# Convention : Reuss Voigt Hill
#
# Bulk Modulus (GPa) = 16.53693 60.77085 38.65389
# Shear Modulus (GPa) = 22.27302 39.23371 30.75337
#
# Velocity S-wave (km/s) = 3.07581 4.08225 3.61424
# Velocity P-wave (km/s) = 4.43152 6.93055 5.81682
#
# Compressibility (1/GPa) = 0.06047071
#
# Stress axis : x y z
#
# Youngs Moduli (GPa) = 74.49270 18.34403 111.80247
#
# Poissons Ratio (x) = -0.05346 0.48017
# Poissons Ratio (y) = -0.21710 0.76308
# Poissons Ratio (z) = 0.31993 0.12520
#
# Static dielectric constant tensor:
#      x y z
#    x 4.626890 0.521290 -0.379400 
#    y 0.521290 4.026860 0.084620 
#    z -0.379400 0.084620 4.718210 
# 
# 
# High freq. dielectric constant tensor:
#      x y z
#    x 1.947950 0.023070 -0.013060 
#    y 0.023070 1.887390 0.029780 
#    z -0.013060 0.029780 1.946580 
# 
# From -- ./inp_files/416544.got.cif
#   From: 2010.06.25/outbox.cif.g09.slc.cpg/sg2_209_cif.got.tgz:416544.got - 2010.06.27 13:26:56.
