data_PCOD8042537
_publ_section_title
;
Structure prediction by ZEFSAII (Michael W. Deem and Ramdas Pophale) SiO2 
 PCOD8042537
Probable space group: P -1
;
_chemical_formula_sum "Si O2"
_cell_formula_units_Z 16
_cell_length_a 14.467435
_cell_length_b 11.339242
_cell_length_c 17.353595
_cell_angle_alpha 36.030619
_cell_angle_beta 140.066612
_cell_angle_gamma 153.656633
_cell_volume 733.373256
_symmetry_space_group_name_H-M "P -1"
_symmetry_group_IT_number 2
_symmetry_cell_setting 'triclinic'
loop_
_space_group_symop_operation_xyz
x,y,z
-x,-y,-z
loop_
_atom_site_type_symbol
_atom_site_label
_atom_site_fract_x
_atom_site_fract_y
_atom_site_fract_z
Si Si1 0.904943 0.296856 0.316099
Si Si2 0.779894 0.050567 0.202410
Si Si3 0.163168 0.159098 0.391333
Si Si4 0.359559 0.654435 0.827145
Si Si5 0.332517 0.437852 0.195963
Si Si6 0.450929 0.439204 0.878795
Si Si7 0.290148 0.675149 0.272440
Si Si8 0.916647 0.245621 0.022663
O O1 0.871052 0.482400 0.235466
O O2 0.155674 0.526946 0.343829
O O3 0.788854 0.176959 0.221909
O O4 0.815202 0.029453 0.453449
O O5 0.534293 0.766928 0.180434
O O6 0.879969 0.279083 0.072045
O O7 0.920493 0.990342 0.329953
O O8 0.238866 0.204465 0.327645
O O9 0.320848 0.481034 0.362676
O O10 0.386881 0.589686 0.793897
O O11 0.496087 0.994755 0.747557
O O12 0.403827 0.530032 0.983751
O O13 0.408568 0.379652 0.203245
O O14 0.153042 0.410143 0.068308
O O15 0.239363 0.102903 0.902580
O O16 0.146821 0.644797 0.134430
#
# Coordination Sequence:
#
# PCOD8042537 Si02
#       8
#     2   2   2   2   2   2   2   2
#     4  11  22  36  54  79 111 145 179 217 261 314
#     4   9  19  34  54  82 112 137 172 222 267 319
#     4  10  22  36  53  80 111 142 180 218 259 316
#     4  10  21  36  58  83 106 139 179 219 269 322
#     4  10  19  35  58  77 106 148 177 214 271 315
#     4   9  20  38  56  82 111 132 175 231 267 311
#     4  10  20  35  55  82 113 140 171 219 270 318
#     4   9  19  34  56  84 109 137 175 216 271 327
#
# _framework density 21.816994000000001
#
# number of rings (size 3 to 8) (size 9 to 14) (size 15 to 20)
#    0.000    2.250    0.000    3.000    0.000    9.500 
#    0.000   13.125    0.000    7.500    0.000    0.000 
#    0.000    0.000    0.000    0.000    0.000    0.000 
#
# Total GULP energy -198357.756024 kJ/mol
# GULP energy per Si atom -12397.359751 kJ/mol
# Density = 2.176734 g / cm^3
# Si number density = 21.816994 Si / 1000 Ang^3
#
#
#
# Elastic Constant Matrix: (Units=GPa)
#
#
# Indices 1 2 3 4 5 6 
#
# 1 177.7517 15.0458 52.9355 -3.2198 7.6487 -6.7322
# 2 15.0458 40.4413 5.4693 1.7169 1.1198 4.4997
# 3 52.9355 5.4693 93.5511 -6.6000 -2.7533 -3.1872
# 4 -3.2198 1.7169 -6.6000 14.9616 4.9793 2.1818
# 5 7.6487 1.1198 -2.7533 4.9793 32.5984 -4.7145
# 6 -6.7322 4.4997 -3.1872 2.1818 -4.7145 25.2737
#
#
#
# Elastic Compliance Matrix: (Units=1/GPa)
#
#
# Indices 1 2 3 4 5 6 
#
# 1 0.007105 -0.002252 -0.003859 0.000468 -0.001780 0.001434
# 2 -0.002252 0.026383 -0.000667 -0.002778 -0.000774 -0.005286
# 3 -0.003859 -0.000667 0.013297 0.004534 0.001453 0.000647
# 4 0.000468 -0.002778 0.004534 0.074366 -0.012073 -0.007481
# 5 -0.001780 -0.000774 0.001453 -0.012073 0.034137 0.007257
# 6 0.001434 -0.005286 0.000647 -0.007481 0.007257 0.042971
#
#
# Mechanical properties :
#
#
# Convention : Reuss Voigt Hill
#
# Bulk Modulus (GPa) = 30.09477 50.96057 40.52767
# Shear Modulus (GPa) = 22.43251 30.45297 26.44274
#
# Velocity S-wave (km/s) = 3.21005 3.74014 3.48519
# Velocity P-wave (km/s) = 5.25009 6.48540 5.90016
#
# Compressibility (1/GPa) = 0.03322836
#
# Stress axis : x y z
#
# Youngs Moduli (GPa) = 140.74365 37.90369 75.20638
#
# Poissons Ratio (x) = 0.08535 0.29024
# Poissons Ratio (y) = 0.31691 0.05018
# Poissons Ratio (z) = 0.54316 0.02529
#
# Static dielectric constant tensor:
#      x y z
#    x 4.314870 0.140750 -0.188080 
#    y 0.140750 3.934700 -0.025830 
#    z -0.188080 -0.025830 3.635710 
# 
# 
# High freq. dielectric constant tensor:
#      x y z
#    x 1.870220 0.019460 -0.009180 
#    y 0.019460 1.847800 0.000710 
#    z -0.009180 0.000710 1.836720 
# 
# From -- ./inp_files/518861.got.cif
#   From: 2010.06.25/outbox.cif.g09.slc.cpg/sg2_260_cif.got.tgz:518861.got - 2010.06.27 13:26:56.
