data_PCOD8042745
_publ_section_title
;
Structure prediction by ZEFSAII (Michael W. Deem and Ramdas Pophale) SiO2 
 PCOD8042745
Probable space group: P -1
;
_chemical_formula_sum "Si O2"
_cell_formula_units_Z 16
_cell_length_a 9.340358
_cell_length_b 13.661223
_cell_length_c 18.799932
_cell_angle_alpha 20.301201
_cell_angle_beta 128.208457
_cell_angle_gamma 128.287476
_cell_volume 647.094706
_symmetry_space_group_name_H-M "P -1"
_symmetry_group_IT_number 2
_symmetry_cell_setting 'triclinic'
loop_
_space_group_symop_operation_xyz
x,y,z
-x,-y,-z
loop_
_atom_site_type_symbol
_atom_site_label
_atom_site_fract_x
_atom_site_fract_y
_atom_site_fract_z
Si Si1 0.188655 0.830648 0.737627
Si Si2 0.372262 0.886627 0.467015
Si Si3 0.052439 0.601830 0.142012
Si Si4 0.404698 0.421338 0.340887
Si Si5 0.221860 0.014149 0.180612
Si Si6 0.507324 0.493866 0.921711
Si Si7 0.660974 0.527695 0.472433
Si Si8 0.022587 0.210083 0.524849
O O1 0.310135 0.641080 0.950952
O O2 0.097604 0.640595 0.774365
O O3 0.316047 0.114274 0.555287
O O4 0.031087 0.922094 0.678324
O O5 0.325032 0.970528 0.315167
O O6 0.501945 0.637445 0.666791
O O7 0.486838 0.187206 0.329240
O O8 0.184645 0.783235 0.519808
O O9 0.246481 0.623497 0.144194
O O10 0.088356 0.493638 0.305889
O O11 0.982322 0.910505 0.914444
O O12 0.564579 0.583279 0.330423
O O13 0.323643 0.289770 0.980089
O O14 0.228935 0.746008 0.314497
O O15 0.500000 0.500000 0.000000
O O16 0.500000 0.500000 0.500000
O O17 0.826611 0.779759 0.371934
#
# Coordination Sequence:
#
# PCOD8042745 Si02
#       8
#     2   2   2   2   2   2   2   2
#     4  11  18  36  59  86 114 149 194 240 282 345
#     4  10  20  37  59  85 117 153 192 238 290 342
#     4  11  21  37  58  89 116 149 196 240 289 337
#     4  10  19  34  60  80 116 157 187 230 289 349
#     4  10  20  36  65  83 113 157 197 232 279 351
#     4  10  15  33  60  83 108 150 198 227 276 350
#     4  11  19  39  62  86 113 157 200 229 271 358
#     4  11  24  35  58  91 119 146 197 240 289 335
#
# _framework density 24.725904
#
# number of rings (size 3 to 8) (size 9 to 14) (size 15 to 20)
#    0.000    1.500    8.750    1.500    0.000    3.000 
#    0.000    5.625    2.750    1.500    0.000    0.000 
#    0.000    0.000    0.000    0.000    0.000    0.000 
#
# Total GULP energy -198292.737569 kJ/mol
# GULP energy per Si atom -12393.296098 kJ/mol
# Density = 2.466963 g / cm^3
# Si number density = 24.725904 Si / 1000 Ang^3
#
#
#
# Elastic Constant Matrix: (Units=GPa)
#
#
# Indices 1 2 3 4 5 6 
#
# 1 145.9474 16.3542 40.4746 0.9108 58.4486 16.7555
# 2 16.3542 74.6606 1.3864 -2.4495 16.4765 7.2336
# 3 40.4746 1.3864 87.7029 7.4026 47.4105 5.5571
# 4 0.9108 -2.4495 7.4026 23.5583 6.5680 14.7599
# 5 58.4486 16.4765 47.4105 6.5680 56.4424 4.6893
# 6 16.7555 7.2336 5.5571 14.7599 4.6893 33.9998
#
#
#
# Elastic Compliance Matrix: (Units=1/GPa)
#
#
# Indices 1 2 3 4 5 6 
#
# 1 0.014043 0.002099 0.003014 0.009781 -0.018026 -0.009619
# 2 0.002099 0.016214 0.004531 0.007657 -0.011020 -0.007029
# 3 0.003014 0.004531 0.022652 0.002189 -0.023404 -0.003874
# 4 0.009781 0.007657 0.002189 0.068919 -0.019393 -0.034051
# 5 -0.018026 -0.011020 -0.023404 -0.019393 0.060257 0.015161
# 6 -0.009619 -0.007029 -0.003874 -0.034051 0.015161 0.048972
#
#
# Mechanical properties :
#
#
# Convention : Reuss Voigt Hill
#
# Bulk Modulus (GPa) = 13.85079 47.19347 30.52213
# Shear Modulus (GPa) = 21.20138 39.47314 30.33726
#
# Velocity S-wave (km/s) = 2.93141 3.99987 3.50657
# Velocity P-wave (km/s) = 4.13176 6.36082 5.36337
#
# Compressibility (1/GPa) = 0.07219806
#
# Stress axis : x y z
#
# Youngs Moduli (GPa) = 71.21085 61.67438 44.14613
#
# Poissons Ratio (x) = -0.12945 -0.13307
# Poissons Ratio (y) = -0.14946 -0.20004
# Poissons Ratio (z) = -0.21466 -0.27946
#
# Static dielectric constant tensor:
#      x y z
#    x 4.675120 -0.031430 0.697330 
#    y -0.031430 4.568340 0.011740 
#    z 0.697330 0.011740 4.707510 
# 
# 
# High freq. dielectric constant tensor:
#      x y z
#    x 1.983780 0.001180 0.042010 
#    y 0.001180 1.981230 0.008950 
#    z 0.042010 0.008950 1.965340 
# 
# From -- ./inp_files/608055.got.cif
#   From: 2010.06.25/outbox.cif.g09.slc.cpg/sg2_305_cif.got.tgz:608055.got - 2010.06.27 13:26:56.
