data_PCOD8042647
_publ_section_title
;
Structure prediction by ZEFSAII (Michael W. Deem and Ramdas Pophale) SiO2 
 PCOD8042647
Probable space group: P -1
;
_chemical_formula_sum "Si O2"
_cell_formula_units_Z 14
_cell_length_a 17.691603
_cell_length_b 11.198647
_cell_length_c 8.539566
_cell_angle_alpha 55.437502
_cell_angle_beta 133.355025
_cell_angle_gamma 146.688988
_cell_volume 675.510718
_symmetry_space_group_name_H-M "P -1"
_symmetry_group_IT_number 2
_symmetry_cell_setting 'triclinic'
loop_
_space_group_symop_operation_xyz
x,y,z
-x,-y,-z
loop_
_atom_site_type_symbol
_atom_site_label
_atom_site_fract_x
_atom_site_fract_y
_atom_site_fract_z
Si Si1 0.682604 0.035331 0.619520
Si Si2 0.374302 0.792570 0.189465
Si Si3 0.417817 0.594546 0.170851
Si Si4 0.884651 0.472303 0.749041
Si Si5 0.732298 0.838013 0.614734
Si Si6 0.623703 0.885987 0.987871
Si Si7 0.081681 0.945685 0.585453
O O1 0.811657 0.289974 0.650973
O O2 0.548208 0.966273 0.375858
O O3 0.769762 0.996381 0.681932
O O4 0.601041 0.888511 0.770044
O O5 0.356527 0.684425 0.084049
O O6 0.251822 0.601244 0.283017
O O7 0.335264 0.920692 0.006853
O O8 0.571373 0.710299 0.397828
O O9 0.284432 0.335207 0.195076
O O10 0.463847 0.656786 0.006525
O O11 0.968304 0.689868 0.617626
O O12 0.000000 0.500000 0.000000
O O13 0.872940 0.977434 0.587464
O O14 0.765830 0.924350 0.189457
O O15 0.000000 0.000000 0.500000
#
# Coordination Sequence:
#
# PCOD8042647 Si02
#       7
#     2   2   2   2   2   2   2
#     4  10  21  38  62  88 121 146 198 254 288 341
#     4  10  19  36  62  90 116 147 201 249 287 345
#     4   9  18  34  59  85 115 156 195 239 296 345
#     4  11  20  37  63  85 117 161 193 234 296 350
#     4   9  20  37  55  86 120 154 195 244 289 345
#     4  10  19  35  59  88 114 153 200 243 288 350
#     4  11  22  38  61  84 119 162 199 232 294 361
#
# _framework density 20.725061
#
# number of rings (size 3 to 8) (size 9 to 14) (size 15 to 20)
#    0.000    2.000    2.857    3.000    0.000    2.286 
#    0.000    2.143    3.143    0.000    0.000    0.000 
#    0.000    0.000    0.000    0.000    0.000    0.000 
#
# Total GULP energy -173600.220702 kJ/mol
# GULP energy per Si atom -12400.015764 kJ/mol
# Density = 2.067789 g / cm^3
# Si number density = 20.725061 Si / 1000 Ang^3
#
#
#
# Elastic Constant Matrix: (Units=GPa)
#
#
# Indices 1 2 3 4 5 6 
#
# 1 157.2354 65.2498 33.2704 -15.5368 8.9167 -2.1015
# 2 65.2498 142.8175 31.8980 -25.2709 -6.2525 12.2436
# 3 33.2704 31.8980 49.9203 -12.1781 10.1880 -6.1840
# 4 -15.5368 -25.2709 -12.1781 36.4265 4.1866 -7.6880
# 5 8.9167 -6.2525 10.1880 4.1866 30.7217 -5.2631
# 6 -2.1015 12.2436 -6.1840 -7.6880 -5.2631 29.5861
#
#
#
# Elastic Compliance Matrix: (Units=1/GPa)
#
#
# Indices 1 2 3 4 5 6 
#
# 1 0.008556 -0.003334 -0.002745 0.000936 -0.002161 0.001272
# 2 -0.003334 0.010751 -0.005234 0.002938 0.003746 -0.004350
# 3 -0.002745 -0.005234 0.030353 0.008329 -0.009978 0.008705
# 4 0.000936 0.002938 0.008329 0.035172 -0.005737 0.008711
# 5 -0.002161 0.003746 -0.009978 -0.005737 0.038293 0.001532
# 6 0.001272 -0.004350 0.008705 0.008711 0.001532 0.040046
#
#
# Mechanical properties :
#
#
# Convention : Reuss Voigt Hill
#
# Bulk Modulus (GPa) = 36.99196 67.86773 52.42985
# Shear Modulus (GPa) = 25.66612 33.98388 29.82500
#
# Velocity S-wave (km/s) = 3.52292 4.05377 3.79763
# Velocity P-wave (km/s) = 5.86819 7.39788 6.67698
#
# Compressibility (1/GPa) = 0.02703290
#
# Stress axis : x y z
#
# Youngs Moduli (GPa) = 116.87135 93.01354 32.94604
#
# Poissons Ratio (x) = 0.31013 0.09044
# Poissons Ratio (y) = 0.38968 0.17245
# Poissons Ratio (z) = 0.32083 0.48686
#
# Static dielectric constant tensor:
#      x y z
#    x 3.980320 0.129380 0.081820 
#    y 0.129380 3.884170 -0.278280 
#    z 0.081820 -0.278280 3.483070 
# 
# 
# High freq. dielectric constant tensor:
#      x y z
#    x 1.821730 0.007880 0.007280 
#    y 0.007880 1.806630 -0.021440 
#    z 0.007280 -0.021440 1.784700 
# 
# From -- ./inp_files/154897.got.cif
#   From: 2010.06.25/outbox.cif.g09.slc.cpg/sg2_78_cif.got.tgz:154897.got - 2010.06.27 13:26:56.
