data_PCOD8042108
_publ_section_title
;
Structure prediction by ZEFSAII (Michael W. Deem and Ramdas Pophale) SiO2 
 PCOD8042108
Probable space group: P -1
;
_chemical_formula_sum "Si O2"
_cell_formula_units_Z 10
_cell_length_a 12.156479
_cell_length_b 9.326204
_cell_length_c 12.382153
_cell_angle_alpha 124.991716
_cell_angle_beta 41.227256
_cell_angle_gamma 92.719371
_cell_volume 533.011532
_symmetry_space_group_name_H-M "P -1"
_symmetry_group_IT_number 2
_symmetry_cell_setting 'triclinic'
loop_
_space_group_symop_operation_xyz
x,y,z
-x,-y,-z
loop_
_atom_site_type_symbol
_atom_site_label
_atom_site_fract_x
_atom_site_fract_y
_atom_site_fract_z
Si Si1 0.841978 0.287236 0.239677
Si Si2 0.698111 0.571205 0.820517
Si Si3 0.764902 0.267168 0.829242
Si Si4 0.113007 0.198641 0.191266
Si Si5 0.687953 0.329337 0.150934
O O1 0.800480 0.369658 0.179799
O O2 0.592519 0.430109 0.542508
O O3 0.980882 0.325397 0.227380
O O4 0.000000 0.000000 0.000000
O O5 0.703816 0.482308 0.896716
O O6 0.710670 0.771048 0.907882
O O7 0.917252 0.332731 0.487674
O O8 0.450304 0.711719 0.006367
O O9 0.800905 0.300674 0.941047
O O10 0.000000 0.000000 0.500000
O O11 0.266327 0.908270 0.957020
#
# Coordination Sequence:
#
# PCOD8042108 Si02
#       5
#     2   2   2   2   2
#     4   9  19  34  57  80 106 141 184 226 259 314
#     4  10  22  33  54  81 116 141 173 223 275 314
#     4  11  21  36  53  82 112 147 174 218 272 328
#     4  10  19  36  54  83 109 140 181 226 262 316
#     4  10  19  34  58  81 105 144 186 214 266 321
#
# _framework density 18.761320000000001
#
# number of rings (size 3 to 8) (size 9 to 14) (size 15 to 20)
#    0.000    2.000    4.000    0.000    0.000    2.400 
#    0.000    1.000    0.000   12.000    0.000    0.000 
#    0.000    0.000    0.000    0.000    0.000    0.000 
#
# Total GULP energy -123961.773192 kJ/mol
# GULP energy per Si atom -12396.177319 kJ/mol
# Density = 1.871862 g / cm^3
# Si number density = 18.761320 Si / 1000 Ang^3
#
#
#
# Elastic Constant Matrix: (Units=GPa)
#
#
# Indices 1 2 3 4 5 6 
#
# 1 99.6078 33.7901 27.7266 -19.7457 9.2994 -17.1400
# 2 33.7901 57.9011 23.4166 -10.3543 2.4310 -7.1911
# 3 27.7266 23.4166 104.9687 -3.1862 2.1474 -4.2426
# 4 -19.7457 -10.3543 -3.1862 28.8974 -5.6349 4.4891
# 5 9.2994 2.4310 2.1474 -5.6349 33.3844 -9.1539
# 6 -17.1400 -7.1911 -4.2426 4.4891 -9.1539 32.2763
#
#
#
# Elastic Compliance Matrix: (Units=1/GPa)
#
#
# Indices 1 2 3 4 5 6 
#
# 1 0.015015 -0.005965 -0.002199 0.006884 -0.001046 0.005102
# 2 -0.005965 0.022914 -0.003393 0.003793 0.001210 0.001307
# 3 -0.002199 -0.003393 0.010808 -0.001509 -0.000185 -0.000346
# 4 0.006884 0.003793 -0.001509 0.041466 0.004880 -0.000081
# 5 -0.001046 0.001210 -0.000185 0.004880 0.033312 0.008459
# 6 0.005102 0.001307 -0.000346 -0.000081 0.008459 0.036348
#
#
# Mechanical properties :
#
#
# Convention : Reuss Voigt Hill
#
# Bulk Modulus (GPa) = 39.02576 48.03824 43.53200
# Shear Modulus (GPa) = 26.10729 30.74789 28.42759
#
# Velocity S-wave (km/s) = 3.73439 4.05272 3.89681
# Velocity P-wave (km/s) = 6.28018 6.89637 6.59547
#
# Compressibility (1/GPa) = 0.02562410
#
# Stress axis : x y z
#
# Youngs Moduli (GPa) = 66.60030 43.64181 92.52069
#
# Poissons Ratio (x) = 0.26031 0.20345
# Poissons Ratio (y) = 0.39725 0.31391
# Poissons Ratio (z) = 0.14645 0.14807
#
# Static dielectric constant tensor:
#      x y z
#    x 4.094150 -0.379600 0.085950 
#    y -0.379600 3.155610 -0.009520 
#    z 0.085950 -0.009520 3.510680 
# 
# 
# High freq. dielectric constant tensor:
#      x y z
#    x 1.742430 -0.027710 0.005740 
#    y -0.027710 1.691400 0.009410 
#    z 0.005740 0.009410 1.740260 
# 
# From -- ./inp_files/15827.got.cif
#   From: 2010.06.25/outbox.cif.g09.slc.cpg/sg2_8_cif.got.tgz:15827.got - 2010.06.27 13:26:56.
