data_PCOD8042873
_publ_section_title
;
Structure prediction by ZEFSAII (Michael W. Deem and Ramdas Pophale) SiO2 
 PCOD8042873
Probable space group: P -1
;
_chemical_formula_sum "Si O2"
_cell_formula_units_Z 16
_cell_length_a 16.357477
_cell_length_b 12.270140
_cell_length_c 9.479474
_cell_angle_alpha 110.907008
_cell_angle_beta 32.715470
_cell_angle_gamma 125.525366
_cell_volume 798.297606
_symmetry_space_group_name_H-M "P -1"
_symmetry_group_IT_number 2
_symmetry_cell_setting 'triclinic'
loop_
_space_group_symop_operation_xyz
x,y,z
-x,-y,-z
loop_
_atom_site_type_symbol
_atom_site_label
_atom_site_fract_x
_atom_site_fract_y
_atom_site_fract_z
Si Si1 0.717198 0.730514 0.104644
Si Si2 0.707657 0.675526 0.667537
Si Si3 0.850988 0.356204 0.483366
Si Si4 0.362072 0.218360 0.455728
Si Si5 0.698788 0.055364 0.688765
Si Si6 0.248969 0.527125 0.057046
Si Si7 0.583140 0.372725 0.709675
Si Si8 0.005482 0.117610 0.456040
O O1 0.729965 0.765829 0.266010
O O2 0.545030 0.721717 0.277578
O O3 0.696450 0.582749 0.040665
O O4 0.897510 0.856629 0.825015
O O5 0.735404 0.765834 0.530556
O O6 0.678215 0.531769 0.594992
O O7 0.884347 0.744183 0.543450
O O8 0.537081 0.657961 0.989741
O O9 0.797723 0.202914 0.533496
O O10 0.798093 0.429831 0.709354
O O11 0.737043 0.340866 0.501389
O O12 0.069049 0.453796 0.184540
O O13 0.315014 0.061417 0.448697
O O14 0.579678 0.334943 0.199742
O O15 0.803966 0.074939 0.692299
O O16 0.500000 0.000000 0.000000
O O17 0.000000 0.000000 0.500000
#
# Coordination Sequence:
#
# PCOD8042873 Si02
#       8
#     2   2   2   2   2   2   2   2
#     4  11  24  40  67  92 131 164 217 265 317 375
#     4  10  19  35  63  93 120 155 219 267 303 357
#     4  11  22  38  64  93 130 164 218 266 312 371
#     4  12  23  41  65  98 128 173 208 262 325 378
#     4  12  24  41  64  94 130 170 210 257 320 388
#     4  11  21  39  64  96 122 167 214 266 309 374
#     4  10  19  36  63  92 119 163 213 265 306 361
#     4  11  23  41  63  95 121 165 221 266 306 373
#
# _framework density 20.042652
#
# number of rings (size 3 to 8) (size 9 to 14) (size 15 to 20)
#    0.000    1.000    6.250    1.875    3.500    0.500 
#    0.000    1.250    2.750    0.000    0.000    0.000 
#    0.000    0.000    0.000    0.000    0.000    0.000 
#
# Total GULP energy -198388.459383 kJ/mol
# GULP energy per Si atom -12399.278711 kJ/mol
# Density = 1.999703 g / cm^3
# Si number density = 20.042652 Si / 1000 Ang^3
#
#
#
# Elastic Constant Matrix: (Units=GPa)
#
#
# Indices 1 2 3 4 5 6 
#
# 1 132.1000 35.4808 51.5211 1.3653 -25.6994 -6.1476
# 2 35.4808 109.9406 30.0985 -0.4768 -0.5929 -5.4600
# 3 51.5211 30.0985 75.1620 -6.2374 -5.7332 9.9865
# 4 1.3653 -0.4768 -6.2374 19.9445 10.4515 -5.6251
# 5 -25.6994 -0.5929 -5.7332 10.4515 43.1222 -0.1076
# 6 -6.1476 -5.4600 9.9865 -5.6251 -0.1076 26.4143
#
#
#
# Elastic Compliance Matrix: (Units=1/GPa)
#
#
# Indices 1 2 3 4 5 6 
#
# 1 0.013552 -0.001590 -0.009226 -0.006944 0.008523 0.004869
# 2 -0.001590 0.010799 -0.003731 0.000979 -0.001524 0.003475
# 3 -0.009226 -0.003731 0.022714 0.007054 -0.004264 -0.010021
# 4 -0.006944 0.000979 0.007054 0.065600 -0.019062 0.009812
# 5 0.008523 -0.001524 -0.004264 -0.019062 0.032300 -0.000647
# 6 0.004869 0.003475 -0.010021 0.009812 -0.000647 0.045585
#
#
# Mechanical properties :
#
#
# Convention : Reuss Voigt Hill
#
# Bulk Modulus (GPa) = 55.64476 61.26706 58.45591
# Shear Modulus (GPa) = 22.15968 31.23635 26.69802
#
# Velocity S-wave (km/s) = 3.32870 3.95206 3.65370
# Velocity P-wave (km/s) = 6.52665 7.17354 6.85773
#
# Compressibility (1/GPa) = 0.01797114
#
# Stress axis : x y z
#
# Youngs Moduli (GPa) = 73.79125 92.60028 44.02527
#
# Poissons Ratio (x) = 0.14725 0.40616
# Poissons Ratio (y) = 0.11734 0.16427
# Poissons Ratio (z) = 0.68077 0.34551
#
# Static dielectric constant tensor:
#      x y z
#    x 4.177380 0.202540 -0.513730 
#    y 0.202540 3.848370 -0.364000 
#    z -0.513730 -0.364000 3.610880 
# 
# 
# High freq. dielectric constant tensor:
#      x y z
#    x 1.791430 -0.000410 -0.022970 
#    y -0.000410 1.780540 -0.025310 
#    z -0.022970 -0.025310 1.753950 
# 
# From -- ./inp_files/262414.got.cif
#   From: 2010.06.25/outbox.cif.g09.slc.cpg/sg2_132_cif.got.tgz:262414.got - 2010.06.27 13:26:56.
