data_PCOD8042884
_publ_section_title
;
Structure prediction by ZEFSAII (Michael W. Deem and Ramdas Pophale) SiO2 
 PCOD8042884
Probable space group: P -1
;
_chemical_formula_sum "Si O2"
_cell_formula_units_Z 16
_cell_length_a 7.990087
_cell_length_b 11.739827
_cell_length_c 13.668826
_cell_angle_alpha 63.234102
_cell_angle_beta 139.608743
_cell_angle_gamma 114.458933
_cell_volume 736.213266
_symmetry_space_group_name_H-M "P -1"
_symmetry_group_IT_number 2
_symmetry_cell_setting 'triclinic'
loop_
_space_group_symop_operation_xyz
x,y,z
-x,-y,-z
loop_
_atom_site_type_symbol
_atom_site_label
_atom_site_fract_x
_atom_site_fract_y
_atom_site_fract_z
Si Si1 0.643717 0.378825 0.022947
Si Si2 0.271537 0.331623 0.039365
Si Si3 0.266424 0.130425 0.631253
Si Si4 0.110416 0.371127 0.384475
Si Si5 0.310754 0.688388 0.146225
Si Si6 0.513590 0.796576 0.641038
Si Si7 0.204645 0.025944 0.442752
Si Si8 0.429362 0.555508 0.575703
O O1 0.373376 0.317468 0.978278
O O2 0.873166 0.378957 0.204035
O O3 0.622186 0.526408 0.928282
O O4 0.709374 0.301753 0.984800
O O5 0.393872 0.225793 0.199340
O O6 0.961113 0.310841 0.919029
O O7 0.072086 0.238537 0.480046
O O8 0.509024 0.186753 0.783114
O O9 0.102797 0.012293 0.661224
O O10 0.358465 0.074086 0.591755
O O11 0.152343 0.494416 0.429150
O O12 0.387087 0.370576 0.453439
O O13 0.423252 0.556711 0.270047
O O14 0.312552 0.899014 0.500454
O O15 0.376507 0.660297 0.591999
O O16 0.765811 0.856778 0.667005
#
# Coordination Sequence:
#
# PCOD8042884 Si02
#       8
#     2   2   2   2   2   2   2   2
#     4  11  22  38  62  99 133 165 196 247 329 395
#     4  11  23  38  62  95 133 165 202 251 321 383
#     4  10  22  43  64  92 120 165 215 261 303 369
#     4  10  19  35  64  96 127 159 197 262 315 373
#     4  11  22  42  66  94 131 165 199 260 325 378
#     4  11  21  41  63  92 122 169 207 265 305 367
#     4  10  23  41  65  85 123 167 222 254 304 358
#     4  10  19  35  63  97 125 159 204 253 323 373
#
# _framework density 21.732831999999998
#
# number of rings (size 3 to 8) (size 9 to 14) (size 15 to 20)
#    0.000    1.500    3.750    1.875    0.000    0.000 
#    9.000    3.125    0.000    0.000    0.000    0.000 
#    0.000    0.000    0.000    0.000    0.000    0.000 
#
# Total GULP energy -198345.562067 kJ/mol
# GULP energy per Si atom -12396.597629 kJ/mol
# Density = 2.168337 g / cm^3
# Si number density = 21.732832 Si / 1000 Ang^3
#
#
#
# Elastic Constant Matrix: (Units=GPa)
#
#
# Indices 1 2 3 4 5 6 
#
# 1 101.3114 35.6099 31.3859 19.2722 -5.4608 18.8779
# 2 35.6099 97.0073 34.1415 19.9207 -3.5927 -0.6826
# 3 31.3859 34.1415 91.3010 16.7235 -4.9620 6.5772
# 4 19.2722 19.9207 16.7235 28.5987 1.4166 -1.4796
# 5 -5.4608 -3.5927 -4.9620 1.4166 20.7788 -7.7423
# 6 18.8779 -0.6826 6.5772 -1.4796 -7.7423 34.2038
#
#
#
# Elastic Compliance Matrix: (Units=1/GPa)
#
#
# Indices 1 2 3 4 5 6 
#
# 1 0.014365 -0.003269 -0.001905 -0.006709 0.000286 -0.007853
# 2 -0.003269 0.013860 -0.003126 -0.005583 0.002272 0.002955
# 3 -0.001905 -0.003126 0.013876 -0.004829 0.002073 -0.001419
# 4 -0.006709 -0.005583 -0.004829 0.046730 -0.005057 0.005397
# 5 0.000286 0.002272 0.002073 -0.005057 0.053690 0.011423
# 6 -0.007853 0.002955 -0.001419 0.005397 0.011423 0.036722
#
#
# Mechanical properties :
#
#
# Convention : Reuss Voigt Hill
#
# Bulk Modulus (GPa) = 39.21562 54.65493 46.93527
# Shear Modulus (GPa) = 24.46848 29.28176 26.87512
#
# Velocity S-wave (km/s) = 3.35905 3.67461 3.52037
# Velocity P-wave (km/s) = 5.75568 6.57319 6.17797
#
# Compressibility (1/GPa) = 0.02550004
#
# Stress axis : x y z
#
# Youngs Moduli (GPa) = 69.61393 72.14890 72.06670
#
# Poissons Ratio (x) = 0.23589 0.13731
# Poissons Ratio (y) = 0.22760 0.22526
# Poissons Ratio (z) = 0.13264 0.22552
#
# Static dielectric constant tensor:
#      x y z
#    x 4.108030 0.183790 -0.227860 
#    y 0.183790 4.051760 0.038210 
#    z -0.227860 0.038210 3.622080 
# 
# 
# High freq. dielectric constant tensor:
#      x y z
#    x 1.857960 0.010990 -0.015580 
#    y 0.010990 1.852170 -0.003400 
#    z -0.015580 -0.003400 1.827690 
# 
# From -- ./inp_files/399606.got.cif
#   From: 2010.06.25/outbox.cif.g09.slc.cpg/sg2_200_cif.got.tgz:399606.got - 2010.06.27 13:26:56.
