data_PCOD8042097
_publ_section_title
;
Structure prediction by ZEFSAII (Michael W. Deem and Ramdas Pophale) SiO2 
 PCOD8042097
Probable space group: P -1
;
_chemical_formula_sum "Si O2"
_cell_formula_units_Z 16
_cell_length_a 8.976812
_cell_length_b 9.077532
_cell_length_c 10.396379
_cell_angle_alpha 77.410493
_cell_angle_beta 81.440205
_cell_angle_gamma 111.842725
_cell_volume 742.312979
_symmetry_space_group_name_H-M "P -1"
_symmetry_group_IT_number 2
_symmetry_cell_setting 'triclinic'
loop_
_space_group_symop_operation_xyz
x,y,z
-x,-y,-z
loop_
_atom_site_type_symbol
_atom_site_label
_atom_site_fract_x
_atom_site_fract_y
_atom_site_fract_z
Si Si1 0.735448 0.745219 0.222168
Si Si2 0.440652 0.145952 0.985161
Si Si3 0.592859 0.363953 0.309126
Si Si4 0.980268 0.739547 0.984804
Si Si5 0.320399 0.870360 0.510836
Si Si6 0.753790 0.393028 0.014921
Si Si7 0.084979 0.967749 0.693989
Si Si8 0.275087 0.087568 0.284263
O O1 0.614857 0.551134 0.297093
O O2 0.795609 0.835881 0.335383
O O3 0.636819 0.835362 0.142421
O O4 0.899249 0.770399 0.117529
O O5 0.594091 0.322249 0.958058
O O6 0.307710 0.110668 0.123723
O O7 0.500000 0.000000 0.000000
O O8 0.669358 0.306455 0.434613
O O9 0.702741 0.352832 0.177621
O O10 0.401090 0.243042 0.323885
O O11 0.125099 0.690907 0.024589
O O12 0.054847 0.900013 0.856409
O O13 0.843409 0.591309 0.945808
O O14 0.177399 0.881547 0.615819
O O15 0.500000 0.000000 0.500000
O O16 0.288474 0.916573 0.360716
O O17 0.910590 0.934771 0.655325
#
# Coordination Sequence:
#
# PCOD8042097 Si02
#       8
#     2   2   2   2   2   2   2   2
#     4  11  24  36  61  95 127 150 190 253 314 345
#     4  11  23  36  59  90 131 156 192 241 308 362
#     4   9  20  41  61  88 118 161 201 243 289 359
#     4  10  19  34  57  90 124 153 192 243 298 358
#     4  10  22  43  66  82 115 164 212 239 287 363
#     4   9  19  33  57  87 121 163 195 230 297 363
#     4  12  22  38  62  92 120 154 199 254 300 346
#     4  10  23  39  64  87 116 164 206 240 287 359
#
# _framework density 21.554252999999999
#
# number of rings (size 3 to 8) (size 9 to 14) (size 15 to 20)
#    0.000    1.750    2.500    1.500    7.000    1.500 
#    0.000    3.125    0.000    0.000    0.000    0.000 
#    0.000    0.000    0.000    0.000    0.000    0.000 
#
# Total GULP energy -198337.549206 kJ/mol
# GULP energy per Si atom -12396.096825 kJ/mol
# Density = 2.150519 g / cm^3
# Si number density = 21.554253 Si / 1000 Ang^3
#
#
#
# Elastic Constant Matrix: (Units=GPa)
#
#
# Indices 1 2 3 4 5 6 
#
# 1 125.2104 39.8542 19.6726 -6.2630 3.4863 6.1576
# 2 39.8542 91.5649 18.8119 -16.6262 14.3709 3.6171
# 3 19.6726 18.8119 46.9235 -18.9439 10.9267 5.8750
# 4 -6.2630 -16.6262 -18.9439 20.6561 -4.8934 3.7174
# 5 3.4863 14.3709 10.9267 -4.8934 19.5119 -3.2427
# 6 6.1576 3.6171 5.8750 3.7174 -3.2427 31.1946
#
#
#
# Elastic Compliance Matrix: (Units=1/GPa)
#
#
# Indices 1 2 3 4 5 6 
#
# 1 0.009911 -0.004672 -0.004976 -0.004595 0.003374 0.000421
# 2 -0.004672 0.016520 0.003997 0.013786 -0.010865 -0.004518
# 3 -0.004976 0.003997 0.044517 0.040624 -0.019240 -0.014707
# 4 -0.004595 0.013786 0.040624 0.096457 -0.011385 -0.021020
# 5 0.003374 -0.010865 -0.019240 -0.011385 0.068682 0.012714
# 6 0.000421 -0.004518 -0.014707 -0.021020 0.012714 0.039094
#
#
# Mechanical properties :
#
#
# Convention : Reuss Voigt Hill
#
# Bulk Modulus (GPa) = 16.76531 46.70847 31.73689
# Shear Modulus (GPa) = 16.32031 26.62987 21.47509
#
# Velocity S-wave (km/s) = 2.75466 3.51875 3.15989
# Velocity P-wave (km/s) = 4.23233 6.18272 5.29805
#
# Compressibility (1/GPa) = 0.05964697
#
# Stress axis : x y z
#
# Youngs Moduli (GPa) = 100.89855 60.53092 22.46311
#
# Poissons Ratio (x) = 0.28281 0.11177
# Poissons Ratio (y) = 0.47141 -0.08978
# Poissons Ratio (z) = 0.50203 -0.24193
#
# Static dielectric constant tensor:
#      x y z
#    x 4.080650 0.073760 0.012530 
#    y 0.073760 3.913440 -0.404080 
#    z 0.012530 -0.404080 3.963230 
# 
# 
# High freq. dielectric constant tensor:
#      x y z
#    x 1.862740 0.002310 -0.003250 
#    y 0.002310 1.831340 -0.021500 
#    z -0.003250 -0.021500 1.825750 
# 
# From -- ./inp_files/181349.got.cif
#   From: 2010.06.25/outbox.cif.g09.slc.cpg/sg2_91_cif.got.tgz:181349.got - 2010.06.27 13:26:56.
