data_PCOD8042532
_publ_section_title
;
Structure prediction by ZEFSAII (Michael W. Deem and Ramdas Pophale) SiO2 
 PCOD8042532
Probable space group: P -1
;
_chemical_formula_sum "Si O2"
_cell_formula_units_Z 16
_cell_length_a 12.597196
_cell_length_b 11.286355
_cell_length_c 8.386297
_cell_angle_alpha 81.330740
_cell_angle_beta 39.502026
_cell_angle_gamma 101.824181
_cell_volume 644.587681
_symmetry_space_group_name_H-M "P -1"
_symmetry_group_IT_number 2
_symmetry_cell_setting 'triclinic'
loop_
_space_group_symop_operation_xyz
x,y,z
-x,-y,-z
loop_
_atom_site_type_symbol
_atom_site_label
_atom_site_fract_x
_atom_site_fract_y
_atom_site_fract_z
Si Si1 0.289018 0.406976 0.168402
Si Si2 0.557727 0.793400 0.485535
Si Si3 0.556482 0.423045 0.579097
Si Si4 0.841126 0.073719 0.974698
Si Si5 0.872795 0.984639 0.496471
Si Si6 0.827451 0.693871 0.333229
Si Si7 0.454250 0.729604 0.960597
Si Si8 0.131005 0.777487 0.407726
O O1 0.243091 0.311673 0.399032
O O2 0.081111 0.361336 0.338592
O O3 0.406992 0.367868 0.912689
O O4 0.416569 0.570951 0.034834
O O5 0.434669 0.702100 0.493357
O O6 0.723517 0.756174 0.335257
O O7 0.428856 0.763989 0.799078
O O8 0.644798 0.953686 0.304939
O O9 0.500000 0.500000 0.500000
O O10 0.770028 0.539348 0.372627
O O11 0.798268 0.117699 0.846213
O O12 0.001016 0.023372 0.793035
O O13 0.939089 0.206276 0.956180
O O14 0.658007 0.847739 0.775430
O O15 0.862417 0.126857 0.470100
O O16 0.000000 0.000000 0.500000
O O17 0.284338 0.726380 0.264510
#
# Coordination Sequence:
#
# PCOD8042532 Si02
#       8
#     2   2   2   2   2   2   2   2
#     4  11  21  39  64  88 126 163 209 256 304 363
#     4  11  22  36  60  91 126 158 204 254 314 361
#     4  10  19  35  57  95 121 151 202 261 306 354
#     4  10  20  39  61  87 120 158 206 255 304 357
#     4  10  21  40  63  93 119 155 212 263 302 359
#     4  10  20  34  60  92 118 156 203 263 300 351
#     4  12  23  39  60  89 130 166 201 247 319 372
#     4  10  24  39  60  91 124 166 206 249 308 371
#
# _framework density 24.822071999999999
#
# number of rings (size 3 to 8) (size 9 to 14) (size 15 to 20)
#    0.000    1.500    3.750    2.250    0.000    3.500 
#    0.000    0.000    0.000    3.000    0.000    0.000 
#    0.000    0.000    0.000    0.000    0.000    0.000 
#
# Total GULP energy -198236.585093 kJ/mol
# GULP energy per Si atom -12389.786568 kJ/mol
# Density = 2.476558 g / cm^3
# Si number density = 24.822072 Si / 1000 Ang^3
#
#
#
# Elastic Constant Matrix: (Units=GPa)
#
#
# Indices 1 2 3 4 5 6 
#
# 1 39.6903 33.9753 10.2742 0.1501 -8.7218 29.0027
# 2 33.9753 133.9709 43.2972 -10.9897 -20.7619 35.0036
# 3 10.2742 43.2972 55.9202 -13.3324 -0.6485 12.2776
# 4 0.1501 -10.9897 -13.3324 41.3714 -2.8264 -10.0259
# 5 -8.7218 -20.7619 -0.6485 -2.8264 42.1878 -1.6389
# 6 29.0027 35.0036 12.2776 -10.0259 -1.6389 44.4872
#
#
#
# Elastic Compliance Matrix: (Units=1/GPa)
#
#
# Indices 1 2 3 4 5 6 
#
# 1 0.056550 -0.004324 -0.001625 -0.009834 0.007521 -0.034955
# 2 -0.004324 0.013510 -0.008449 -0.000029 0.005417 -0.005286
# 3 -0.001625 -0.008449 0.025765 0.006273 -0.003605 0.001878
# 4 -0.009834 -0.000029 0.006273 0.028976 0.000427 0.011249
# 5 0.007521 0.005417 -0.003605 0.000427 0.027624 -0.007057
# 6 -0.034955 -0.005286 0.001878 0.011249 -0.007057 0.051183
#
#
# Mechanical properties :
#
#
# Convention : Reuss Voigt Hill
#
# Bulk Modulus (GPa) = 14.91923 44.96388 29.94155
# Shear Modulus (GPa) = 19.62741 35.07827 27.35284
#
# Velocity S-wave (km/s) = 2.81503 3.76332 3.32317
# Velocity P-wave (km/s) = 4.07301 6.08582 5.17816
#
# Compressibility (1/GPa) = 0.06702760
#
# Stress axis : x y z
#
# Youngs Moduli (GPa) = 17.68361 74.01972 38.81266
#
# Poissons Ratio (x) = 0.32008 0.06306
# Poissons Ratio (y) = 0.07647 0.32794
# Poissons Ratio (z) = 0.02873 0.62542
#
# Static dielectric constant tensor:
#      x y z
#    x 4.427280 0.670900 0.072340 
#    y 0.670900 5.394080 -0.012370 
#    z 0.072340 -0.012370 4.452910 
# 
# 
# High freq. dielectric constant tensor:
#      x y z
#    x 1.966630 0.030820 0.003750 
#    y 0.030820 1.999130 -0.023360 
#    z 0.003750 -0.023360 1.968930 
# 
# From -- ./inp_files/307476.got.cif
#   From: 2010.06.25/outbox.cif.g09.slc.cpg/sg2_154_cif.got.tgz:307476.got - 2010.06.27 13:26:56.
