data_PCOD8042756
_publ_section_title
;
Structure prediction by ZEFSAII (Michael W. Deem and Ramdas Pophale) SiO2 
 PCOD8042756
Probable space group: P -1
;
_chemical_formula_sum "Si O2"
_cell_formula_units_Z 16
_cell_length_a 8.680020
_cell_length_b 17.895917
_cell_length_c 7.562907
_cell_angle_alpha 66.403971
_cell_angle_beta 58.082300
_cell_angle_gamma 43.665583
_cell_volume 688.181415
_symmetry_space_group_name_H-M "P -1"
_symmetry_group_IT_number 2
_symmetry_cell_setting 'triclinic'
loop_
_space_group_symop_operation_xyz
x,y,z
-x,-y,-z
loop_
_atom_site_type_symbol
_atom_site_label
_atom_site_fract_x
_atom_site_fract_y
_atom_site_fract_z
Si Si1 0.959778 0.099697 0.542950
Si Si2 0.156109 0.281655 0.446962
Si Si3 0.945283 0.508843 0.318069
Si Si4 0.486698 0.293479 0.463704
Si Si5 0.902736 0.969769 0.936092
Si Si6 0.592622 0.932728 0.689744
Si Si7 0.139790 0.767909 0.173513
Si Si8 0.432371 0.429383 0.066325
O O1 0.745870 0.185478 0.462255
O O2 0.907683 0.160510 0.700192
O O3 0.217290 0.057565 0.351450
O O4 0.949275 0.003687 0.685914
O O5 0.979136 0.402619 0.350907
O O6 0.372424 0.255976 0.451012
O O7 0.268331 0.193333 0.307589
O O8 0.012395 0.269594 0.685343
O O9 0.155194 0.499559 0.103875
O O10 0.000000 0.500000 0.500000
O O11 0.682140 0.628239 0.338202
O O12 0.507057 0.367344 0.264170
O O13 0.061221 0.840330 0.974224
O O14 0.624080 0.025352 0.084461
O O15 0.000000 0.000000 0.000000
O O16 0.500000 0.000000 0.500000
O O17 0.416017 0.658450 0.098227
O O18 0.500000 0.500000 0.000000
#
# Coordination Sequence:
#
# PCOD8042756 Si02
#       8
#     2   2   2   2   2   2   2   2
#     4  10  23  38  59  88 122 148 190 248 289 332
#     4   9  18  34  62  80 109 154 193 231 280 352
#     4   8  17  32  55  77 109 150 181 223 285 347
#     4  10  21  39  56  85 120 146 186 248 297 325
#     4  10  20  35  62  81 117 153 199 230 277 351
#     4  11  19  38  61  84 113 159 200 228 282 351
#     4  10  19  36  61  86 107 153 201 227 277 352
#     4  10  19  35  61  85 110 150 197 229 278 358
#
# _framework density 23.249686000000001
#
# number of rings (size 3 to 8) (size 9 to 14) (size 15 to 20)
#    0.000    2.500    3.750    2.250    7.000    0.000 
#    4.500    9.375    0.000    0.000    0.000    0.000 
#    0.000    0.000    0.000    0.000    0.000    0.000 
#
# Total GULP energy -198235.162782 kJ/mol
# GULP energy per Si atom -12389.697674 kJ/mol
# Density = 2.319677 g / cm^3
# Si number density = 23.249686 Si / 1000 Ang^3
#
#
#
# Elastic Constant Matrix: (Units=GPa)
#
#
# Indices 1 2 3 4 5 6 
#
# 1 83.1430 31.8460 33.0592 -13.0258 -37.9195 -13.4675
# 2 31.8460 98.4297 18.8312 1.1233 -27.4593 6.7078
# 3 33.0592 18.8312 117.5670 -9.3824 -39.5552 -5.3903
# 4 -13.0258 1.1233 -9.3824 39.4708 -0.3447 -11.4298
# 5 -37.9195 -27.4593 -39.5552 -0.3447 35.6290 -4.7795
# 6 -13.4675 6.7078 -5.3903 -11.4298 -4.7795 34.4771
#
#
#
# Elastic Compliance Matrix: (Units=1/GPa)
#
#
# Indices 1 2 3 4 5 6 
#
# 1 0.071248 -0.001800 0.024099 0.048593 0.110160 0.063330
# 2 -0.001800 0.013314 0.001423 -0.001165 0.009629 -0.002123
# 3 0.024099 0.001423 0.023793 0.022217 0.057150 0.028145
# 4 0.048593 -0.001165 0.022217 0.063425 0.083514 0.055286
# 5 0.110160 0.009629 0.057150 0.083514 0.231729 0.109904
# 6 0.063330 -0.002123 0.028145 0.055286 0.109904 0.092120
#
#
# Mechanical properties :
#
#
# Convention : Reuss Voigt Hill
#
# Bulk Modulus (GPa) = 6.41862 51.84582 29.13222
# Shear Modulus (GPa) = 9.99765 36.27558 23.13661
#
# Velocity S-wave (km/s) = 2.07592 3.95430 3.15800
# Velocity P-wave (km/s) = 2.91765 6.57241 5.08475
#
# Compressibility (1/GPa) = 0.15579677
#
# Stress axis : x y z
#
# Youngs Moduli (GPa) = 14.03556 75.10942 42.02946
#
# Poissons Ratio (x) = 0.13523 -1.01286
# Poissons Ratio (y) = 0.02527 -0.05980
# Poissons Ratio (z) = -0.33824 -0.10687
#
# Static dielectric constant tensor:
#      x y z
#    x 4.066410 -0.121660 -0.482460 
#    y -0.121660 5.168010 0.254310 
#    z -0.482460 0.254310 5.213830 
# 
# 
# High freq. dielectric constant tensor:
#      x y z
#    x 1.890890 0.008940 -0.031030 
#    y 0.008940 1.943470 0.008340 
#    z -0.031030 0.008340 1.919850 
# 
# From -- ./inp_files/216946.got.cif
#   From: 2010.06.25/outbox.cif.g09.slc.cpg/sg2_109_cif.got.tgz:216946.got - 2010.06.27 13:26:56.
