data_PCOD8042053
_publ_section_title
;
Structure prediction by ZEFSAII (Michael W. Deem and Ramdas Pophale) SiO2 
 PCOD8042053
Probable space group: P -1
;
_chemical_formula_sum "Si O2"
_cell_formula_units_Z 16
_cell_length_a 27.395757
_cell_length_b 21.643413
_cell_length_c 9.101415
_cell_angle_alpha 143.080242
_cell_angle_beta 150.107452
_cell_angle_gamma 16.968650
_cell_volume 768.347348
_symmetry_space_group_name_H-M "P -1"
_symmetry_group_IT_number 2
_symmetry_cell_setting 'triclinic'
loop_
_space_group_symop_operation_xyz
x,y,z
-x,-y,-z
loop_
_atom_site_type_symbol
_atom_site_label
_atom_site_fract_x
_atom_site_fract_y
_atom_site_fract_z
Si Si1 0.512831 0.123728 0.118521
Si Si2 0.692129 0.244065 0.744032
Si Si3 0.570779 0.663712 0.956375
Si Si4 0.344111 0.933022 0.170545
Si Si5 0.477900 0.694665 0.325118
Si Si6 0.900775 0.247213 0.192705
Si Si7 0.918597 0.353237 0.727369
Si Si8 0.332934 0.226854 0.133213
O O1 0.405898 0.261293 0.951022
O O2 0.611152 0.131675 0.470568
O O3 0.349933 0.219687 0.985808
O O4 0.686492 0.875087 0.063624
O O5 0.541525 0.329177 0.397643
O O6 0.589066 0.344226 0.830357
O O7 0.723236 0.332527 0.944808
O O8 0.912405 0.984210 0.835947
O O9 0.440974 0.822250 0.056032
O O10 0.798229 0.419082 0.134824
O O11 0.367446 0.808003 0.094231
O O12 0.461486 0.917313 0.527782
O O13 0.105119 0.181864 0.003037
O O14 0.724086 0.479018 0.539512
O O15 0.984985 0.231151 0.522712
O O16 0.862154 0.522751 0.854011
#
# Coordination Sequence:
#
# PCOD8042053 Si02
#       8
#     2   2   2   2   2   2   2   2
#     4   8  18  35  59  79 112 144 181 226 275 322
#     4  10  23  37  59  82 112 141 188 230 273 328
#     4  11  19  37  58  82 110 148 180 229 277 325
#     4  10  19  34  57  79 114 144 184 225 273 318
#     4   9  20  39  56  81 110 148 179 233 271 324
#     4  11  21  38  58  83 111 146 183 229 277 326
#     4  10  19  36  57  79 114 149 180 224 275 321
#     4   9  18  38  55  82 112 147 179 229 270 324
#
# _framework density 20.823915
#
# number of rings (size 3 to 8) (size 9 to 14) (size 15 to 20)
#    0.000    2.500    3.750    0.375    0.000    4.000 
#    0.000   13.750    0.000    0.000    0.000    0.000 
#    0.000    0.000    0.000    0.000    0.000    0.000 
#
# Total GULP energy -198287.380590 kJ/mol
# GULP energy per Si atom -12392.961287 kJ/mol
# Density = 2.077652 g / cm^3
# Si number density = 20.823915 Si / 1000 Ang^3
#
#
#
# Elastic Constant Matrix: (Units=GPa)
#
#
# Indices 1 2 3 4 5 6 
#
# 1 108.6617 27.2291 23.7320 -5.9652 -25.3579 19.2512
# 2 27.2291 86.4444 18.7838 -24.5572 -11.8050 7.3446
# 3 23.7320 18.7838 53.4652 -22.8909 -21.3633 1.1908
# 4 -5.9652 -24.5572 -22.8909 36.5810 1.1820 -8.5160
# 5 -25.3579 -11.8050 -21.3633 1.1820 21.5162 0.4821
# 6 19.2512 7.3446 1.1908 -8.5160 0.4821 24.1821
#
#
#
# Elastic Compliance Matrix: (Units=1/GPa)
#
#
# Indices 1 2 3 4 5 6 
#
# 1 0.016344 -0.002162 0.000326 -0.002351 0.018833 -0.013574
# 2 -0.002162 0.016510 0.005861 0.014312 0.011516 0.001229
# 3 0.000326 0.005861 0.055310 0.038574 0.056225 0.007700
# 4 -0.002351 0.014312 0.038574 0.063420 0.039513 0.017171
# 5 0.018833 0.011516 0.056225 0.039513 0.128868 -0.009914
# 6 -0.013574 0.001229 0.007700 0.017171 -0.009914 0.057652
#
#
# Mechanical properties :
#
#
# Convention : Reuss Voigt Hill
#
# Bulk Modulus (GPa) = 10.39348 43.11790 26.75569
# Shear Modulus (GPa) = 13.80741 28.37762 21.09252
#
# Velocity S-wave (km/s) = 2.57778 3.69554 3.18606
# Velocity P-wave (km/s) = 3.72316 6.24181 5.13917
#
# Compressibility (1/GPa) = 0.09621412
#
# Stress axis : x y z
#
# Youngs Moduli (GPa) = 61.18327 60.57106 18.07998
#
# Poissons Ratio (x) = 0.13093 -0.00589
# Poissons Ratio (y) = 0.13225 -0.10597
# Poissons Ratio (z) = -0.01993 -0.35501
#
# Static dielectric constant tensor:
#      x y z
#    x 4.004680 0.227420 -0.153540 
#    y 0.227420 3.827230 0.171450 
#    z -0.153540 0.171450 3.605450 
# 
# 
# High freq. dielectric constant tensor:
#      x y z
#    x 1.814080 0.007780 -0.017660 
#    y 0.007780 1.815640 0.012000 
#    z -0.017660 0.012000 1.789720 
# 
# From -- ./inp_files/335719.got.cif
#   From: 2010.06.25/outbox.cif.g09.slc.cpg/sg2_168_cif.got.tgz:335719.got - 2010.06.27 13:26:56.
