data_PCOD8042655
_publ_section_title
;
Structure prediction by ZEFSAII (Michael W. Deem and Ramdas Pophale) SiO2 
 PCOD8042655
Probable space group: P -1
;
_chemical_formula_sum "Si O2"
_cell_formula_units_Z 14
_cell_length_a 11.397125
_cell_length_b 10.282431
_cell_length_c 14.461577
_cell_angle_alpha 127.452229
_cell_angle_beta 115.641177
_cell_angle_gamma 108.159377
_cell_volume 722.607596
_symmetry_space_group_name_H-M "P -1"
_symmetry_group_IT_number 2
_symmetry_cell_setting 'triclinic'
loop_
_space_group_symop_operation_xyz
x,y,z
-x,-y,-z
loop_
_atom_site_type_symbol
_atom_site_label
_atom_site_fract_x
_atom_site_fract_y
_atom_site_fract_z
Si Si1 0.393006 0.652173 0.830879
Si Si2 0.826152 0.534648 0.993665
Si Si3 0.628111 0.060955 0.927828
Si Si4 0.941916 0.280645 0.446158
Si Si5 0.064214 0.507526 0.174524
Si Si6 0.378067 0.904202 0.605907
Si Si7 0.643041 0.684128 0.039422
O O1 0.462411 0.538739 0.835847
O O2 0.159986 0.402735 0.595415
O O3 0.568573 0.888050 0.918119
O O4 0.384276 0.762719 0.965772
O O5 0.907193 0.591771 0.941631
O O6 0.816273 0.717422 0.090270
O O7 0.579595 0.222743 0.786324
O O8 0.996019 0.616718 0.156388
O O9 0.464021 0.869420 0.701427
O O10 0.869967 0.250454 0.063107
O O11 0.833036 0.215632 0.478801
O O12 0.000000 0.500000 0.500000
O O13 0.776837 0.990070 0.215109
O O14 0.290697 0.734347 0.407891
O O15 0.500000 0.500000 0.000000
#
# Coordination Sequence:
#
# PCOD8042655 Si02
#       7
#     2   2   2   2   2   2   2
#     4  11  21  35  57  88 124 154 190 250 300 349
#     4  10  23  41  56  90 121 161 199 247 299 358
#     4  10  19  35  59  89 115 152 204 246 291 350
#     4  12  22  37  64  93 118 158 199 244 301 361
#     4  10  21  38  65  84 117 162 206 245 292 356
#     4  11  19  35  63  88 115 151 210 245 288 356
#     4  12  24  40  58  90 130 152 194 253 304 356
#
# _framework density 19.374276999999999
#
# number of rings (size 3 to 8) (size 9 to 14) (size 15 to 20)
#    0.000    1.143    5.714    2.143    0.000    1.714 
#    0.000    0.714    0.000    1.714    0.000    0.000 
#    0.000    0.000    0.000    0.000    0.000    0.000 
#
# Total GULP energy -173516.058302 kJ/mol
# GULP energy per Si atom -12394.004164 kJ/mol
# Density = 1.933018 g / cm^3
# Si number density = 19.374277 Si / 1000 Ang^3
#
#
#
# Elastic Constant Matrix: (Units=GPa)
#
#
# Indices 1 2 3 4 5 6 
#
# 1 93.9888 47.8397 17.0988 7.2145 -1.6593 7.4831
# 2 47.8397 92.2380 40.6446 -6.7959 3.8891 3.2640
# 3 17.0988 40.6446 86.3087 -11.9295 7.1620 -0.3201
# 4 7.2145 -6.7959 -11.9295 34.6485 0.5274 5.8211
# 5 -1.6593 3.8891 7.1620 0.5274 22.1754 -1.0766
# 6 7.4831 3.2640 -0.3201 5.8211 -1.0766 38.2597
#
#
#
# Elastic Compliance Matrix: (Units=1/GPa)
#
#
# Indices 1 2 3 4 5 6 
#
# 1 0.015447 -0.008430 0.000042 -0.004640 0.002657 -0.001521
# 2 -0.008430 0.018360 -0.006367 0.003281 -0.001898 -0.000523
# 3 0.000042 -0.006367 0.015479 0.004146 -0.003982 -0.000078
# 4 -0.004640 0.003281 0.004146 0.032688 -0.003253 -0.004403
# 5 0.002657 -0.001898 -0.003982 -0.003253 0.047060 0.001428
# 6 -0.001521 -0.000523 -0.000078 -0.004403 0.001428 0.027189
#
#
# Mechanical properties :
#
#
# Convention : Reuss Voigt Hill
#
# Bulk Modulus (GPa) = 50.56529 53.74461 52.15495
# Shear Modulus (GPa) = 25.99778 30.14687 28.07232
#
# Velocity S-wave (km/s) = 3.66713 3.94893 3.81063
# Velocity P-wave (km/s) = 6.63975 6.97083 6.80730
#
# Compressibility (1/GPa) = 0.01977641
#
# Stress axis : x y z
#
# Youngs Moduli (GPa) = 64.73710 54.46674 64.60214
#
# Poissons Ratio (x) = 0.45918 -0.00273
# Poissons Ratio (y) = 0.54576 0.41131
# Poissons Ratio (z) = -0.00274 0.34678
#
# Static dielectric constant tensor:
#      x y z
#    x 3.594830 0.148580 0.225750 
#    y 0.148580 3.554790 -0.163650 
#    z 0.225750 -0.163650 3.479090 
# 
# 
# High freq. dielectric constant tensor:
#      x y z
#    x 1.743200 0.021060 0.030440 
#    y 0.021060 1.755350 -0.021600 
#    z 0.030440 -0.021600 1.743880 
# 
# From -- ./inp_files/356940.got.cif
#   From: 2010.06.25/outbox.cif.g09.slc.cpg/sg2_179_cif.got.tgz:356940.got - 2010.06.27 13:26:56.
