data_PCOD8042347
_publ_section_title
;
Structure prediction by ZEFSAII (Michael W. Deem and Ramdas Pophale) SiO2 
 PCOD8042347
Probable space group: P -1
;
_chemical_formula_sum "Si O2"
_cell_formula_units_Z 16
_cell_length_a 20.373424
_cell_length_b 8.830272
_cell_length_c 12.289919
_cell_angle_alpha 131.516584
_cell_angle_beta 41.409757
_cell_angle_gamma 150.966551
_cell_volume 709.577437
_symmetry_space_group_name_H-M "P -1"
_symmetry_group_IT_number 2
_symmetry_cell_setting 'triclinic'
loop_
_space_group_symop_operation_xyz
x,y,z
-x,-y,-z
loop_
_atom_site_type_symbol
_atom_site_label
_atom_site_fract_x
_atom_site_fract_y
_atom_site_fract_z
Si Si1 0.835982 0.385402 0.727592
Si Si2 0.667308 0.422210 0.244552
Si Si3 0.827118 0.269664 0.285964
Si Si4 0.387099 0.234204 0.876927
Si Si5 0.578366 0.166887 0.594444
Si Si6 0.616167 0.363390 0.037038
Si Si7 0.825372 0.255826 0.923046
Si Si8 0.184392 0.953422 0.579562
O O1 0.808202 0.226904 0.800739
O O2 0.746059 0.111515 0.617517
O O3 0.011496 0.698413 0.630250
O O4 0.773878 0.517459 0.868753
O O5 0.638116 0.468926 0.183731
O O6 0.731168 0.700436 0.375126
O O7 0.503388 0.097781 0.338719
O O8 0.789693 0.427556 0.093986
O O9 0.758012 0.381682 0.464373
O O10 0.810135 0.089985 0.321235
O O11 0.004228 0.555003 0.165961
O O12 0.728267 0.035504 0.197357
O O13 0.545491 0.352285 0.748526
O O14 0.436136 0.535986 0.927857
O O15 0.296875 0.087919 0.034608
O O16 0.500000 0.000000 0.500000
O O17 0.500000 0.000000 0.000000
#
# Coordination Sequence:
#
# PCOD8042347 Si02
#       8
#     2   2   2   2   2   2   2   2
#     4   9  22  39  59  94 130 158 205 261 315 362
#     4  10  21  39  66  92 120 167 215 254 311 369
#     4  10  19  34  65  96 123 160 208 261 306 370
#     4  10  20  40  62  90 125 164 210 254 313 368
#     4   9  21  38  55  94 130 155 205 259 311 370
#     4  11  24  40  63  93 124 164 212 258 309 372
#     4   9  20  38  65  93 125 159 210 260 309 373
#     4  10  20  38  66  90 125 165 206 264 306 370
#
# _framework density 22.548631
#
# number of rings (size 3 to 8) (size 9 to 14) (size 15 to 20)
#    0.000    2.250    1.250    0.375    3.500    4.000 
#    0.000    6.875    2.750    2.250    0.000    0.000 
#    0.000    0.000    0.000    0.000    0.000    0.000 
#
# Total GULP energy -198302.677605 kJ/mol
# GULP energy per Si atom -12393.917350 kJ/mol
# Density = 2.249731 g / cm^3
# Si number density = 22.548631 Si / 1000 Ang^3
#
#
#
# Elastic Constant Matrix: (Units=GPa)
#
#
# Indices 1 2 3 4 5 6 
#
# 1 58.0966 26.9899 18.0121 0.3168 -16.1209 -17.4508
# 2 26.9899 71.0085 24.5851 15.4460 -9.8339 -21.5112
# 3 18.0121 24.5851 83.5481 -2.4652 -4.0705 -4.0223
# 4 0.3168 15.4460 -2.4652 29.6043 10.3504 -1.5294
# 5 -16.1209 -9.8339 -4.0705 10.3504 43.8969 -0.8670
# 6 -17.4508 -21.5112 -4.0223 -1.5294 -0.8670 36.1990
#
#
#
# Elastic Compliance Matrix: (Units=1/GPa)
#
#
# Indices 1 2 3 4 5 6 
#
# 1 0.025459 -0.004280 -0.003382 -0.000783 0.008450 0.009523
# 2 -0.004280 0.026248 -0.006307 -0.016265 0.007802 0.012333
# 3 -0.003382 -0.006307 0.014407 0.005259 -0.002631 -0.003618
# 4 -0.000783 -0.016265 0.005259 0.047480 -0.014793 -0.007807
# 5 0.008450 0.007802 -0.002631 -0.014793 0.031045 0.008536
# 6 0.009523 0.012333 -0.003618 -0.007807 0.008536 0.039018
#
#
# Mechanical properties :
#
#
# Convention : Reuss Voigt Hill
#
# Bulk Modulus (GPa) = 26.19478 39.09194 32.64336
# Shear Modulus (GPa) = 22.28938 31.47776 26.88357
#
# Velocity S-wave (km/s) = 3.14746 3.74035 3.45664
# Velocity P-wave (km/s) = 4.98507 6.00234 5.51720
#
# Compressibility (1/GPa) = 0.03817554
#
# Stress axis : x y z
#
# Youngs Moduli (GPa) = 39.27812 38.09767 69.41032
#
# Poissons Ratio (x) = 0.16307 0.23476
# Poissons Ratio (y) = 0.16812 0.43778
# Poissons Ratio (z) = 0.13285 0.24029
#
# Static dielectric constant tensor:
#      x y z
#    x 4.363640 0.055270 -0.519050 
#    y 0.055270 3.597950 -0.053420 
#    z -0.519050 -0.053420 4.835430 
# 
# 
# High freq. dielectric constant tensor:
#      x y z
#    x 1.893910 0.001260 -0.000620 
#    y 0.001260 1.852050 -0.008290 
#    z -0.000620 -0.008290 1.906590 
# 
# From -- ./inp_files/403484.got.cif
#   From: 2010.06.25/outbox.cif.g09.slc.cpg/sg2_202_cif.got.tgz:403484.got - 2010.06.27 13:26:56.
