data_PCOD8042735
_publ_section_title
;
Structure prediction by ZEFSAII (Michael W. Deem and Ramdas Pophale) SiO2 
 PCOD8042735
Probable space group: P -1
;
_chemical_formula_sum "Si O2"
_cell_formula_units_Z 16
_cell_length_a 9.516432
_cell_length_b 11.738985
_cell_length_c 13.445072
_cell_angle_alpha 146.779930
_cell_angle_beta 106.432834
_cell_angle_gamma 88.960247
_cell_volume 717.787091
_symmetry_space_group_name_H-M "P -1"
_symmetry_group_IT_number 2
_symmetry_cell_setting 'triclinic'
loop_
_space_group_symop_operation_xyz
x,y,z
-x,-y,-z
loop_
_atom_site_type_symbol
_atom_site_label
_atom_site_fract_x
_atom_site_fract_y
_atom_site_fract_z
Si Si1 0.972669 0.132705 0.364753
Si Si2 0.834956 0.844729 0.301128
Si Si3 0.802640 0.482037 0.171137
Si Si4 0.677162 0.097301 0.566642
Si Si5 0.410157 0.653049 0.423075
Si Si6 0.312073 0.790976 0.705188
Si Si7 0.543909 0.306457 0.149541
Si Si8 0.230321 0.964897 0.252343
O O1 0.862316 0.200346 0.317141
O O2 0.043474 0.336226 0.608091
O O3 0.857115 0.895079 0.224420
O O4 0.112213 0.091660 0.303944
O O5 0.786767 0.581555 0.131514
O O6 0.693737 0.911554 0.360767
O O7 0.000000 0.000000 0.500000
O O8 0.643059 0.443457 0.173969
O O9 0.819952 0.245263 0.987894
O O10 0.704052 0.320550 0.668385
O O11 0.795087 0.137001 0.714097
O O12 0.500000 0.000000 0.500000
O O13 0.327658 0.651688 0.510930
O O14 0.418770 0.410436 0.233851
O O15 0.588427 0.857167 0.602538
O O16 0.329692 0.662933 0.713769
O O17 0.451846 0.043652 0.911177
#
# Coordination Sequence:
#
# PCOD8042735 Si02
#       8
#     2   2   2   2   2   2   2   2
#     4  11  23  43  63  95 133 164 210 267 314 377
#     4  10  19  38  60  87 131 164 196 261 307 369
#     4  11  22  40  67  90 133 173 204 253 327 377
#     4  10  19  35  60  92 127 163 206 248 308 384
#     4  11  21  42  66  93 127 170 211 263 319 373
#     4  11  25  43  70  94 124 163 222 271 311 372
#     4  11  24  45  67  94 124 168 219 266 316 375
#     4  11  22  39  64  95 132 171 205 257 318 385
#
# _framework density 22.290731000000001
#
# number of rings (size 3 to 8) (size 9 to 14) (size 15 to 20)
#    0.000    1.250    6.250    1.125    0.000    3.000 
#    0.000    3.125    0.000    0.000    0.000    0.000 
#    0.000    0.000    0.000    0.000    0.000    0.000 
#
# Total GULP energy -198370.270942 kJ/mol
# GULP energy per Si atom -12398.141934 kJ/mol
# Density = 2.224000 g / cm^3
# Si number density = 22.290731 Si / 1000 Ang^3
#
#
#
# Elastic Constant Matrix: (Units=GPa)
#
#
# Indices 1 2 3 4 5 6 
#
# 1 92.1194 7.7060 7.1980 -1.9848 -18.3284 -15.1808
# 2 7.7060 54.9046 5.3846 4.6566 -5.3401 -14.8329
# 3 7.1980 5.3846 49.4262 6.7754 -18.8176 1.8259
# 4 -1.9848 4.6566 6.7754 23.8343 -0.3730 0.8688
# 5 -18.3284 -5.3401 -18.8176 -0.3730 29.6556 6.4180
# 6 -15.1808 -14.8329 1.8259 0.8688 6.4180 37.3414
#
#
#
# Elastic Compliance Matrix: (Units=1/GPa)
#
#
# Indices 1 2 3 4 5 6 
#
# 1 0.012986 -0.000195 0.000791 0.000875 0.007677 0.003824
# 2 -0.000195 0.021070 -0.001775 -0.003922 0.000691 0.008350
# 3 0.000791 -0.001775 0.028926 -0.007323 0.019510 -0.004980
# 4 0.000875 -0.003922 -0.007323 0.044859 -0.003988 -0.001202
# 5 0.007677 0.000691 0.019510 -0.003988 0.052317 -0.006458
# 6 0.003824 0.008350 -0.004980 -0.001202 -0.006458 0.033032
#
#
# Mechanical properties :
#
#
# Convention : Reuss Voigt Hill
#
# Bulk Modulus (GPa) = 16.49446 26.33637 21.41542
# Shear Modulus (GPa) = 23.17437 29.91037 26.54237
#
# Velocity S-wave (km/s) = 3.22785 3.66707 3.45445
# Velocity P-wave (km/s) = 4.61603 5.45623 5.05362
#
# Compressibility (1/GPa) = 0.06062640
#
# Stress axis : x y z
#
# Youngs Moduli (GPa) = 77.00434 47.45993 34.57094
#
# Poissons Ratio (x) = 0.00925 -0.02736
# Poissons Ratio (y) = 0.01501 0.06135
# Poissons Ratio (z) = -0.06095 0.08423
#
# Static dielectric constant tensor:
#      x y z
#    x 4.024880 -0.179090 -0.271220 
#    y -0.179090 4.573560 0.283660 
#    z -0.271220 0.283660 4.064970 
# 
# 
# High freq. dielectric constant tensor:
#      x y z
#    x 1.882890 -0.005630 -0.014440 
#    y -0.005630 1.872230 0.009090 
#    z -0.014440 0.009090 1.850380 
# 
# From -- ./inp_files/208018.got.cif
#   From: 2010.06.25/outbox.cif.g09.slc.cpg/sg2_105_cif.got.tgz:208018.got - 2010.06.27 13:26:56.
