data_PCOD8042727
_publ_section_title
;
Structure prediction by ZEFSAII (Michael W. Deem and Ramdas Pophale) SiO2 
 PCOD8042727
Probable space group: P -1
;
_chemical_formula_sum "Si O2"
_cell_formula_units_Z 14
_cell_length_a 11.591151
_cell_length_b 9.999170
_cell_length_c 13.699944
_cell_angle_alpha 90.354291
_cell_angle_beta 44.629525
_cell_angle_gamma 52.574970
_cell_volume 547.336633
_symmetry_space_group_name_H-M "P -1"
_symmetry_group_IT_number 2
_symmetry_cell_setting 'triclinic'
loop_
_space_group_symop_operation_xyz
x,y,z
-x,-y,-z
loop_
_atom_site_type_symbol
_atom_site_label
_atom_site_fract_x
_atom_site_fract_y
_atom_site_fract_z
Si Si1 0.537075 0.899279 0.257136
Si Si2 0.814181 0.434917 0.171625
Si Si3 0.705726 0.243407 0.931357
Si Si4 0.626138 0.303097 0.199646
Si Si5 0.379274 0.284335 0.992551
Si Si6 0.809761 0.883492 0.350326
Si Si7 0.241999 0.427827 0.592860
O O1 0.708483 0.660989 0.216049
O O2 0.223872 0.154632 0.518216
O O3 0.433130 0.914724 0.213965
O O4 0.785086 0.851676 0.096480
O O5 0.597336 0.480838 0.243663
O O6 0.760432 0.456374 0.320825
O O7 0.553065 0.327157 0.130820
O O8 0.667245 0.133780 0.891584
O O9 0.500000 0.500000 0.000000
O O10 0.084673 0.031904 0.707882
O O11 0.362887 0.403307 0.419002
O O12 0.000000 0.000000 0.000000
O O13 0.120964 0.584551 0.110503
O O14 0.141652 0.346198 0.190728
O O15 0.470698 0.133115 0.487876
#
# Coordination Sequence:
#
# PCOD8042727 Si02
#       7
#     2   2   2   2   2   2   2
#     4   9  19  34  62  88 117 157 195 251 294 336
#     4   9  19  36  55  91 121 146 202 251 289 350
#     4  10  22  39  58  88 121 157 197 246 294 355
#     4  12  23  36  62  89 120 158 197 245 301 351
#     4  10  21  37  59  86 126 152 200 245 293 358
#     4  10  19  35  60  91 118 155 206 239 293 351
#     4  10  21  36  60  88 114 162 196 246 298 346
#
# _framework density 25.578410999999999
#
# number of rings (size 3 to 8) (size 9 to 14) (size 15 to 20)
#    0.000    2.000    1.429    3.429    2.000    1.143 
#    0.000    1.429    0.000    1.714    0.000    0.000 
#    0.000    0.000    0.000    0.000    0.000    0.000 
#
# Total GULP energy -173506.921786 kJ/mol
# GULP energy per Si atom -12393.351556 kJ/mol
# Density = 2.552019 g / cm^3
# Si number density = 25.578411 Si / 1000 Ang^3
#
#
#
# Elastic Constant Matrix: (Units=GPa)
#
#
# Indices 1 2 3 4 5 6 
#
# 1 140.0952 2.1796 30.1594 -26.0381 16.7928 -13.1283
# 2 2.1796 40.1845 19.6349 -26.5214 7.7940 -10.4140
# 3 30.1594 19.6349 120.4246 -50.2119 15.3646 -9.8485
# 4 -26.0381 -26.5214 -50.2119 47.1517 -5.7089 6.8757
# 5 16.7928 7.7940 15.3646 -5.7089 32.9768 -7.1883
# 6 -13.1283 -10.4140 -9.8485 6.8757 -7.1883 26.9243
#
#
#
# Elastic Compliance Matrix: (Units=1/GPa)
#
#
# Indices 1 2 3 4 5 6 
#
# 1 0.009428 0.007019 0.001348 0.009429 -0.004543 0.004184
# 2 0.007019 0.051219 0.008222 0.038226 -0.009875 0.013842
# 3 0.001348 0.008222 0.016886 0.022221 -0.006057 0.002722
# 4 0.009429 0.038226 0.022221 0.069270 -0.010678 0.006971
# 5 -0.004543 -0.009875 -0.006057 -0.010678 0.036888 0.004325
# 6 0.004184 0.013842 0.002722 0.006971 0.004325 0.044906
#
#
# Mechanical properties :
#
#
# Convention : Reuss Voigt Hill
#
# Bulk Modulus (GPa) = 9.03264 44.96134 26.99699
# Shear Modulus (GPa) = 21.52179 37.99259 29.75719
#
# Velocity S-wave (km/s) = 2.90384 3.85819 3.41452
# Velocity P-wave (km/s) = 3.84475 6.12074 5.11105
#
# Compressibility (1/GPa) = 0.11070961
#
# Stress axis : x y z
#
# Youngs Moduli (GPa) = 106.06893 19.52417 59.21923
#
# Poissons Ratio (x) = -0.13704 -0.07982
# Poissons Ratio (y) = -0.74447 -0.48688
# Poissons Ratio (z) = -0.14297 -0.16052
#
# Static dielectric constant tensor:
#      x y z
#    x 5.517760 0.305420 -0.374030 
#    y 0.305420 3.970160 -0.162330 
#    z -0.374030 -0.162330 4.985080 
# 
# 
# High freq. dielectric constant tensor:
#      x y z
#    x 2.039210 0.015900 0.006260 
#    y 0.015900 1.968070 -0.025150 
#    z 0.006260 -0.025150 2.027510 
# 
# From -- ./inp_files/175271.got.cif
#   From: 2010.06.25/outbox.cif.g09.slc.cpg/sg2_88_cif.got.tgz:175271.got - 2010.06.27 13:26:56.
