data_PCOD8042674
_publ_section_title
;
Structure prediction by ZEFSAII (Michael W. Deem and Ramdas Pophale) SiO2 
 PCOD8042674
Probable space group: P -1
;
_chemical_formula_sum "Si O2"
_cell_formula_units_Z 16
_cell_length_a 11.913674
_cell_length_b 9.119656
_cell_length_c 12.035225
_cell_angle_alpha 62.765109
_cell_angle_beta 124.137046
_cell_angle_gamma 127.634814
_cell_volume 843.810607
_symmetry_space_group_name_H-M "P -1"
_symmetry_group_IT_number 2
_symmetry_cell_setting 'triclinic'
loop_
_space_group_symop_operation_xyz
x,y,z
-x,-y,-z
loop_
_atom_site_type_symbol
_atom_site_label
_atom_site_fract_x
_atom_site_fract_y
_atom_site_fract_z
Si Si1 0.569543 0.370218 0.545351
Si Si2 0.787188 0.685126 0.139129
Si Si3 0.628326 0.344850 0.331149
Si Si4 0.641074 0.010378 0.501822
Si Si5 0.780731 0.323014 0.845018
Si Si6 0.880076 0.605332 0.989487
Si Si7 0.887445 0.971020 0.799551
Si Si8 0.671357 0.911417 0.888856
O O1 0.500000 0.500000 0.500000
O O2 0.603944 0.398974 0.422935
O O3 0.722894 0.410450 0.684574
O O4 0.438831 0.155707 0.575094
O O5 0.728716 0.535651 0.256196
O O6 0.785966 0.585928 0.056397
O O7 0.672089 0.776126 0.034600
O O8 0.955828 0.847081 0.209453
O O9 0.720560 0.222284 0.422656
O O10 0.464308 0.212066 0.228411
O O11 0.500000 0.000000 0.500000
O O12 0.759513 0.967197 0.648136
O O13 0.776542 0.415316 0.928202
O O14 0.669191 0.096485 0.870041
O O15 0.955820 0.377706 0.893496
O O16 0.902548 0.781937 0.864466
O O17 0.837903 0.986587 0.892848
#
# Coordination Sequence:
#
# PCOD8042674 Si02
#       8
#     2   2   2   2   2   2   2   2
#     4  11  22  38  63  84 114 155 201 235 286 351
#     4  11  23  36  60  92 120 153 189 242 299 340
#     4  11  23  39  59  90 122 149 193 245 292 344
#     4  10  19  35  60  82 113 154 199 238 274 348
#     4  11  20  37  63  87 111 151 204 243 279 334
#     4  10  22  36  60  90 118 148 198 243 286 345
#     4  11  18  37  62  85 112 156 204 234 282 346
#     4  11  18  39  61  86 114 158 199 237 278 350
#
# _framework density 18.961601999999999
#
# number of rings (size 3 to 8) (size 9 to 14) (size 15 to 20)
#    0.000    1.250    6.250    2.625    1.750    0.500 
#    0.000    1.875    0.000    1.500    0.000    0.000 
#    0.000    0.000    0.000    0.000    0.000    0.000 
#
# Total GULP energy -198308.263246 kJ/mol
# GULP energy per Si atom -12394.266453 kJ/mol
# Density = 1.891844 g / cm^3
# Si number density = 18.961602 Si / 1000 Ang^3
#
#
#
# Elastic Constant Matrix: (Units=GPa)
#
#
# Indices 1 2 3 4 5 6 
#
# 1 64.8160 55.4698 50.2094 -5.3355 8.7831 -15.8885
# 2 55.4698 127.2084 60.9111 -11.3312 -2.8210 -18.1863
# 3 50.2094 60.9111 131.1063 -9.2470 22.2128 -6.3037
# 4 -5.3355 -11.3312 -9.2470 39.4309 -1.4125 -1.4725
# 5 8.7831 -2.8210 22.2128 -1.4125 32.3235 -5.5697
# 6 -15.8885 -18.1863 -6.3037 -1.4725 -5.5697 29.5726
#
#
#
# Elastic Compliance Matrix: (Units=1/GPa)
#
#
# Indices 1 2 3 4 5 6 
#
# 1 0.031055 -0.009071 -0.006707 0.000254 -0.003039 0.009117
# 2 -0.009071 0.015050 -0.004418 0.002528 0.007792 0.005033
# 3 -0.006707 -0.004418 0.013514 0.000492 -0.008699 -0.005054
# 4 0.000254 0.002528 0.000492 0.026420 0.001555 0.003405
# 5 -0.003039 0.007792 -0.008699 0.001555 0.040026 0.008921
# 6 0.009117 0.005033 -0.005054 0.003405 0.008921 0.042581
#
#
# Mechanical properties :
#
#
# Convention : Reuss Voigt Hill
#
# Bulk Modulus (GPa) = 52.01378 72.92348 62.46863
# Shear Modulus (GPa) = 23.20748 30.70142 26.95445
#
# Velocity S-wave (km/s) = 3.50225 4.02821 3.77441
# Velocity P-wave (km/s) = 6.62156 7.75741 7.21188
#
# Compressibility (1/GPa) = 0.01922567
#
# Stress axis : x y z
#
# Youngs Moduli (GPa) = 32.20097 66.44673 73.99630
#
# Poissons Ratio (x) = 0.60276 0.49633
# Poissons Ratio (y) = 0.29210 0.32690
# Poissons Ratio (z) = 0.21599 0.29355
#
# Static dielectric constant tensor:
#      x y z
#    x 3.201160 -0.305700 0.298310 
#    y -0.305700 3.885460 -0.190090 
#    z 0.298310 -0.190090 3.723530 
# 
# 
# High freq. dielectric constant tensor:
#      x y z
#    x 1.697890 -0.022220 0.032990 
#    y -0.022220 1.747540 0.003180 
#    z 0.032990 0.003180 1.748380 
# 
# From -- ./inp_files/185971.got.cif
#   From: 2010.06.25/outbox.cif.g09.slc.cpg/sg2_93_cif.got.tgz:185971.got - 2010.06.27 13:26:56.
