data_PCOD8042603
_publ_section_title
;
Structure prediction by ZEFSAII (Michael W. Deem and Ramdas Pophale) SiO2 
 PCOD8042603
Probable space group: P -1
;
_chemical_formula_sum "Si O2"
_cell_formula_units_Z 12
_cell_length_a 7.372931
_cell_length_b 8.379586
_cell_length_c 11.430413
_cell_angle_alpha 54.631361
_cell_angle_beta 50.121412
_cell_angle_gamma 62.708737
_cell_volume 437.589956
_symmetry_space_group_name_H-M "P -1"
_symmetry_group_IT_number 2
_symmetry_cell_setting 'triclinic'
loop_
_space_group_symop_operation_xyz
x,y,z
-x,-y,-z
loop_
_atom_site_type_symbol
_atom_site_label
_atom_site_fract_x
_atom_site_fract_y
_atom_site_fract_z
Si Si1 0.895809 0.774533 0.533409
Si Si2 0.207771 0.751288 0.984912
Si Si3 0.320186 0.168355 0.785962
Si Si4 0.335891 0.457738 0.462565
Si Si5 0.438057 0.391629 0.901418
Si Si6 0.771541 0.929429 0.769528
O O1 0.721560 0.695615 0.547582
O O2 0.109301 0.599576 0.545058
O O3 0.993806 0.966648 0.355653
O O4 0.758172 0.836107 0.684507
O O5 0.317726 0.699176 0.092838
O O6 0.929364 0.721096 0.107536
O O7 0.348599 0.606788 0.895348
O O8 0.241988 0.973414 0.837959
O O9 0.442709 0.318465 0.584852
O O10 0.532684 0.087408 0.822644
O O11 0.521887 0.583633 0.266492
O O12 0.234112 0.247679 0.060327
#
# Coordination Sequence:
#
# PCOD8042603 Si02
#       6
#     2   2   2   2   2   2
#     4  10  22  39  60  82 114 156 192 224 278 349
#     4   9  18  34  56  83 114 153 190 223 277 350
#     4  10  20  34  58  88 115 144 190 242 280 322
#     4  11  21  36  61  89 113 142 191 243 280 324
#     4  10  19  35  59  82 112 152 190 226 279 345
#     4  10  22  40  60  82 114 155 191 226 280 345
#
# _framework density 27.422931999999999
#
# number of rings (size 3 to 8) (size 9 to 14) (size 15 to 20)
#    0.000    2.000    0.000    6.000    0.000    4.000 
#    0.000    0.000    0.000    8.000    0.000    0.000 
#    0.000    0.000    0.000    0.000    0.000    0.000 
#
# Total GULP energy -148780.177051 kJ/mol
# GULP energy per Si atom -12398.348088 kJ/mol
# Density = 2.736052 g / cm^3
# Si number density = 27.422932 Si / 1000 Ang^3
#
#
#
# Elastic Constant Matrix: (Units=GPa)
#
#
# Indices 1 2 3 4 5 6 
#
# 1 43.2273 10.2180 29.5460 12.6051 9.1960 -4.0879
# 2 10.2180 87.7107 37.1863 -11.1166 4.0346 0.3119
# 3 29.5460 37.1863 191.4605 -25.9424 -1.6863 -2.5148
# 4 12.6051 -11.1166 -25.9424 39.7678 5.8772 -6.6243
# 5 9.1960 4.0346 -1.6863 5.8772 45.6672 -1.5366
# 6 -4.0879 0.3119 -2.5148 -6.6243 -1.5366 32.4084
#
#
#
# Elastic Compliance Matrix: (Units=1/GPa)
#
#
# Indices 1 2 3 4 5 6 
#
# 1 0.033930 -0.002774 -0.006789 -0.015164 -0.004871 0.000449
# 2 -0.002774 0.012911 -0.001597 0.003625 -0.001105 0.000090
# 3 -0.006789 -0.001597 0.007505 0.006650 0.000968 0.001146
# 4 -0.015164 0.003625 0.006650 0.036521 -0.001521 0.005961
# 5 -0.004871 -0.001105 0.000968 -0.001521 0.023216 0.000261
# 6 0.000449 0.000090 0.001146 0.005961 0.000261 0.032232
#
#
# Mechanical properties :
#
#
# Convention : Reuss Voigt Hill
#
# Bulk Modulus (GPa) = 31.22354 52.92213 42.07284
# Shear Modulus (GPa) = 27.88431 39.93188 33.90810
#
# Velocity S-wave (km/s) = 3.19223 3.82009 3.52019
# Velocity P-wave (km/s) = 4.99977 6.22879 5.64781
#
# Compressibility (1/GPa) = 0.03202712
#
# Stress axis : x y z
#
# Youngs Moduli (GPa) = 29.47213 77.45185 133.23653
#
# Poissons Ratio (x) = 0.21485 0.90455
# Poissons Ratio (y) = 0.08175 0.21278
# Poissons Ratio (z) = 0.20009 0.12369
#
# Static dielectric constant tensor:
#      x y z
#    x 4.791690 0.267340 -0.321090 
#    y 0.267340 5.268760 -0.367300 
#    z -0.321090 -0.367300 5.177760 
# 
# 
# High freq. dielectric constant tensor:
#      x y z
#    x 2.088460 0.025170 -0.021000 
#    y 0.025170 2.134480 -0.017070 
#    z -0.021000 -0.017070 2.111040 
# 
# From -- ./inp_files/237702.got.cif
#   From: 2010.06.25/outbox.cif.g09.slc.cpg/sg2_119_cif.got.tgz:237702.got - 2010.06.27 13:26:56.
