data_PCOD8042365
_publ_section_title
;
Structure prediction by ZEFSAII (Michael W. Deem and Ramdas Pophale) SiO2 
 PCOD8042365
Probable space group: P -1
;
_chemical_formula_sum "Si O2"
_cell_formula_units_Z 16
_cell_length_a 18.273436
_cell_length_b 10.351491
_cell_length_c 18.010497
_cell_angle_alpha 142.902167
_cell_angle_beta 26.940598
_cell_angle_gamma 124.907893
_cell_volume 802.009822
_symmetry_space_group_name_H-M "P -1"
_symmetry_group_IT_number 2
_symmetry_cell_setting 'triclinic'
loop_
_space_group_symop_operation_xyz
x,y,z
-x,-y,-z
loop_
_atom_site_type_symbol
_atom_site_label
_atom_site_fract_x
_atom_site_fract_y
_atom_site_fract_z
Si Si1 0.364893 0.893799 0.157457
Si Si2 0.947728 0.255547 0.436311
Si Si3 0.207348 0.302723 0.127288
Si Si4 0.402481 0.379854 0.863632
Si Si5 0.689985 0.004212 0.914078
Si Si6 0.114043 0.152182 0.640481
Si Si7 0.686342 0.491791 0.162543
Si Si8 0.420680 0.104110 0.439080
O O1 0.277863 0.014076 0.211884
O O2 0.197580 0.028162 0.429038
O O3 0.441891 0.598685 0.951246
O O4 0.531796 0.940541 0.050084
O O5 0.023443 0.277350 0.296097
O O6 0.781195 0.521186 0.738015
O O7 0.115990 0.190364 0.312777
O O8 0.888855 0.050561 0.395170
O O9 0.213930 0.415515 0.092390
O O10 0.391504 0.025914 0.841535
O O11 0.378191 0.366696 0.792275
O O12 0.576797 0.115395 0.613018
O O13 0.630095 0.281327 0.122909
O O14 0.241296 0.237009 0.607999
O O15 0.908391 0.384317 0.920416
O O16 0.577378 0.687929 0.415984
#
# Coordination Sequence:
#
# PCOD8042365 Si02
#       8
#     2   2   2   2   2   2   2   2
#     4  10  19  36  55  87 108 142 183 229 289 316
#     4  10  19  35  51  87 112 139 185 228 282 322
#     4   9  20  33  56  81 110 145 177 229 274 327
#     4   9  20  35  62  81 106 147 179 232 269 328
#     4   9  21  34  57  79 116 143 180 232 271 331
#     4  11  21  33  59  80 113 144 182 235 269 321
#     4  10  21  38  57  81 112 148 190 216 268 330
#     4  10  21  37  55  84 110 152 181 220 273 328
#
# _framework density 19.94988
#
# number of rings (size 3 to 8) (size 9 to 14) (size 15 to 20)
#    0.750    1.500    1.250    1.500    1.750    5.500 
#    0.000    6.875    0.000    0.750    0.000    0.000 
#    0.000    0.000    0.000    0.000    0.000    0.000 
#
# Total GULP energy -198267.471564 kJ/mol
# GULP energy per Si atom -12391.716973 kJ/mol
# Density = 1.990447 g / cm^3
# Si number density = 19.949880 Si / 1000 Ang^3
#
#
#
# Elastic Constant Matrix: (Units=GPa)
#
#
# Indices 1 2 3 4 5 6 
#
# 1 63.6764 14.4331 31.1545 8.5011 8.6183 9.8712
# 2 14.4331 76.9466 24.6979 -3.5960 12.3653 -0.0500
# 3 31.1545 24.6979 96.9534 7.0145 4.9188 17.0921
# 4 8.5011 -3.5960 7.0145 24.8142 -0.2941 -0.0874
# 5 8.6183 12.3653 4.9188 -0.2941 17.5823 4.7822
# 6 9.8712 -0.0500 17.0921 -0.0874 4.7822 21.5290
#
#
#
# Elastic Compliance Matrix: (Units=1/GPa)
#
#
# Indices 1 2 3 4 5 6 
#
# 1 0.020764 -0.001596 -0.004725 -0.006103 -0.006661 -0.004318
# 2 -0.001596 0.016901 -0.004770 0.004232 -0.011646 0.007162
# 3 -0.004725 -0.004770 0.014950 -0.003285 0.004342 -0.010691
# 4 -0.006103 0.004232 -0.003285 0.043954 0.000158 0.005559
# 5 -0.006661 -0.011646 0.004342 0.000158 0.071556 -0.016314
# 6 -0.004318 0.007162 -0.010691 0.005559 -0.016314 0.060580
#
#
# Mechanical properties :
#
#
# Convention : Reuss Voigt Hill
#
# Bulk Modulus (GPa) = 32.86015 42.01639 37.43827
# Shear Modulus (GPa) = 19.15491 23.93784 21.54638
#
# Velocity S-wave (km/s) = 3.10199 3.46771 3.28994
# Velocity P-wave (km/s) = 5.41636 6.09427 5.76528
#
# Compressibility (1/GPa) = 0.03043200
#
# Stress axis : x y z
#
# Youngs Moduli (GPa) = 48.16143 59.16980 66.89014
#
# Poissons Ratio (x) = 0.09442 0.31604
# Poissons Ratio (y) = 0.07685 0.31909
# Poissons Ratio (z) = 0.22755 0.28227
#
# Static dielectric constant tensor:
#      x y z
#    x 3.448160 -0.171830 0.047970 
#    y -0.171830 3.667880 -0.030720 
#    z 0.047970 -0.030720 3.477500 
# 
# 
# High freq. dielectric constant tensor:
#      x y z
#    x 1.763900 -0.015610 0.004080 
#    y -0.015610 1.776540 0.000730 
#    z 0.004080 0.000730 1.768000 
# 
# From -- ./inp_files/305029.got.cif
#   From: 2010.06.25/outbox.cif.g09.slc.cpg/sg2_153_cif.got.tgz:305029.got - 2010.06.27 13:26:56.
