data_PCOD8042937
_publ_section_title
;
Structure prediction by ZEFSAII (Michael W. Deem and Ramdas Pophale) SiO2 
 PCOD8042937
Probable space group: P -1
;
_chemical_formula_sum "Si O2"
_cell_formula_units_Z 16
_cell_length_a 11.690829
_cell_length_b 18.162351
_cell_length_c 9.303018
_cell_angle_alpha 152.272770
_cell_angle_beta 126.398062
_cell_angle_gamma 52.924971
_cell_volume 723.698588
_symmetry_space_group_name_H-M "P -1"
_symmetry_group_IT_number 2
_symmetry_cell_setting 'triclinic'
loop_
_space_group_symop_operation_xyz
x,y,z
-x,-y,-z
loop_
_atom_site_type_symbol
_atom_site_label
_atom_site_fract_x
_atom_site_fract_y
_atom_site_fract_z
Si Si1 0.211397 0.198816 0.274151
Si Si2 0.322302 0.710505 0.802574
Si Si3 0.113931 0.273831 0.801367
Si Si4 0.648247 0.773657 0.875319
Si Si5 0.949024 0.059259 0.908559
Si Si6 0.560895 0.004109 0.713436
Si Si7 0.161987 0.470926 0.899740
Si Si8 0.438874 0.527753 0.309422
O O1 0.291321 0.184889 0.159210
O O2 0.329810 0.150969 0.409207
O O3 0.135084 0.382494 0.577721
O O4 0.088613 0.091899 0.983293
O O5 0.341209 0.563378 0.446314
O O6 0.452544 0.649332 0.907804
O O7 0.168368 0.768517 0.869130
O O8 0.342669 0.861210 0.983567
O O9 0.156278 0.343505 0.803375
O O10 0.117795 0.081014 0.460050
O O11 0.222652 0.310550 0.068846
O O12 0.953544 0.363345 0.882323
O O13 0.533972 0.658691 0.568643
O O14 0.571847 0.943071 0.183799
O O15 0.000000 0.000000 0.000000
O O16 0.500000 0.000000 0.500000
O O17 0.319620 0.518335 0.083723
#
# Coordination Sequence:
#
# PCOD8042937 Si02
#       8
#     2   2   2   2   2   2   2   2
#     4  12  26  42  67 100 141 178 217 279 348 401
#     4  10  19  35  65  96 124 167 221 283 321 380
#     4  11  24  42  68 100 133 174 231 281 332 401
#     4  11  26  43  65 100 143 179 216 275 347 408
#     4  12  22  40  68 100 132 173 231 284 331 394
#     4  11  21  41  69  96 127 173 234 273 323 394
#     4  11  23  41  69  98 128 179 230 282 327 394
#     4  10  22  39  65  98 135 172 224 276 334 394
#
# _framework density 22.108650000000001
#
# number of rings (size 3 to 8) (size 9 to 14) (size 15 to 20)
#    0.000    1.000    2.500    5.625    5.250    1.500 
#    0.000    0.000    0.000    0.000    0.000    0.000 
#    0.000    0.000    0.000    0.000    0.000    0.000 
#
# Total GULP energy -198310.599146 kJ/mol
# GULP energy per Si atom -12394.412447 kJ/mol
# Density = 2.205833 g / cm^3
# Si number density = 22.108650 Si / 1000 Ang^3
#
#
#
# Elastic Constant Matrix: (Units=GPa)
#
#
# Indices 1 2 3 4 5 6 
#
# 1 154.2004 47.3416 56.2363 0.5959 -5.8085 -5.6410
# 2 47.3416 56.4384 24.3461 7.4457 -13.5786 -21.5064
# 3 56.2363 24.3461 95.0889 -0.1218 0.6272 -4.1369
# 4 0.5959 7.4457 -0.1218 26.7201 -6.4327 -3.7194
# 5 -5.8085 -13.5786 0.6272 -6.4327 42.5815 -2.8216
# 6 -5.6410 -21.5064 -4.1369 -3.7194 -2.8216 35.1982
#
#
#
# Elastic Compliance Matrix: (Units=1/GPa)
#
#
# Indices 1 2 3 4 5 6 
#
# 1 0.010640 -0.009475 -0.004052 0.001365 -0.001605 -0.004545
# 2 -0.009475 0.039337 -0.003572 -0.004715 0.012087 0.022568
# 3 -0.004052 -0.003572 0.013783 0.000507 -0.001905 -0.001311
# 4 0.001365 -0.004715 0.000507 0.040168 0.004878 0.002033
# 5 -0.001605 0.012087 -0.001905 0.004878 0.028528 0.009706
# 6 -0.004545 0.022568 -0.001311 0.002033 0.009706 0.042310
#
#
# Mechanical properties :
#
#
# Convention : Reuss Voigt Hill
#
# Bulk Modulus (GPa) = 33.82683 62.39730 48.11207
# Shear Modulus (GPa) = 22.85001 32.75353 27.80177
#
# Velocity S-wave (km/s) = 3.21835 3.85318 3.54998
# Velocity P-wave (km/s) = 5.39850 6.93399 6.21386
#
# Compressibility (1/GPa) = 0.02956233
#
# Stress axis : x y z
#
# Youngs Moduli (GPa) = 93.98699 25.42140 72.55067
#
# Poissons Ratio (x) = 0.24087 0.29396
# Poissons Ratio (y) = 0.89055 0.25914
# Poissons Ratio (z) = 0.38082 0.09080
#
# Static dielectric constant tensor:
#      x y z
#    x 4.124510 -0.417980 -0.073940 
#    y -0.417980 3.836560 0.160350 
#    z -0.073940 0.160350 4.130660 
# 
# 
# High freq. dielectric constant tensor:
#      x y z
#    x 1.871510 -0.032770 -0.000700 
#    y -0.032770 1.844100 0.008440 
#    z -0.000700 0.008440 1.874090 
# 
# From -- ./inp_files/278618.got.cif
#   From: 2010.06.25/outbox.cif.g09.slc.cpg/sg2_140_cif.got.tgz:278618.got - 2010.06.27 13:26:56.
