data_PCOD8042398
_publ_section_title
;
Structure prediction by ZEFSAII (Michael W. Deem and Ramdas Pophale) SiO2 
 PCOD8042398
Probable space group: P -1
;
_chemical_formula_sum "Si O2"
_cell_formula_units_Z 16
_cell_length_a 22.490300
_cell_length_b 16.867780
_cell_length_c 11.290845
_cell_angle_alpha 146.526561
_cell_angle_beta 41.592061
_cell_angle_gamma 160.689605
_cell_volume 762.858661
_symmetry_space_group_name_H-M "P -1"
_symmetry_group_IT_number 2
_symmetry_cell_setting 'triclinic'
loop_
_space_group_symop_operation_xyz
x,y,z
-x,-y,-z
loop_
_atom_site_type_symbol
_atom_site_label
_atom_site_fract_x
_atom_site_fract_y
_atom_site_fract_z
Si Si1 0.328964 0.203169 0.258009
Si Si2 0.006465 0.257603 0.999131
Si Si3 0.746115 0.722802 0.874369
Si Si4 0.728954 0.138807 0.677569
Si Si5 0.397586 0.343648 0.775577
Si Si6 0.214584 0.774042 0.027855
Si Si7 0.203916 0.323777 0.636534
Si Si8 0.333066 0.645890 0.607544
O O1 0.520550 0.467959 0.229377
O O2 0.313719 0.330777 0.515523
O O3 0.331088 0.073452 0.182836
O O4 0.151298 0.945224 0.116755
O O5 0.092150 0.535527 0.243923
O O6 0.181185 0.404911 0.878643
O O7 0.921109 0.065849 0.004599
O O8 0.567384 0.521955 0.819321
O O9 0.774857 0.596272 0.635869
O O10 0.714563 0.696220 0.029165
O O11 0.722920 0.175860 0.870643
O O12 0.740002 0.981303 0.454056
O O13 0.551536 0.952704 0.641521
O O14 0.255092 0.696921 0.785209
O O15 0.000000 0.500000 0.000000
O O16 0.309281 0.537990 0.635599
O O17 0.000000 0.000000 0.500000
#
# Coordination Sequence:
#
# PCOD8042398 Si02
#       8
#     2   2   2   2   2   2   2   2
#     4  10  19  35  53  82 113 151 184 223 283 339
#     4  10  18  30  57  84 112 144 184 233 274 337
#     4   9  18  35  59  79 105 157 196 217 273 336
#     4  11  21  35  55  87 119 140 182 243 276 322
#     4   9  19  36  55  80 113 147 193 236 263 324
#     4  12  23  34  56  88 118 149 177 228 298 336
#     4  10  15  31  54  79 109 140 183 224 274 331
#     4  11  20  36  58  85 113 145 188 234 271 334
#
# _framework density 20.973742999999999
#
# number of rings (size 3 to 8) (size 9 to 14) (size 15 to 20)
#    0.000    1.750    7.500    1.125    0.000    1.000 
#    0.000    0.625    0.000    0.750    0.000    0.000 
#    0.000    0.000    0.000    0.000    0.000    0.000 
#
# Total GULP energy -198328.754916 kJ/mol
# GULP energy per Si atom -12395.547182 kJ/mol
# Density = 2.092601 g / cm^3
# Si number density = 20.973743 Si / 1000 Ang^3
#
#
#
# Elastic Constant Matrix: (Units=GPa)
#
#
# Indices 1 2 3 4 5 6 
#
# 1 39.2708 21.8973 30.1440 -0.6072 -20.1552 -11.8021
# 2 21.8973 98.5373 63.7233 7.4263 -4.7122 -23.8640
# 3 30.1440 63.7233 129.8255 1.4249 -21.5636 -13.2216
# 4 -0.6072 7.4263 1.4249 41.0935 -1.4884 -4.2980
# 5 -20.1552 -4.7122 -21.5636 -1.4884 29.7343 2.4060
# 6 -11.8021 -23.8640 -13.2216 -4.2980 2.4060 20.4276
#
#
#
# Elastic Compliance Matrix: (Units=1/GPa)
#
#
# Indices 1 2 3 4 5 6 
#
# 1 0.052278 -0.003072 -0.003306 0.004850 0.031027 0.021842
# 2 -0.003072 0.020271 -0.008603 -0.001900 -0.006556 0.016711
# 3 -0.003306 -0.008603 0.013357 0.000869 0.006441 -0.003891
# 4 0.004850 -0.001900 0.000869 0.025506 0.004409 0.005992
# 5 0.031027 -0.006556 0.006441 0.004409 0.057823 0.008553
# 6 0.021842 0.016711 -0.003891 0.005992 0.008553 0.078830
#
#
# Mechanical properties :
#
#
# Convention : Reuss Voigt Hill
#
# Bulk Modulus (GPa) = 17.87465 55.46252 36.66859
# Shear Modulus (GPa) = 16.85350 28.37570 22.61460
#
# Velocity S-wave (km/s) = 2.83778 3.68219 3.28721
# Velocity P-wave (km/s) = 4.39069 6.67677 5.65055
#
# Compressibility (1/GPa) = 0.05594516
#
# Stress axis : x y z
#
# Youngs Moduli (GPa) = 19.12853 49.33100 74.86793
#
# Poissons Ratio (x) = 0.15152 0.24752
# Poissons Ratio (y) = 0.05875 0.64408
# Poissons Ratio (z) = 0.06324 0.42439
#
# Static dielectric constant tensor:
#      x y z
#    x 3.265600 -0.229270 -0.172750 
#    y -0.229270 3.903820 -0.051530 
#    z -0.172750 -0.051530 4.276770 
# 
# 
# High freq. dielectric constant tensor:
#      x y z
#    x 1.765350 -0.006340 -0.017990 
#    y -0.006340 1.824560 0.013810 
#    z -0.017990 0.013810 1.827170 
# 
# From -- ./inp_files/216545.got.cif
#   From: 2010.06.25/outbox.cif.g09.slc.cpg/sg2_109_cif.got.tgz:216545.got - 2010.06.27 13:26:56.
