data_PCOD8042126
_publ_section_title
;
Structure prediction by ZEFSAII (Michael W. Deem and Ramdas Pophale) SiO2 
 PCOD8042126
Probable space group: P -1
;
_chemical_formula_sum "Si O2"
_cell_formula_units_Z 12
_cell_length_a 11.987560
_cell_length_b 9.333194
_cell_length_c 7.297451
_cell_angle_alpha 126.826418
_cell_angle_beta 116.700634
_cell_angle_gamma 63.018014
_cell_volume 564.104511
_symmetry_space_group_name_H-M "P -1"
_symmetry_group_IT_number 2
_symmetry_cell_setting 'triclinic'
loop_
_space_group_symop_operation_xyz
x,y,z
-x,-y,-z
loop_
_atom_site_type_symbol
_atom_site_label
_atom_site_fract_x
_atom_site_fract_y
_atom_site_fract_z
Si Si1 0.135083 0.379163 0.935767
Si Si2 0.037307 0.288274 0.425720
Si Si3 0.416664 0.370052 0.542020
Si Si4 0.759630 0.253024 0.267322
Si Si5 0.243557 0.125367 0.163806
Si Si6 0.672414 0.408775 0.688483
O O1 0.117377 0.265435 0.656213
O O2 0.199692 0.238430 0.033234
O O3 0.223082 0.521393 0.059919
O O4 0.000000 0.500000 0.000000
O O5 0.123790 0.158567 0.239363
O O6 0.000000 0.500000 0.500000
O O7 0.909323 0.218810 0.302903
O O8 0.325614 0.547658 0.718485
O O9 0.361735 0.190597 0.397334
O O10 0.569014 0.336180 0.682333
O O11 0.407995 0.411717 0.348462
O O12 0.745685 0.249890 0.476857
O O13 0.707061 0.091336 0.012347
#
# Coordination Sequence:
#
# PCOD8042126 Si02
#       6
#     2   2   2   2   2   2
#     4  11  19  37  59  79 114 147 181 228 274 326
#     4  12  20  37  58  80 114 147 183 228 276 325
#     4   8  16  35  56  80 112 144 184 222 271 328
#     4  10  19  34  58  84 110 146 185 225 274 327
#     4  11  22  35  59  84 111 148 181 228 277 321
#     4   8  16  34  55  84 108 143 188 219 271 330
#
# _framework density 21.272653999999999
#
# number of rings (size 3 to 8) (size 9 to 14) (size 15 to 20)
#    1.000    1.000    5.000    0.500    0.000    1.333 
#    0.000    0.833    0.000    1.000    0.000    0.000 
#    0.000    0.000    0.000    0.000    0.000    0.000 
#
# Total GULP energy -148687.206304 kJ/mol
# GULP energy per Si atom -12390.600525 kJ/mol
# Density = 2.122424 g / cm^3
# Si number density = 21.272654 Si / 1000 Ang^3
#
#
#
# Elastic Constant Matrix: (Units=GPa)
#
#
# Indices 1 2 3 4 5 6 
#
# 1 152.1693 16.5116 71.3458 10.1658 33.1030 -5.1068
# 2 16.5116 21.1382 36.3965 9.4069 4.3139 2.4358
# 3 71.3458 36.3965 133.9847 36.2283 18.6158 -0.4069
# 4 10.1658 9.4069 36.2283 34.3816 5.4557 -2.0892
# 5 33.1030 4.3139 18.6158 5.4557 45.7825 -4.1059
# 6 -5.1068 2.4358 -0.4069 -2.0892 -4.1059 10.5101
#
#
#
# Elastic Compliance Matrix: (Units=1/GPa)
#
#
# Indices 1 2 3 4 5 6 
#
# 1 0.010344 0.001738 -0.006378 0.004215 -0.005269 0.003156
# 2 0.001738 0.094341 -0.026565 0.000525 -0.001425 -0.022500
# 3 -0.006378 -0.026565 0.021796 -0.013741 -0.000005 0.001168
# 4 0.004215 0.000525 -0.013741 0.043022 -0.001808 0.009240
# 5 -0.005269 -0.001425 -0.000005 -0.001808 0.026707 0.007844
# 6 0.003156 -0.022500 0.001168 0.009240 0.007844 0.106841
#
#
# Mechanical properties :
#
#
# Convention : Reuss Voigt Hill
#
# Bulk Modulus (GPa) = 15.60792 61.75554 38.68173
# Shear Modulus (GPa) = 12.92598 30.33740 21.63169
#
# Velocity S-wave (km/s) = 2.46770 3.78050 3.19231
# Velocity P-wave (km/s) = 3.93349 6.93900 5.64013
#
# Compressibility (1/GPa) = 0.06407002
#
# Stress axis : x y z
#
# Youngs Moduli (GPa) = 96.67416 10.59990 45.88011
#
# Poissons Ratio (x) = -0.01843 0.29264
# Poissons Ratio (y) = -0.16806 1.21882
# Poissons Ratio (z) = 0.61662 0.28159
#
# Static dielectric constant tensor:
#      x y z
#    x 3.537700 -0.316890 0.162440 
#    y -0.316890 3.066890 -0.096880 
#    z 0.162440 -0.096880 3.964750 
# 
# 
# High freq. dielectric constant tensor:
#      x y z
#    x 1.846500 -0.003000 0.016090 
#    y -0.003000 1.770580 0.007360 
#    z 0.016090 0.007360 1.834830 
# 
# From -- ./inp_files/261183.got.cif
#   From: 2010.06.25/outbox.cif.g09.slc.cpg/sg2_131_cif.got.tgz:261183.got - 2010.06.27 13:26:56.
