data_PCOD8042288
_publ_section_title
;
Structure prediction by ZEFSAII (Michael W. Deem and Ramdas Pophale) SiO2 
 PCOD8042288
Probable space group: P -1
;
_chemical_formula_sum "Si O2"
_cell_formula_units_Z 14
_cell_length_a 5.488156
_cell_length_b 17.630242
_cell_length_c 7.331571
_cell_angle_alpha 117.080844
_cell_angle_beta 119.596831
_cell_angle_gamma 72.198608
_cell_volume 546.195243
_symmetry_space_group_name_H-M "P -1"
_symmetry_group_IT_number 2
_symmetry_cell_setting 'triclinic'
loop_
_space_group_symop_operation_xyz
x,y,z
-x,-y,-z
loop_
_atom_site_type_symbol
_atom_site_label
_atom_site_fract_x
_atom_site_fract_y
_atom_site_fract_z
Si Si1 0.360582 0.696950 0.303106
Si Si2 0.114201 0.053044 0.264457
Si Si3 0.910299 0.771318 0.700417
Si Si4 0.339503 0.013010 0.761654
Si Si5 0.581409 0.339644 0.142995
Si Si6 0.830428 0.796799 0.100216
Si Si7 0.329608 0.511860 0.138977
O O1 0.599250 0.749405 0.525001
O O2 0.353818 0.609130 0.321581
O O3 0.070806 0.758630 0.288645
O O4 0.399732 0.673410 0.080650
O O5 0.013811 0.154281 0.326086
O O6 0.458740 0.039172 0.370865
O O7 0.973457 0.021162 0.365639
O O8 0.000000 0.000000 0.000000
O O9 0.122350 0.684151 0.668953
O O10 0.947978 0.811896 0.958574
O O11 0.312610 0.111153 0.785094
O O12 0.500000 0.000000 0.000000
O O13 0.472266 0.439224 0.251637
O O14 0.381643 0.274480 0.080515
O O15 0.500000 0.500000 0.000000
O O16 0.000000 0.500000 0.000000
#
# Coordination Sequence:
#
# PCOD8042288 Si02
#       7
#     2   2   2   2   2   2   2
#     4  10  24  41  62  96 128 162 213 268 313 380
#     4  10  19  37  59  87 122 169 205 260 314 372
#     4  11  23  39  64  95 126 163 218 266 312 375
#     4  10  19  34  62  85 119 166 213 252 310 381
#     4  10  22  40  68  88 126 174 207 254 326 383
#     4  11  21  39  65  90 123 170 209 262 324 375
#     4  10  20  43  67  91 130 172 207 255 325 382
#
# _framework density 25.63186
#
# number of rings (size 3 to 8) (size 9 to 14) (size 15 to 20)
#    0.000    1.714    4.286    1.714    2.000    1.714 
#    0.000    2.143    0.000    0.000    0.000    0.000 
#    0.000    0.000    0.000    0.000    0.000    0.000 
#
# Total GULP energy -173533.045346 kJ/mol
# GULP energy per Si atom -12395.217525 kJ/mol
# Density = 2.557352 g / cm^3
# Si number density = 25.631860 Si / 1000 Ang^3
#
#
#
# Elastic Constant Matrix: (Units=GPa)
#
#
# Indices 1 2 3 4 5 6 
#
# 1 131.9344 39.5090 7.4890 -8.6907 25.6240 -0.0604
# 2 39.5090 237.9823 28.9974 1.7055 7.4600 -3.7381
# 3 7.4890 28.9974 42.5544 8.6028 16.2875 -0.8657
# 4 -8.6907 1.7055 8.6028 25.6452 3.7415 13.8201
# 5 25.6240 7.4600 16.2875 3.7415 35.0815 -0.9652
# 6 -0.0604 -3.7381 -0.8657 13.8201 -0.9652 47.2675
#
#
#
# Elastic Compliance Matrix: (Units=1/GPa)
#
#
# Indices 1 2 3 4 5 6 
#
# 1 0.009903 -0.001625 0.001407 0.005125 -0.008136 -0.001755
# 2 -0.001625 0.004874 -0.003735 -0.000107 0.001907 0.000385
# 3 0.001407 -0.003735 0.033467 -0.009945 -0.014629 0.002928
# 4 0.005125 -0.000107 -0.009945 0.053410 -0.005237 -0.015907
# 5 -0.008136 0.001907 -0.014629 -0.005237 0.041455 0.002250
# 6 -0.001755 0.000385 0.002928 -0.015907 0.002250 0.025935
#
#
# Mechanical properties :
#
#
# Convention : Reuss Voigt Hill
#
# Bulk Modulus (GPa) = 24.79153 62.71799 43.75476
# Shear Modulus (GPa) = 26.26108 44.03058 35.14583
#
# Velocity S-wave (km/s) = 3.20433 4.14914 3.70696
# Velocity P-wave (km/s) = 4.83564 6.89026 5.95227
#
# Compressibility (1/GPa) = 0.04033636
#
# Stress axis : x y z
#
# Youngs Moduli (GPa) = 100.97868 205.17312 29.88046
#
# Poissons Ratio (x) = 0.33335 -0.04203
# Poissons Ratio (y) = 0.16406 0.11162
# Poissons Ratio (z) = -0.14203 0.76642
#
# Static dielectric constant tensor:
#      x y z
#    x 5.511090 -0.105750 0.246410 
#    y -0.105750 5.417910 -0.056900 
#    z 0.246410 -0.056900 4.065350 
# 
# 
# High freq. dielectric constant tensor:
#      x y z
#    x 2.033140 0.001170 0.008200 
#    y 0.001170 2.052110 -0.010290 
#    z 0.008200 -0.010290 1.997390 
# 
# From -- ./inp_files/35385.got.cif
#   From: 2010.06.25/outbox.cif.g09.slc.cpg/sg2_18_cif.got.tgz:35385.got - 2010.06.27 13:26:56.
