data_PCOD8042728
_publ_section_title
;
Structure prediction by ZEFSAII (Michael W. Deem and Ramdas Pophale) SiO2 
 PCOD8042728
Probable space group: P -1
;
_chemical_formula_sum "Si O2"
_cell_formula_units_Z 16
_cell_length_a 12.901074
_cell_length_b 16.167583
_cell_length_c 9.240251
_cell_angle_alpha 119.016679
_cell_angle_beta 64.689818
_cell_angle_gamma 154.635941
_cell_volume 721.674166
_symmetry_space_group_name_H-M "P -1"
_symmetry_group_IT_number 2
_symmetry_cell_setting 'triclinic'
loop_
_space_group_symop_operation_xyz
x,y,z
-x,-y,-z
loop_
_atom_site_type_symbol
_atom_site_label
_atom_site_fract_x
_atom_site_fract_y
_atom_site_fract_z
Si Si1 0.252463 0.617713 0.075710
Si Si2 0.145086 0.357332 0.309841
Si Si3 0.866112 0.301576 0.591600
Si Si4 0.373074 0.353486 0.824371
Si Si5 0.502820 0.112956 0.099364
Si Si6 0.300236 0.099621 0.755286
Si Si7 0.499768 0.107990 0.422767
Si Si8 0.963869 0.728267 0.030232
O O1 0.096567 0.573565 0.237542
O O2 0.519158 0.786272 0.121358
O O3 0.288446 0.692888 0.962381
O O4 0.097636 0.410987 0.960584
O O5 0.422049 0.524058 0.313906
O O6 0.104056 0.419896 0.489732
O O7 0.120996 0.362253 0.157757
O O8 0.955348 0.136667 0.269374
O O9 0.725313 0.219210 0.455953
O O10 0.720883 0.126790 0.637775
O O11 0.244841 0.168621 0.814247
O O12 0.171549 0.279770 0.823000
O O13 0.500000 0.500000 0.000000
O O14 0.560866 0.184678 0.289496
O O15 0.242559 0.959723 0.069770
O O16 0.500000 0.000000 0.000000
O O17 0.435247 0.157394 0.583820
#
# Coordination Sequence:
#
# PCOD8042728 Si02
#       8
#     2   2   2   2   2   2   2   2
#     4  11  21  38  62  94 123 158 200 249 305 362
#     4  10  19  35  60  91 121 158 192 253 310 341
#     4   9  18  37  61  91 121 149 206 251 295 365
#     4  10  21  38  59  95 124 149 210 258 294 347
#     4  12  23  41  61  86 128 167 194 242 313 362
#     4  10  19  38  65  92 118 157 206 251 301 351
#     4   9  19  36  60  89 121 157 199 251 295 365
#     4  11  24  38  59  93 126 155 204 255 295 364
#
# _framework density 22.170670999999999
#
# number of rings (size 3 to 8) (size 9 to 14) (size 15 to 20)
#    0.000    1.750    5.000    1.500    0.000    4.000 
#    2.250    1.875    0.000    3.750    0.000    0.000 
#    0.000    0.000    0.000    0.000    0.000    0.000 
#
# Total GULP energy -198347.777259 kJ/mol
# GULP energy per Si atom -12396.736079 kJ/mol
# Density = 2.212021 g / cm^3
# Si number density = 22.170671 Si / 1000 Ang^3
#
#
#
# Elastic Constant Matrix: (Units=GPa)
#
#
# Indices 1 2 3 4 5 6 
#
# 1 98.3678 38.0769 45.7614 -12.6447 -37.1364 -11.4671
# 2 38.0769 74.2711 23.1832 -25.4118 -11.7190 -8.7972
# 3 45.7614 23.1832 86.1241 -25.6308 -2.1473 -7.1235
# 4 -12.6447 -25.4118 -25.6308 32.1527 1.7390 -5.4181
# 5 -37.1364 -11.7190 -2.1473 1.7390 37.4766 -6.0116
# 6 -11.4671 -8.7972 -7.1235 -5.4181 -6.0116 42.4095
#
#
#
# Elastic Compliance Matrix: (Units=1/GPa)
#
#
# Indices 1 2 3 4 5 6 
#
# 1 0.031390 -0.008028 -0.015022 -0.006269 0.029252 0.007645
# 2 -0.008028 0.023793 0.004349 0.020144 -0.000232 0.006036
# 3 -0.015022 0.004349 0.023230 0.016923 -0.012805 0.001089
# 4 -0.006269 0.020144 0.016923 0.060231 0.000359 0.013072
# 5 0.029252 -0.000232 -0.012805 0.000359 0.057068 0.013846
# 6 0.007645 0.006036 0.001089 0.013072 0.013846 0.030714
#
#
# Mechanical properties :
#
#
# Convention : Reuss Voigt Hill
#
# Bulk Modulus (GPa) = 24.38314 52.53400 38.45857
# Shear Modulus (GPa) = 18.01814 32.52386 25.27100
#
# Velocity S-wave (km/s) = 2.85388 3.83427 3.37981
# Velocity P-wave (km/s) = 4.67775 6.58399 5.71096
#
# Compressibility (1/GPa) = 0.04101194
#
# Stress axis : x y z
#
# Youngs Moduli (GPa) = 31.85685 42.02920 43.04863
#
# Poissons Ratio (x) = 0.33740 0.64668
# Poissons Ratio (y) = 0.25574 -0.18723
# Poissons Ratio (z) = 0.47856 -0.18280
#
# Static dielectric constant tensor:
#      x y z
#    x 4.602820 0.229850 -0.673450 
#    y 0.229850 4.069050 -0.426000 
#    z -0.673450 -0.426000 3.639660 
# 
# 
# High freq. dielectric constant tensor:
#      x y z
#    x 1.861630 -0.008450 -0.020560 
#    y -0.008450 1.879750 -0.011580 
#    z -0.020560 -0.011580 1.852590 
# 
# From -- ./inp_files/273682.got.cif
#   From: 2010.06.25/outbox.cif.g09.slc.cpg/sg2_137_cif.got.tgz:273682.got - 2010.06.27 13:26:56.
