data_PCOD8042154
_publ_section_title
;
Structure prediction by ZEFSAII (Michael W. Deem and Ramdas Pophale) SiO2 
 PCOD8042154
Probable space group: P -1
;
_chemical_formula_sum "Si O2"
_cell_formula_units_Z 16
_cell_length_a 11.224140
_cell_length_b 13.448662
_cell_length_c 7.973476
_cell_angle_alpha 132.022665
_cell_angle_beta 53.232509
_cell_angle_gamma 112.944033
_cell_volume 716.138849
_symmetry_space_group_name_H-M "P -1"
_symmetry_group_IT_number 2
_symmetry_cell_setting 'triclinic'
loop_
_space_group_symop_operation_xyz
x,y,z
-x,-y,-z
loop_
_atom_site_type_symbol
_atom_site_label
_atom_site_fract_x
_atom_site_fract_y
_atom_site_fract_z
Si Si1 0.166569 0.040219 0.761359
Si Si2 0.314734 0.604747 0.886592
Si Si3 0.137367 0.317848 0.267650
Si Si4 0.842618 0.058654 0.999826
Si Si5 0.130208 0.521096 0.231902
Si Si6 0.049917 0.718272 0.039701
Si Si7 0.228990 0.109780 0.438958
Si Si8 0.368880 0.324239 0.365543
O O1 0.267033 0.034135 0.499417
O O2 0.002639 0.980247 0.796988
O O3 0.139792 0.198648 0.997430
O O4 0.240226 0.962833 0.773189
O O5 0.336370 0.478841 0.604307
O O6 0.461875 0.694290 0.861909
O O7 0.281584 0.556925 0.049463
O O8 0.171458 0.689516 0.046515
O O9 0.180712 0.455855 0.292317
O O10 0.253836 0.278285 0.268921
O O11 0.971166 0.344466 0.509497
O O12 0.864173 0.215797 0.117605
O O13 0.754611 0.993118 0.845538
O O14 0.032804 0.416194 0.089950
O O15 0.938369 0.830399 0.337241
O O16 0.343750 0.230017 0.442985
#
# Coordination Sequence:
#
# PCOD8042154 Si02
#       8
#     2   2   2   2   2   2   2   2
#     4  10  19  34  58  91 119 146 189 252 289 347
#     4  11  23  38  56  84 119 159 198 235 291 356
#     4  11  20  35  60  87 119 152 190 245 300 345
#     4  10  21  34  58  93 117 148 195 246 297 339
#     4  11  21  35  58  91 115 148 191 250 298 341
#     4  11  19  36  59  87 114 151 192 247 289 338
#     4  11  20  38  62  89 116 154 197 241 296 341
#     4  11  22  37  60  83 116 165 193 232 296 357
#
# _framework density 22.342034999999999
#
# number of rings (size 3 to 8) (size 9 to 14) (size 15 to 20)
#    0.000    1.250    6.250    2.625    0.000    0.500 
#    0.000    0.625    0.000    0.750    0.000    0.000 
#    0.000    0.000    0.000    0.000    0.000    0.000 
#
# Total GULP energy -198332.248856 kJ/mol
# GULP energy per Si atom -12395.765553 kJ/mol
# Density = 2.229118 g / cm^3
# Si number density = 22.342035 Si / 1000 Ang^3
#
#
#
# Elastic Constant Matrix: (Units=GPa)
#
#
# Indices 1 2 3 4 5 6 
#
# 1 41.3724 29.7114 24.0157 -23.3065 14.9464 -1.5539
# 2 29.7114 127.8850 27.1023 -43.5338 1.0671 -10.3338
# 3 24.0157 27.1023 49.8110 -26.2992 8.6869 -1.0195
# 4 -23.3065 -43.5338 -26.2992 36.9822 -0.0440 9.7511
# 5 14.9464 1.0671 8.6869 -0.0440 29.5699 -7.2661
# 6 -1.5539 -10.3338 -1.0195 9.7511 -7.2661 26.8091
#
#
#
# Elastic Compliance Matrix: (Units=1/GPa)
#
#
# Indices 1 2 3 4 5 6 
#
# 1 0.062096 -0.001045 -0.000483 0.043469 -0.036690 -0.022577
# 2 -0.001045 0.013232 0.002400 0.016965 -0.000948 -0.001296
# 3 -0.000483 0.002400 0.039350 0.034193 -0.014806 -0.014056
# 4 0.043469 0.016965 0.034193 0.109478 -0.042538 -0.040990
# 5 -0.036690 -0.000948 -0.014806 -0.042538 0.063997 0.029762
# 6 -0.022577 -0.001296 -0.014056 -0.040990 0.029762 0.057933
#
#
# Mechanical properties :
#
#
# Convention : Reuss Voigt Hill
#
# Bulk Modulus (GPa) = 8.58939 42.30306 25.44622
# Shear Modulus (GPa) = 13.04974 27.88818 20.46896
#
# Velocity S-wave (km/s) = 2.41942 3.53687 3.03010
# Velocity P-wave (km/s) = 3.41432 5.97116 4.86376
#
# Compressibility (1/GPa) = 0.11642277
#
# Stress axis : x y z
#
# Youngs Moduli (GPa) = 16.10409 75.57484 25.41287
#
# Poissons Ratio (x) = 0.07899 0.01227
# Poissons Ratio (y) = 0.01683 -0.06100
# Poissons Ratio (z) = 0.00777 -0.18140
#
# Static dielectric constant tensor:
#      x y z
#    x 3.730270 -0.164590 0.213200 
#    y -0.164590 4.323020 -0.238940 
#    z 0.213200 -0.238940 3.726910 
# 
# 
# High freq. dielectric constant tensor:
#      x y z
#    x 1.843000 -0.014100 0.031660 
#    y -0.014100 1.900300 -0.007270 
#    z 0.031660 -0.007270 1.846670 
# 
# From -- ./inp_files/268772.got.cif
#   From: 2010.06.25/outbox.cif.g09.slc.cpg/sg2_135_cif.got.tgz:268772.got - 2010.06.27 13:26:56.
