data_PCOD8042949
_publ_section_title
;
Structure prediction by ZEFSAII (Michael W. Deem and Ramdas Pophale) SiO2 
 PCOD8042949
Probable space group: P -1
;
_chemical_formula_sum "Si O2"
_cell_formula_units_Z 16
_cell_length_a 15.371209
_cell_length_b 11.693509
_cell_length_c 14.846776
_cell_angle_alpha 142.532701
_cell_angle_beta 27.789081
_cell_angle_gamma 130.760117
_cell_volume 745.321112
_symmetry_space_group_name_H-M "P -1"
_symmetry_group_IT_number 2
_symmetry_cell_setting 'triclinic'
loop_
_space_group_symop_operation_xyz
x,y,z
-x,-y,-z
loop_
_atom_site_type_symbol
_atom_site_label
_atom_site_fract_x
_atom_site_fract_y
_atom_site_fract_z
Si Si1 0.885815 0.810825 0.788922
Si Si2 0.144986 0.081210 0.689193
Si Si3 0.974163 0.519428 0.676668
Si Si4 0.260084 0.429495 0.897391
Si Si5 0.726900 0.896953 0.699939
Si Si6 0.907215 0.204911 0.817377
Si Si7 0.377414 0.445907 0.306796
Si Si8 0.487466 0.898047 0.138833
O O1 0.976105 0.691329 0.544301
O O2 0.858430 0.672313 0.810237
O O3 0.683127 0.939223 0.029343
O O4 0.035065 0.945717 0.764635
O O5 0.986902 0.195578 0.839397
O O6 0.316567 0.954294 0.399383
O O7 0.224926 0.222933 0.771548
O O8 0.177906 0.580086 0.549639
O O9 0.852303 0.502811 0.866410
O O10 0.203905 0.581891 0.964586
O O11 0.485079 0.415377 0.696601
O O12 0.662792 0.710991 0.682726
O O13 0.920182 0.829392 0.430078
O O14 0.768092 0.051350 0.833467
O O15 0.559612 0.993350 0.845868
O O16 0.478463 0.330139 0.054956
#
# Coordination Sequence:
#
# PCOD8042949 Si02
#       8
#     2   2   2   2   2   2   2   2
#     4  10  23  43  69  87 122 159 210 263 300 357
#     4  11  25  40  58  92 130 167 198 246 311 373
#     4  10  23  44  65  95 114 160 216 259 302 350
#     4  12  24  39  61  90 132 165 199 248 308 374
#     4  10  19  35  66  95 120 156 206 257 308 355
#     4  10  20  38  62  92 128 160 200 256 302 367
#     4  11  21  37  65  92 120 160 204 256 304 363
#     4  10  21  38  62  92 118 157 207 252 304 357
#
# _framework density 21.467257
#
# number of rings (size 3 to 8) (size 9 to 14) (size 15 to 20)
#    0.000    1.500    2.500    3.000    3.500    2.500 
#    0.000    6.250    0.000    0.000    0.000    0.000 
#    0.000    0.000    0.000    0.000    0.000    0.000 
#
# Total GULP energy -198375.595582 kJ/mol
# GULP energy per Si atom -12398.474724 kJ/mol
# Density = 2.141840 g / cm^3
# Si number density = 21.467257 Si / 1000 Ang^3
#
#
#
# Elastic Constant Matrix: (Units=GPa)
#
#
# Indices 1 2 3 4 5 6 
#
# 1 72.3197 39.0253 37.4138 -10.3246 -25.2096 11.9855
# 2 39.0253 97.2004 17.9863 -11.4788 -9.3991 27.6920
# 3 37.4138 17.9863 48.4621 -12.1412 -21.2911 2.6530
# 4 -10.3246 -11.4788 -12.1412 20.0450 2.3222 -5.1668
# 5 -25.2096 -9.3991 -21.2911 2.3222 32.5388 -6.2585
# 6 11.9855 27.6920 2.6530 -5.1668 -6.2585 39.7012
#
#
#
# Elastic Compliance Matrix: (Units=1/GPa)
#
#
# Indices 1 2 3 4 5 6 
#
# 1 0.029926 -0.007887 -0.015425 0.000112 0.010651 -0.000809
# 2 -0.007887 0.016065 -0.000132 0.003154 -0.003505 -0.008957
# 3 -0.015425 -0.000132 0.044378 0.018663 0.017044 0.006899
# 4 0.000112 0.003154 0.018663 0.063546 0.009896 0.006349
# 5 0.010651 -0.003505 0.017044 0.009896 0.049809 0.007230
# 6 -0.000809 -0.008957 0.006899 0.006349 0.007230 0.033185
#
#
# Mechanical properties :
#
#
# Convention : Reuss Voigt Hill
#
# Bulk Modulus (GPa) = 22.99899 45.20366 34.10133
# Shear Modulus (GPa) = 16.76214 26.69413 21.72813
#
# Velocity S-wave (km/s) = 2.79735 3.53013 3.18489
# Velocity P-wave (km/s) = 4.60113 6.14154 5.42627
#
# Compressibility (1/GPa) = 0.04348017
#
# Stress axis : x y z
#
# Youngs Moduli (GPa) = 33.41540 62.24823 22.53362
#
# Poissons Ratio (x) = 0.49098 0.34758
# Poissons Ratio (y) = 0.26356 0.00298
# Poissons Ratio (z) = 0.51542 0.00824
#
# Static dielectric constant tensor:
#      x y z
#    x 3.942620 0.093070 -0.328360 
#    y 0.093070 3.656940 -0.190860 
#    z -0.328360 -0.190860 3.883740 
# 
# 
# High freq. dielectric constant tensor:
#      x y z
#    x 1.836870 0.002320 -0.023940 
#    y 0.002320 1.832390 -0.020350 
#    z -0.023940 -0.020350 1.836070 
# 
# From -- ./inp_files/531753.got.cif
#   From: 2010.06.25/outbox.cif.g09.slc.cpg/sg2_266_cif.got.tgz:531753.got - 2010.06.27 13:26:56.
