data_PCOD8042991
_publ_section_title
;
Structure prediction by ZEFSAII (Michael W. Deem and Ramdas Pophale) SiO2 
 PCOD8042991
Probable space group: P -1
;
_chemical_formula_sum "Si O2"
_cell_formula_units_Z 16
_cell_length_a 11.851430
_cell_length_b 9.312796
_cell_length_c 14.384456
_cell_angle_alpha 60.125297
_cell_angle_beta 81.695308
_cell_angle_gamma 40.039656
_cell_volume 801.781468
_symmetry_space_group_name_H-M "P -1"
_symmetry_group_IT_number 2
_symmetry_cell_setting 'triclinic'
loop_
_space_group_symop_operation_xyz
x,y,z
-x,-y,-z
loop_
_atom_site_type_symbol
_atom_site_label
_atom_site_fract_x
_atom_site_fract_y
_atom_site_fract_z
Si Si1 0.475468 0.214591 0.764538
Si Si2 0.789097 0.556080 0.652027
Si Si3 0.436896 0.124799 0.600897
Si Si4 0.398685 0.946897 0.935475
Si Si5 0.783338 0.916740 0.279956
Si Si6 0.852385 0.151024 0.884290
Si Si7 0.852055 0.814064 0.931163
Si Si8 0.582285 0.472597 0.174044
O O1 0.403865 0.277155 0.647051
O O2 0.449161 0.078998 0.871996
O O3 0.381658 0.481579 0.743944
O O4 0.704199 0.980137 0.808985
O O5 0.657706 0.668849 0.541247
O O6 0.854300 0.312751 0.771743
O O7 0.991182 0.403322 0.646091
O O8 0.664525 0.820403 0.651063
O O9 0.329080 0.076177 0.641136
O O10 0.305171 0.980837 0.844347
O O11 0.248197 0.106057 0.984868
O O12 0.585952 0.613827 0.049085
O O13 0.753742 0.138561 0.250074
O O14 0.627637 0.371901 0.863108
O O15 0.942343 0.892233 0.898055
O O16 0.000000 0.000000 0.000000
O O17 0.000000 0.500000 0.000000
#
# Coordination Sequence:
#
# PCOD8042991 Si02
#       8
#     2   2   2   2   2   2   2   2
#     4   9  20  37  57  77 117 160 192 236 300 343
#     4  11  22  39  63  88 114 156 204 240 296 339
#     4  10  23  41  62  82 118 158 202 246 283 352
#     4   9  19  34  54  85 112 158 188 229 301 352
#     4  11  21  36  63  84 116 147 205 245 289 347
#     4  10  21  36  57  87 120 148 196 239 293 353
#     4  10  21  33  54  86 125 148 191 239 290 357
#     4  10  19  36  54  87 122 151 192 245 295 348
#
# _framework density 19.955560999999999
#
# number of rings (size 3 to 8) (size 9 to 14) (size 15 to 20)
#    0.000    2.250    1.250    3.750    3.500    2.000 
#    0.000    3.125    0.000    0.000    0.000    0.000 
#    0.000    0.000    0.000    0.000    0.000    0.000 
#
# Total GULP energy -198243.583636 kJ/mol
# GULP energy per Si atom -12390.223977 kJ/mol
# Density = 1.991014 g / cm^3
# Si number density = 19.955561 Si / 1000 Ang^3
#
#
#
# Elastic Constant Matrix: (Units=GPa)
#
#
# Indices 1 2 3 4 5 6 
#
# 1 70.1707 39.1171 22.5359 -1.9688 8.6770 13.9131
# 2 39.1171 97.2877 37.7015 -14.9015 11.9940 5.9302
# 3 22.5359 37.7015 102.5684 5.1267 4.1400 12.2577
# 4 -1.9688 -14.9015 5.1267 29.2086 1.3593 2.1399
# 5 8.6770 11.9940 4.1400 1.3593 12.1900 4.1746
# 6 13.9131 5.9302 12.2577 2.1399 4.1746 32.6991
#
#
#
# Elastic Compliance Matrix: (Units=1/GPa)
#
#
# Indices 1 2 3 4 5 6 
#
# 1 0.020268 -0.007049 -0.000840 -0.001393 -0.004888 -0.006315
# 2 -0.007049 0.018250 -0.005467 0.010206 -0.013162 0.002752
# 3 -0.000840 -0.005467 0.012462 -0.004943 0.003475 -0.003443
# 4 -0.001393 0.010206 -0.004943 0.040805 -0.011724 -0.000579
# 5 -0.004888 -0.013162 0.003475 -0.011724 0.101692 -0.009052
# 6 -0.006315 0.002752 -0.003443 -0.000579 -0.009052 0.035254
#
#
# Mechanical properties :
#
#
# Convention : Reuss Voigt Hill
#
# Bulk Modulus (GPa) = 41.20942 52.08174 46.64558
# Shear Modulus (GPa) = 18.97291 26.19767 22.58529
#
# Velocity S-wave (km/s) = 3.08678 3.62719 3.36784
# Velocity P-wave (km/s) = 5.77925 6.61041 6.20875
#
# Compressibility (1/GPa) = 0.02426630
#
# Stress axis : x y z
#
# Youngs Moduli (GPa) = 49.33861 54.79410 80.24375
#
# Poissons Ratio (x) = 0.38627 0.06744
# Poissons Ratio (y) = 0.34781 0.43870
# Poissons Ratio (z) = 0.04146 0.29957
#
# Static dielectric constant tensor:
#      x y z
#    x 3.842530 0.104510 -0.009630 
#    y 0.104510 3.832320 -0.063970 
#    z -0.009630 -0.063970 3.620950 
# 
# 
# High freq. dielectric constant tensor:
#      x y z
#    x 1.776860 0.008580 0.000030 
#    y 0.008580 1.774880 0.002100 
#    z 0.000030 0.002100 1.768040 
# 
# From -- ./inp_files/417141.got.cif
#   From: 2010.06.25/outbox.cif.g09.slc.cpg/sg2_209_cif.got.tgz:417141.got - 2010.06.27 13:26:56.
