data_PCOD8042432
_publ_section_title
;
Structure prediction by ZEFSAII (Michael W. Deem and Ramdas Pophale) SiO2 
 PCOD8042432
Probable space group: P -1
;
_chemical_formula_sum "Si O2"
_cell_formula_units_Z 16
_cell_length_a 11.421480
_cell_length_b 11.345882
_cell_length_c 14.764145
_cell_angle_alpha 83.145922
_cell_angle_beta 84.200635
_cell_angle_gamma 26.059188
_cell_volume 834.394181
_symmetry_space_group_name_H-M "P -1"
_symmetry_group_IT_number 2
_symmetry_cell_setting 'triclinic'
loop_
_space_group_symop_operation_xyz
x,y,z
-x,-y,-z
loop_
_atom_site_type_symbol
_atom_site_label
_atom_site_fract_x
_atom_site_fract_y
_atom_site_fract_z
Si Si1 0.930957 0.957457 0.251201
Si Si2 0.609294 0.634675 0.696598
Si Si3 0.273301 0.248766 0.844977
Si Si4 0.251146 0.266385 0.437801
Si Si5 0.392242 0.879040 0.874739
Si Si6 0.598851 0.641341 0.070091
Si Si7 0.932459 0.906058 0.821444
Si Si8 0.802574 0.796647 0.738174
O O1 0.683643 0.154847 0.320555
O O2 0.851858 0.982902 0.153821
O O3 0.991308 0.041388 0.237561
O O4 0.184992 0.659006 0.296290
O O5 0.690346 0.657600 0.614608
O O6 0.601701 0.703619 0.790813
O O7 0.326216 0.289675 0.920606
O O8 0.985865 0.532350 0.797257
O O9 0.277547 0.110423 0.894041
O O10 0.497614 0.062403 0.768334
O O11 0.188529 0.228012 0.367823
O O12 0.000000 0.500000 0.500000
O O13 0.500000 0.000000 0.500000
O O14 0.537041 0.685070 0.964948
O O15 0.845175 0.332351 0.100748
O O16 0.347538 0.825944 0.130920
O O17 0.918704 0.820971 0.750832
#
# Coordination Sequence:
#
# PCOD8042432 Si02
#       8
#     2   2   2   2   2   2   2   2
#     4  10  21  37  58  77 109 164 184 229 264 321
#     4  10  22  38  56  84 111 145 183 223 290 330
#     4  10  19  35  56  78 115 150 185 225 276 332
#     4  12  23  38  65  91 112 132 173 234 287 344
#     4  10  22  33  57  77 119 149 189 235 274 315
#     4  10  22  33  53  84 111 152 198 233 264 309
#     4  10  22  38  55  79 114 154 196 223 264 316
#     4  10  20  38  57  82 113 145 178 226 280 338
#
# _framework density 19.175588999999999
#
# number of rings (size 3 to 8) (size 9 to 14) (size 15 to 20)
#    0.750    1.000    1.250    3.375    1.750    1.000 
#    0.000    3.750    0.000    4.500    0.000    0.000 
#    0.000    0.000    0.000    0.000    0.000    0.000 
#
# Total GULP energy -198395.263464 kJ/mol
# GULP energy per Si atom -12399.703967 kJ/mol
# Density = 1.913194 g / cm^3
# Si number density = 19.175589 Si / 1000 Ang^3
#
#
#
# Elastic Constant Matrix: (Units=GPa)
#
#
# Indices 1 2 3 4 5 6 
#
# 1 102.4147 20.7906 14.0975 -12.7985 -13.1993 12.8918
# 2 20.7906 89.0996 3.6072 -10.9951 -0.4275 2.2315
# 3 14.0975 3.6072 68.0179 -9.6993 -2.9990 2.4712
# 4 -12.7985 -10.9951 -9.6993 20.3222 -2.1416 -6.4908
# 5 -13.1993 -0.4275 -2.9990 -2.1416 20.1667 -3.5198
# 6 12.8918 2.2315 2.4712 -6.4908 -3.5198 29.8718
#
#
#
# Elastic Compliance Matrix: (Units=1/GPa)
#
#
# Indices 1 2 3 4 5 6 
#
# 1 0.012509 -0.001997 -0.001140 0.006201 0.008136 -0.002849
# 2 -0.001997 0.012387 0.000578 0.006093 -0.000102 0.001201
# 3 -0.001140 0.000578 0.016118 0.007943 0.002709 0.001161
# 4 0.006201 0.006093 0.007943 0.065611 0.014461 0.012172
# 5 0.008136 -0.000102 0.002709 0.014461 0.057938 0.006241
# 6 -0.002849 0.001201 0.001161 0.012172 0.006241 0.037900
#
#
# Mechanical properties :
#
#
# Convention : Reuss Voigt Hill
#
# Bulk Modulus (GPa) = 27.85948 37.39142 32.62545
# Shear Modulus (GPa) = 22.77418 28.80795 25.79107
#
# Velocity S-wave (km/s) = 3.44999 3.88019 3.67140
# Velocity P-wave (km/s) = 5.51635 6.29415 5.91804
#
# Compressibility (1/GPa) = 0.03589442
#
# Stress axis : x y z
#
# Youngs Moduli (GPa) = 79.94456 80.72782 62.04372
#
# Poissons Ratio (x) = 0.16122 0.07074
# Poissons Ratio (y) = 0.15966 -0.03584
# Poissons Ratio (z) = 0.09115 -0.04663
#
# Static dielectric constant tensor:
#      x y z
#    x 3.452590 -0.040010 0.086060 
#    y -0.040010 3.657670 -0.054930 
#    z 0.086060 -0.054930 3.236790 
# 
# 
# High freq. dielectric constant tensor:
#      x y z
#    x 1.743450 -0.004360 0.000980 
#    y -0.004360 1.765890 -0.003630 
#    z 0.000980 -0.003630 1.712600 
# 
# From -- ./inp_files/519720.got.cif
#   From: 2010.06.25/outbox.cif.g09.slc.cpg/sg2_260_cif.got.tgz:519720.got - 2010.06.27 13:26:56.
