data_PCOD8042693
_publ_section_title
;
Structure prediction by ZEFSAII (Michael W. Deem and Ramdas Pophale) SiO2 
 PCOD8042693
Probable space group: P -1
;
_chemical_formula_sum "Si O2"
_cell_formula_units_Z 16
_cell_length_a 13.788849
_cell_length_b 9.522895
_cell_length_c 12.333926
_cell_angle_alpha 39.676959
_cell_angle_beta 52.766152
_cell_angle_gamma 72.704839
_cell_volume 776.772246
_symmetry_space_group_name_H-M "P -1"
_symmetry_group_IT_number 2
_symmetry_cell_setting 'triclinic'
loop_
_space_group_symop_operation_xyz
x,y,z
-x,-y,-z
loop_
_atom_site_type_symbol
_atom_site_label
_atom_site_fract_x
_atom_site_fract_y
_atom_site_fract_z
Si Si1 0.618926 0.986384 0.206027
Si Si2 0.263465 0.368468 0.589683
Si Si3 0.478440 0.218048 0.831052
Si Si4 0.844989 0.828676 0.437955
Si Si5 0.411559 0.153895 0.318965
Si Si6 0.391183 0.428711 0.960511
Si Si7 0.180961 0.543942 0.149806
Si Si8 0.991160 0.799588 0.040097
O O1 0.695065 0.861953 0.303050
O O2 0.601595 0.858576 0.178620
O O3 0.479527 0.956758 0.373138
O O4 0.707397 0.258853 0.975813
O O5 0.381688 0.598221 0.396409
O O6 0.200604 0.356420 0.520178
O O7 0.159269 0.361299 0.759995
O O8 0.393780 0.324383 0.901940
O O9 0.500000 0.000000 0.000000
O O10 0.735386 0.935484 0.488507
O O11 0.883654 0.678393 0.595489
O O12 0.963014 0.063075 0.186283
O O13 0.491782 0.329530 0.252532
O O14 0.419273 0.262950 0.130089
O O15 0.252496 0.461066 0.052104
O O16 0.074334 0.638354 0.115051
O O17 0.000000 0.000000 0.000000
#
# Coordination Sequence:
#
# PCOD8042693 Si02
#       8
#     2   2   2   2   2   2   2   2
#     4  11  21  35  59  88 126 151 189 242 303 351
#     4  11  23  38  53  88 125 151 199 245 285 358
#     4  12  22  38  59  86 119 163 188 237 307 353
#     4  10  19  35  60  86 120 151 192 240 300 336
#     4   9  17  33  57  89 118 146 191 247 290 355
#     4   9  18  33  57  89 119 145 198 242 291 351
#     4  10  20  38  64  94 114 153 196 249 292 345
#     4  10  21  39  57  89 122 149 203 249 284 340
#
# _framework density 20.598058999999999
#
# number of rings (size 3 to 8) (size 9 to 14) (size 15 to 20)
#    0.000    1.750    5.000    1.875    0.000    3.500 
#    2.250    0.000    0.000    3.750    0.000    0.000 
#    0.000    0.000    0.000    0.000    0.000    0.000 
#
# Total GULP energy -198309.037249 kJ/mol
# GULP energy per Si atom -12394.314828 kJ/mol
# Density = 2.055118 g / cm^3
# Si number density = 20.598059 Si / 1000 Ang^3
#
#
#
# Elastic Constant Matrix: (Units=GPa)
#
#
# Indices 1 2 3 4 5 6 
#
# 1 44.6949 35.4148 41.0613 -6.8545 -1.5312 -23.0033
# 2 35.4148 122.3543 53.0427 10.7556 -7.7452 -12.1403
# 3 41.0613 53.0427 136.9061 15.5386 0.8340 -21.2922
# 4 -6.8545 10.7556 15.5386 18.4312 -9.1449 3.4624
# 5 -1.5312 -7.7452 0.8340 -9.1449 19.9257 0.1604
# 6 -23.0033 -12.1403 -21.2922 3.4624 0.1604 45.4199
#
#
#
# Elastic Compliance Matrix: (Units=1/GPa)
#
#
# Indices 1 2 3 4 5 6 
#
# 1 0.073994 -0.014062 -0.021539 0.065900 0.031217 0.018485
# 2 -0.014062 0.012877 0.000445 -0.013881 -0.002445 -0.002405
# 3 -0.021539 0.000445 0.017121 -0.030721 -0.016296 -0.000364
# 4 0.065900 -0.013881 -0.030721 0.145653 0.067770 0.003921
# 5 0.031217 -0.002445 -0.016296 0.067770 0.083404 0.002057
# 6 0.018485 -0.002405 -0.000364 0.003921 0.002057 0.030259
#
#
# Mechanical properties :
#
#
# Convention : Reuss Voigt Hill
#
# Bulk Modulus (GPa) = 29.69145 62.55477 46.12311
# Shear Modulus (GPa) = 11.23980 28.38448 19.81214
#
# Velocity S-wave (km/s) = 2.33850 3.71619 3.10473
# Velocity P-wave (km/s) = 4.66234 6.98918 5.94079
#
# Compressibility (1/GPa) = 0.03367973
#
# Stress axis : x y z
#
# Youngs Moduli (GPa) = 13.51458 77.65651 58.40614
#
# Poissons Ratio (x) = 1.09203 1.25801
# Poissons Ratio (y) = 0.19005 -0.02598
# Poissons Ratio (z) = 0.29109 -0.03454
#
# Static dielectric constant tensor:
#      x y z
#    x 3.031200 -0.463970 0.209610 
#    y -0.463970 3.798090 0.419790 
#    z 0.209610 0.419790 4.007400 
# 
# 
# High freq. dielectric constant tensor:
#      x y z
#    x 1.777710 -0.028120 0.011240 
#    y -0.028120 1.799140 0.014800 
#    z 0.011240 0.014800 1.807210 
# 
# From -- ./inp_files/272749.got.cif
#   From: 2010.06.25/outbox.cif.g09.slc.cpg/sg2_137_cif.got.tgz:272749.got - 2010.06.27 13:26:56.
