data_PCOD8042841
_publ_section_title
;
Structure prediction by ZEFSAII (Michael W. Deem and Ramdas Pophale) SiO2 
 PCOD8042841
Probable space group: P -1
;
_chemical_formula_sum "Si O2"
_cell_formula_units_Z 16
_cell_length_a 12.023917
_cell_length_b 9.582624
_cell_length_c 14.373286
_cell_angle_alpha 61.946236
_cell_angle_beta 28.979526
_cell_angle_gamma 65.735090
_cell_volume 708.101268
_symmetry_space_group_name_H-M "P -1"
_symmetry_group_IT_number 2
_symmetry_cell_setting 'triclinic'
loop_
_space_group_symop_operation_xyz
x,y,z
-x,-y,-z
loop_
_atom_site_type_symbol
_atom_site_label
_atom_site_fract_x
_atom_site_fract_y
_atom_site_fract_z
Si Si1 0.660184 0.476138 0.205177
Si Si2 0.893916 0.867574 0.368924
Si Si3 0.781153 0.650166 0.686560
Si Si4 0.349823 0.715062 0.102038
Si Si5 0.709590 0.280396 0.653070
Si Si6 0.120724 0.487271 0.777314
Si Si7 0.379191 0.222377 0.569889
Si Si8 0.291440 0.837448 0.500261
O O1 0.430656 0.561664 0.315179
O O2 0.768464 0.562646 0.189292
O O3 0.599714 0.295923 0.332394
O O4 0.844669 0.476880 0.986506
O O5 0.782145 0.731574 0.558764
O O6 0.749642 0.893599 0.371031
O O7 0.151130 0.818960 0.166187
O O8 0.894343 0.032541 0.373136
O O9 0.735749 0.465025 0.765238
O O10 0.020385 0.677520 0.555674
O O11 0.580961 0.729767 0.869615
O O12 0.379036 0.786986 0.162143
O O13 0.662512 0.147969 0.649016
O O14 0.206881 0.364579 0.676468
O O15 0.194010 0.662140 0.640436
O O16 0.473755 0.134348 0.620770
#
# Coordination Sequence:
#
# PCOD8042841 Si02
#       8
#     2   2   2   2   2   2   2   2
#     4  10  19  35  62  94 119 153 208 253 291 350
#     4  11  24  42  61  90 129 162 200 253 306 364
#     4  10  23  42  64  90 118 160 210 254 301 359
#     4  10  23  41  64  91 116 161 211 252 303 357
#     4  11  20  37  63  90 121 159 197 255 301 357
#     4  10  21  36  62  92 122 160 204 244 297 363
#     4  11  20  41  65  90 123 167 205 246 299 363
#     4  11  23  40  60  95 131 159 196 251 313 365
#
# _framework density 22.595637
#
# number of rings (size 3 to 8) (size 9 to 14) (size 15 to 20)
#    0.000    1.500    2.500    4.125    1.750    4.000 
#    2.250    1.250    0.000    4.500    0.000    0.000 
#    0.000    0.000    0.000    0.000    0.000    0.000 
#
# Total GULP energy -198383.912435 kJ/mol
# GULP energy per Si atom -12398.994527 kJ/mol
# Density = 2.254421 g / cm^3
# Si number density = 22.595637 Si / 1000 Ang^3
#
#
#
# Elastic Constant Matrix: (Units=GPa)
#
#
# Indices 1 2 3 4 5 6 
#
# 1 133.5603 15.3649 39.2697 16.9950 -9.8881 12.4649
# 2 15.3649 71.9609 19.7109 27.1325 -2.1808 9.5346
# 3 39.2697 19.7109 114.1026 35.9171 -4.8852 1.7302
# 4 16.9950 27.1325 35.9171 25.3281 -2.5264 1.2409
# 5 -9.8881 -2.1808 -4.8852 -2.5264 24.3881 8.6052
# 6 12.4649 9.5346 1.7302 1.2409 8.6052 25.5461
#
#
#
# Elastic Compliance Matrix: (Units=1/GPa)
#
#
# Indices 1 2 3 4 5 6 
#
# 1 0.009420 0.000981 -0.001862 -0.003874 0.005417 -0.006473
# 2 0.000981 0.029216 0.008525 -0.043068 0.004243 -0.011297
# 3 -0.001862 0.008525 0.018830 -0.034377 0.001000 -0.002216
# 4 -0.003874 -0.043068 -0.034377 0.135891 -0.003474 0.014862
# 5 0.005417 0.004243 0.001000 -0.003474 0.050928 -0.021280
# 6 -0.006473 -0.011297 -0.002216 0.014862 -0.021280 0.053116
#
#
# Mechanical properties :
#
#
# Convention : Reuss Voigt Hill
#
# Bulk Modulus (GPa) = 13.74490 52.03498 32.88994
# Shear Modulus (GPa) = 16.32048 31.40436 23.86242
#
# Velocity S-wave (km/s) = 2.69045 3.73210 3.25324
# Velocity P-wave (km/s) = 3.96832 6.45370 5.35713
#
# Compressibility (1/GPa) = 0.07275424
#
# Stress axis : x y z
#
# Youngs Moduli (GPa) = 106.15840 34.22794 53.10774
#
# Poissons Ratio (x) = -0.03358 0.09889
# Poissons Ratio (y) = -0.10415 -0.45276
# Poissons Ratio (z) = 0.19767 -0.29181
#
# Static dielectric constant tensor:
#      x y z
#    x 4.406280 0.042300 0.085190 
#    y 0.042300 3.777760 0.368110 
#    z 0.085190 0.368110 4.062390 
# 
# 
# High freq. dielectric constant tensor:
#      x y z
#    x 1.903830 0.000730 0.001560 
#    y 0.000730 1.867990 0.031590 
#    z 0.001560 0.031590 1.877700 
# 
# From -- ./inp_files/406831.got.cif
#   From: 2010.06.25/outbox.cif.g09.slc.cpg/sg2_204_cif.got.tgz:406831.got - 2010.06.27 13:26:56.
