data_PCOD8042767
_publ_section_title
;
Structure prediction by ZEFSAII (Michael W. Deem and Ramdas Pophale) SiO2 
 PCOD8042767
Probable space group: P -1
;
_chemical_formula_sum "Si O2"
_cell_formula_units_Z 16
_cell_length_a 9.254132
_cell_length_b 13.686100
_cell_length_c 18.822780
_cell_angle_alpha 146.010819
_cell_angle_beta 140.058078
_cell_angle_gamma 41.689909
_cell_volume 813.630588
_symmetry_space_group_name_H-M "P -1"
_symmetry_group_IT_number 2
_symmetry_cell_setting 'triclinic'
loop_
_space_group_symop_operation_xyz
x,y,z
-x,-y,-z
loop_
_atom_site_type_symbol
_atom_site_label
_atom_site_fract_x
_atom_site_fract_y
_atom_site_fract_z
Si Si1 0.433343 0.649132 0.002063
Si Si2 0.433696 0.012114 0.699537
Si Si3 0.385588 0.406524 0.459945
Si Si4 0.321511 0.083026 0.545031
Si Si5 0.006665 0.127092 0.703811
Si Si6 0.833048 0.509460 0.294472
Si Si7 0.242642 0.346886 0.000248
Si Si8 0.467035 0.534953 0.293681
O O1 0.403294 0.856827 0.142832
O O2 0.500000 0.500000 0.000000
O O3 0.199617 0.640685 0.865416
O O4 0.637033 0.595301 0.988023
O O5 0.437200 0.976208 0.595325
O O6 0.160221 0.106293 0.676915
O O7 0.534183 0.813229 0.653952
O O8 0.500000 0.500000 0.500000
O O9 0.467698 0.472405 0.604353
O O10 0.104617 0.474237 0.392273
O O11 0.276568 0.296686 0.669528
O O12 0.500000 0.000000 0.500000
O O13 0.066227 0.053938 0.415381
O O14 0.757721 0.288338 0.700752
O O15 0.181752 0.156048 0.850306
O O16 0.696054 0.525907 0.327460
O O17 0.389212 0.354792 0.132209
O O18 0.000000 0.500000 0.000000
#
# Coordination Sequence:
#
# PCOD8042767 Si02
#       8
#     2   2   2   2   2   2   2   2
#     4  10  20  37  63  91 120 153 199 258 301 357
#     4  11  23  39  61  90 126 156 203 252 307 352
#     4  12  26  40  59  86 125 171 203 243 301 370
#     4  12  21  35  61  93 120 153 204 255 297 357
#     4  10  19  35  61  87 120 150 198 256 302 344
#     4  11  23  39  62  89 124 159 202 244 313 364
#     4   8  18  32  56  85 116 152 189 241 311 347
#     4  10  20  39  59  86 118 159 199 253 300 357
#
# _framework density 19.664943000000001
#
# number of rings (size 3 to 8) (size 9 to 14) (size 15 to 20)
#    0.000    1.500    3.750    1.500    1.750    1.500 
#    0.000    0.000    0.000   13.500    0.000    0.000 
#    0.000    0.000    0.000    0.000    0.000    0.000 
#
# Total GULP energy -198238.313730 kJ/mol
# GULP energy per Si atom -12389.894608 kJ/mol
# Density = 1.962018 g / cm^3
# Si number density = 19.664943 Si / 1000 Ang^3
#
#
#
# Elastic Constant Matrix: (Units=GPa)
#
#
# Indices 1 2 3 4 5 6 
#
# 1 105.4217 35.5969 69.6861 -7.2408 0.5374 -1.5478
# 2 35.5969 73.1720 47.0997 1.9756 2.9067 2.7608
# 3 69.6861 47.0997 178.7145 -0.4054 3.1804 14.2154
# 4 -7.2408 1.9756 -0.4054 31.0729 0.2572 6.9365
# 5 0.5374 2.9067 3.1804 0.2572 30.2426 -1.1305
# 6 -1.5478 2.7608 14.2154 6.9365 -1.1305 30.1910
#
#
#
# Elastic Compliance Matrix: (Units=1/GPa)
#
#
# Indices 1 2 3 4 5 6 
#
# 1 0.014195 -0.004106 -0.004670 0.002908 0.000708 0.002661
# 2 -0.004106 0.017741 -0.003060 -0.002125 -0.001290 0.000048
# 3 -0.004670 -0.003060 0.008557 0.000126 -0.000675 -0.004043
# 4 0.002908 -0.002125 0.000126 0.034722 -0.000444 -0.007710
# 5 0.000708 -0.001290 -0.000675 -0.000444 0.033320 0.001822
# 6 0.002661 0.000048 -0.004043 -0.007710 0.001822 0.036998
#
#
# Mechanical properties :
#
#
# Convention : Reuss Voigt Hill
#
# Bulk Modulus (GPa) = 59.45673 73.56372 66.51022
# Shear Modulus (GPa) = 28.60231 31.96301 30.28266
#
# Velocity S-wave (km/s) = 3.81790 4.03597 3.92845
# Velocity P-wave (km/s) = 7.05236 7.69471 7.38052
#
# Compressibility (1/GPa) = 0.01681896
#
# Stress axis : x y z
#
# Youngs Moduli (GPa) = 70.44912 56.36808 116.86400
#
# Poissons Ratio (x) = 0.23146 0.54580
# Poissons Ratio (y) = 0.28928 0.35760
# Poissons Ratio (z) = 0.32902 0.17248
#
# Static dielectric constant tensor:
#      x y z
#    x 3.661760 -0.070560 0.130050 
#    y -0.070560 3.226070 0.294650 
#    z 0.130050 0.294650 5.595670 
# 
# 
# High freq. dielectric constant tensor:
#      x y z
#    x 1.775470 -0.007630 0.002850 
#    y -0.007630 1.716990 0.008120 
#    z 0.002850 0.008120 1.801340 
# 
# From -- ./inp_files/199591.got.cif
#   From: 2010.06.25/outbox.cif.g09.slc.cpg/sg2_100_cif.got.tgz:199591.got - 2010.06.27 13:26:56.
