data_PCOD8042419
_publ_section_title
;
Structure prediction by ZEFSAII (Michael W. Deem and Ramdas Pophale) SiO2 
 PCOD8042419
Probable space group: P -1
;
_chemical_formula_sum "Si O2"
_cell_formula_units_Z 16
_cell_length_a 11.002426
_cell_length_b 11.996454
_cell_length_c 19.289594
_cell_angle_alpha 26.070131
_cell_angle_beta 135.957816
_cell_angle_gamma 128.136278
_cell_volume 774.540762
_symmetry_space_group_name_H-M "P -1"
_symmetry_group_IT_number 2
_symmetry_cell_setting 'triclinic'
loop_
_space_group_symop_operation_xyz
x,y,z
-x,-y,-z
loop_
_atom_site_type_symbol
_atom_site_label
_atom_site_fract_x
_atom_site_fract_y
_atom_site_fract_z
Si Si1 0.760564 0.085065 0.794275
Si Si2 0.402697 0.846253 0.754906
Si Si3 0.679426 0.351335 0.482636
Si Si4 0.727889 0.706291 0.635212
Si Si5 0.867155 0.183162 0.930074
Si Si6 0.551152 0.454054 0.930259
Si Si7 0.308398 0.119047 0.334342
Si Si8 0.641195 0.821271 0.115920
O O1 0.598490 0.927969 0.797353
O O2 0.757180 0.328793 0.605000
O O3 0.747626 0.193811 0.805891
O O4 0.931918 0.889997 0.965067
O O5 0.408181 0.629838 0.818574
O O6 0.270626 0.083424 0.542742
O O7 0.341328 0.740896 0.862837
O O8 0.467914 0.368845 0.387978
O O9 0.731715 0.603422 0.325334
O O10 0.770828 0.099918 0.620934
O O11 0.854543 0.462350 0.802042
O O12 0.800972 0.814606 0.677067
O O13 0.798242 0.981462 0.067475
O O14 0.685436 0.624351 0.851734
O O15 0.447077 0.300365 0.918190
O O16 0.500000 0.000000 0.500000
O O17 0.500000 0.000000 0.000000
#
# Coordination Sequence:
#
# PCOD8042419 Si02
#       8
#     2   2   2   2   2   2   2   2
#     4  10  22  39  53  78 110 154 181 210 275 332
#     4  10  20  33  59  83 101 140 185 233 258 310
#     4  10  19  34  58  82 106 141 183 226 265 322
#     4  10  18  34  54  81 106 139 180 224 267 311
#     4  11  23  37  55  78 114 151 176 218 275 330
#     4  11  18  31  55  87 106 131 182 231 266 307
#     4  10  15  31  55  83 105 134 174 227 276 307
#     4  12  21  33  55  88 113 136 178 231 271 312
#
# _framework density 20.657402999999999
#
# number of rings (size 3 to 8) (size 9 to 14) (size 15 to 20)
#    0.000    1.500    8.750    0.000    0.000    3.500 
#    0.000    0.625    0.000    3.000    0.000    0.000 
#    0.000    0.000    0.000    0.000    0.000    0.000 
#
# Total GULP energy -198363.487605 kJ/mol
# GULP energy per Si atom -12397.717975 kJ/mol
# Density = 2.061039 g / cm^3
# Si number density = 20.657403 Si / 1000 Ang^3
#
#
#
# Elastic Constant Matrix: (Units=GPa)
#
#
# Indices 1 2 3 4 5 6 
#
# 1 53.3256 21.6437 40.7018 -3.3547 -15.2845 -17.2084
# 2 21.6437 58.7282 28.2919 -8.7450 -4.9219 -18.8768
# 3 40.7018 28.2919 140.7648 -14.1784 -49.1440 -9.7256
# 4 -3.3547 -8.7450 -14.1784 31.5014 -4.8758 -2.2395
# 5 -15.2845 -4.9219 -49.1440 -4.8758 38.7940 -0.6641
# 6 -17.2084 -18.8768 -9.7256 -2.2395 -0.6641 24.4503
#
#
#
# Elastic Compliance Matrix: (Units=1/GPa)
#
#
# Indices 1 2 3 4 5 6 
#
# 1 0.031546 -0.002203 -0.004556 0.003160 0.007103 0.019172
# 2 -0.002203 0.025993 -0.002342 0.007334 0.000697 0.018276
# 3 -0.004556 -0.002342 0.017863 0.010558 0.021926 0.003653
# 4 0.003160 0.007334 0.010558 0.043346 0.021282 0.016634
# 5 0.007103 0.000697 0.021926 0.021282 0.059419 0.017822
# 6 0.019172 0.018276 0.003653 0.016634 0.017822 0.071963
#
#
# Mechanical properties :
#
#
# Convention : Reuss Voigt Hill
#
# Bulk Modulus (GPa) = 17.48299 48.23260 32.85779
# Shear Modulus (GPa) = 17.39745 29.76120 23.57932
#
# Velocity S-wave (km/s) = 2.90520 3.79978 3.38220
# Velocity P-wave (km/s) = 4.44244 6.53074 5.58506
#
# Compressibility (1/GPa) = 0.05719846
#
# Stress axis : x y z
#
# Youngs Moduli (GPa) = 31.70004 38.47201 55.98269
#
# Poissons Ratio (x) = 0.08476 0.25505
# Poissons Ratio (y) = 0.06984 0.13114
# Poissons Ratio (z) = 0.14442 0.09012
#
# Static dielectric constant tensor:
#      x y z
#    x 3.557290 -0.517510 -0.489440 
#    y -0.517510 3.958410 -0.010980 
#    z -0.489440 -0.010980 4.013610 
# 
# 
# High freq. dielectric constant tensor:
#      x y z
#    x 1.772800 -0.034760 -0.032840 
#    y -0.034760 1.799010 -0.005840 
#    z -0.032840 -0.005840 1.817280 
# 
# From -- ./inp_files/567811.got.cif
#   From: 2010.06.25/outbox.cif.g09.slc.cpg/sg2_284_cif.got.tgz:567811.got - 2010.06.27 13:26:56.
