data_PCOD8042863
_publ_section_title
;
Structure prediction by ZEFSAII (Michael W. Deem and Ramdas Pophale) SiO2 
 PCOD8042863
Probable space group: P -1
;
_chemical_formula_sum "Si O2"
_cell_formula_units_Z 10
_cell_length_a 5.534977
_cell_length_b 8.022058
_cell_length_c 11.655069
_cell_angle_alpha 67.076309
_cell_angle_beta 65.005656
_cell_angle_gamma 60.708190
_cell_volume 397.984094
_symmetry_space_group_name_H-M "P -1"
_symmetry_group_IT_number 2
_symmetry_cell_setting 'triclinic'
loop_
_space_group_symop_operation_xyz
x,y,z
-x,-y,-z
loop_
_atom_site_type_symbol
_atom_site_label
_atom_site_fract_x
_atom_site_fract_y
_atom_site_fract_z
Si Si1 0.298996 0.159146 0.587199
Si Si2 0.164516 0.768871 0.510593
Si Si3 0.060137 0.323820 0.195890
Si Si4 0.358074 0.991584 0.857943
Si Si5 0.904483 0.310174 0.983843
O O1 0.487681 0.285725 0.558434
O O2 0.991698 0.287937 0.552324
O O3 0.500000 0.000000 0.500000
O O4 0.223413 0.055692 0.740422
O O5 0.131221 0.650004 0.660049
O O6 0.000000 0.000000 0.500000
O O7 0.296129 0.099982 0.201487
O O8 0.202085 0.489157 0.123805
O O9 0.862530 0.366334 0.111153
O O10 0.242179 0.177921 0.917277
O O11 0.275910 0.819833 0.976092
#
# Coordination Sequence:
#
# PCOD8042863 Si02
#       5
#     2   2   2   2   2
#     4  10  19  35  63  89 116 165 204 249 314 366
#     4  10  19  35  63  89 116 165 204 249 314 366
#     4  11  21  39  63  84 126 154 209 251 309 366
#     4  11  21  39  63  84 126 154 209 251 309 366
#     4  10  24  38  58  94 114 166 202 252 308 368
#
# _framework density 25.126629999999999
#
# number of rings (size 3 to 8) (size 9 to 14) (size 15 to 20)
#    0.000    1.600    4.000    3.600    0.000    0.000 
#    0.000    2.000    0.000    0.000    0.000    0.000 
#    0.000    0.000    0.000    0.000    0.000    0.000 
#
# Total GULP energy -123927.265294 kJ/mol
# GULP energy per Si atom -12392.726529 kJ/mol
# Density = 2.506944 g / cm^3
# Si number density = 25.126630 Si / 1000 Ang^3
#
#
#
# Elastic Constant Matrix: (Units=GPa)
#
#
# Indices 1 2 3 4 5 6 
#
# 1 145.9734 12.2331 30.3499 -9.6402 0.3021 -5.4115
# 2 12.2331 51.2436 28.4129 2.0833 8.9774 -5.3431
# 3 30.3499 28.4129 140.2355 -28.5578 0.4458 10.2357
# 4 -9.6402 2.0833 -28.5578 23.2266 -6.4998 -1.3358
# 5 0.3021 8.9774 0.4458 -6.4998 23.2008 2.9035
# 6 -5.4115 -5.3431 10.2357 -1.3358 2.9035 26.2580
#
#
#
# Elastic Compliance Matrix: (Units=1/GPa)
#
#
# Indices 1 2 3 4 5 6 
#
# 1 0.007376 -0.001274 -0.000999 0.002281 0.000845 0.001673
# 2 -0.001274 0.031834 -0.011542 -0.022451 -0.019842 0.011766
# 3 -0.000999 -0.011542 0.014579 0.021193 0.011187 -0.008396
# 4 0.002281 -0.022451 0.021193 0.080420 0.032262 -0.011836
# 5 0.000845 -0.019842 0.011187 0.032262 0.061263 -0.013357
# 6 0.001673 0.011766 -0.008396 -0.011836 -0.013357 0.044970
#
#
# Mechanical properties :
#
#
# Convention : Reuss Voigt Hill
#
# Bulk Modulus (GPa) = 38.22592 53.27160 45.74876
# Shear Modulus (GPa) = 18.06425 32.30088 25.18256
#
# Velocity S-wave (km/s) = 2.68419 3.58931 3.16923
# Velocity P-wave (km/s) = 4.98526 6.19877 5.62484
#
# Compressibility (1/GPa) = 0.02616026
#
# Stress axis : x y z
#
# Youngs Moduli (GPa) = 135.57887 31.41301 68.59376
#
# Poissons Ratio (x) = 0.04000 0.06850
# Poissons Ratio (y) = 0.17266 0.79170
# Poissons Ratio (z) = 0.13539 0.36257
#
# Static dielectric constant tensor:
#      x y z
#    x 5.472520 -0.060460 -0.051030 
#    y -0.060460 4.400730 -0.113660 
#    z -0.051030 -0.113660 4.680680 
# 
# 
# High freq. dielectric constant tensor:
#      x y z
#    x 1.980250 -0.000260 -0.002160 
#    y -0.000260 1.975620 -0.010100 
#    z -0.002160 -0.010100 2.014170 
# 
# From -- ./inp_files/18049.got.cif
#   From: 2010.06.25/outbox.cif.g09.slc.cpg/sg2_10_cif.got.tgz:18049.got - 2010.06.27 13:26:56.
