data_PCOD8042966
_publ_section_title
;
Structure prediction by ZEFSAII (Michael W. Deem and Ramdas Pophale) SiO2 
 PCOD8042966
Probable space group: P -1
;
_chemical_formula_sum "Si O2"
_cell_formula_units_Z 16
_cell_length_a 8.293551
_cell_length_b 11.633370
_cell_length_c 19.245329
_cell_angle_alpha 51.487280
_cell_angle_beta 149.048113
_cell_angle_gamma 130.700024
_cell_volume 714.368045
_symmetry_space_group_name_H-M "P -1"
_symmetry_group_IT_number 2
_symmetry_cell_setting 'triclinic'
loop_
_space_group_symop_operation_xyz
x,y,z
-x,-y,-z
loop_
_atom_site_type_symbol
_atom_site_label
_atom_site_fract_x
_atom_site_fract_y
_atom_site_fract_z
Si Si1 0.557993 0.172142 0.931042
Si Si2 0.354753 0.572325 0.522817
Si Si3 0.368165 0.113127 0.109540
Si Si4 0.251275 0.616211 0.314742
Si Si5 0.223707 0.717513 0.548913
Si Si6 0.408109 0.352942 0.925258
Si Si7 0.285113 0.128862 0.693264
Si Si8 0.304207 0.306474 0.142329
O O1 0.347852 0.260194 0.864871
O O2 0.462739 0.182435 0.812240
O O3 0.936691 0.261285 0.051576
O O4 0.500000 0.000000 0.000000
O O5 0.200576 0.613419 0.380016
O O6 0.697516 0.540493 0.638943
O O7 0.414603 0.708600 0.550503
O O8 0.114841 0.419048 0.525272
O O9 0.348920 0.182360 0.151349
O O10 0.653182 0.029451 0.246725
O O11 0.532162 0.247748 0.064480
O O12 0.000000 0.000000 0.000000
O O13 0.554481 0.756719 0.352428
O O14 0.914605 0.637960 0.155790
O O15 0.451533 0.699846 0.702779
O O16 0.100205 0.872417 0.445839
O O17 0.634623 0.525651 0.932143
#
# Coordination Sequence:
#
# PCOD8042966 Si02
#       8
#     2   2   2   2   2   2   2   2
#     4  12  25  47  72  97 140 189 234 275 360 428
#     4   9  19  39  63 101 146 184 218 276 358 418
#     4  12  23  46  68  98 142 191 233 276 343 425
#     4  10  19  35  70  99 133 184 229 268 340 417
#     4  10  22  42  67 103 143 178 229 291 344 409
#     4  12  23  42  68 107 140 175 233 299 336 406
#     4  11  23  42  73  98 133 194 230 270 343 429
#     4  12  26  44  70 106 138 179 235 301 346 396
#
# _framework density 22.397417999999998
#
# number of rings (size 3 to 8) (size 9 to 14) (size 15 to 20)
#    0.000    1.000    5.000    1.500    3.500    0.500 
#    4.500    0.625    0.000    0.000    0.000    0.000 
#    0.000    0.000    0.000    0.000    0.000    0.000 
#
# Total GULP energy -198283.182354 kJ/mol
# GULP energy per Si atom -12392.698897 kJ/mol
# Density = 2.234644 g / cm^3
# Si number density = 22.397418 Si / 1000 Ang^3
#
#
#
# Elastic Constant Matrix: (Units=GPa)
#
#
# Indices 1 2 3 4 5 6 
#
# 1 131.9888 44.7451 38.4339 -12.4415 5.1043 -22.7633
# 2 44.7451 95.5014 43.1901 -19.3457 11.2027 -9.5910
# 3 38.4339 43.1901 89.0295 -27.0197 14.9873 -1.4312
# 4 -12.4415 -19.3457 -27.0197 33.9139 -4.0738 0.8122
# 5 5.1043 11.2027 14.9873 -4.0738 33.3683 -2.9337
# 6 -22.7633 -9.5910 -1.4312 0.8122 -2.9337 32.3161
#
#
#
# Elastic Compliance Matrix: (Units=1/GPa)
#
#
# Indices 1 2 3 4 5 6 
#
# 1 0.010633 -0.003060 -0.003408 -0.000544 0.001443 0.006576
# 2 -0.003060 0.015110 -0.004563 0.003582 -0.001954 0.001860
# 3 -0.003408 -0.004563 0.019049 0.010749 -0.005514 -0.003682
# 4 -0.000544 0.003582 0.010749 0.039762 -0.001088 0.000058
# 5 0.001443 -0.001954 -0.005514 -0.001088 0.033031 0.003218
# 6 0.006576 0.001860 -0.003682 0.000058 0.003218 0.036256
#
#
# Mechanical properties :
#
#
# Convention : Reuss Voigt Hill
#
# Bulk Modulus (GPa) = 43.99705 63.25086 53.62396
# Shear Modulus (GPa) = 27.25115 32.59634 29.92375
#
# Velocity S-wave (km/s) = 3.49192 3.81906 3.65915
# Velocity P-wave (km/s) = 5.99537 6.91003 6.46889
#
# Compressibility (1/GPa) = 0.02272880
#
# Stress axis : x y z
#
# Youngs Moduli (GPa) = 94.04624 66.18165 52.49751
#
# Poissons Ratio (x) = 0.20249 0.17893
# Poissons Ratio (y) = 0.28775 0.23957
# Poissons Ratio (z) = 0.32055 0.30201
#
# Static dielectric constant tensor:
#      x y z
#    x 4.408310 -0.215870 0.224490 
#    y -0.215870 3.954420 -0.396290 
#    z 0.224490 -0.396290 4.114190 
# 
# 
# High freq. dielectric constant tensor:
#      x y z
#    x 1.908230 -0.011870 0.006210 
#    y -0.011870 1.857130 -0.032940 
#    z 0.006210 -0.032940 1.878840 
# 
# From -- ./inp_files/589551.got.cif
#   From: 2010.06.25/outbox.cif.g09.slc.cpg/sg2_295_cif.got.tgz:589551.got - 2010.06.27 13:26:56.
