data_PCOD8042399
_publ_section_title
;
Structure prediction by ZEFSAII (Michael W. Deem and Ramdas Pophale) SiO2 
 PCOD8042399
Probable space group: P -1
;
_chemical_formula_sum "Si O2"
_cell_formula_units_Z 16
_cell_length_a 12.406016
_cell_length_b 9.089391
_cell_length_c 15.288612
_cell_angle_alpha 39.517887
_cell_angle_beta 78.626664
_cell_angle_gamma 59.703280
_cell_volume 887.485780
_symmetry_space_group_name_H-M "P -1"
_symmetry_group_IT_number 2
_symmetry_cell_setting 'triclinic'
loop_
_space_group_symop_operation_xyz
x,y,z
-x,-y,-z
loop_
_atom_site_type_symbol
_atom_site_label
_atom_site_fract_x
_atom_site_fract_y
_atom_site_fract_z
Si Si1 0.263067 0.595023 0.637141
Si Si2 0.566593 0.952715 0.229607
Si Si3 0.663297 0.675691 0.511902
Si Si4 0.350007 0.808964 0.760068
Si Si5 0.157917 0.889581 0.339895
Si Si6 0.482445 0.508968 0.274432
Si Si7 0.311174 0.084065 0.125523
Si Si8 0.148188 0.679066 0.803338
O O1 0.177497 0.809367 0.475312
O O2 0.388431 0.610625 0.630508
O O3 0.167025 0.688558 0.692627
O O4 0.320055 0.271913 0.752583
O O5 0.603253 0.167572 0.160691
O O6 0.420547 0.126157 0.131097
O O7 0.570156 0.771471 0.395387
O O8 0.799378 0.375723 0.606929
O O9 0.586444 0.652634 0.616090
O O10 0.695196 0.908251 0.418609
O O11 0.473901 0.543947 0.810043
O O12 0.226401 0.782677 0.797953
O O13 0.245607 0.008925 0.246545
O O14 0.004932 0.122152 0.237856
O O15 0.380254 0.840769 0.152940
O O16 0.199747 0.366336 0.966152
#
# Coordination Sequence:
#
# PCOD8042399 Si02
#       8
#     2   2   2   2   2   2   2   2
#     4   9  18  33  53  78  97 129 169 215 248 282
#     4   8  17  32  51  75 101 124 164 209 259 290
#     4   8  16  31  50  77  99 128 164 210 250 291
#     4   9  19  31  49  80 101 131 159 211 256 300
#     4  10  19  35  55  72  99 137 174 203 239 293
#     4   9  16  30  55  77 101 126 167 212 256 290
#     4  10  20  34  53  76 101 133 166 210 246 295
#     4  11  22  33  50  76 106 136 168 197 246 304
#
# _framework density 18.028457
#
# number of rings (size 3 to 8) (size 9 to 14) (size 15 to 20)
#    0.750    2.000    0.000    1.875    0.000    8.500 
#    0.000    0.000    0.000    0.000    0.000    4.375 
#    0.000    0.000    0.000    0.000    0.000    0.000 
#
# Total GULP energy -198306.474592 kJ/mol
# GULP energy per Si atom -12394.154662 kJ/mol
# Density = 1.798742 g / cm^3
# Si number density = 18.028457 Si / 1000 Ang^3
#
#
#
# Elastic Constant Matrix: (Units=GPa)
#
#
# Indices 1 2 3 4 5 6 
#
# 1 63.8253 41.5596 18.3981 -12.1259 1.7722 -0.6249
# 2 41.5596 82.6708 16.1418 -10.2900 4.9102 1.7193
# 3 18.3981 16.1418 65.4842 -15.1679 7.1362 -5.9186
# 4 -12.1259 -10.2900 -15.1679 22.8611 -4.8801 3.0249
# 5 1.7722 4.9102 7.1362 -4.8801 19.2385 -8.2548
# 6 -0.6249 1.7193 -5.9186 3.0249 -8.2548 26.9618
#
#
#
# Elastic Compliance Matrix: (Units=1/GPa)
#
#
# Indices 1 2 3 4 5 6 
#
# 1 0.025230 -0.011496 -0.002981 0.006927 0.003942 0.001093
# 2 -0.011496 0.018512 -0.000875 0.001129 -0.004389 -0.003109
# 3 -0.002981 -0.000875 0.019123 0.009747 -0.003220 0.002105
# 4 0.006927 0.001129 0.009747 0.056536 0.009249 -0.001283
# 5 0.003942 -0.004389 -0.003220 0.009249 0.064109 0.018255
# 6 0.001093 -0.003109 0.002105 -0.001283 0.018255 0.043508
#
#
# Mechanical properties :
#
#
# Convention : Reuss Voigt Hill
#
# Bulk Modulus (GPa) = 31.09310 40.46437 35.77873
# Shear Modulus (GPa) = 18.62604 22.87100 20.74852
#
# Velocity S-wave (km/s) = 3.21775 3.56561 3.39614
# Velocity P-wave (km/s) = 5.57578 6.28052 5.93861
#
# Compressibility (1/GPa) = 0.03216148
#
# Stress axis : x y z
#
# Youngs Moduli (GPa) = 39.63557 54.01907 52.29373
#
# Poissons Ratio (x) = 0.62100 0.15589
# Poissons Ratio (y) = 0.45565 0.04573
# Poissons Ratio (z) = 0.11815 0.04724
#
# Static dielectric constant tensor:
#      x y z
#    x 3.065240 0.036960 -0.080520 
#    y 0.036960 3.378870 -0.104630 
#    z -0.080520 -0.104630 3.099880 
# 
# 
# High freq. dielectric constant tensor:
#      x y z
#    x 1.672780 -0.000490 -0.009090 
#    y -0.000490 1.700640 -0.009780 
#    z -0.009090 -0.009780 1.687090 
# 
# From -- ./inp_files/433706.got.cif
#   From: 2010.06.25/outbox.cif.g09.slc.cpg/sg2_217_cif.got.tgz:433706.got - 2010.06.27 13:26:56.
