data_PCOD8042035
_publ_section_title
;
Structure prediction by ZEFSAII (Michael W. Deem and Ramdas Pophale) SiO2 
 PCOD8042035
Probable space group: P -1
;
_chemical_formula_sum "Si O2"
_cell_formula_units_Z 16
_cell_length_a 9.256172
_cell_length_b 10.624683
_cell_length_c 14.958400
_cell_angle_alpha 97.757196
_cell_angle_beta 140.918572
_cell_angle_gamma 101.302285
_cell_volume 805.384185
_symmetry_space_group_name_H-M "P -1"
_symmetry_group_IT_number 2
_symmetry_cell_setting 'triclinic'
loop_
_space_group_symop_operation_xyz
x,y,z
-x,-y,-z
loop_
_atom_site_type_symbol
_atom_site_label
_atom_site_fract_x
_atom_site_fract_y
_atom_site_fract_z
Si Si1 0.050361 0.669730 0.317694
Si Si2 0.679776 0.665706 0.493179
Si Si3 0.949189 0.833324 0.130085
Si Si4 0.947874 0.182836 0.010010
Si Si5 0.605992 0.860799 0.840004
Si Si6 0.123376 0.424847 0.252966
Si Si7 0.013089 0.649854 0.497433
Si Si8 0.603226 0.892223 0.568775
O O1 0.937329 0.750744 0.207805
O O2 0.920027 0.645612 0.350021
O O3 0.983378 0.517774 0.224584
O O4 0.364597 0.762440 0.495782
O O5 0.398645 0.524261 0.346728
O O6 0.851439 0.657623 0.656380
O O7 0.810499 0.673200 0.461996
O O8 0.664722 0.814515 0.508381
O O9 0.066341 0.779845 0.098785
O O10 0.665155 0.813172 0.962254
O O11 0.132640 0.008782 0.240867
O O12 0.217188 0.171227 0.150504
O O13 0.944946 0.305596 0.083099
O O14 0.694918 0.031242 0.898283
O O15 0.303000 0.778186 0.665060
O O16 0.000000 0.500000 0.500000
O O17 0.500000 0.000000 0.500000
#
# Coordination Sequence:
#
# PCOD8042035 Si02
#       8
#     2   2   2   2   2   2   2   2
#     4  10  21  34  59  86 117 151 196 237 291 342
#     4  10  21  33  60  83 117 148 201 241 287 336
#     4   9  18  35  56  85 116 152 184 242 295 341
#     4   9  18  33  60  82 116 146 197 239 285 339
#     4   9  20  34  59  85 113 152 195 236 292 342
#     4  10  19  34  56  88 108 150 198 245 276 346
#     4  12  22  38  57  87 119 155 196 243 287 342
#     4   9  18  36  60  86 110 149 195 242 285 345
#
# _framework density 19.866295000000001
#
# number of rings (size 3 to 8) (size 9 to 14) (size 15 to 20)
#    0.750    1.500    1.250    2.250    3.500    0.500 
#    0.000    5.625    0.000    0.000    0.000    0.000 
#    0.000    0.000    0.000    0.000    0.000    0.000 
#
# Total GULP energy -198249.130770 kJ/mol
# GULP energy per Si atom -12390.570673 kJ/mol
# Density = 1.982108 g / cm^3
# Si number density = 19.866295 Si / 1000 Ang^3
#
#
#
# Elastic Constant Matrix: (Units=GPa)
#
#
# Indices 1 2 3 4 5 6 
#
# 1 130.7040 49.8977 33.7499 4.0723 -29.4674 6.3195
# 2 49.8977 104.4586 36.7059 0.6584 -24.1536 3.1104
# 3 33.7499 36.7059 69.0535 8.2301 -23.3003 7.9321
# 4 4.0723 0.6584 8.2301 35.9480 -2.7352 -12.3740
# 5 -29.4674 -24.1536 -23.3003 -2.7352 31.4947 -0.8379
# 6 6.3195 3.1104 7.9321 -12.3740 -0.8379 29.6295
#
#
#
# Elastic Compliance Matrix: (Units=1/GPa)
#
#
# Indices 1 2 3 4 5 6 
#
# 1 0.010768 -0.003182 -0.000910 -0.001121 0.006810 -0.001995
# 2 -0.003182 0.013665 -0.004679 0.002006 0.004253 0.001455
# 3 -0.000910 -0.004679 0.023195 -0.007010 0.011895 -0.008115
# 4 -0.001121 0.002006 -0.007010 0.035113 -0.001208 0.016535
# 5 0.006810 0.004253 0.011895 -0.001208 0.049969 -0.004175
# 6 -0.001995 0.001455 -0.008115 0.016535 -0.004175 0.042983
#
#
# Mechanical properties :
#
#
# Convention : Reuss Voigt Hill
#
# Bulk Modulus (GPa) = 33.24097 60.54700 46.89399
# Shear Modulus (GPa) = 24.59836 31.67193 28.13514
#
# Velocity S-wave (km/s) = 3.52262 3.99714 3.76736
# Velocity P-wave (km/s) = 5.77181 7.20044 6.52534
#
# Compressibility (1/GPa) = 0.03008335
#
# Stress axis : x y z
#
# Youngs Moduli (GPa) = 92.87171 73.17848 43.11219
#
# Poissons Ratio (x) = 0.23289 0.03925
# Poissons Ratio (y) = 0.29556 0.20174
# Poissons Ratio (z) = 0.08455 0.34244
#
# Static dielectric constant tensor:
#      x y z
#    x 3.516700 -0.027190 -0.258430 
#    y -0.027190 3.557610 0.293840 
#    z -0.258430 0.293840 3.721080 
# 
# 
# High freq. dielectric constant tensor:
#      x y z
#    x 1.744280 0.002860 -0.022790 
#    y 0.002860 1.772080 0.012500 
#    z -0.022790 0.012500 1.767710 
# 
# From -- ./inp_files/499209.got.cif
#   From: 2010.06.25/outbox.cif.g09.slc.cpg/sg2_250_cif.got.tgz:499209.got - 2010.06.27 13:26:56.
