data_PCOD8042763
_publ_section_title
;
Structure prediction by ZEFSAII (Michael W. Deem and Ramdas Pophale) SiO2 
 PCOD8042763
Probable space group: P -1
;
_chemical_formula_sum "Si O2"
_cell_formula_units_Z 16
_cell_length_a 18.696820
_cell_length_b 10.618923
_cell_length_c 13.517185
_cell_angle_alpha 133.352230
_cell_angle_beta 149.320974
_cell_angle_gamma 35.202108
_cell_volume 788.140808
_symmetry_space_group_name_H-M "P -1"
_symmetry_group_IT_number 2
_symmetry_cell_setting 'triclinic'
loop_
_space_group_symop_operation_xyz
x,y,z
-x,-y,-z
loop_
_atom_site_type_symbol
_atom_site_label
_atom_site_fract_x
_atom_site_fract_y
_atom_site_fract_z
Si Si1 0.194198 0.446204 0.816888
Si Si2 0.510994 0.535729 0.876681
Si Si3 0.775587 0.168617 0.147029
Si Si4 0.936655 0.786367 0.538467
Si Si5 0.351178 0.794595 0.472230
Si Si6 0.087174 0.772604 0.036655
Si Si7 0.620180 0.495044 0.495663
Si Si8 0.995712 0.707264 0.098925
O O1 0.167161 0.257478 0.688440
O O2 0.093181 0.569984 0.663068
O O3 0.396955 0.356240 0.994717
O O4 0.111452 0.595157 0.895419
O O5 0.333190 0.719762 0.822278
O O6 0.453415 0.453635 0.675040
O O7 0.652414 0.318632 0.990072
O O8 0.965382 0.127040 0.352226
O O9 0.827785 0.925760 0.070592
O O10 0.793161 0.949495 0.539666
O O11 0.271989 0.697728 0.259458
O O12 0.518835 0.722565 0.563486
O O13 0.415798 0.665654 0.583321
O O14 0.975019 0.786948 0.003735
O O15 0.000000 0.000000 0.000000
O O16 0.828334 0.367181 0.675358
O O17 0.000000 0.500000 0.000000
#
# Coordination Sequence:
#
# PCOD8042763 Si02
#       8
#     2   2   2   2   2   2   2   2
#     4  10  20  33  60  95 120 148 215 269 301 355
#     4  10  21  38  64  91 118 165 215 261 311 378
#     4  10  21  41  63  84 125 173 209 249 322 388
#     4  10  19  36  58  91 124 157 201 266 313 365
#     4  10  19  35  61  86 119 157 204 256 313 368
#     4  11  18  37  68  90 114 168 219 257 306 374
#     4  10  21  37  61  87 119 159 207 256 320 373
#     4  11  25  42  60  91 132 166 208 261 322 386
#
# _framework density 20.300941000000002
#
# number of rings (size 3 to 8) (size 9 to 14) (size 15 to 20)
#    0.000    1.750    5.000    0.750    0.000    2.500 
#    2.250    1.250    0.000    0.000    0.000    0.000 
#    0.000    0.000    0.000    0.000    0.000    0.000 
#
# Total GULP energy -198226.782894 kJ/mol
# GULP energy per Si atom -12389.173931 kJ/mol
# Density = 2.025474 g / cm^3
# Si number density = 20.300941 Si / 1000 Ang^3
#
#
#
# Elastic Constant Matrix: (Units=GPa)
#
#
# Indices 1 2 3 4 5 6 
#
# 1 82.7558 50.4678 36.9199 1.1078 -5.0456 -16.2158
# 2 50.4678 123.2073 48.3625 12.5221 10.0806 -23.1083
# 3 36.9199 48.3625 92.1846 14.8823 -8.7965 -12.3504
# 4 1.1078 12.5221 14.8823 29.8705 -4.3850 0.1900
# 5 -5.0456 10.0806 -8.7965 -4.3850 22.5298 0.1138
# 6 -16.2158 -23.1083 -12.3504 0.1900 0.1138 39.1074
#
#
#
# Elastic Compliance Matrix: (Units=1/GPa)
#
#
# Indices 1 2 3 4 5 6 
#
# 1 0.018739 -0.006776 -0.003777 0.004997 0.006713 0.002530
# 2 -0.006776 0.015112 -0.004793 -0.005373 -0.011220 0.004665
# 3 -0.003777 -0.004793 0.016441 -0.005059 0.006729 0.000799
# 4 0.004997 -0.005373 -0.005059 0.039440 0.009239 -0.002919
# 5 0.006713 -0.011220 0.006729 0.009239 0.055344 -0.001927
# 6 0.002530 0.004665 0.000799 -0.002919 -0.001927 0.029648
#
#
# Mechanical properties :
#
#
# Convention : Reuss Voigt Hill
#
# Bulk Modulus (GPa) = 51.01956 63.29425 57.15690
# Shear Modulus (GPa) = 23.59036 29.12805 26.35921
#
# Velocity S-wave (km/s) = 3.41256 3.79200 3.60727
# Velocity P-wave (km/s) = 6.38072 7.10057 6.75025
#
# Compressibility (1/GPa) = 0.01960032
#
# Stress axis : x y z
#
# Youngs Moduli (GPa) = 53.36393 66.17152 60.82357
#
# Poissons Ratio (x) = 0.44837 0.22976
# Poissons Ratio (y) = 0.36158 0.29151
# Poissons Ratio (z) = 0.20158 0.31715
#
# Static dielectric constant tensor:
#      x y z
#    x 3.730260 -0.159160 0.071240 
#    y -0.159160 3.700020 -0.002480 
#    z 0.071240 -0.002480 3.927350 
# 
# 
# High freq. dielectric constant tensor:
#      x y z
#    x 1.775440 -0.022950 -0.009140 
#    y -0.022950 1.791210 -0.011030 
#    z -0.009140 -0.011030 1.786990 
# 
# From -- ./inp_files/540992.got.cif
#   From: 2010.06.25/outbox.cif.g09.slc.cpg/sg2_271_cif.got.tgz:540992.got - 2010.06.27 13:26:56.
