data_PCOD8042117
_publ_section_title
;
Structure prediction by ZEFSAII (Michael W. Deem and Ramdas Pophale) SiO2 
 PCOD8042117
Probable space group: P -1
;
_chemical_formula_sum "Si O2"
_cell_formula_units_Z 16
_cell_length_a 10.914950
_cell_length_b 9.293511
_cell_length_c 10.919762
_cell_angle_alpha 93.263166
_cell_angle_beta 129.652265
_cell_angle_gamma 111.671812
_cell_volume 723.267131
_symmetry_space_group_name_H-M "P -1"
_symmetry_group_IT_number 2
_symmetry_cell_setting 'triclinic'
loop_
_space_group_symop_operation_xyz
x,y,z
-x,-y,-z
loop_
_atom_site_type_symbol
_atom_site_label
_atom_site_fract_x
_atom_site_fract_y
_atom_site_fract_z
Si Si1 0.470514 0.377077 0.132316
Si Si2 0.854528 0.060348 0.893112
Si Si3 0.578127 0.951197 0.207456
Si Si4 0.895172 0.999043 0.552212
Si Si5 0.188350 0.994189 0.873636
Si Si6 0.544738 0.204879 0.366851
Si Si7 0.309096 0.582686 0.958488
Si Si8 0.916754 0.289064 0.723797
O O1 0.548883 0.364473 0.314334
O O2 0.639855 0.443259 0.147253
O O3 0.290900 0.196587 0.968881
O O4 0.400684 0.508252 0.104823
O O5 0.928435 0.223901 0.863178
O O6 0.656063 0.912748 0.698873
O O7 0.812756 0.099118 0.006313
O O8 0.000000 0.000000 0.000000
O O9 0.676463 0.896421 0.371486
O O10 0.704734 0.036637 0.169844
O O11 0.547957 0.095371 0.248331
O O12 0.385838 0.778826 0.044498
O O13 0.948457 0.186826 0.633384
O O14 0.000000 0.000000 0.500000
O O15 0.967972 0.924652 0.700038
O O16 0.715158 0.269979 0.574000
O O17 0.084474 0.483908 0.827733
#
# Coordination Sequence:
#
# PCOD8042117 Si02
#       8
#     2   2   2   2   2   2   2   2
#     4   9  18  32  56  82 114 150 188 232 273 345
#     4  11  20  34  60  85 110 151 200 235 264 342
#     4   9  20  34  59  88 119 142 181 247 288 331
#     4   9  16  30  53  84 111 143 184 234 276 325
#     4   9  16  32  55  86 109 144 196 229 274 324
#     4  10  22  38  58  87 116 145 192 241 287 323
#     4  10  19  34  58  82 118 153 187 224 290 344
#     4  11  20  35  56  84 115 152 189 234 284 339
#
# _framework density 22.121842000000001
#
# number of rings (size 3 to 8) (size 9 to 14) (size 15 to 20)
#    0.000    2.250    2.500    1.125    1.750    5.000 
#    0.000    0.625    5.500    0.750    0.000    0.000 
#    0.000    0.000    0.000    0.000    0.000    0.000 
#
# Total GULP energy -198229.035284 kJ/mol
# GULP energy per Si atom -12389.314705 kJ/mol
# Density = 2.207149 g / cm^3
# Si number density = 22.121842 Si / 1000 Ang^3
#
#
#
# Elastic Constant Matrix: (Units=GPa)
#
#
# Indices 1 2 3 4 5 6 
#
# 1 57.2580 18.3841 34.4611 4.5698 17.7120 12.5457
# 2 18.3841 50.5117 28.8441 -3.4301 1.8519 17.2060
# 3 34.4611 28.8441 119.1093 -8.0622 21.9731 17.9909
# 4 4.5698 -3.4301 -8.0622 31.9307 4.3852 3.7546
# 5 17.7120 1.8519 21.9731 4.3852 38.0151 0.9857
# 6 12.5457 17.2060 17.9909 3.7546 0.9857 33.0842
#
#
#
# Elastic Compliance Matrix: (Units=1/GPa)
#
#
# Indices 1 2 3 4 5 6 
#
# 1 0.025567 -0.005565 -0.004090 -0.003628 -0.008758 -0.003904
# 2 -0.005565 0.027824 -0.003873 0.003615 0.003338 -0.010763
# 3 -0.004090 -0.003873 0.012355 0.004451 -0.005470 -0.003496
# 4 -0.003628 0.003615 0.004451 0.034813 -0.004900 -0.006730
# 5 -0.008758 0.003338 -0.005470 -0.004900 0.033844 0.004107
# 6 -0.003904 -0.010763 -0.003496 -0.006730 0.004107 0.039846
#
#
# Mechanical properties :
#
#
# Convention : Reuss Voigt Hill
#
# Bulk Modulus (GPa) = 25.84646 43.36195 34.60420
# Shear Modulus (GPa) = 23.34230 30.28531 26.81381
#
# Velocity S-wave (km/s) = 3.25186 3.70405 3.48529
# Velocity P-wave (km/s) = 5.08021 6.15932 5.64561
#
# Compressibility (1/GPa) = 0.03869002
#
# Stress axis : x y z
#
# Youngs Moduli (GPa) = 39.11270 35.93987 80.93709
#
# Poissons Ratio (x) = 0.20002 0.33101
# Poissons Ratio (y) = 0.21768 0.31349
# Poissons Ratio (z) = 0.15996 0.13921
#
# Static dielectric constant tensor:
#      x y z
#    x 4.225810 0.080000 0.578020 
#    y 0.080000 3.812350 -0.662070 
#    z 0.578020 -0.662070 5.541440 
# 
# 
# High freq. dielectric constant tensor:
#      x y z
#    x 1.864510 0.005590 0.024140 
#    y 0.005590 1.832190 -0.025690 
#    z 0.024140 -0.025690 1.876540 
# 
# From -- ./inp_files/419378.got.cif
#   From: 2010.06.25/outbox.cif.g09.slc.cpg/sg2_210_cif.got.tgz:419378.got - 2010.06.27 13:26:56.
