data_PCOD8042213
_publ_section_title
;
Structure prediction by ZEFSAII (Michael W. Deem and Ramdas Pophale) SiO2 
 PCOD8042213
Probable space group: P -1
;
_chemical_formula_sum "Si O2"
_cell_formula_units_Z 16
_cell_length_a 8.954762
_cell_length_b 18.107118
_cell_length_c 13.988869
_cell_angle_alpha 34.538081
_cell_angle_beta 123.906922
_cell_angle_gamma 100.030860
_cell_volume 848.648787
_symmetry_space_group_name_H-M "P -1"
_symmetry_group_IT_number 2
_symmetry_cell_setting 'triclinic'
loop_
_space_group_symop_operation_xyz
x,y,z
-x,-y,-z
loop_
_atom_site_type_symbol
_atom_site_label
_atom_site_fract_x
_atom_site_fract_y
_atom_site_fract_z
Si Si1 0.003539 0.839846 0.277207
Si Si2 0.211950 0.040726 0.405636
Si Si3 0.392514 0.050400 0.646238
Si Si4 0.302242 0.205216 0.113603
Si Si5 0.855346 0.018379 0.224419
Si Si6 0.624682 0.174220 0.686666
Si Si7 0.494216 0.349586 0.644798
Si Si8 0.968419 0.550955 0.543809
O O1 0.235673 0.792925 0.367378
O O2 0.997048 0.876081 0.348380
O O3 0.004048 0.686685 0.426597
O O4 0.784901 0.995222 0.981942
O O5 0.204681 0.121544 0.418423
O O6 0.161268 0.161880 0.171239
O O7 0.463364 0.865723 0.670064
O O8 0.027164 0.007615 0.373213
O O9 0.313643 0.005030 0.758413
O O10 0.432543 0.182831 0.548266
O O11 0.631909 0.886171 0.868667
O O12 0.153709 0.397955 0.839196
O O13 0.717687 0.194186 0.938403
O O14 0.496924 0.316156 0.568842
O O15 0.500000 0.500000 0.500000
O O16 0.278286 0.382225 0.582512
O O17 0.000000 0.500000 0.500000
#
# Coordination Sequence:
#
# PCOD8042213 Si02
#       8
#     2   2   2   2   2   2   2   2
#     4  10  22  34  58  83 112 155 181 241 281 335
#     4   9  20  37  60  83 109 158 194 225 272 334
#     4  10  19  34  60  83 108 145 192 239 267 330
#     4   9  20  36  58  83 111 154 191 223 279 331
#     4  11  20  36  58  87 113 143 196 233 281 334
#     4  10  20  38  55  82 115 148 196 223 287 339
#     4  11  23  35  57  85 118 150 178 237 291 342
#     4  12  22  37  57  88 121 144 186 235 292 332
#
# _framework density 18.853497999999998
#
# number of rings (size 3 to 8) (size 9 to 14) (size 15 to 20)
#    0.750    1.000    0.000    5.625    0.000    4.000 
#    0.000    0.625    0.000    3.750    0.000    0.000 
#    0.000    0.000    0.000    0.000    0.000    0.000 
#
# Total GULP energy -198387.353246 kJ/mol
# GULP energy per Si atom -12399.209578 kJ/mol
# Density = 1.881059 g / cm^3
# Si number density = 18.853498 Si / 1000 Ang^3
#
#
#
# Elastic Constant Matrix: (Units=GPa)
#
#
# Indices 1 2 3 4 5 6 
#
# 1 120.7503 71.6955 25.8492 -15.0332 -11.2318 -1.4099
# 2 71.6955 161.0460 42.6469 -19.1906 -2.5296 7.9934
# 3 25.8492 42.6469 79.1742 -15.8264 -11.3935 6.6963
# 4 -15.0332 -19.1906 -15.8264 28.8117 2.9974 -0.6280
# 5 -11.2318 -2.5296 -11.3935 2.9974 24.0908 -3.3098
# 6 -1.4099 7.9934 6.6963 -0.6280 -3.3098 42.6289
#
#
#
# Elastic Compliance Matrix: (Units=1/GPa)
#
#
# Indices 1 2 3 4 5 6 
#
# 1 0.012111 -0.005073 -0.000186 0.002360 0.004980 0.001802
# 2 -0.005073 0.009681 -0.003477 0.002219 -0.003499 -0.001676
# 3 -0.000186 -0.003477 0.016852 0.006131 0.006563 -0.001402
# 4 0.002360 0.002219 0.006131 0.040868 -0.000958 -0.000774
# 5 0.004980 -0.003499 0.006563 -0.000958 0.047160 0.003437
# 6 0.001802 -0.001676 -0.001402 -0.000774 0.003437 0.024308
#
#
# Mechanical properties :
#
#
# Convention : Reuss Voigt Hill
#
# Bulk Modulus (GPa) = 47.22730 71.26151 59.24440
# Shear Modulus (GPa) = 28.48866 33.82487 31.15676
#
# Velocity S-wave (km/s) = 3.89145 4.24026 4.06959
# Velocity P-wave (km/s) = 6.73017 7.86465 7.31942
#
# Compressibility (1/GPa) = 0.02117419
#
# Stress axis : x y z
#
# Youngs Moduli (GPa) = 82.56782 103.29525 59.33906
#
# Poissons Ratio (x) = 0.52397 0.01103
# Poissons Ratio (y) = 0.41883 0.20630
# Poissons Ratio (z) = 0.01535 0.35913
#
# Static dielectric constant tensor:
#      x y z
#    x 3.444940 -0.086460 0.006860 
#    y -0.086460 3.462380 -0.033510 
#    z 0.006860 -0.033510 3.205770 
# 
# 
# High freq. dielectric constant tensor:
#      x y z
#    x 1.750360 -0.002160 -0.003940 
#    y -0.002160 1.735310 0.000540 
#    z -0.003940 0.000540 1.702060 
# 
# From -- ./inp_files/299518.got.cif
#   From: 2010.06.25/outbox.cif.g09.slc.cpg/sg2_150_cif.got.tgz:299518.got - 2010.06.27 13:26:56.
