data_PCOD8042345
_publ_section_title
;
Structure prediction by ZEFSAII (Michael W. Deem and Ramdas Pophale) SiO2 
 PCOD8042345
Probable space group: P -1
;
_chemical_formula_sum "Si O2"
_cell_formula_units_Z 14
_cell_length_a 11.259675
_cell_length_b 8.454580
_cell_length_c 12.972183
_cell_angle_alpha 85.121060
_cell_angle_beta 111.740951
_cell_angle_gamma 42.529950
_cell_volume 636.988756
_symmetry_space_group_name_H-M "P -1"
_symmetry_group_IT_number 2
_symmetry_cell_setting 'triclinic'
loop_
_space_group_symop_operation_xyz
x,y,z
-x,-y,-z
loop_
_atom_site_type_symbol
_atom_site_label
_atom_site_fract_x
_atom_site_fract_y
_atom_site_fract_z
Si Si1 0.001188 0.875991 0.599535
Si Si2 0.870558 0.056906 0.184154
Si Si3 0.625246 0.720650 0.157801
Si Si4 0.653662 0.800841 0.812015
Si Si5 0.603527 0.566374 0.949204
Si Si6 0.983452 0.442691 0.765144
Si Si7 0.207129 0.228038 0.510086
O O1 0.806778 0.945098 0.512277
O O2 0.957883 0.016506 0.684581
O O3 0.241855 0.533283 0.707673
O O4 0.000000 0.000000 0.500000
O O5 0.641017 0.260118 0.168054
O O6 0.799369 0.231929 0.050280
O O7 0.991550 0.771557 0.204445
O O8 0.780487 0.712879 0.177846
O O9 0.395412 0.019504 0.124303
O O10 0.548679 0.714013 0.030171
O O11 0.689055 0.591375 0.884909
O O12 0.882261 0.611238 0.832294
O O13 0.442852 0.016604 0.654130
O O14 0.799375 0.664918 0.603407
O O15 0.000000 0.500000 0.500000
#
# Coordination Sequence:
#
# PCOD8042345 Si02
#       7
#     2   2   2   2   2   2   2
#     4  10  19  34  65  86 114 159 194 242 303 349
#     4  10  21  38  61  87 122 159 198 245 295 359
#     4  10  22  40  61  89 119 157 203 247 290 355
#     4  12  22  37  65  89 120 158 199 249 298 349
#     4  10  21  40  63  85 122 164 201 240 300 351
#     4  11  23  38  63  90 122 153 202 249 297 351
#     4  11  20  40  64  88 120 153 197 252 294 355
#
# _framework density 21.978408000000002
#
# number of rings (size 3 to 8) (size 9 to 14) (size 15 to 20)
#    0.000    1.429    4.286    2.571    0.000    1.143 
#    0.000    0.714   25.143    0.000    0.000    0.000 
#    0.000    0.000    0.000    0.000    0.000    0.000 
#
# Total GULP energy -173583.976639 kJ/mol
# GULP energy per Si atom -12398.855474 kJ/mol
# Density = 2.192838 g / cm^3
# Si number density = 21.978408 Si / 1000 Ang^3
#
#
#
# Elastic Constant Matrix: (Units=GPa)
#
#
# Indices 1 2 3 4 5 6 
#
# 1 55.3392 47.6385 21.8065 0.0448 -16.0541 12.9393
# 2 47.6385 118.1268 22.0963 5.5982 -20.0183 10.5407
# 3 21.8065 22.0963 61.2034 -5.8527 -26.1952 4.4023
# 4 0.0448 5.5982 -5.8527 29.9909 11.8850 -7.8043
# 5 -16.0541 -20.0183 -26.1952 11.8850 48.9170 4.7470
# 6 12.9393 10.5407 4.4023 -7.8043 4.7470 37.2706
#
#
#
# Elastic Compliance Matrix: (Units=1/GPa)
#
#
# Indices 1 2 3 4 5 6 
#
# 1 0.032814 -0.010287 -0.005288 -0.003800 0.005560 -0.009362
# 2 -0.010287 0.013529 -0.000109 -0.004234 0.003281 -0.001547
# 3 -0.005288 -0.000109 0.023051 -0.000392 0.010884 -0.002324
# 4 -0.003800 -0.004234 -0.000392 0.043590 -0.015102 0.013614
# 5 0.005560 0.003281 0.010884 -0.015102 0.034240 -0.011667
# 6 -0.009362 -0.001547 -0.002324 0.013614 -0.011667 0.035130
#
#
# Mechanical properties :
#
#
# Convention : Reuss Voigt Hill
#
# Bulk Modulus (GPa) = 26.29699 46.41688 36.35693
# Shear Modulus (GPa) = 22.08515 32.77759 27.43137
#
# Velocity S-wave (km/s) = 3.17339 3.86599 3.53669
# Velocity P-wave (km/s) = 5.04163 6.41039 5.76676
#
# Compressibility (1/GPa) = 0.03802717
#
# Stress axis : x y z
#
# Youngs Moduli (GPa) = 30.47442 73.91604 43.38272
#
# Poissons Ratio (x) = 0.76034 0.22942
# Poissons Ratio (y) = 0.31348 0.00471
# Poissons Ratio (z) = 0.16116 0.00803
#
# Static dielectric constant tensor:
#      x y z
#    x 3.917210 0.337960 -0.029840 
#    y 0.337960 3.947630 -0.035700 
#    z -0.029840 -0.035700 4.328960 
# 
# 
# High freq. dielectric constant tensor:
#      x y z
#    x 1.845650 0.032810 -0.006970 
#    y 0.032810 1.843160 -0.004870 
#    z -0.006970 -0.004870 1.888220 
# 
# From -- ./inp_files/179179.got.cif
#   From: 2010.06.25/outbox.cif.g09.slc.cpg/sg2_90_cif.got.tgz:179179.got - 2010.06.27 13:26:56.
