data_PCOD8042955
_publ_section_title
;
Structure prediction by ZEFSAII (Michael W. Deem and Ramdas Pophale) SiO2 
 PCOD8042955
Probable space group: P -1
;
_chemical_formula_sum "Si O2"
_cell_formula_units_Z 14
_cell_length_a 7.656641
_cell_length_b 10.680669
_cell_length_c 8.849682
_cell_angle_alpha 121.219587
_cell_angle_beta 87.619703
_cell_angle_gamma 90.526359
_cell_volume 618.308726
_symmetry_space_group_name_H-M "P -1"
_symmetry_group_IT_number 2
_symmetry_cell_setting 'triclinic'
loop_
_space_group_symop_operation_xyz
x,y,z
-x,-y,-z
loop_
_atom_site_type_symbol
_atom_site_label
_atom_site_fract_x
_atom_site_fract_y
_atom_site_fract_z
Si Si1 0.342989 0.566151 0.391314
Si Si2 0.864269 0.948303 0.347039
Si Si3 0.032167 0.175213 0.036956
Si Si4 0.370952 0.227679 0.233810
Si Si5 0.312195 0.279621 0.594282
Si Si6 0.016382 0.503730 0.683463
Si Si7 0.733798 0.162296 0.252912
O O1 0.403464 0.404207 0.344408
O O2 0.497813 0.647095 0.347092
O O3 0.173878 0.546790 0.277372
O O4 0.273182 0.664138 0.598559
O O5 0.721454 0.836491 0.345563
O O6 0.748721 0.081118 0.363662
O O7 0.981416 0.872560 0.164841
O O8 0.000000 0.000000 0.500000
O O9 0.235297 0.171860 0.079709
O O10 0.947224 0.335805 0.155599
O O11 0.103332 0.907985 0.895776
O O12 0.295248 0.194921 0.382518
O O13 0.553151 0.136483 0.151619
O O14 0.162636 0.402002 0.686517
O O15 0.000000 0.500000 0.500000
#
# Coordination Sequence:
#
# PCOD8042955 Si02
#       7
#     2   2   2   2   2   2   2
#     4  10  19  35  67 101 120 154 209 264 320 371
#     4  12  28  43  59  88 135 184 212 253 318 380
#     4  11  22  42  67  95 124 162 222 268 308 375
#     4  10  20  38  71 100 118 155 220 271 317 372
#     4  11  21  39  61  96 133 160 205 259 322 385
#     4  11  18  36  71 100 120 156 205 269 326 365
#     4  11  21  40  66  91 125 171 217 259 308 374
#
# _framework density 22.642410000000002
#
# number of rings (size 3 to 8) (size 9 to 14) (size 15 to 20)
#    0.000    1.143    4.286    4.714    0.000    3.429 
#    0.000   10.000    0.000    0.000    0.000    1.000 
#    0.000    0.000    0.000    0.000    0.000    0.000 
#
# Total GULP energy -173527.060718 kJ/mol
# GULP energy per Si atom -12394.790051 kJ/mol
# Density = 2.259088 g / cm^3
# Si number density = 22.642410 Si / 1000 Ang^3
#
#
#
# Elastic Constant Matrix: (Units=GPa)
#
#
# Indices 1 2 3 4 5 6 
#
# 1 145.4162 55.4128 44.5760 -12.6032 -10.0400 -10.5637
# 2 55.4128 83.6087 45.0753 -14.4162 -2.0960 9.6647
# 3 44.5760 45.0753 108.5426 -8.2281 1.3673 3.0994
# 4 -12.6032 -14.4162 -8.2281 18.0946 3.1239 -9.3151
# 5 -10.0400 -2.0960 1.3673 3.1239 30.6971 1.9017
# 6 -10.5637 9.6647 3.0994 -9.3151 1.9017 42.7024
#
#
#
# Elastic Compliance Matrix: (Units=1/GPa)
#
#
# Indices 1 2 3 4 5 6 
#
# 1 0.010488 -0.005819 -0.001761 0.003914 0.002417 0.004786
# 2 -0.005819 0.020544 -0.005415 0.007978 -0.000828 -0.003919
# 3 -0.001761 -0.005415 0.012226 0.000300 -0.001523 0.000036
# 4 0.003914 0.007978 0.000300 0.073606 -0.006639 0.015493
# 5 0.002417 -0.000828 -0.001523 -0.006639 0.034182 -0.002075
# 6 0.004786 -0.003919 0.000036 0.015493 -0.002075 0.028958
#
#
# Mechanical properties :
#
#
# Convention : Reuss Voigt Hill
#
# Bulk Modulus (GPa) = 57.90992 69.74395 63.82694
# Shear Modulus (GPa) = 23.61273 31.13236 27.37255
#
# Velocity S-wave (km/s) = 3.23283 3.71207 3.48070
# Velocity P-wave (km/s) = 6.29017 7.01725 6.66364
#
# Compressibility (1/GPa) = 0.01726820
#
# Stress axis : x y z
#
# Youngs Moduli (GPa) = 95.34811 48.67533 81.79550
#
# Poissons Ratio (x) = 0.28326 0.14403
# Poissons Ratio (y) = 0.55486 0.44289
# Poissons Ratio (z) = 0.16790 0.26356
#
# Static dielectric constant tensor:
#      x y z
#    x 4.613700 0.130660 -0.131170 
#    y 0.130660 4.098660 0.249000 
#    z -0.131170 0.249000 3.743500 
# 
# 
# High freq. dielectric constant tensor:
#      x y z
#    x 1.913650 0.000180 -0.006360 
#    y 0.000180 1.894780 0.033180 
#    z -0.006360 0.033180 1.864260 
# 
# From -- ./inp_files/182491.got.cif
#   From: 2010.06.25/outbox.cif.g09.slc.cpg/sg2_92_cif.got.tgz:182491.got - 2010.06.27 13:26:56.
