data_PCOD8042992
_publ_section_title
;
Structure prediction by ZEFSAII (Michael W. Deem and Ramdas Pophale) SiO2 
 PCOD8042992
Probable space group: P -1
;
_chemical_formula_sum "Si O2"
_cell_formula_units_Z 14
_cell_length_a 24.551492
_cell_length_b 10.849961
_cell_length_c 8.436474
_cell_angle_alpha 43.594554
_cell_angle_beta 33.014511
_cell_angle_gamma 28.271263
_cell_volume 579.074511
_symmetry_space_group_name_H-M "P -1"
_symmetry_group_IT_number 2
_symmetry_cell_setting 'triclinic'
loop_
_space_group_symop_operation_xyz
x,y,z
-x,-y,-z
loop_
_atom_site_type_symbol
_atom_site_label
_atom_site_fract_x
_atom_site_fract_y
_atom_site_fract_z
Si Si1 0.131693 0.721543 0.364426
Si Si2 0.581503 0.859470 0.096266
Si Si3 0.883596 0.636571 0.820731
Si Si4 0.210372 0.137021 0.541382
Si Si5 0.345355 0.613718 0.745522
Si Si6 0.033142 0.764753 0.212306
Si Si7 0.711758 0.802776 0.382836
O O1 0.087877 0.705805 0.312869
O O2 0.176160 0.505602 0.574145
O O3 0.274513 0.658374 0.048396
O O4 0.000000 0.000000 0.500000
O O5 0.457900 0.040218 0.366494
O O6 0.649566 0.571119 0.202583
O O7 0.500000 0.000000 0.000000
O O8 0.708138 0.846454 0.807530
O O9 0.849568 0.492835 0.945305
O O10 0.042991 0.407096 0.724096
O O11 0.895284 0.797634 0.523562
O O12 0.762127 0.829583 0.071105
O O13 0.283871 0.066883 0.601530
O O14 0.236233 0.894193 0.662866
O O15 0.500000 0.500000 0.500000
O O16 0.000000 0.000000 0.000000
#
# Coordination Sequence:
#
# PCOD8042992 Si02
#       7
#     2   2   2   2   2   2   2
#     4  12  24  38  65  95 122 156 206 261 304 359
#     4  10  19  36  54  90 133 156 190 256 313 363
#     4  11  24  40  65  91 122 167 203 254 309 364
#     4  11  20  36  61  91 127 157 204 251 310 363
#     4  12  20  33  57  91 122 160 192 244 314 360
#     4  11  24  43  58  87 132 165 201 248 315 369
#     4  11  20  38  61  95 125 152 205 259 301 355
#
# _framework density 24.17651
#
# number of rings (size 3 to 8) (size 9 to 14) (size 15 to 20)
#    0.000    0.857    7.143    3.000    2.000    0.000 
#    0.000    0.000    0.000    9.429    0.000   22.000 
#    0.000    0.000    0.000    0.000    0.000    0.000 
#
# Total GULP energy -173486.365385 kJ/mol
# GULP energy per Si atom -12391.883242 kJ/mol
# Density = 2.412148 g / cm^3
# Si number density = 24.176510 Si / 1000 Ang^3
#
#
#
# Elastic Constant Matrix: (Units=GPa)
#
#
# Indices 1 2 3 4 5 6 
#
# 1 50.4170 11.2295 27.1573 -1.1577 -8.3361 21.6563
# 2 11.2295 152.0077 63.2657 -14.6006 2.4861 17.5374
# 3 27.1573 63.2657 166.6950 10.4824 0.2399 17.5178
# 4 -1.1577 -14.6006 10.4824 66.8998 2.4492 0.0781
# 5 -8.3361 2.4861 0.2399 2.4492 43.9768 -0.8224
# 6 21.6563 17.5374 17.5178 0.0781 -0.8224 25.2990
#
#
#
# Elastic Compliance Matrix: (Units=1/GPa)
#
#
# Indices 1 2 3 4 5 6 
#
# 1 0.034457 0.002273 -0.003593 0.001476 0.005809 -0.028399
# 2 0.002273 0.008645 -0.003202 0.002445 -0.000284 -0.005738
# 3 -0.003593 -0.003202 0.007948 -0.001990 -0.000437 -0.000216
# 4 0.001476 0.002445 -0.001990 0.015848 -0.000761 -0.001654
# 5 0.005809 -0.000284 -0.000437 -0.000761 0.023832 -0.003697
# 6 -0.028399 -0.005738 -0.000216 -0.001654 -0.003697 0.067850
#
#
# Mechanical properties :
#
#
# Convention : Reuss Voigt Hill
#
# Bulk Modulus (GPa) = 23.80584 63.60273 43.70428
# Shear Modulus (GPa) = 27.52926 45.06626 36.29776
#
# Velocity S-wave (km/s) = 3.37809 4.32215 3.87895
# Velocity P-wave (km/s) = 5.00833 7.16050 6.17884
#
# Compressibility (1/GPa) = 0.04200650
#
# Stress axis : x y z
#
# Youngs Moduli (GPa) = 29.02192 115.67825 125.81900
#
# Poissons Ratio (x) = -0.26295 0.45207
# Poissons Ratio (y) = -0.06597 0.40281
# Poissons Ratio (z) = 0.10428 0.37035
#
# Static dielectric constant tensor:
#      x y z
#    x 4.556520 0.310200 -0.734530 
#    y 0.310200 6.356510 -0.988780 
#    z -0.734530 -0.988780 5.632480 
# 
# 
# High freq. dielectric constant tensor:
#      x y z
#    x 1.951460 -0.009800 -0.024430 
#    y -0.009800 1.966600 -0.006520 
#    z -0.024430 -0.006520 1.969100 
# 
# From -- ./inp_files/358515.got.cif
#   From: 2010.06.25/outbox.cif.g09.slc.cpg/sg2_180_cif.got.tgz:358515.got - 2010.06.27 13:26:56.
