data_PCOD8042584
_publ_section_title
;
Structure prediction by ZEFSAII (Michael W. Deem and Ramdas Pophale) SiO2 
 PCOD8042584
Probable space group: P -1
;
_chemical_formula_sum "Si O2"
_cell_formula_units_Z 14
_cell_length_a 7.315820
_cell_length_b 14.014128
_cell_length_c 16.392574
_cell_angle_alpha 146.884275
_cell_angle_beta 78.077685
_cell_angle_gamma 79.564347
_cell_volume 672.910399
_symmetry_space_group_name_H-M "P -1"
_symmetry_group_IT_number 2
_symmetry_cell_setting 'triclinic'
loop_
_space_group_symop_operation_xyz
x,y,z
-x,-y,-z
loop_
_atom_site_type_symbol
_atom_site_label
_atom_site_fract_x
_atom_site_fract_y
_atom_site_fract_z
Si Si1 0.006449 0.167957 0.429286
Si Si2 0.606994 0.202418 0.313019
Si Si3 0.446323 0.428756 0.325860
Si Si4 0.832383 0.749137 0.368390
Si Si5 0.856298 0.759181 0.059716
Si Si6 0.148791 0.880727 0.064496
Si Si7 0.282239 0.984956 0.586410
O O1 0.164587 0.162749 0.480617
O O2 0.828374 0.415873 0.576464
O O3 0.821293 0.134934 0.458715
O O4 0.200077 0.969202 0.203135
O O5 0.461230 0.291145 0.304422
O O6 0.480910 0.417822 0.542775
O O7 0.623442 0.995570 0.201064
O O8 0.889913 0.101740 0.202768
O O9 0.630741 0.241378 0.106610
O O10 0.083733 0.476881 0.139385
O O11 0.837363 0.896967 0.405507
O O12 0.582090 0.789553 0.411552
O O13 0.109761 0.708407 0.978457
O O14 0.794891 0.811439 0.198724
#
# Coordination Sequence:
#
# PCOD8042584 Si02
#       7
#     2   2   2   2   2   2   2
#     4  10  21  36  54  88 109 140 189 224 266 335
#     4   8  18  28  54  86 108 141 191 216 265 335
#     4  10  15  32  55  81 112 146 178 227 269 318
#     4  11  22  36  60  79 111 147 181 228 283 314
#     4   9  19  34  53  84 107 142 185 226 266 331
#     4   8  17  31  54  80 112 142 182 220 268 321
#     4  10  21  40  56  79 110 147 185 228 272 326
#
# _framework density 20.805149
#
# number of rings (size 3 to 8) (size 9 to 14) (size 15 to 20)
#    0.857    1.714    1.429    2.143    0.000    1.143 
#    0.000    0.714    0.000   11.143    0.000    0.000 
#    0.000    0.000    0.000    0.000    0.000    0.000 
#
# Total GULP energy -173460.247229 kJ/mol
# GULP energy per Si atom -12390.017659 kJ/mol
# Density = 2.075780 g / cm^3
# Si number density = 20.805149 Si / 1000 Ang^3
#
#
#
# Elastic Constant Matrix: (Units=GPa)
#
#
# Indices 1 2 3 4 5 6 
#
# 1 24.1697 21.6197 11.1210 3.8318 5.8208 -6.9518
# 2 21.6197 152.0022 54.1148 -2.5119 9.1518 -23.5631
# 3 11.1210 54.1148 103.1422 -5.5400 10.5328 -7.9668
# 4 3.8318 -2.5119 -5.5400 31.4229 2.1209 4.4001
# 5 5.8208 9.1518 10.5328 2.1209 16.6826 -6.5731
# 6 -6.9518 -23.5631 -7.9668 4.4001 -6.5731 15.0338
#
#
#
# Elastic Compliance Matrix: (Units=1/GPa)
#
#
# Indices 1 2 3 4 5 6 
#
# 1 0.054083 -0.003984 -0.002157 -0.009180 -0.007435 0.017057
# 2 -0.003984 0.010871 -0.004670 -0.001928 0.004657 0.015322
# 3 -0.002157 -0.004670 0.012888 0.003485 -0.007555 -0.005810
# 4 -0.009180 -0.001928 0.003485 0.037093 -0.010956 -0.021067
# 5 -0.007435 0.004657 -0.007555 -0.010956 0.081370 0.038640
# 6 0.017057 0.015322 -0.005810 -0.021067 0.038640 0.118399
#
#
# Mechanical properties :
#
#
# Convention : Reuss Voigt Hill
#
# Bulk Modulus (GPa) = 17.78758 50.33612 34.06185
# Shear Modulus (GPa) = 14.08191 25.45843 19.77017
#
# Velocity S-wave (km/s) = 2.60445 3.50188 3.08596
# Velocity P-wave (km/s) = 4.19671 6.37162 5.39490
#
# Compressibility (1/GPa) = 0.05621902
#
# Stress axis : x y z
#
# Youngs Moduli (GPa) = 18.49024 91.98846 77.59244
#
# Poissons Ratio (x) = 0.36651 0.16739
# Poissons Ratio (y) = 0.07367 0.36233
# Poissons Ratio (z) = 0.03989 0.42955
#
# Static dielectric constant tensor:
#      x y z
#    x 3.059890 -0.059320 0.048690 
#    y -0.059320 3.890690 -0.018820 
#    z 0.048690 -0.018820 3.672690 
# 
# 
# High freq. dielectric constant tensor:
#      x y z
#    x 1.753460 -0.004200 0.001600 
#    y -0.004200 1.823450 -0.005190 
#    z 0.001600 -0.005190 1.820100 
# 
# From -- ./inp_files/504428.got.cif
#   From: 2010.06.25/outbox.cif.g09.slc.cpg/sg2_253_cif.got.tgz:504428.got - 2010.06.27 13:26:56.
