data_PCOD8042188
_publ_section_title
;
Structure prediction by ZEFSAII (Michael W. Deem and Ramdas Pophale) SiO2 
 PCOD8042188
Probable space group: P -1
;
_chemical_formula_sum "Si O2"
_cell_formula_units_Z 16
_cell_length_a 12.460863
_cell_length_b 9.048095
_cell_length_c 11.541372
_cell_angle_alpha 58.370833
_cell_angle_beta 45.788357
_cell_angle_gamma 69.796524
_cell_volume 793.715979
_symmetry_space_group_name_H-M "P -1"
_symmetry_group_IT_number 2
_symmetry_cell_setting 'triclinic'
loop_
_space_group_symop_operation_xyz
x,y,z
-x,-y,-z
loop_
_atom_site_type_symbol
_atom_site_label
_atom_site_fract_x
_atom_site_fract_y
_atom_site_fract_z
Si Si1 0.234109 0.082106 0.956395
Si Si2 0.801042 0.649804 0.311529
Si Si3 0.759662 0.742695 0.662934
Si Si4 0.897139 0.959159 0.275433
Si Si5 0.724921 0.195063 0.143140
Si Si6 0.333753 0.258343 0.021782
Si Si7 0.451359 0.422154 0.296397
Si Si8 0.910862 0.524109 0.808979
O O1 0.331695 0.103949 0.992048
O O2 0.228727 0.273271 0.824241
O O3 0.069434 0.010603 0.141961
O O4 0.316159 0.954404 0.858776
O O5 0.884284 0.796660 0.266113
O O6 0.644673 0.584318 0.511121
O O7 0.914435 0.489842 0.283864
O O8 0.826176 0.907036 0.474362
O O9 0.668887 0.814135 0.813994
O O10 0.651649 0.616973 0.720766
O O11 0.893023 0.620042 0.658231
O O12 0.809389 0.118520 0.222099
O O13 0.573562 0.274283 0.272135
O O14 0.831358 0.334251 0.940619
O O15 0.180109 0.365051 0.072877
O O16 0.478626 0.384827 0.846449
#
# Coordination Sequence:
#
# PCOD8042188 Si02
#       8
#     2   2   2   2   2   2   2   2
#     4  11  20  36  59  84 124 140 184 245 282 332
#     4  10  19  35  62  87 109 144 198 233 278 323
#     4   9  21  37  60  81 118 145 197 226 279 332
#     4  10  19  34  59  89 110 146 187 241 277 327
#     4  10  19  37  63  85 107 151 195 228 284 329
#     4   9  22  37  56  85 116 152 184 227 294 331
#     4  10  21  38  62  80 114 151 195 234 269 340
#     4   9  18  38  59  88 103 148 203 222 274 335
#
# _framework density 20.158346000000002
#
# number of rings (size 3 to 8) (size 9 to 14) (size 15 to 20)
#    0.750    1.500    2.500    1.125    0.000    8.000 
#    0.000    0.625    5.500    0.000    0.000    0.000 
#    0.000    0.000    0.000    0.000    0.000    0.000 
#
# Total GULP energy -198308.712136 kJ/mol
# GULP energy per Si atom -12394.294509 kJ/mol
# Density = 2.011246 g / cm^3
# Si number density = 20.158346 Si / 1000 Ang^3
#
#
#
# Elastic Constant Matrix: (Units=GPa)
#
#
# Indices 1 2 3 4 5 6 
#
# 1 40.3411 6.0897 38.3908 -2.2301 7.4233 9.8366
# 2 6.0897 36.7306 19.2630 -0.2454 -0.0389 -2.7928
# 3 38.3908 19.2630 128.7601 -0.1081 5.0034 11.5562
# 4 -2.2301 -0.2454 -0.1081 21.6667 -12.6032 -0.1920
# 5 7.4233 -0.0389 5.0034 -12.6032 33.6285 3.4882
# 6 9.8366 -2.7928 11.5562 -0.1920 3.4882 31.8393
#
#
#
# Elastic Compliance Matrix: (Units=1/GPa)
#
#
# Indices 1 2 3 4 5 6 
#
# 1 0.037502 -0.001510 -0.010060 0.000292 -0.005904 -0.007418
# 2 -0.001510 0.030206 -0.004519 0.000676 0.000810 0.004672
# 3 -0.010060 -0.004519 0.011565 -0.000847 0.000336 -0.001528
# 4 0.000292 0.000676 -0.000847 0.059230 0.022450 -0.001826
# 5 -0.005904 0.000810 0.000336 0.022450 0.039657 -0.002436
# 6 -0.007418 0.004672 -0.001528 -0.001826 -0.002436 0.034920
#
#
# Mechanical properties :
#
#
# Convention : Reuss Voigt Hill
#
# Bulk Modulus (GPa) = 21.23360 37.03544 29.13452
# Shear Modulus (GPa) = 19.16028 26.89946 23.02987
#
# Velocity S-wave (km/s) = 3.08634 3.65692 3.38368
# Velocity P-wave (km/s) = 4.82255 6.02021 5.45435
#
# Compressibility (1/GPa) = 0.04709516
#
# Stress axis : x y z
#
# Youngs Moduli (GPa) = 26.66541 33.10592 86.46572
#
# Poissons Ratio (x) = 0.04999 0.86985
# Poissons Ratio (y) = 0.04027 0.39073
# Poissons Ratio (z) = 0.26826 0.14960
#
# Static dielectric constant tensor:
#      x y z
#    x 3.472500 -0.148170 0.053490 
#    y -0.148170 3.442050 0.010540 
#    z 0.053490 0.010540 3.722200 
# 
# 
# High freq. dielectric constant tensor:
#      x y z
#    x 1.771080 -0.007520 0.003050 
#    y -0.007520 1.761600 0.000730 
#    z 0.003050 0.000730 1.793970 
# 
# From -- ./inp_files/402196.got.cif
#   From: 2010.06.25/outbox.cif.g09.slc.cpg/sg2_202_cif.got.tgz:402196.got - 2010.06.27 13:26:56.
