data_PCOD8042120
_publ_section_title
;
Structure prediction by ZEFSAII (Michael W. Deem and Ramdas Pophale) SiO2 
 PCOD8042120
Probable space group: P -1
;
_chemical_formula_sum "Si O2"
_cell_formula_units_Z 16
_cell_length_a 9.739938
_cell_length_b 11.344551
_cell_length_c 11.888584
_cell_angle_alpha 79.800791
_cell_angle_beta 47.488253
_cell_angle_gamma 59.079631
_cell_volume 800.075366
_symmetry_space_group_name_H-M "P -1"
_symmetry_group_IT_number 2
_symmetry_cell_setting 'triclinic'
loop_
_space_group_symop_operation_xyz
x,y,z
-x,-y,-z
loop_
_atom_site_type_symbol
_atom_site_label
_atom_site_fract_x
_atom_site_fract_y
_atom_site_fract_z
Si Si1 0.763492 0.567184 0.942450
Si Si2 0.238038 0.460654 0.661831
Si Si3 0.034016 0.049090 0.352436
Si Si4 0.287062 0.256178 0.852684
Si Si5 0.858554 0.281360 0.019362
Si Si6 0.670066 0.179528 0.961593
Si Si7 0.696318 0.293785 0.345600
Si Si8 0.433892 0.037206 0.158023
O O1 0.994809 0.493874 0.754134
O O2 0.804815 0.657630 0.994795
O O3 0.728711 0.450498 0.039190
O O4 0.541137 0.665647 0.979784
O O5 0.335473 0.351724 0.731146
O O6 0.428177 0.374980 0.476981
O O7 0.224423 0.603768 0.676819
O O8 0.164694 0.129409 0.293433
O O9 0.808748 0.157664 0.391244
O O10 0.194355 0.911162 0.207819
O O11 0.000000 0.000000 0.500000
O O12 0.504222 0.100951 0.779108
O O13 0.115172 0.222814 0.900580
O O14 0.772803 0.244281 0.184484
O O15 0.835743 0.198841 0.942096
O O16 0.562055 0.112507 0.111637
O O17 0.500000 0.000000 0.000000
#
# Coordination Sequence:
#
# PCOD8042120 Si02
#       8
#     2   2   2   2   2   2   2   2
#     4  11  19  39  61  87 117 159 204 239 284 353
#     4  10  21  34  58  89 111 153 200 248 283 336
#     4  11  23  39  61  89 119 155 200 244 296 352
#     4  11  18  36  61  84 116 153 205 240 281 349
#     4  11  22  37  59  92 120 156 195 246 300 344
#     4  11  24  38  61  89 124 155 195 245 296 354
#     4  11  21  35  58  88 122 148 194 248 295 341
#     4  10  19  34  58  83 113 155 195 235 285 349
#
# _framework density 19.998116
#
# number of rings (size 3 to 8) (size 9 to 14) (size 15 to 20)
#    0.000    1.250    5.000    4.125    0.000    2.000 
#    0.000    3.125    0.000    5.250    0.000    0.000 
#    0.000    0.000    0.000    0.000    0.000    0.000 
#
# Total GULP energy -198225.830170 kJ/mol
# GULP energy per Si atom -12389.114386 kJ/mol
# Density = 1.995260 g / cm^3
# Si number density = 19.998116 Si / 1000 Ang^3
#
#
#
# Elastic Constant Matrix: (Units=GPa)
#
#
# Indices 1 2 3 4 5 6 
#
# 1 99.8208 23.6887 32.2282 1.6138 -2.9168 9.9336
# 2 23.6887 87.7947 17.0765 -9.7842 9.2207 -17.8220
# 3 32.2282 17.0765 94.9151 -6.7768 -2.2026 -3.7279
# 4 1.6138 -9.7842 -6.7768 27.0191 -4.8839 -2.0056
# 5 -2.9168 9.2207 -2.2026 -4.8839 20.1178 -4.9443
# 6 9.9336 -17.8220 -3.7279 -2.0056 -4.9443 25.6908
#
#
#
# Elastic Compliance Matrix: (Units=1/GPa)
#
#
# Indices 1 2 3 4 5 6 
#
# 1 0.013833 -0.005471 -0.004425 -0.004584 0.000444 -0.010058
# 2 -0.005471 0.016787 -0.000233 0.006713 -0.003548 0.013568
# 3 -0.004425 -0.000233 0.012614 0.004187 0.002911 0.004267
# 4 -0.004584 0.006713 0.004187 0.043558 0.010346 0.012428
# 5 0.000444 -0.003548 0.002911 0.010346 0.056559 0.009482
# 6 -0.010058 0.013568 0.004267 0.012428 0.009482 0.055640
#
#
# Mechanical properties :
#
#
# Convention : Reuss Voigt Hill
#
# Bulk Modulus (GPa) = 43.52168 47.61305 45.56736
# Shear Modulus (GPa) = 22.03557 28.53468 25.28513
#
# Velocity S-wave (km/s) = 3.32306 3.78149 3.55966
# Velocity P-wave (km/s) = 6.04432 6.55184 6.30319
#
# Compressibility (1/GPa) = 0.02297706
#
# Stress axis : x y z
#
# Youngs Moduli (GPa) = 72.29173 59.57113 79.27681
#
# Poissons Ratio (x) = 0.32591 0.35077
# Poissons Ratio (y) = 0.39551 0.01844
# Poissons Ratio (z) = 0.31986 0.01386
#
# Static dielectric constant tensor:
#      x y z
#    x 3.577690 -0.047260 -0.319010 
#    y -0.047260 4.450880 -0.324730 
#    z -0.319010 -0.324730 3.699500 
# 
# 
# High freq. dielectric constant tensor:
#      x y z
#    x 1.758800 -0.016750 -0.026910 
#    y -0.016750 1.789400 -0.013250 
#    z -0.026910 -0.013250 1.766590 
# 
# From -- ./inp_files/177857.got.cif
#   From: 2010.06.25/outbox.cif.g09.slc.cpg/sg2_89_cif.got.tgz:177857.got - 2010.06.27 13:26:56.
