data_PCOD8042725
_publ_section_title
;
Structure prediction by ZEFSAII (Michael W. Deem and Ramdas Pophale) SiO2 
 PCOD8042725
Probable space group: P -1
;
_chemical_formula_sum "Si O2"
_cell_formula_units_Z 16
_cell_length_a 18.451905
_cell_length_b 12.318766
_cell_length_c 12.611952
_cell_angle_alpha 48.034545
_cell_angle_beta 141.071805
_cell_angle_gamma 154.312016
_cell_volume 775.283201
_symmetry_space_group_name_H-M "P -1"
_symmetry_group_IT_number 2
_symmetry_cell_setting 'triclinic'
loop_
_space_group_symop_operation_xyz
x,y,z
-x,-y,-z
loop_
_atom_site_type_symbol
_atom_site_label
_atom_site_fract_x
_atom_site_fract_y
_atom_site_fract_z
Si Si1 0.901479 0.042730 0.904548
Si Si2 0.057306 0.779192 0.377876
Si Si3 0.721337 0.196859 0.880956
Si Si4 0.700902 0.288037 0.577244
Si Si5 0.286869 0.776911 0.741584
Si Si6 0.324104 0.162366 0.012316
Si Si7 0.249673 0.391033 0.725044
Si Si8 0.080891 0.501651 0.885163
O O1 0.831145 0.051201 0.711908
O O2 0.062460 0.307680 0.978725
O O3 0.722501 0.834722 0.920374
O O4 0.000000 0.000000 0.000000
O O5 0.866737 0.483135 0.326837
O O6 0.959035 0.803167 0.323771
O O7 0.233681 0.886073 0.574699
O O8 0.704069 0.299119 0.701454
O O9 0.511206 0.965488 0.849975
O O10 0.783078 0.101600 0.965243
O O11 0.889514 0.419417 0.010918
O O12 0.729276 0.479977 0.436919
O O13 0.885116 0.376566 0.692886
O O14 0.500000 0.000000 0.500000
O O15 0.266384 0.743525 0.866954
O O16 0.561350 0.382931 0.130832
O O17 0.256402 0.223217 0.815303
#
# Coordination Sequence:
#
# PCOD8042725 Si02
#       8
#     2   2   2   2   2   2   2   2
#     4  11  22  37  61  90 121 164 208 256 310 371
#     4  10  19  35  60  91 116 154 213 262 295 357
#     4  12  24  40  64  95 130 164 205 262 320 369
#     4  12  22  39  64  94 123 163 216 256 302 368
#     4  10  21  36  62  89 122 158 209 258 307 360
#     4  11  23  37  61  93 130 157 206 258 320 365
#     4  11  21  38  59  95 121 162 209 262 305 363
#     4  11  24  40  64  93 125 164 211 258 314 377
#
# _framework density 20.637620999999999
#
# number of rings (size 3 to 8) (size 9 to 14) (size 15 to 20)
#    0.000    1.000    6.250    0.750    5.250    0.000 
#    0.000    0.625    2.750    0.750    0.000    0.000 
#    0.000    0.000    0.000    0.000    0.000    0.000 
#
# Total GULP energy -198297.361303 kJ/mol
# GULP energy per Si atom -12393.585081 kJ/mol
# Density = 2.059065 g / cm^3
# Si number density = 20.637621 Si / 1000 Ang^3
#
#
#
# Elastic Constant Matrix: (Units=GPa)
#
#
# Indices 1 2 3 4 5 6 
#
# 1 112.3733 29.0559 43.8775 -10.4887 -0.8006 -1.0790
# 2 29.0559 62.5779 44.2853 -16.0436 0.4488 -2.6237
# 3 43.8775 44.2853 113.0487 -21.8334 -0.1247 -12.7338
# 4 -10.4887 -16.0436 -21.8334 33.6046 4.6353 -0.9016
# 5 -0.8006 0.4488 -0.1247 4.6353 36.3461 -4.0631
# 6 -1.0790 -2.6237 -12.7338 -0.9016 -4.0631 36.9659
#
#
#
# Elastic Compliance Matrix: (Units=1/GPa)
#
#
# Indices 1 2 3 4 5 6 
#
# 1 0.010879 -0.002823 -0.003249 -0.000113 0.000167 -0.000986
# 2 -0.002823 0.023902 -0.007208 0.005995 -0.001243 -0.000859
# 3 -0.003249 -0.007208 0.014406 0.005035 -0.000076 0.004471
# 4 -0.000113 0.005995 0.005035 0.036536 -0.004433 0.002561
# 5 0.000167 -0.001243 -0.000076 -0.004433 0.028422 0.002907
# 6 -0.000986 -0.000859 0.004471 0.002561 0.002907 0.028884
#
#
# Mechanical properties :
#
#
# Convention : Reuss Voigt Hill
#
# Bulk Modulus (GPa) = 44.19574 58.04858 51.12216
# Shear Modulus (GPa) = 28.22758 32.76873 30.49816
#
# Velocity S-wave (km/s) = 3.70235 3.98906 3.84838
# Velocity P-wave (km/s) = 6.30382 7.02890 6.67621
#
# Compressibility (1/GPa) = 0.02262661
#
# Stress axis : x y z
#
# Youngs Moduli (GPa) = 91.92220 41.83806 69.41448
#
# Poissons Ratio (x) = 0.11812 0.22553
# Poissons Ratio (y) = 0.25953 0.50031
# Poissons Ratio (z) = 0.29866 0.30155
#
# Static dielectric constant tensor:
#      x y z
#    x 3.867190 0.214240 0.046950 
#    y 0.214240 3.636110 -0.339390 
#    z 0.046950 -0.339390 3.826260 
# 
# 
# High freq. dielectric constant tensor:
#      x y z
#    x 1.814840 0.031120 0.008550 
#    y 0.031120 1.785120 -0.024480 
#    z 0.008550 -0.024480 1.799110 
# 
# From -- ./inp_files/284747.got.cif
#   From: 2010.06.25/outbox.cif.g09.slc.cpg/sg2_143_cif.got.tgz:284747.got - 2010.06.27 13:26:56.
