data_PCOD8042194
_publ_section_title
;
Structure prediction by ZEFSAII (Michael W. Deem and Ramdas Pophale) SiO2 
 PCOD8042194
Probable space group: P -1
;
_chemical_formula_sum "Si O2"
_cell_formula_units_Z 16
_cell_length_a 9.034136
_cell_length_b 20.797838
_cell_length_c 21.956305
_cell_angle_alpha 160.089395
_cell_angle_beta 34.804083
_cell_angle_gamma 134.317739
_cell_volume 742.533024
_symmetry_space_group_name_H-M "P -1"
_symmetry_group_IT_number 2
_symmetry_cell_setting 'triclinic'
loop_
_space_group_symop_operation_xyz
x,y,z
-x,-y,-z
loop_
_atom_site_type_symbol
_atom_site_label
_atom_site_fract_x
_atom_site_fract_y
_atom_site_fract_z
Si Si1 0.675515 0.432694 0.690904
Si Si2 0.827964 0.646796 0.636735
Si Si3 0.554077 0.584948 0.450053
Si Si4 0.143770 0.954833 0.976247
Si Si5 0.233788 0.845225 0.224309
Si Si6 0.247471 0.796207 0.310946
Si Si7 0.822013 0.503345 0.837263
Si Si8 0.427542 0.865885 0.623141
O O1 0.715762 0.424751 0.742838
O O2 0.552257 0.264785 0.561677
O O3 0.973730 0.395966 0.527261
O O4 0.446023 0.654846 0.945528
O O5 0.551554 0.600881 0.677114
O O6 0.727305 0.879693 0.900171
O O7 0.000000 0.500000 0.500000
O O8 0.485607 0.707704 0.518968
O O9 0.883479 0.477107 0.255685
O O10 0.401618 0.737614 0.693322
O O11 0.891758 0.965219 0.116010
O O12 0.000000 0.000000 0.000000
O O13 0.166206 0.768614 0.243926
O O14 0.365544 0.016534 0.343764
O O15 0.935499 0.965409 0.397201
O O16 0.140206 0.657178 0.265131
O O17 0.586928 0.723093 0.133469
#
# Coordination Sequence:
#
# PCOD8042194 Si02
#       8
#     2   2   2   2   2   2   2   2
#     4  10  22  37  60  89 121 151 190 240 289 347
#     4  11  19  33  55  91 122 148 197 236 267 345
#     4  11  20  34  60  83 118 162 187 230 293 343
#     4   9  18  31  54  87 116 149 186 232 275 336
#     4  10  19  37  67  87 105 154 204 240 285 349
#     4   9  20  39  63  82 113 152 199 248 293 346
#     4  10  21  40  59  84 121 156 185 245 313 336
#     4  10  19  34  59  91 115 147 196 241 278 347
#
# _framework density 21.547861999999999
#
# number of rings (size 3 to 8) (size 9 to 14) (size 15 to 20)
#    0.000    2.000    5.000    0.750    1.750    0.500 
#    0.000   11.250    0.000    0.000    0.000    0.000 
#    0.000    0.000    0.000    0.000    0.000    0.000 
#
# Total GULP energy -198243.721222 kJ/mol
# GULP energy per Si atom -12390.232576 kJ/mol
# Density = 2.149882 g / cm^3
# Si number density = 21.547862 Si / 1000 Ang^3
#
#
#
# Elastic Constant Matrix: (Units=GPa)
#
#
# Indices 1 2 3 4 5 6 
#
# 1 62.2431 29.5271 67.4881 -2.7442 -5.6829 10.0168
# 2 29.5271 69.8566 54.8000 -6.7191 6.8110 4.7307
# 3 67.4881 54.8000 142.6556 -9.3387 -7.6955 31.4660
# 4 -2.7442 -6.7191 -9.3387 20.9778 7.4780 -7.0462
# 5 -5.6829 6.8110 -7.6955 7.4780 40.8525 -0.5290
# 6 10.0168 4.7307 31.4660 -7.0462 -0.5290 31.0994
#
#
#
# Elastic Compliance Matrix: (Units=1/GPa)
#
#
# Indices 1 2 3 4 5 6 
#
# 1 0.034491 -0.002420 -0.016642 -0.002761 0.002643 0.005517
# 2 -0.002420 0.024141 -0.009967 0.008772 -0.007728 0.009048
# 3 -0.016642 -0.009967 0.022333 -0.002188 0.003745 -0.016152
# 4 -0.002761 0.008772 -0.002188 0.058699 -0.012811 0.014850
# 5 0.002643 -0.007728 0.003745 -0.012811 0.029109 -0.005872
# 6 0.005517 0.009048 -0.016152 0.014850 -0.005872 0.048609
#
#
# Mechanical properties :
#
#
# Convention : Reuss Voigt Hill
#
# Bulk Modulus (GPa) = 43.65621 64.26508 53.96064
# Shear Modulus (GPa) = 17.66307 26.78196 22.22251
#
# Velocity S-wave (km/s) = 2.86617 3.52931 3.21488
# Velocity P-wave (km/s) = 5.59083 6.81888 6.23516
#
# Compressibility (1/GPa) = 0.02290625
#
# Stress axis : x y z
#
# Youngs Moduli (GPa) = 28.99340 41.42277 44.77579
#
# Poissons Ratio (x) = 0.10025 0.74518
# Poissons Ratio (y) = 0.07017 0.44629
# Poissons Ratio (z) = 0.48252 0.41287
#
# Static dielectric constant tensor:
#      x y z
#    x 3.715530 0.070060 -0.168040 
#    y 0.070060 3.894720 -0.300170 
#    z -0.168040 -0.300170 4.524900 
# 
# 
# High freq. dielectric constant tensor:
#      x y z
#    x 1.815260 -0.000720 -0.013240 
#    y -0.000720 1.841130 -0.020660 
#    z -0.013240 -0.020660 1.855130 
# 
# From -- ./inp_files/591686.got.cif
#   From: 2010.06.25/outbox.cif.g09.slc.cpg/sg2_296_cif.got.tgz:591686.got - 2010.06.27 13:26:56.
