data_PCOD8042627
_publ_section_title
;
Structure prediction by ZEFSAII (Michael W. Deem and Ramdas Pophale) SiO2 
 PCOD8042627
Probable space group: P -1
;
_chemical_formula_sum "Si O2"
_cell_formula_units_Z 14
_cell_length_a 13.235412
_cell_length_b 10.321499
_cell_length_c 16.813630
_cell_angle_alpha 131.249496
_cell_angle_beta 23.306011
_cell_angle_gamma 133.645065
_cell_volume 654.990673
_symmetry_space_group_name_H-M "P -1"
_symmetry_group_IT_number 2
_symmetry_cell_setting 'triclinic'
loop_
_space_group_symop_operation_xyz
x,y,z
-x,-y,-z
loop_
_atom_site_type_symbol
_atom_site_label
_atom_site_fract_x
_atom_site_fract_y
_atom_site_fract_z
Si Si1 0.175546 0.134414 0.277580
Si Si2 0.117481 0.436835 0.549663
Si Si3 0.756912 0.213120 0.845618
Si Si4 0.916694 0.559750 0.168156
Si Si5 0.242974 0.997935 0.766861
Si Si6 0.188559 0.802144 0.570463
Si Si7 0.436774 0.675999 0.549368
O O1 0.241721 0.309226 0.355979
O O2 0.930458 0.142814 0.401887
O O3 0.112544 0.951659 0.301557
O O4 0.438262 0.141209 0.038965
O O5 0.048415 0.593404 0.610169
O O6 0.328243 0.523660 0.500154
O O7 0.852272 0.313064 0.733953
O O8 0.831905 0.353418 0.922019
O O9 0.753830 0.707401 0.337224
O O10 0.713109 0.384321 0.283496
O O11 0.000000 0.500000 0.000000
O O12 0.133755 0.934921 0.732462
O O13 0.396644 0.863174 0.633262
O O14 0.490520 0.180632 0.661183
O O15 0.000000 0.000000 0.000000
#
# Coordination Sequence:
#
# PCOD8042627 Si02
#       7
#     2   2   2   2   2   2   2
#     4  11  22  39  59  84 117 154 195 239 285 340
#     4  10  21  39  58  82 117 154 190 241 288 335
#     4  10  23  37  57  87 117 153 196 234 285 352
#     4  10  19  35  59  85 117 152 187 239 291 337
#     4  10  22  40  60  85 118 151 187 244 298 343
#     4  10  23  39  61  88 113 149 200 238 285 357
#     4   9  20  35  56  87 114 147 196 234 286 354
#
# _framework density 21.374351999999998
#
# number of rings (size 3 to 8) (size 9 to 14) (size 15 to 20)
#    0.000    2.000    0.000    2.571    0.000    9.714 
#    0.000    4.286    0.000    0.000    0.000    0.000 
#    0.000    0.000    0.000    0.000    0.000    0.000 
#
# Total GULP energy -173553.189436 kJ/mol
# GULP energy per Si atom -12396.656388 kJ/mol
# Density = 2.132570 g / cm^3
# Si number density = 21.374352 Si / 1000 Ang^3
#
#
#
# Elastic Constant Matrix: (Units=GPa)
#
#
# Indices 1 2 3 4 5 6 
#
# 1 73.8330 26.3853 35.1113 3.2051 7.3238 -12.4032
# 2 26.3853 95.9319 31.3223 0.7790 5.0981 -18.5017
# 3 35.1113 31.3223 89.2577 -13.3871 17.5342 3.3499
# 4 3.2051 0.7790 -13.3871 26.0595 4.7844 2.6674
# 5 7.3238 5.0981 17.5342 4.7844 27.5804 -1.2848
# 6 -12.4032 -18.5017 3.3499 2.6674 -1.2848 28.7453
#
#
#
# Elastic Compliance Matrix: (Units=1/GPa)
#
#
# Indices 1 2 3 4 5 6 
#
# 1 0.020583 -0.000171 -0.010605 -0.009753 0.003516 0.011069
# 2 -0.000171 0.014741 -0.007024 -0.005749 0.003292 0.010913
# 3 -0.010605 -0.007024 0.024020 0.018056 -0.014952 -0.014240
# 4 -0.009753 -0.005749 0.018056 0.053930 -0.017919 -0.015818
# 5 0.003516 0.003292 -0.014952 -0.017919 0.047757 0.009176
# 6 0.011069 0.010913 -0.014240 -0.015818 0.009176 0.050126
#
#
# Mechanical properties :
#
#
# Convention : Reuss Voigt Hill
#
# Bulk Modulus (GPa) = 42.11902 49.40671 45.76287
# Shear Modulus (GPa) = 19.63305 27.55729 23.59517
#
# Velocity S-wave (km/s) = 3.03402 3.59453 3.32610
# Velocity P-wave (km/s) = 5.65879 6.35553 6.01725
#
# Compressibility (1/GPa) = 0.02374224
#
# Stress axis : x y z
#
# Youngs Moduli (GPa) = 48.58427 67.83749 41.63183
#
# Poissons Ratio (x) = 0.01162 0.44152
# Poissons Ratio (y) = 0.00832 0.29243
# Poissons Ratio (z) = 0.51526 0.47650
#
# Static dielectric constant tensor:
#      x y z
#    x 3.889940 -0.148710 0.162330 
#    y -0.148710 4.090800 -0.068430 
#    z 0.162330 -0.068430 3.822370 
# 
# 
# High freq. dielectric constant tensor:
#      x y z
#    x 1.837660 -0.009850 0.005250 
#    y -0.009850 1.845150 -0.007840 
#    z 0.005250 -0.007840 1.825050 
# 
# From -- ./inp_files/368757.got.cif
#   From: 2010.06.25/outbox.cif.g09.slc.cpg/sg2_185_cif.got.tgz:368757.got - 2010.06.27 13:26:56.
