data_PCOD8042706
_publ_section_title
;
Structure prediction by ZEFSAII (Michael W. Deem and Ramdas Pophale) SiO2 
 PCOD8042706
Probable space group: P -1
;
_chemical_formula_sum "Si O2"
_cell_formula_units_Z 16
_cell_length_a 15.702080
_cell_length_b 8.809927
_cell_length_c 18.673159
_cell_angle_alpha 99.833742
_cell_angle_beta 150.080826
_cell_angle_gamma 60.452791
_cell_volume 903.803842
_symmetry_space_group_name_H-M "P -1"
_symmetry_group_IT_number 2
_symmetry_cell_setting 'triclinic'
loop_
_space_group_symop_operation_xyz
x,y,z
-x,-y,-z
loop_
_atom_site_type_symbol
_atom_site_label
_atom_site_fract_x
_atom_site_fract_y
_atom_site_fract_z
Si Si1 0.281038 0.686539 0.805970
Si Si2 0.520345 0.505140 0.218055
Si Si3 0.540705 0.289945 0.341495
Si Si4 0.169798 0.142266 0.428233
Si Si5 0.966880 0.051211 0.155745
Si Si6 0.246327 0.449676 0.486100
Si Si7 0.054759 0.106180 0.736344
Si Si8 0.612779 0.372670 0.645492
O O1 0.330188 0.619178 0.754386
O O2 0.047782 0.739069 0.664682
O O3 0.235698 0.899855 0.798962
O O4 0.500000 0.500000 0.000000
O O5 0.496184 0.356757 0.230846
O O6 0.663427 0.539582 0.371734
O O7 0.256605 0.733431 0.029575
O O8 0.340119 0.504974 0.260706
O O9 0.787380 0.211568 0.540329
O O10 0.582011 0.083304 0.373164
O O11 0.213490 0.290352 0.455433
O O12 0.107138 0.095371 0.304891
O O13 0.872402 0.976747 0.135049
O O14 0.135305 0.870989 0.203546
O O15 0.438261 0.361387 0.556458
O O16 0.980558 0.690605 0.291755
O O17 0.500000 0.500000 0.500000
#
# Coordination Sequence:
#
# PCOD8042706 Si02
#       8
#     2   2   2   2   2   2   2   2
#     4  10  17  33  60  75  98 139 181 210 251 309
#     4  10  19  34  55  78 100 137 177 218 249 308
#     4   8  18  31  51  75 104 132 178 209 249 310
#     4  10  20  35  51  80 107 135 172 218 257 315
#     4  10  17  32  59  76  99 137 185 208 245 312
#     4  10  22  33  50  83 112 127 171 222 267 298
#     4   8  16  31  51  76  97 134 173 207 241 320
#     4  10  15  33  58  77  98 145 178 209 247 315
#
# _framework density 17.702956
#
# number of rings (size 3 to 8) (size 9 to 14) (size 15 to 20)
#    0.000    3.000    6.250    0.000    0.000    7.500 
#    0.000    1.875    0.000    1.500    0.000    0.000 
#    0.000    0.000    0.000    0.000    0.000    0.000 
#
# Total GULP energy -198211.904519 kJ/mol
# GULP energy per Si atom -12388.244032 kJ/mol
# Density = 1.766266 g / cm^3
# Si number density = 17.702956 Si / 1000 Ang^3
#
#
#
# Elastic Constant Matrix: (Units=GPa)
#
#
# Indices 1 2 3 4 5 6 
#
# 1 117.1573 73.5113 40.3424 -15.6810 -12.4203 -13.5810
# 2 73.5113 125.5608 47.4954 -33.6818 -5.7120 5.4205
# 3 40.3424 47.4954 80.4834 -26.7843 -15.9961 3.6204
# 4 -15.6810 -33.6818 -26.7843 30.5483 -3.6543 -5.7029
# 5 -12.4203 -5.7120 -15.9961 -3.6543 29.2275 -11.5807
# 6 -13.5810 5.4205 3.6204 -5.7029 -11.5807 39.8831
#
#
#
# Elastic Compliance Matrix: (Units=1/GPa)
#
#
# Indices 1 2 3 4 5 6 
#
# 1 0.016980 -0.009415 -0.002073 -0.000780 0.007879 0.009426
# 2 -0.009415 0.017423 -0.001805 0.011788 -0.001792 -0.004245
# 3 -0.002073 -0.001805 0.025079 0.022040 0.017415 0.005471
# 4 -0.000780 0.011788 0.022040 0.070807 0.028664 0.014580
# 5 0.007879 -0.001792 0.017415 0.028664 0.059308 0.022665
# 6 0.009426 -0.004245 0.005471 0.014580 0.022665 0.037029
#
#
# Mechanical properties :
#
#
# Convention : Reuss Voigt Hill
#
# Bulk Modulus (GPa) = 30.39785 71.76663 51.08224
# Shear Modulus (GPa) = 18.92667 30.72194 24.82430
#
# Velocity S-wave (km/s) = 3.27329 4.17035 3.74875
# Velocity P-wave (km/s) = 5.61198 7.98852 6.90329
#
# Compressibility (1/GPa) = 0.03289707
#
# Stress axis : x y z
#
# Youngs Moduli (GPa) = 58.89121 57.39557 39.87440
#
# Poissons Ratio (x) = 0.54038 0.08266
# Poissons Ratio (y) = 0.55446 0.07195
# Poissons Ratio (z) = 0.12209 0.10357
#
# Static dielectric constant tensor:
#      x y z
#    x 3.416640 -0.050090 -0.324170 
#    y -0.050090 3.690840 -0.746270 
#    z -0.324170 -0.746270 3.463220 
# 
# 
# High freq. dielectric constant tensor:
#      x y z
#    x 1.677550 -0.019890 -0.025090 
#    y -0.019890 1.673680 -0.042850 
#    z -0.025090 -0.042850 1.672640 
# 
# From -- ./inp_files/572369.got.cif
#   From: 2010.06.25/outbox.cif.g09.slc.cpg/sg2_287_cif.got.tgz:572369.got - 2010.06.27 13:26:56.
