data_PCOD8042381
_publ_section_title
;
Structure prediction by ZEFSAII (Michael W. Deem and Ramdas Pophale) SiO2 
 PCOD8042381
Probable space group: P -1
;
_chemical_formula_sum "Si O2"
_cell_formula_units_Z 16
_cell_length_a 10.478756
_cell_length_b 23.097228
_cell_length_c 8.546783
_cell_angle_alpha 39.978099
_cell_angle_beta 47.984720
_cell_angle_gamma 41.114087
_cell_volume 852.957033
_symmetry_space_group_name_H-M "P -1"
_symmetry_group_IT_number 2
_symmetry_cell_setting 'triclinic'
loop_
_space_group_symop_operation_xyz
x,y,z
-x,-y,-z
loop_
_atom_site_type_symbol
_atom_site_label
_atom_site_fract_x
_atom_site_fract_y
_atom_site_fract_z
Si Si1 0.814712 0.494736 0.001499
Si Si2 0.576729 0.378570 0.384655
Si Si3 0.610044 0.206774 0.909387
Si Si4 0.536378 0.698075 0.646492
Si Si5 0.806273 0.128285 0.228285
Si Si6 0.205360 0.045529 0.219848
Si Si7 0.252569 0.416226 0.797680
Si Si8 0.522042 0.871594 0.096878
O O1 0.697737 0.438067 0.160895
O O2 0.792977 0.504188 0.187286
O O3 0.727108 0.609763 0.763009
O O4 0.042602 0.427787 0.895026
O O5 0.696220 0.265906 0.608584
O O6 0.554578 0.359328 0.261224
O O7 0.358194 0.445223 0.510130
O O8 0.401528 0.295346 0.974856
O O9 0.562780 0.131326 0.998569
O O10 0.773919 0.139964 0.043832
O O11 0.378921 0.774662 0.741425
O O12 0.601549 0.760839 0.346733
O O13 0.004917 0.127246 0.123610
O O14 0.833070 0.016933 0.483495
O O15 0.348600 0.966045 0.137452
O O16 0.292376 0.109690 0.103494
#
# Coordination Sequence:
#
# PCOD8042381 Si02
#       8
#     2   2   2   2   2   2   2   2
#     4  11  19  36  55  77 111 148 183 220 268 315
#     4   9  20  36  52  78 112 146 178 228 265 311
#     4   9  19  37  54  78 111 145 176 229 266 327
#     4  10  19  35  54  76 108 144 179 225 263 323
#     4  10  19  36  57  79 108 138 184 218 278 328
#     4   9  20  36  56  80 104 140 175 229 275 330
#     4   9  21  35  52  79 110 145 178 230 263 317
#     4   9  19  38  54  76 112 137 179 226 277 318
#
# _framework density 18.758272000000002
#
# number of rings (size 3 to 8) (size 9 to 14) (size 15 to 20)
#    0.750    1.750    1.250    0.750    0.000    2.500 
#    6.750    0.000    0.000    0.000    0.000    0.000 
#    0.000    0.000    0.000    0.000    0.000    0.000 
#
# Total GULP energy -198312.246798 kJ/mol
# GULP energy per Si atom -12394.515425 kJ/mol
# Density = 1.871558 g / cm^3
# Si number density = 18.758272 Si / 1000 Ang^3
#
#
#
# Elastic Constant Matrix: (Units=GPa)
#
#
# Indices 1 2 3 4 5 6 
#
# 1 86.7763 14.2528 41.3876 -8.7461 1.4999 -2.9044
# 2 14.2528 17.4856 8.9703 -13.1016 1.0129 -5.6632
# 3 41.3876 8.9703 55.3098 -5.9560 1.4659 -9.4856
# 4 -8.7461 -13.1016 -5.9560 19.5529 -0.2784 2.3357
# 5 1.4999 1.0129 1.4659 -0.2784 37.1072 -2.3821
# 6 -2.9044 -5.6632 -9.4856 2.3357 -2.3821 34.5313
#
#
#
# Elastic Compliance Matrix: (Units=1/GPa)
#
#
# Indices 1 2 3 4 5 6 
#
# 1 0.019704 -0.013026 -0.013704 -0.003612 -0.000184 -0.004012
# 2 -0.013026 0.135053 -0.000611 0.082644 -0.001541 0.015189
# 3 -0.013704 -0.000611 0.029790 0.001720 -0.000157 0.006803
# 4 -0.003612 0.082644 0.001720 0.104629 -0.000971 0.006578
# 5 -0.000184 -0.001541 -0.000157 -0.000971 0.027102 0.001624
# 6 -0.004012 0.015189 0.006803 0.006578 0.001624 0.032649
#
#
# Mechanical properties :
#
#
# Convention : Reuss Voigt Hill
#
# Bulk Modulus (GPa) = 7.70029 32.08811 19.89420
# Shear Modulus (GPa) = 11.18829 24.56901 17.87865
#
# Velocity S-wave (km/s) = 2.44487 3.62300 3.09059
# Velocity P-wave (km/s) = 3.47618 5.88598 4.83366
#
# Compressibility (1/GPa) = 0.12986524
#
# Stress axis : x y z
#
# Youngs Moduli (GPa) = 50.75044 7.40450 33.56874
#
# Poissons Ratio (x) = 0.09645 0.46002
# Poissons Ratio (y) = 0.66108 0.02050
# Poissons Ratio (z) = 0.69548 0.00452
#
# Static dielectric constant tensor:
#      x y z
#    x 3.473090 0.030480 0.011160 
#    y 0.030480 3.309840 -0.028760 
#    z 0.011160 -0.028760 3.288540 
# 
# 
# High freq. dielectric constant tensor:
#      x y z
#    x 1.732520 0.007530 0.003320 
#    y 0.007530 1.718660 -0.001800 
#    z 0.003320 -0.001800 1.710420 
# 
# From -- ./inp_files/225216.got.cif
#   From: 2010.06.25/outbox.cif.g09.slc.cpg/sg2_113_cif.got.tgz:225216.got - 2010.06.27 13:26:56.
