data_PCOD8042948
_publ_section_title
;
Structure prediction by ZEFSAII (Michael W. Deem and Ramdas Pophale) SiO2 
 PCOD8042948
Probable space group: P -1
;
_chemical_formula_sum "Si O2"
_cell_formula_units_Z 14
_cell_length_a 10.523122
_cell_length_b 7.253648
_cell_length_c 11.960681
_cell_angle_alpha 93.214747
_cell_angle_beta 93.633372
_cell_angle_gamma 43.865092
_cell_volume 631.311964
_symmetry_space_group_name_H-M "P -1"
_symmetry_group_IT_number 2
_symmetry_cell_setting 'triclinic'
loop_
_space_group_symop_operation_xyz
x,y,z
-x,-y,-z
loop_
_atom_site_type_symbol
_atom_site_label
_atom_site_fract_x
_atom_site_fract_y
_atom_site_fract_z
Si Si1 0.147381 0.113598 0.045569
Si Si2 0.453650 0.895474 0.906116
Si Si3 0.152371 0.538390 0.124537
Si Si4 0.897486 0.441890 0.434411
Si Si5 0.244123 0.562045 0.360163
Si Si6 0.220665 0.973095 0.284417
Si Si7 0.531045 0.960968 0.317842
O O1 0.138222 0.333531 0.097611
O O2 0.177846 0.958928 0.152414
O O3 0.966901 0.239877 0.971221
O O4 0.304555 0.917058 0.953920
O O5 0.641987 0.592586 0.879052
O O6 0.379554 0.075372 0.797206
O O7 0.500000 0.000000 0.000000
O O8 0.106427 0.630181 0.255456
O O9 0.865364 0.323019 0.525021
O O10 0.697850 0.717543 0.392870
O O11 0.000000 0.500000 0.500000
O O12 0.024336 0.232803 0.335450
O O13 0.302567 0.711042 0.343572
O O14 0.428837 0.246218 0.373600
O O15 0.374229 0.969921 0.296385
#
# Coordination Sequence:
#
# PCOD8042948 Si02
#       7
#     2   2   2   2   2   2   2
#     4  10  19  35  66  94 128 174 206 264 323 380
#     4   9  17  33  63  91 120 163 216 249 314 386
#     4   9  19  36  62  91 129 169 213 261 315 381
#     4  12  26  45  73  93 129 175 222 268 331 384
#     4  11  24  47  64  99 134 169 222 271 320 390
#     4  12  25  43  68  99 134 170 217 270 329 385
#     4  11  24  45  67  96 128 177 213 272 327 384
#
# _framework density 22.17604
#
# number of rings (size 3 to 8) (size 9 to 14) (size 15 to 20)
#    0.000    1.429    5.714    0.857    8.000    1.143 
#    2.571    2.857    0.000    0.000    0.000    0.000 
#    0.000    0.000    0.000    0.000    0.000    0.000 
#
# Total GULP energy -173493.566755 kJ/mol
# GULP energy per Si atom -12392.397625 kJ/mol
# Density = 2.212557 g / cm^3
# Si number density = 22.176040 Si / 1000 Ang^3
#
#
#
# Elastic Constant Matrix: (Units=GPa)
#
#
# Indices 1 2 3 4 5 6 
#
# 1 54.9302 47.6964 48.6185 -10.6302 -18.5439 -11.3288
# 2 47.6964 101.0731 51.8429 -20.8227 -4.1479 -12.3511
# 3 48.6185 51.8429 162.0100 -14.7920 -31.1725 -20.2524
# 4 -10.6302 -20.8227 -14.7920 34.8066 -4.0191 5.7816
# 5 -18.5439 -4.1479 -31.1725 -4.0191 39.9532 -6.4074
# 6 -11.3288 -12.3511 -20.2524 5.7816 -6.4074 26.8046
#
#
#
# Elastic Compliance Matrix: (Units=1/GPa)
#
#
# Indices 1 2 3 4 5 6 
#
# 1 0.045056 -0.017066 -0.002320 0.002590 0.019771 0.013594
# 2 -0.017066 0.019613 -0.002611 0.005016 -0.007918 -0.003123
# 3 -0.002320 -0.002611 0.010307 0.001853 0.008023 0.007122
# 4 0.002590 0.005016 0.001853 0.034226 0.006446 -0.001035
# 5 0.019771 -0.007918 0.008023 0.006446 0.043462 0.019768
# 6 0.013594 -0.003123 0.007122 -0.001035 0.019768 0.051944
#
#
# Mechanical properties :
#
#
# Convention : Reuss Voigt Hill
#
# Bulk Modulus (GPa) = 32.27534 68.25875 50.26704
# Shear Modulus (GPa) = 19.31026 31.63657 25.47341
#
# Velocity S-wave (km/s) = 2.95408 3.78115 3.39291
# Velocity P-wave (km/s) = 5.12067 7.06470 6.16973
#
# Compressibility (1/GPa) = 0.03098341
#
# Stress axis : x y z
#
# Youngs Moduli (GPa) = 22.19445 50.98601 97.01825
#
# Poissons Ratio (x) = 0.87012 0.22510
# Poissons Ratio (y) = 0.37877 0.25327
# Poissons Ratio (z) = 0.05150 0.13310
#
# Static dielectric constant tensor:
#      x y z
#    x 4.139500 -0.699530 -0.549230 
#    y -0.699530 4.503200 0.358230 
#    z -0.549230 0.358230 5.074420 
# 
# 
# High freq. dielectric constant tensor:
#      x y z
#    x 1.850960 -0.008950 -0.011800 
#    y -0.008950 1.859110 -0.004570 
#    z -0.011800 -0.004570 1.897360 
# 
# From -- ./inp_files/414945.got.cif
#   From: 2010.06.25/outbox.cif.g09.slc.cpg/sg2_208_cif.got.tgz:414945.got - 2010.06.27 13:26:56.
