data_PCOD8042319
_publ_section_title
;
Structure prediction by ZEFSAII (Michael W. Deem and Ramdas Pophale) SiO2 
 PCOD8042319
Probable space group: P -1
;
_chemical_formula_sum "Si O2"
_cell_formula_units_Z 16
_cell_length_a 11.259269
_cell_length_b 12.281935
_cell_length_c 12.100232
_cell_angle_alpha 36.681890
_cell_angle_beta 119.061436
_cell_angle_gamma 127.391518
_cell_volume 794.163989
_symmetry_space_group_name_H-M "P -1"
_symmetry_group_IT_number 2
_symmetry_cell_setting 'triclinic'
loop_
_space_group_symop_operation_xyz
x,y,z
-x,-y,-z
loop_
_atom_site_type_symbol
_atom_site_label
_atom_site_fract_x
_atom_site_fract_y
_atom_site_fract_z
Si Si1 0.923230 0.449177 0.681977
Si Si2 0.388132 0.894352 0.205591
Si Si3 0.643112 0.075818 0.580640
Si Si4 0.865001 0.783898 0.299885
Si Si5 0.148401 0.149457 0.153121
Si Si6 0.206227 0.444723 0.752993
Si Si7 0.966574 0.329755 0.034768
Si Si8 0.322356 0.042443 0.827825
O O1 0.750581 0.320219 0.681712
O O2 0.957167 0.677869 0.488301
O O3 0.028207 0.382534 0.706811
O O4 0.978802 0.442255 0.834560
O O5 0.399852 0.986425 0.259093
O O6 0.538671 0.868411 0.265138
O O7 0.366090 0.027320 0.988678
O O8 0.712012 0.315551 0.401254
O O9 0.500000 0.000000 0.500000
O O10 0.749534 0.968647 0.674711
O O11 0.757846 0.655807 0.256405
O O12 0.755040 0.804755 0.326045
O O13 0.992367 0.001101 0.142960
O O14 0.090082 0.232918 0.166897
O O15 0.241029 0.339262 0.961510
O O16 0.796120 0.167439 0.104750
O O17 0.000000 0.500000 0.000000
#
# Coordination Sequence:
#
# PCOD8042319 Si02
#       8
#     2   2   2   2   2   2   2   2
#     4  10  19  34  63  88 115 153 196 250 301 350
#     4  10  20  40  56  84 124 159 198 250 300 353
#     4  12  25  41  60  91 126 163 206 250 306 364
#     4  11  18  36  62  95 114 151 206 249 306 354
#     4  10  22  39  63  90 119 158 205 249 304 366
#     4  11  21  38  64  90 124 154 195 260 304 352
#     4   9  20  40  61  89 120 162 201 246 307 361
#     4   9  21  37  62  87 118 163 202 246 301 366
#
# _framework density 20.146972000000002
#
# number of rings (size 3 to 8) (size 9 to 14) (size 15 to 20)
#    0.000    1.750    2.500    3.000    0.000    3.000 
#    2.250    3.750    0.000    0.000    0.000    0.000 
#    0.000    0.000    0.000    0.000    0.000    0.000 
#
# Total GULP energy -198222.779121 kJ/mol
# GULP energy per Si atom -12388.923695 kJ/mol
# Density = 2.010112 g / cm^3
# Si number density = 20.146972 Si / 1000 Ang^3
#
#
#
# Elastic Constant Matrix: (Units=GPa)
#
#
# Indices 1 2 3 4 5 6 
#
# 1 116.6272 63.3354 23.1596 -4.6465 8.5701 -4.0866
# 2 63.3354 121.8510 31.2516 -3.8708 8.9290 -12.4643
# 3 23.1596 31.2516 55.8880 -14.1163 8.1346 -0.1604
# 4 -4.6465 -3.8708 -14.1163 26.9330 -0.4474 3.1834
# 5 8.5701 8.9290 8.1346 -0.4474 28.8884 -5.8783
# 6 -4.0866 -12.4643 -0.1604 3.1834 -5.8783 28.5756
#
#
#
# Elastic Compliance Matrix: (Units=1/GPa)
#
#
# Indices 1 2 3 4 5 6 
#
# 1 0.012189 -0.005995 -0.001287 0.000693 -0.001654 -0.001296
# 2 -0.005995 0.013185 -0.005595 -0.002684 0.000300 0.005223
# 3 -0.001287 -0.005595 0.025677 0.012942 -0.005967 -0.005150
# 4 0.000693 -0.002684 0.012942 0.044377 -0.003697 -0.006703
# 5 -0.001654 0.000300 -0.005967 -0.003697 0.038295 0.008150
# 6 -0.001296 0.005223 -0.005150 -0.006703 0.008150 0.039482
#
#
# Mechanical properties :
#
#
# Convention : Reuss Voigt Hill
#
# Bulk Modulus (GPa) = 39.52977 58.87325 49.20151
# Shear Modulus (GPa) = 24.10892 28.65404 26.38148
#
# Velocity S-wave (km/s) = 3.46302 3.77537 3.62256
# Velocity P-wave (km/s) = 5.97104 6.94909 6.47855
#
# Compressibility (1/GPa) = 0.02529739
#
# Stress axis : x y z
#
# Youngs Moduli (GPa) = 82.03963 75.84457 38.94481
#
# Poissons Ratio (x) = 0.45469 0.05012
# Poissons Ratio (y) = 0.49183 0.21790
# Poissons Ratio (z) = 0.10557 0.42436
#
# Static dielectric constant tensor:
#      x y z
#    x 4.079490 -0.120540 -0.023300 
#    y -0.120540 3.397830 -0.084810 
#    z -0.023300 -0.084810 3.692760 
# 
# 
# High freq. dielectric constant tensor:
#      x y z
#    x 1.794080 -0.006000 0.006310 
#    y -0.006000 1.762540 -0.014850 
#    z 0.006310 -0.014850 1.782720 
# 
# From -- ./inp_files/262290.got.cif
#   From: 2010.06.25/outbox.cif.g09.slc.cpg/sg2_132_cif.got.tgz:262290.got - 2010.06.27 13:26:56.
