data_PCOD8042232
_publ_section_title
;
Structure prediction by ZEFSAII (Michael W. Deem and Ramdas Pophale) SiO2 
 PCOD8042232
Probable space group: P -1
;
_chemical_formula_sum "Si O2"
_cell_formula_units_Z 14
_cell_length_a 16.906863
_cell_length_b 9.732079
_cell_length_c 12.573970
_cell_angle_alpha 145.445537
_cell_angle_beta 57.743492
_cell_angle_gamma 95.100716
_cell_volume 677.110172
_symmetry_space_group_name_H-M "P -1"
_symmetry_group_IT_number 2
_symmetry_cell_setting 'triclinic'
loop_
_space_group_symop_operation_xyz
x,y,z
-x,-y,-z
loop_
_atom_site_type_symbol
_atom_site_label
_atom_site_fract_x
_atom_site_fract_y
_atom_site_fract_z
Si Si1 0.341508 0.776685 0.307243
Si Si2 0.680573 0.693381 0.253853
Si Si3 0.154426 0.378762 0.233863
Si Si4 0.027648 0.854738 0.233495
Si Si5 0.390530 0.181348 0.852726
Si Si6 0.961651 0.340630 0.281247
Si Si7 0.896047 0.680630 0.327567
O O1 0.300460 0.047714 0.600137
O O2 0.257667 0.005767 0.407183
O O3 0.500000 0.500000 0.000000
O O4 0.324464 0.526512 0.191454
O O5 0.650994 0.660973 0.136486
O O6 0.556326 0.846982 0.521160
O O7 0.821723 0.319275 0.960434
O O8 0.145024 0.455850 0.414795
O O9 0.100228 0.212730 0.140139
O O10 0.314035 0.089654 0.895690
O O11 0.069432 0.734227 0.453098
O O12 0.974530 0.790328 0.328980
O O13 0.023605 0.686073 0.025947
O O14 0.888928 0.625132 0.420416
O O15 0.000000 0.000000 0.000000
#
# Coordination Sequence:
#
# PCOD8042232 Si02
#       7
#     2   2   2   2   2   2   2
#     4   9  18  33  55  87 117 145 183 239 291 341
#     4   9  20  32  52  87 122 145 177 242 297 333
#     4  11  23  37  61  87 114 154 200 236 280 350
#     4  10  19  34  60  94 110 142 196 245 287 339
#     4  10  19  35  55  85 116 150 187 233 292 342
#     4  11  24  40  55  85 122 158 189 238 292 342
#     4  10  19  34  60  88 119 148 187 243 292 334
#
# _framework density 20.676105
#
# number of rings (size 3 to 8) (size 9 to 14) (size 15 to 20)
#    0.000    2.000    2.857    0.857    2.000    2.286 
#    0.000    0.000    0.000   11.143    3.714    0.000 
#    0.000    0.000    0.000    0.000    0.000    0.000 
#
# Total GULP energy -173489.759611 kJ/mol
# GULP energy per Si atom -12392.125687 kJ/mol
# Density = 2.062905 g / cm^3
# Si number density = 20.676105 Si / 1000 Ang^3
#
#
#
# Elastic Constant Matrix: (Units=GPa)
#
#
# Indices 1 2 3 4 5 6 
#
# 1 89.7673 31.3698 38.9429 -5.0953 -14.3745 10.0088
# 2 31.3698 89.3598 35.9851 -16.6743 -6.5311 -0.2892
# 3 38.9429 35.9851 78.1986 -10.4592 -12.7193 9.0904
# 4 -5.0953 -16.6743 -10.4592 28.3736 5.3128 -1.7045
# 5 -14.3745 -6.5311 -12.7193 5.3128 34.0495 2.5163
# 6 10.0088 -0.2892 9.0904 -1.7045 2.5163 29.2847
#
#
#
# Elastic Compliance Matrix: (Units=1/GPa)
#
#
# Indices 1 2 3 4 5 6 
#
# 1 0.015756 -0.003510 -0.005277 -0.002315 0.004688 -0.004319
# 2 -0.003510 0.015769 -0.005247 0.007256 -0.001812 0.003562
# 3 -0.005277 -0.005247 0.019269 0.002061 0.003971 -0.004451
# 4 -0.002315 0.007256 0.002061 0.041058 -0.005450 0.003081
# 5 0.004688 -0.001812 0.003971 -0.005450 0.033783 -0.006073
# 6 -0.004319 0.003562 -0.004451 0.003081 -0.006073 0.037742
#
#
# Mechanical properties :
#
#
# Convention : Reuss Voigt Hill
#
# Bulk Modulus (GPa) = 43.99910 52.21347 48.10628
# Shear Modulus (GPa) = 25.12316 28.41008 26.76662
#
# Velocity S-wave (km/s) = 3.48958 3.71084 3.60191
# Velocity P-wave (km/s) = 6.12884 6.60820 6.37303
#
# Compressibility (1/GPa) = 0.02272774
#
# Stress axis : x y z
#
# Youngs Moduli (GPa) = 63.46623 63.41661 51.89604
#
# Poissons Ratio (x) = 0.22258 0.27384
# Poissons Ratio (y) = 0.22275 0.27229
# Poissons Ratio (z) = 0.33489 0.33274
#
# Static dielectric constant tensor:
#      x y z
#    x 5.708190 1.654700 1.677470 
#    y 1.654700 4.792720 1.458000 
#    z 1.677470 1.458000 5.531230 
# 
# 
# High freq. dielectric constant tensor:
#      x y z
#    x 1.831190 0.014030 0.007170 
#    y 0.014030 1.763600 -0.000390 
#    z 0.007170 -0.000390 1.806240 
# 
# From -- ./inp_files/261059.got.cif
#   From: 2010.06.25/outbox.cif.g09.slc.cpg/sg2_131_cif.got.tgz:261059.got - 2010.06.27 13:26:56.
