data_PCOD8042056
_publ_section_title
;
Structure prediction by ZEFSAII (Michael W. Deem and Ramdas Pophale) SiO2 
 PCOD8042056
Probable space group: P -1
;
_chemical_formula_sum "Si O2"
_cell_formula_units_Z 16
_cell_length_a 9.710076
_cell_length_b 9.306116
_cell_length_c 11.108177
_cell_angle_alpha 69.776068
_cell_angle_beta 78.889943
_cell_angle_gamma 60.005718
_cell_volume 815.499745
_symmetry_space_group_name_H-M "P -1"
_symmetry_group_IT_number 2
_symmetry_cell_setting 'triclinic'
loop_
_space_group_symop_operation_xyz
x,y,z
-x,-y,-z
loop_
_atom_site_type_symbol
_atom_site_label
_atom_site_fract_x
_atom_site_fract_y
_atom_site_fract_z
Si Si1 0.809434 0.236673 0.883564
Si Si2 0.478613 0.787938 0.118973
Si Si3 0.133990 0.449739 0.224928
Si Si4 0.849911 0.989846 0.168917
Si Si5 0.600409 0.866910 0.844030
Si Si6 0.777910 0.672982 0.254653
Si Si7 0.687085 0.716260 0.524111
Si Si8 0.390185 0.918839 0.636382
O O1 0.643981 0.291424 0.825166
O O2 0.817979 0.407611 0.874211
O O3 0.961437 0.120752 0.806323
O O4 0.814127 0.124398 0.029989
O O5 0.643512 0.670279 0.192784
O O6 0.384292 0.978835 0.137432
O O7 0.514477 0.793381 0.970292
O O8 0.221640 0.281220 0.175132
O O9 0.184694 0.414734 0.366423
O O10 0.945773 0.517173 0.229161
O O11 0.779676 0.856617 0.188494
O O12 0.758076 0.096745 0.273989
O O13 0.499171 0.932956 0.720906
O O14 0.738131 0.636067 0.406753
O O15 0.506231 0.754147 0.581229
O O16 0.682274 0.903980 0.479589
#
# Coordination Sequence:
#
# PCOD8042056 Si02
#       8
#     2   2   2   2   2   2   2   2
#     4  10  20  32  54  83 114 139 169 224 277 318
#     4  11  19  34  56  79 111 145 175 212 272 331
#     4  10  22  35  54  84 110 137 180 229 263 307
#     4   9  16  33  53  80 106 143 181 213 258 325
#     4  10  19  34  57  80 106 140 186 217 261 318
#     4  10  19  35  57  79 106 144 184 218 263 319
#     4   9  17  31  55  81 101 138 188 230 249 299
#     4   9  15  31  57  83  97 134 196 228 239 309
#
# _framework density 19.619872000000001
#
# number of rings (size 3 to 8) (size 9 to 14) (size 15 to 20)
#    0.000    2.250    3.750    1.125    0.000    1.000 
#    0.000    0.625    0.000    0.750    0.000    0.000 
#    0.000    0.000    0.000    0.000    0.000    0.000 
#
# Total GULP energy -198292.272432 kJ/mol
# GULP energy per Si atom -12393.267027 kJ/mol
# Density = 1.957522 g / cm^3
# Si number density = 19.619872 Si / 1000 Ang^3
#
#
#
# Elastic Constant Matrix: (Units=GPa)
#
#
# Indices 1 2 3 4 5 6 
#
# 1 121.8563 34.4774 25.9048 5.7566 -13.0714 -30.0129
# 2 34.4774 70.7342 26.3251 11.7080 -9.0575 -33.9092
# 3 25.9048 26.3251 85.7811 5.9230 -12.8670 -11.4852
# 4 5.7566 11.7080 5.9230 23.4796 -12.8008 -0.7191
# 5 -13.0714 -9.0575 -12.8670 -12.8008 26.4881 6.4654
# 6 -30.0129 -33.9092 -11.4852 -0.7191 6.4654 27.3604
#
#
#
# Elastic Compliance Matrix: (Units=1/GPa)
#
#
# Indices 1 2 3 4 5 6 
#
# 1 0.011881 0.003283 -0.002159 -0.003269 0.000451 0.016002
# 2 0.003283 0.049031 -0.007723 -0.029708 -0.015336 0.063969
# 3 -0.002159 -0.007723 0.014466 0.004491 0.007316 -0.007478
# 4 -0.003269 -0.029708 0.004491 0.076737 0.038632 -0.045632
# 5 0.000451 -0.015336 0.007316 0.038632 0.062055 -0.029090
# 6 0.016002 0.063969 -0.007478 -0.045632 -0.029090 0.135919
#
#
# Mechanical properties :
#
#
# Convention : Reuss Voigt Hill
#
# Bulk Modulus (GPa) = 16.08259 50.19848 33.14054
# Shear Modulus (GPa) = 13.02038 28.24323 20.63180
#
# Velocity S-wave (km/s) = 2.57890 3.79822 3.24632
# Velocity P-wave (km/s) = 4.13310 6.69898 5.56592
#
# Compressibility (1/GPa) = 0.06217902
#
# Stress axis : x y z
#
# Youngs Moduli (GPa) = 84.17008 20.39525 69.12877
#
# Poissons Ratio (x) = -0.06696 0.14928
# Poissons Ratio (y) = -0.27632 0.53386
# Poissons Ratio (z) = 0.18176 0.15751
#
# Static dielectric constant tensor:
#      x y z
#    x 3.618610 -0.529700 -0.310830 
#    y -0.529700 3.444200 0.125020 
#    z -0.310830 0.125020 3.739630 
# 
# 
# High freq. dielectric constant tensor:
#      x y z
#    x 1.746240 -0.048190 -0.015010 
#    y -0.048190 1.738370 0.001090 
#    z -0.015010 0.001090 1.770130 
# 
# From -- ./inp_files/345310.got.cif
#   From: 2010.06.25/outbox.cif.g09.slc.cpg/sg2_173_cif.got.tgz:345310.got - 2010.06.27 13:26:56.
