data_PCOD8042378
_publ_section_title
;
Structure prediction by ZEFSAII (Michael W. Deem and Ramdas Pophale) SiO2 
 PCOD8042378
Probable space group: P -1
;
_chemical_formula_sum "Si O2"
_cell_formula_units_Z 16
_cell_length_a 12.497904
_cell_length_b 16.770809
_cell_length_c 11.531416
_cell_angle_alpha 47.601236
_cell_angle_beta 133.337927
_cell_angle_gamma 154.134734
_cell_volume 754.542049
_symmetry_space_group_name_H-M "P -1"
_symmetry_group_IT_number 2
_symmetry_cell_setting 'triclinic'
loop_
_space_group_symop_operation_xyz
x,y,z
-x,-y,-z
loop_
_atom_site_type_symbol
_atom_site_label
_atom_site_fract_x
_atom_site_fract_y
_atom_site_fract_z
Si Si1 0.394665 0.112862 0.879694
Si Si2 0.485801 0.791901 0.551398
Si Si3 0.551642 0.391236 0.872116
Si Si4 0.430290 0.934089 0.767572
Si Si5 0.056801 0.093744 0.684027
Si Si6 0.262815 0.643720 0.774912
Si Si7 0.298553 0.621806 0.346819
Si Si8 0.873962 0.668760 0.653054
O O1 0.592909 0.306050 0.910513
O O2 0.117190 0.005082 0.779994
O O3 0.507259 0.178352 0.768782
O O4 0.392194 0.996762 0.059109
O O5 0.297281 0.662250 0.644511
O O6 0.408411 0.664347 0.515520
O O7 0.451485 0.891554 0.377493
O O8 0.770196 0.937736 0.665224
O O9 0.252764 0.246019 0.784153
O O10 0.735968 0.588848 0.754293
O O11 0.636280 0.411362 0.045570
O O12 0.421270 0.837960 0.754938
O O13 0.155381 0.791711 0.757081
O O14 0.117191 0.203459 0.509873
O O15 0.969262 0.479037 0.746723
O O16 0.282609 0.496970 0.393469
#
# Coordination Sequence:
#
# PCOD8042378 Si02
#       8
#     2   2   2   2   2   2   2   2
#     4   8  17  33  53  79 100 124 170 214 262 283
#     4  11  22  33  50  76 110 139 166 195 258 314
#     4   8  16  30  54  77  97 123 171 215 246 281
#     4   9  18  34  55  77  96 132 178 220 239 287
#     4   9  19  33  55  80  99 132 167 215 254 298
#     4  10  19  35  54  74  99 138 177 210 239 292
#     4  10  20  32  54  77 105 134 162 214 256 305
#     4   9  16  32  57  81  97 125 175 215 257 289
#
# _framework density 21.204915
#
# number of rings (size 3 to 8) (size 9 to 14) (size 15 to 20)
#    0.750    2.000    0.000    1.875    0.000    4.500 
#    0.000    0.000    2.750    0.750    0.000    0.000 
#    0.000    0.000    0.000    0.000    0.000    0.000 
#
# Total GULP energy -198273.839882 kJ/mol
# GULP energy per Si atom -12392.114993 kJ/mol
# Density = 2.115665 g / cm^3
# Si number density = 21.204915 Si / 1000 Ang^3
#
#
#
# Elastic Constant Matrix: (Units=GPa)
#
#
# Indices 1 2 3 4 5 6 
#
# 1 47.2668 9.5114 37.2645 1.6152 -5.7214 11.5200
# 2 9.5114 25.8539 16.1304 2.0174 5.6224 2.9626
# 3 37.2645 16.1304 118.1430 11.3605 5.5241 12.1457
# 4 1.6152 2.0174 11.3605 21.4279 5.8221 -1.0139
# 5 -5.7214 5.6224 5.5241 5.8221 33.7781 3.9197
# 6 11.5200 2.9626 12.1457 -1.0139 3.9197 20.1658
#
#
#
# Elastic Compliance Matrix: (Units=1/GPa)
#
#
# Indices 1 2 3 4 5 6 
#
# 1 0.034653 -0.007777 -0.008682 -0.000874 0.010535 -0.015516
# 2 -0.007777 0.045400 -0.003570 0.000614 -0.008584 0.001622
# 3 -0.008682 -0.003570 0.012477 -0.005230 -0.001789 -0.001946
# 4 -0.000874 0.000614 -0.005230 0.052369 -0.009351 0.008010
# 5 0.010535 -0.008584 -0.001789 -0.009351 0.036016 -0.011150
# 6 -0.015516 0.001622 -0.001946 0.008010 -0.011150 0.061956
#
#
# Mechanical properties :
#
#
# Convention : Reuss Voigt Hill
#
# Bulk Modulus (GPa) = 19.05754 35.23070 27.14412
# Shear Modulus (GPa) = 16.64345 23.63154 20.13749
#
# Velocity S-wave (km/s) = 2.80462 3.34194 3.08500
# Velocity P-wave (km/s) = 4.41528 5.61622 5.05156
#
# Compressibility (1/GPa) = 0.05247268
#
# Stress axis : x y z
#
# Youngs Moduli (GPa) = 28.85789 22.02632 80.14888
#
# Poissons Ratio (x) = 0.17129 0.69583
# Poissons Ratio (y) = 0.22441 0.28615
# Poissons Ratio (z) = 0.25054 0.07864
#
# Static dielectric constant tensor:
#      x y z
#    x 3.427040 0.046780 0.022770 
#    y 0.046780 3.570880 0.071310 
#    z 0.022770 0.071310 3.922320 
# 
# 
# High freq. dielectric constant tensor:
#      x y z
#    x 1.791040 0.010950 0.003760 
#    y 0.010950 1.808840 0.007840 
#    z 0.003760 0.007840 1.840140 
# 
# From -- ./inp_files/436657.got.cif
#   From: 2010.06.25/outbox.cif.g09.slc.cpg/sg2_219_cif.got.tgz:436657.got - 2010.06.27 13:26:56.
