data_PCOD8042812
_publ_section_title
;
Structure prediction by ZEFSAII (Michael W. Deem and Ramdas Pophale) SiO2 
 PCOD8042812
Probable space group: P -1
;
_chemical_formula_sum "Si O2"
_cell_formula_units_Z 16
_cell_length_a 14.214709
_cell_length_b 13.278679
_cell_length_c 6.945049
_cell_angle_alpha 78.415257
_cell_angle_beta 105.214951
_cell_angle_gamma 140.816722
_cell_volume 799.189687
_symmetry_space_group_name_H-M "P -1"
_symmetry_group_IT_number 2
_symmetry_cell_setting 'triclinic'
loop_
_space_group_symop_operation_xyz
x,y,z
-x,-y,-z
loop_
_atom_site_type_symbol
_atom_site_label
_atom_site_fract_x
_atom_site_fract_y
_atom_site_fract_z
Si Si1 0.605178 0.675384 0.068128
Si Si2 0.957357 0.201979 0.550592
Si Si3 0.480092 0.225045 0.739629
Si Si4 0.716263 0.845634 0.665412
Si Si5 0.234461 0.874102 0.861732
Si Si6 0.771543 0.342206 0.901597
Si Si7 0.020392 0.647984 0.139833
Si Si8 0.848766 0.812564 0.460120
O O1 0.499952 0.659946 0.156385
O O2 0.754149 0.760880 0.234579
O O3 0.500000 0.500000 0.000000
O O4 0.664153 0.788322 0.876169
O O5 0.854270 0.184217 0.361342
O O6 0.016910 0.332413 0.684507
O O7 0.101831 0.267356 0.493439
O O8 0.865724 0.036611 0.669424
O O9 0.413813 0.200975 0.506147
O O10 0.635199 0.292404 0.747917
O O11 0.373760 0.063504 0.867952
O O12 0.746393 0.758861 0.611501
O O13 0.288992 0.799157 0.938248
O O14 0.120110 0.807573 0.002545
O O15 0.883877 0.382886 0.784424
O O16 0.860163 0.497422 0.014291
O O17 0.000000 0.000000 0.500000
#
# Coordination Sequence:
#
# PCOD8042812 Si02
#       8
#     2   2   2   2   2   2   2   2
#     4  11  24  40  59  88 119 156 197 246 298 360
#     4  10  19  35  62  87 110 155 194 238 292 349
#     4  10  20  39  61  82 120 155 198 236 300 349
#     4   9  21  41  58  86 119 149 198 247 286 354
#     4   9  19  37  57  85 115 155 193 243 283 345
#     4   9  20  39  54  86 121 156 186 247 292 341
#     4   9  20  36  53  83 122 146 198 240 287 342
#     4   9  21  38  60  87 116 150 198 241 296 347
#
# _framework density 20.020281000000001
#
# number of rings (size 3 to 8) (size 9 to 14) (size 15 to 20)
#    0.750    1.750    0.000    1.875    1.750    5.500 
#    4.500    1.250    0.000    0.000    0.000    0.000 
#    0.000    0.000    0.000    0.000    0.000    0.000 
#
# Total GULP energy -198238.485611 kJ/mol
# GULP energy per Si atom -12389.905351 kJ/mol
# Density = 1.997471 g / cm^3
# Si number density = 20.020281 Si / 1000 Ang^3
#
#
#
# Elastic Constant Matrix: (Units=GPa)
#
#
# Indices 1 2 3 4 5 6 
#
# 1 103.7857 24.7731 26.8351 25.2020 4.1378 -5.0814
# 2 24.7731 56.7852 8.9173 24.5885 10.6699 1.8866
# 3 26.8351 8.9173 52.4651 18.9229 -0.3879 1.9727
# 4 25.2020 24.5885 18.9229 30.6186 -3.2028 -3.7695
# 5 4.1378 10.6699 -0.3879 -3.2028 24.3127 9.6500
# 6 -5.0814 1.8866 1.9727 -3.7695 9.6500 18.5645
#
#
#
# Elastic Compliance Matrix: (Units=1/GPa)
#
#
# Indices 1 2 3 4 5 6 
#
# 1 0.013197 -0.001333 -0.004217 -0.007037 -0.004729 0.005225
# 2 -0.001333 0.035282 0.006714 -0.033567 -0.018919 -0.001645
# 3 -0.004217 0.006714 0.027643 -0.020143 -0.001163 -0.008259
# 4 -0.007037 -0.033567 -0.020143 0.081273 0.023089 0.008126
# 5 -0.004729 -0.018919 -0.001163 0.023089 0.064386 -0.028029
# 6 0.005225 -0.001645 -0.008259 0.008126 -0.028029 0.072561
#
#
# Mechanical properties :
#
#
# Convention : Reuss Voigt Hill
#
# Bulk Modulus (GPa) = 12.74697 37.12078 24.93387
# Shear Modulus (GPa) = 15.71524 24.86653 20.29088
#
# Velocity S-wave (km/s) = 2.80476 3.52812 3.18703
# Velocity P-wave (km/s) = 4.10728 5.93116 5.10140
#
# Compressibility (1/GPa) = 0.07845005
#
# Stress axis : x y z
#
# Youngs Moduli (GPa) = 75.77545 28.34342 36.17546
#
# Poissons Ratio (x) = 0.03778 0.15254
# Poissons Ratio (y) = 0.10100 -0.24287
# Poissons Ratio (z) = 0.31952 -0.19029
#
# Static dielectric constant tensor:
#      x y z
#    x 3.758140 -0.060010 0.007820 
#    y -0.060010 3.562940 0.060000 
#    z 0.007820 0.060000 3.397630 
# 
# 
# High freq. dielectric constant tensor:
#      x y z
#    x 1.780510 -0.004650 0.002300 
#    y -0.004650 1.774150 0.013870 
#    z 0.002300 0.013870 1.765190 
# 
# From -- ./inp_files/97020.got.cif
#   From: 2010.06.25/outbox.cif.g09.slc.cpg/sg2_49_cif.got.tgz:97020.got - 2010.06.27 13:26:56.
