data_PCOD8042129
_publ_section_title
;
Structure prediction by ZEFSAII (Michael W. Deem and Ramdas Pophale) SiO2 
 PCOD8042129
Probable space group: P -1
;
_chemical_formula_sum "Si O2"
_cell_formula_units_Z 16
_cell_length_a 16.702728
_cell_length_b 14.297180
_cell_length_c 19.871430
_cell_angle_alpha 19.997479
_cell_angle_beta 154.572327
_cell_angle_gamma 146.428563
_cell_volume 692.903062
_symmetry_space_group_name_H-M "P -1"
_symmetry_group_IT_number 2
_symmetry_cell_setting 'triclinic'
loop_
_space_group_symop_operation_xyz
x,y,z
-x,-y,-z
loop_
_atom_site_type_symbol
_atom_site_label
_atom_site_fract_x
_atom_site_fract_y
_atom_site_fract_z
Si Si1 0.710659 0.690529 0.166999
Si Si2 0.768722 0.331412 0.943273
Si Si3 0.279891 0.693744 0.229903
Si Si4 0.324435 0.754898 0.863479
Si Si5 0.164041 0.091074 0.395803
Si Si6 0.618458 0.830564 0.262136
Si Si7 0.976894 0.486228 0.740985
Si Si8 0.929765 0.442642 0.381059
O O1 0.871477 0.584487 0.412674
O O2 0.774465 0.623086 0.184978
O O3 0.518467 0.557553 0.128744
O O4 0.637486 0.014582 0.902793
O O5 0.800617 0.358412 0.869174
O O6 0.747085 0.641461 0.748184
O O7 0.588795 0.155838 0.944164
O O8 0.962174 0.172780 0.223225
O O9 0.419406 0.422260 0.543038
O O10 0.106386 0.737935 0.123005
O O11 0.146951 0.583538 0.847570
O O12 0.300599 0.975311 0.636471
O O13 0.343132 0.894616 0.855636
O O14 0.141669 0.857526 0.480612
O O15 0.806630 0.729110 0.432198
O O16 0.051242 0.394010 0.785549
#
# Coordination Sequence:
#
# PCOD8042129 Si02
#       8
#     2   2   2   2   2   2   2   2
#     4  11  22  38  70  73 113 158 200 225 276 344
#     4  11  18  33  57  90 116 148 190 233 284 337
#     4  10  19  35  60  87 107 156 184 236 278 339
#     4  11  19  37  57  88 113 154 187 234 283 347
#     4  10  20  31  56  84 119 138 189 244 268 329
#     4  10  19  34  58  84 118 152 186 228 290 349
#     4   9  23  34  57  86 125 138 189 237 297 320
#     4  10  22  42  55  89 110 153 194 236 277 342
#
# _framework density 23.091252999999998
#
# number of rings (size 3 to 8) (size 9 to 14) (size 15 to 20)
#    0.750    1.000    3.750    1.500    0.000    2.500 
#    0.000    9.375    0.000    1.500    0.000    0.000 
#    0.000    0.000    0.000    0.000    0.000    0.000 
#
# Total GULP energy -198273.053349 kJ/mol
# GULP energy per Si atom -12392.065834 kJ/mol
# Density = 2.303870 g / cm^3
# Si number density = 23.091253 Si / 1000 Ang^3
#
#
#
# Elastic Constant Matrix: (Units=GPa)
#
#
# Indices 1 2 3 4 5 6 
#
# 1 68.9206 15.3370 -6.7094 13.6318 1.8604 -10.3482
# 2 15.3370 92.2112 17.6523 25.4192 1.0973 5.7391
# 3 -6.7094 17.6523 59.9697 17.6496 11.9634 -8.3696
# 4 13.6318 25.4192 17.6496 32.9194 7.4818 2.6073
# 5 1.8604 1.0973 11.9634 7.4818 24.5949 -1.9264
# 6 -10.3482 5.7391 -8.3696 2.6073 -1.9264 42.2922
#
#
#
# Elastic Compliance Matrix: (Units=1/GPa)
#
#
# Indices 1 2 3 4 5 6 
#
# 1 0.018670 -0.002029 0.006814 -0.010121 -0.001027 0.006769
# 2 -0.002029 0.014404 -0.002699 -0.009458 0.003526 -0.002242
# 3 0.006814 -0.002699 0.024566 -0.012690 -0.007911 0.007317
# 4 -0.010121 -0.009458 -0.012690 0.051251 -0.008799 -0.007265
# 5 -0.001027 0.003526 -0.007911 -0.008799 0.047135 0.000394
# 6 0.006769 -0.002242 0.007317 -0.007265 0.000394 0.027519
#
#
# Mechanical properties :
#
#
# Convention : Reuss Voigt Hill
#
# Bulk Modulus (GPa) = 16.17792 30.40681 23.29236
# Shear Modulus (GPa) = 25.00283 32.94940 28.97611
#
# Velocity S-wave (km/s) = 3.29414 3.78156 3.54623
# Velocity P-wave (km/s) = 4.63570 5.68011 5.18427
#
# Compressibility (1/GPa) = 0.06181264
#
# Stress axis : x y z
#
# Youngs Moduli (GPa) = 53.56108 69.42629 40.70619
#
# Poissons Ratio (x) = 0.14087 -0.27739
# Poissons Ratio (y) = 0.10868 0.10988
# Poissons Ratio (z) = -0.36499 0.18740
#
# Static dielectric constant tensor:
#      x y z
#    x 4.154330 0.092240 -0.004050 
#    y 0.092240 4.159030 0.189110 
#    z -0.004050 0.189110 4.088180 
# 
# 
# High freq. dielectric constant tensor:
#      x y z
#    x 1.919020 0.009310 -0.005320 
#    y 0.009310 1.916880 0.029590 
#    z -0.005320 0.029590 1.897420 
# 
# From -- ./inp_files/613784.got.cif
#   From: 2010.06.25/outbox.cif.g09.slc.cpg/sg2_307_cif.got.tgz:613784.got - 2010.06.27 13:26:56.
