data_PCOD8042316
_publ_section_title
;
Structure prediction by ZEFSAII (Michael W. Deem and Ramdas Pophale) SiO2 
 PCOD8042316
Probable space group: P -1
;
_chemical_formula_sum "Si O2"
_cell_formula_units_Z 16
_cell_length_a 14.766368
_cell_length_b 30.686423
_cell_length_c 9.071030
_cell_angle_alpha 35.973278
_cell_angle_beta 43.966192
_cell_angle_gamma 20.175424
_cell_volume 816.433183
_symmetry_space_group_name_H-M "P -1"
_symmetry_group_IT_number 2
_symmetry_cell_setting 'triclinic'
loop_
_space_group_symop_operation_xyz
x,y,z
-x,-y,-z
loop_
_atom_site_type_symbol
_atom_site_label
_atom_site_fract_x
_atom_site_fract_y
_atom_site_fract_z
Si Si1 0.135999 0.992356 0.040929
Si Si2 0.259811 0.531093 0.722356
Si Si3 0.144289 0.747142 0.161962
Si Si4 0.988398 0.560147 0.171316
Si Si5 0.374204 0.253016 0.654351
Si Si6 0.657676 0.998723 0.819442
Si Si7 0.745672 0.056413 0.287580
Si Si8 0.261362 0.397311 0.894827
O O1 0.014378 0.970827 0.225277
O O2 0.358515 0.865753 0.245933
O O3 0.927834 0.156395 0.894625
O O4 0.261085 0.963829 0.821256
O O5 0.119872 0.677933 0.448661
O O6 0.540171 0.399032 0.845867
O O7 0.305115 0.462510 0.703745
O O8 0.035259 0.604513 0.885231
O O9 0.941853 0.853520 0.969688
O O10 0.277160 0.378086 0.353563
O O11 0.865044 0.653979 0.209837
O O12 0.781472 0.600808 0.233615
O O13 0.438477 0.161336 0.705066
O O14 0.730937 0.991938 0.588064
O O15 0.500000 0.000000 0.000000
O O16 0.504666 0.230457 0.134284
O O17 0.000000 0.500000 0.000000
#
# Coordination Sequence:
#
# PCOD8042316 Si02
#       8
#     2   2   2   2   2   2   2   2
#     4  10  22  40  63  87 120 154 201 243 293 355
#     4  10  21  38  62  84 121 154 201 237 297 352
#     4  10  23  39  59  90 115 159 196 242 295 353
#     4  10  21  36  63  87 119 154 195 250 290 343
#     4  10  22  39  59  92 115 152 202 241 297 344
#     4  11  26  39  60  87 123 157 194 243 299 352
#     4  11  22  40  63  89 118 155 199 244 299 348
#     4  10  19  34  63  87 113 155 195 248 288 344
#
# _framework density 19.597441
#
# number of rings (size 3 to 8) (size 9 to 14) (size 15 to 20)
#    0.000    1.750    2.500    1.500    7.000    2.000 
#    0.000    2.500    0.000    2.250    0.000    0.000 
#    0.000    0.000    0.000    0.000    0.000    0.000 
#
# Total GULP energy -198277.353196 kJ/mol
# GULP energy per Si atom -12392.334575 kJ/mol
# Density = 1.955284 g / cm^3
# Si number density = 19.597441 Si / 1000 Ang^3
#
#
#
# Elastic Constant Matrix: (Units=GPa)
#
#
# Indices 1 2 3 4 5 6 
#
# 1 57.1079 2.5625 17.7405 12.4974 -0.9487 -5.6359
# 2 2.5625 52.4608 14.8477 2.2689 0.6258 -1.9201
# 3 17.7405 14.8477 89.2988 7.1398 -3.3664 -4.8091
# 4 12.4974 2.2689 7.1398 38.7149 -1.8530 2.6145
# 5 -0.9487 0.6258 -3.3664 -1.8530 25.1045 1.7661
# 6 -5.6359 -1.9201 -4.8091 2.6145 1.7661 21.7447
#
#
#
# Elastic Compliance Matrix: (Units=1/GPa)
#
#
# Indices 1 2 3 4 5 6 
#
# 1 0.020459 0.000431 -0.003353 -0.006403 -0.000541 0.005413
# 2 0.000431 0.020081 -0.003326 -0.000845 -0.001087 0.001339
# 3 -0.003353 -0.003326 0.012649 -0.001097 0.001455 0.001648
# 4 -0.006403 -0.000845 -0.001097 0.028629 0.002139 -0.005593
# 5 -0.000541 -0.001087 0.001455 0.002139 0.040436 -0.003456
# 6 0.005413 0.001339 0.001648 -0.005593 -0.003456 0.048827
#
#
# Mechanical properties :
#
#
# Convention : Reuss Voigt Hill
#
# Bulk Modulus (GPa) = 24.57402 29.90765 27.24084
# Shear Modulus (GPa) = 25.36259 28.02728 26.69494
#
# Velocity S-wave (km/s) = 3.60137 3.78584 3.69476
# Velocity P-wave (km/s) = 5.46441 5.86551 5.66851
#
# Compressibility (1/GPa) = 0.04069338
#
# Stress axis : x y z
#
# Youngs Moduli (GPa) = 48.87721 49.79929 79.05867
#
# Poissons Ratio (x) = -0.02147 0.26510
# Poissons Ratio (y) = -0.02108 0.26293
# Poissons Ratio (z) = 0.16389 0.16562
#
# Static dielectric constant tensor:
#      x y z
#    x 5.430190 0.293820 0.441910 
#    y 0.293820 3.668630 -0.121230 
#    z 0.441910 -0.121230 3.597730 
# 
# 
# High freq. dielectric constant tensor:
#      x y z
#    x 1.763210 -0.002850 0.011340 
#    y -0.002850 1.767780 -0.015220 
#    z 0.011340 -0.015220 1.755680 
# 
# From -- ./inp_files/320925.got.cif
#   From: 2010.06.25/outbox.cif.g09.slc.cpg/sg2_161_cif.got.tgz:320925.got - 2010.06.27 13:26:56.
