data_PCOD8042979
_publ_section_title
;
Structure prediction by ZEFSAII (Michael W. Deem and Ramdas Pophale) SiO2 
 PCOD8042979
Probable space group: P -1
;
_chemical_formula_sum "Si O2"
_cell_formula_units_Z 12
_cell_length_a 7.097804
_cell_length_b 9.704732
_cell_length_c 9.340620
_cell_angle_alpha 58.128832
_cell_angle_beta 77.923789
_cell_angle_gamma 62.425313
_cell_volume 483.805364
_symmetry_space_group_name_H-M "P -1"
_symmetry_group_IT_number 2
_symmetry_cell_setting 'triclinic'
loop_
_space_group_symop_operation_xyz
x,y,z
-x,-y,-z
loop_
_atom_site_type_symbol
_atom_site_label
_atom_site_fract_x
_atom_site_fract_y
_atom_site_fract_z
Si Si1 0.032582 0.736806 0.926490
Si Si2 0.376301 0.269871 0.413432
Si Si3 0.299599 0.671057 0.173384
Si Si4 0.032135 0.730064 0.453831
Si Si5 0.767664 0.550604 0.190674
Si Si6 0.215803 0.037978 0.398199
O O1 0.902203 0.665323 0.091063
O O2 0.190503 0.776179 0.987289
O O3 0.874564 0.917969 0.772536
O O4 0.172258 0.592930 0.867126
O O5 0.348641 0.462686 0.261926
O O6 0.187722 0.285034 0.546360
O O7 0.343040 0.163746 0.338922
O O8 0.611560 0.168169 0.501845
O O9 0.519785 0.686529 0.151022
O O10 0.147143 0.762440 0.281208
O O11 0.973467 0.901190 0.480931
O O12 0.184193 0.548066 0.609943
#
# Coordination Sequence:
#
# PCOD8042979 Si02
#       6
#     2   2   2   2   2   2
#     4  10  19  36  53  78 111 140 173 221 260 318
#     4   9  17  34  59  78 103 146 176 213 263 318
#     4  12  20  31  61  85 102 131 187 226 256 303
#     4   9  18  35  54  80 108 136 177 224 257 309
#     4  10  20  33  54  82 106 140 178 216 264 311
#     4   8  18  35  59  73 106 152 170 204 279 317
#
# _framework density 24.803363000000001
#
# number of rings (size 3 to 8) (size 9 to 14) (size 15 to 20)
#    1.000    1.333    1.667    2.500    0.000    0.000 
#    0.000    4.167    3.667    1.000    0.000    0.000 
#    0.000    0.000    0.000    0.000    0.000    0.000 
#
# Total GULP energy -148787.747979 kJ/mol
# GULP energy per Si atom -12398.978998 kJ/mol
# Density = 2.474691 g / cm^3
# Si number density = 24.803363 Si / 1000 Ang^3
#
#
#
# Elastic Constant Matrix: (Units=GPa)
#
#
# Indices 1 2 3 4 5 6 
#
# 1 76.7832 41.6321 28.2273 -1.2101 14.0831 -47.4594
# 2 41.6321 67.9035 35.4412 -10.9972 23.6117 -22.2483
# 3 28.2273 35.4412 93.6844 -5.6682 32.9578 -25.7081
# 4 -1.2101 -10.9972 -5.6682 24.8675 -12.6562 0.8107
# 5 14.0831 23.6117 32.9578 -12.6562 37.7091 -13.0606
# 6 -47.4594 -22.2483 -25.7081 0.8107 -13.0606 50.1991
#
#
#
# Elastic Compliance Matrix: (Units=1/GPa)
#
#
# Indices 1 2 3 4 5 6 
#
# 1 0.042334 -0.017797 0.001556 -0.004365 0.004330 0.034129
# 2 -0.017797 0.029321 -0.004793 0.007186 -0.008055 -0.008497
# 3 0.001556 -0.004793 0.017646 -0.004707 -0.012806 0.005128
# 4 -0.004365 0.007186 -0.004707 0.051667 0.018832 0.000713
# 5 0.004330 -0.008055 -0.012806 0.018832 0.049746 0.006604
# 6 0.034129 -0.008497 0.005128 0.000713 0.006604 0.052754
#
#
# Mechanical properties :
#
#
# Convention : Reuss Voigt Hill
#
# Bulk Modulus (GPa) = 21.17246 49.88581 35.52913
# Shear Modulus (GPa) = 16.59587 31.42650 24.01118
#
# Velocity S-wave (km/s) = 2.58950 3.56339 3.11474
# Velocity P-wave (km/s) = 4.18274 6.08987 5.22407
#
# Compressibility (1/GPa) = 0.04723116
#
# Stress axis : x y z
#
# Youngs Moduli (GPa) = 23.62182 34.10583 56.66948
#
# Poissons Ratio (x) = 0.60699 -0.08817
# Poissons Ratio (y) = 0.42040 0.27163
# Poissons Ratio (z) = -0.03675 0.16348
#
# Static dielectric constant tensor:
#      x y z
#    x 4.688130 -0.279570 0.139050 
#    y -0.279570 4.168970 -0.063920 
#    z 0.139050 -0.063920 4.115290 
# 
# 
# High freq. dielectric constant tensor:
#      x y z
#    x 2.004410 -0.012830 0.006090 
#    y -0.012830 1.965930 -0.003400 
#    z 0.006090 -0.003400 1.967440 
# 
# From -- ./inp_files/191854.got.cif
#   From: 2010.06.25/outbox.cif.g09.slc.cpg/sg2_96_cif.got.tgz:191854.got - 2010.06.27 13:26:56.
