data_PCOD8042602
_publ_section_title
;
Structure prediction by ZEFSAII (Michael W. Deem and Ramdas Pophale) SiO2 
 PCOD8042602
Probable space group: P -1
;
_chemical_formula_sum "Si O2"
_cell_formula_units_Z 16
_cell_length_a 19.854836
_cell_length_b 25.334022
_cell_length_c 9.192433
_cell_angle_alpha 30.737262
_cell_angle_beta 30.291077
_cell_angle_gamma 21.433270
_cell_volume 812.298950
_symmetry_space_group_name_H-M "P -1"
_symmetry_group_IT_number 2
_symmetry_cell_setting 'triclinic'
loop_
_space_group_symop_operation_xyz
x,y,z
-x,-y,-z
loop_
_atom_site_type_symbol
_atom_site_label
_atom_site_fract_x
_atom_site_fract_y
_atom_site_fract_z
Si Si1 0.862951 0.495746 0.349189
Si Si2 0.897616 0.815293 0.722529
Si Si3 0.147392 0.721934 0.229289
Si Si4 0.133224 0.390631 0.644503
Si Si5 0.582952 0.123730 0.419476
Si Si6 0.419496 0.734378 0.638918
Si Si7 0.885415 0.960181 0.674049
Si Si8 0.156438 0.980151 0.076087
O O1 0.917914 0.347067 0.563579
O O2 0.880163 0.505478 0.466370
O O3 0.633313 0.633968 0.410217
O O4 0.000000 0.500000 0.000000
O O5 0.880708 0.865308 0.800451
O O6 0.094633 0.746700 0.440456
O O7 0.704482 0.954913 0.654402
O O8 0.941417 0.668778 0.992927
O O9 0.367863 0.640631 0.981101
O O10 0.013302 0.888099 0.025706
O O11 0.353721 0.232336 0.566062
O O12 0.000000 0.500000 0.500000
O O13 0.614242 0.197084 0.302320
O O14 0.645928 0.123520 0.140627
O O15 0.281384 0.863729 0.471495
O O16 0.100393 0.893317 0.427973
O O17 0.835818 0.954576 0.945811
#
# Coordination Sequence:
#
# PCOD8042602 Si02
#       8
#     2   2   2   2   2   2   2   2
#     4  11  22  38  55  78 113 151 186 224 270 333
#     4  10  19  36  59  80 108 145 189 226 276 327
#     4  10  19  35  59  82 108 145 189 225 273 329
#     4  11  24  38  54  78 116 152 183 227 279 333
#     4   9  19  37  59  80 108 144 189 226 276 328
#     4   9  19  35  59  83 107 144 186 231 272 328
#     4   9  18  33  56  85 109 134 178 235 284 319
#     4   9  18  33  56  84 110 135 176 236 282 321
#
# _framework density 19.697181
#
# number of rings (size 3 to 8) (size 9 to 14) (size 15 to 20)
#    0.000    2.250    1.250    1.500    1.750    4.000 
#    0.000    0.625    0.000    2.250    0.000    0.000 
#    0.000    0.000    0.000    0.000    0.000    0.000 
#
# Total GULP energy -198220.330070 kJ/mol
# GULP energy per Si atom -12388.770629 kJ/mol
# Density = 1.965235 g / cm^3
# Si number density = 19.697181 Si / 1000 Ang^3
#
#
#
# Elastic Constant Matrix: (Units=GPa)
#
#
# Indices 1 2 3 4 5 6 
#
# 1 76.7164 15.0630 31.1701 7.8720 8.3333 1.5135
# 2 15.0630 61.8461 35.2259 12.4156 -0.3840 -2.8572
# 3 31.1701 35.2259 106.2823 17.4132 -2.1520 -3.8312
# 4 7.8720 12.4156 17.4132 31.9042 5.7252 0.9194
# 5 8.3333 -0.3840 -2.1520 5.7252 35.8885 3.1263
# 6 1.5135 -2.8572 -3.8312 0.9194 3.1263 29.7771
#
#
#
# Elastic Compliance Matrix: (Units=1/GPa)
#
#
# Indices 1 2 3 4 5 6 
#
# 1 0.015444 -0.001424 -0.004119 -0.000313 -0.003707 -0.001053
# 2 -0.001424 0.020749 -0.005594 -0.004867 0.000872 0.001402
# 3 -0.004119 -0.005594 0.013304 -0.004518 0.002303 0.001282
# 4 -0.000313 -0.004867 -0.004518 0.036903 -0.006003 -0.001542
# 5 -0.003707 0.000872 0.002303 -0.006003 0.030039 -0.002400
# 6 -0.001053 0.001402 0.001282 -0.001542 -0.002400 0.034235
#
#
# Mechanical properties :
#
#
# Convention : Reuss Voigt Hill
#
# Bulk Modulus (GPa) = 36.73354 45.30698 41.02026
# Shear Modulus (GPa) = 27.46909 30.40635 28.93772
#
# Velocity S-wave (km/s) = 3.73844 3.93325 3.83708
# Velocity P-wave (km/s) = 6.10936 6.60900 6.36409
#
# Compressibility (1/GPa) = 0.02722308
#
# Stress axis : x y z
#
# Youngs Moduli (GPa) = 64.75118 48.19423 75.16504
#
# Poissons Ratio (x) = 0.06864 0.30961
# Poissons Ratio (y) = 0.09222 0.42046
# Poissons Ratio (z) = 0.26671 0.26959
#
# Static dielectric constant tensor:
#      x y z
#    x 3.542310 0.072210 -0.067270 
#    y 0.072210 3.512230 0.222040 
#    z -0.067270 0.222040 3.744460 
# 
# 
# High freq. dielectric constant tensor:
#      x y z
#    x 1.764420 0.013090 -0.000860 
#    y 0.013090 1.751560 0.017220 
#    z -0.000860 0.017220 1.766110 
# 
# From -- ./inp_files/218636.got.cif
#   From: 2010.06.25/outbox.cif.g09.slc.cpg/sg2_110_cif.got.tgz:218636.got - 2010.06.27 13:26:56.
