data_PCOD8042845
_publ_section_title
;
Structure prediction by ZEFSAII (Michael W. Deem and Ramdas Pophale) SiO2 
 PCOD8042845
Probable space group: P -1
;
_chemical_formula_sum "Si O2"
_cell_formula_units_Z 14
_cell_length_a 12.550061
_cell_length_b 10.438703
_cell_length_c 10.989365
_cell_angle_alpha 45.521942
_cell_angle_beta 87.155719
_cell_angle_gamma 117.589647
_cell_volume 734.021227
_symmetry_space_group_name_H-M "P -1"
_symmetry_group_IT_number 2
_symmetry_cell_setting 'triclinic'
loop_
_space_group_symop_operation_xyz
x,y,z
-x,-y,-z
loop_
_atom_site_type_symbol
_atom_site_label
_atom_site_fract_x
_atom_site_fract_y
_atom_site_fract_z
Si Si1 0.773717 0.404756 0.787434
Si Si2 0.907680 0.160719 0.553886
Si Si3 0.746370 0.266654 0.617400
Si Si4 0.471208 0.726790 0.944019
Si Si5 0.323188 0.361795 0.990348
Si Si6 0.882210 0.720486 0.139088
Si Si7 0.003498 0.534744 0.118802
O O1 0.706195 0.240580 0.778632
O O2 0.918526 0.693937 0.544820
O O3 0.832132 0.317173 0.934321
O O4 0.651486 0.381222 0.874770
O O5 0.865745 0.244065 0.613542
O O6 0.883278 0.253215 0.371753
O O7 0.803768 0.864714 0.759652
O O8 0.810626 0.523629 0.384068
O O9 0.589975 0.027239 0.722233
O O10 0.551827 0.640017 0.041845
O O11 0.395267 0.613397 0.891296
O O12 0.251786 0.334620 0.884784
O O13 0.962554 0.689236 0.055154
O O14 0.000000 0.000000 0.000000
O O15 0.000000 0.500000 0.000000
#
# Coordination Sequence:
#
# PCOD8042845 Si02
#       7
#     2   2   2   2   2   2   2
#     4  10  19  35  63  84 114 151 202 240 286 352
#     4   8  19  34  64  79 116 149 198 240 287 347
#     4  10  20  38  57  87 113 164 192 230 300 357
#     4  10  22  37  61  81 120 163 193 235 290 367
#     4  10  21  40  58  88 119 155 198 238 297 349
#     4  11  23  37  64  89 119 151 201 254 291 340
#     4   9  20  37  59  89 114 150 194 248 292 339
#
# _framework density 19.07302
#
# number of rings (size 3 to 8) (size 9 to 14) (size 15 to 20)
#    0.857    1.429    0.000    2.571    4.000    1.143 
#    2.571    3.571    0.000    0.000    0.000    0.000 
#    0.000    0.000    0.000    0.000    0.000    0.000 
#
# Total GULP energy -173497.994450 kJ/mol
# GULP energy per Si atom -12392.713889 kJ/mol
# Density = 1.902961 g / cm^3
# Si number density = 19.073020 Si / 1000 Ang^3
#
#
#
# Elastic Constant Matrix: (Units=GPa)
#
#
# Indices 1 2 3 4 5 6 
#
# 1 90.1584 49.9881 38.2918 1.4653 -18.2229 -4.4610
# 2 49.9881 145.2204 50.7999 1.4434 1.5054 6.0665
# 3 38.2918 50.7999 88.1608 -14.0872 -7.5774 -1.7658
# 4 1.4653 1.4434 -14.0872 32.0895 2.2082 -6.5331
# 5 -18.2229 1.5054 -7.5774 2.2082 33.2211 7.4705
# 6 -4.4610 6.0665 -1.7658 -6.5331 7.4705 31.3548
#
#
#
# Elastic Compliance Matrix: (Units=1/GPa)
#
#
# Indices 1 2 3 4 5 6 
#
# 1 0.017404 -0.004387 -0.004788 -0.003248 0.008806 0.000280
# 2 -0.004387 0.010224 -0.004738 -0.002665 -0.003173 -0.002668
# 3 -0.004788 -0.004738 0.017643 0.008756 0.000363 0.002967
# 4 -0.003248 -0.002665 0.008756 0.037476 -0.004262 0.009370
# 5 0.008806 -0.003173 0.000363 -0.004262 0.037211 -0.007866
# 6 0.000280 -0.002668 0.002967 0.009370 -0.007866 0.036443
#
#
# Mechanical properties :
#
#
# Convention : Reuss Voigt Hill
#
# Bulk Modulus (GPa) = 57.32273 66.85547 62.08910
# Shear Modulus (GPa) = 26.31012 31.63041 28.97027
#
# Velocity S-wave (km/s) = 3.71811 4.07675 3.90155
# Velocity P-wave (km/s) = 6.96793 7.56890 7.27463
#
# Compressibility (1/GPa) = 0.01744509
#
# Stress axis : x y z
#
# Youngs Moduli (GPa) = 57.45846 97.80577 56.68122
#
# Poissons Ratio (x) = 0.42903 0.27140
# Poissons Ratio (y) = 0.25205 0.26856
# Poissons Ratio (z) = 0.27512 0.46342
#
# Static dielectric constant tensor:
#      x y z
#    x 3.445480 0.021650 -0.108540 
#    y 0.021650 3.426330 -0.101360 
#    z -0.108540 -0.101360 3.382420 
# 
# 
# High freq. dielectric constant tensor:
#      x y z
#    x 1.735000 -0.000950 -0.010930 
#    y -0.000950 1.743160 -0.004390 
#    z -0.010930 -0.004390 1.724090 
# 
# From -- ./inp_files/388155.got.cif
#   From: 2010.06.25/outbox.cif.g09.slc.cpg/sg2_195_cif.got.tgz:388155.got - 2010.06.27 13:26:56.
