data_PCOD8042089
_publ_section_title
;
Structure prediction by ZEFSAII (Michael W. Deem and Ramdas Pophale) SiO2 
 PCOD8042089
Probable space group: P -1
;
_chemical_formula_sum "Si O2"
_cell_formula_units_Z 14
_cell_length_a 9.022326
_cell_length_b 15.020786
_cell_length_c 15.532704
_cell_angle_alpha 19.411887
_cell_angle_beta 86.661025
_cell_angle_gamma 90.460758
_cell_volume 685.737890
_symmetry_space_group_name_H-M "P -1"
_symmetry_group_IT_number 2
_symmetry_cell_setting 'triclinic'
loop_
_space_group_symop_operation_xyz
x,y,z
-x,-y,-z
loop_
_atom_site_type_symbol
_atom_site_label
_atom_site_fract_x
_atom_site_fract_y
_atom_site_fract_z
Si Si1 0.384021 0.120310 0.838093
Si Si2 0.958414 0.344154 0.554248
Si Si3 0.459748 0.556357 0.742882
Si Si4 0.400924 0.706897 0.782320
Si Si5 0.120275 0.835401 0.999148
Si Si6 0.336430 0.855381 0.823268
Si Si7 0.650865 0.437429 0.441527
O O1 0.479414 0.293450 0.601017
O O2 0.298773 0.299826 0.738889
O O3 0.260950 0.885036 0.015131
O O4 0.500000 0.000000 0.000000
O O5 0.777568 0.256859 0.623460
O O6 0.000000 0.500000 0.500000
O O7 0.023450 0.069818 0.799061
O O8 0.022154 0.542922 0.291974
O O9 0.344952 0.599602 0.786502
O O10 0.351832 0.479502 0.734224
O O11 0.583032 0.829829 0.473013
O O12 0.547036 0.310049 0.984247
O O13 0.284414 0.733467 0.840152
O O14 0.500000 0.000000 0.500000
O O15 0.500000 0.500000 0.000000
O O16 0.182057 0.829109 0.905936
#
# Coordination Sequence:
#
# PCOD8042089 Si02
#       7
#     2   2   2   2   2   2   2
#     4  11  23  37  60  83 110 150 191 246 286 323
#     4  12  26  42  56  80 118 161 192 229 285 343
#     4  10  19  34  57  88 113 144 184 243 287 326
#     4   8  16  30  53  83 115 140 175 232 292 332
#     4  12  24  40  60  81 116 154 195 230 282 344
#     4  10  19  35  58  86 114 144 189 233 282 344
#     4  11  24  37  57  84 115 147 194 239 283 337
#
# _framework density 20.415965
#
# number of rings (size 3 to 8) (size 9 to 14) (size 15 to 20)
#    0.000    1.429    2.857    3.000    4.000    0.000 
#    0.000    0.000    0.000    1.714    0.000    0.000 
#    0.000    0.000    0.000    0.000    0.000    0.000 
#
# Total GULP energy -173494.378163 kJ/mol
# GULP energy per Si atom -12392.455583 kJ/mol
# Density = 2.036950 g / cm^3
# Si number density = 20.415965 Si / 1000 Ang^3
#
#
#
# Elastic Constant Matrix: (Units=GPa)
#
#
# Indices 1 2 3 4 5 6 
#
# 1 67.9164 32.3164 8.4052 3.7690 14.2207 -6.9848
# 2 32.3164 125.5031 -2.2844 26.5553 0.5840 -16.2880
# 3 8.4052 -2.2844 84.4272 1.6108 8.7493 -2.2682
# 4 3.7690 26.5553 1.6108 29.0261 -0.2412 0.8922
# 5 14.2207 0.5840 8.7493 -0.2412 29.4166 0.5067
# 6 -6.9848 -16.2880 -2.2682 0.8922 0.5067 23.9007
#
#
#
# Elastic Compliance Matrix: (Units=1/GPa)
#
#
# Indices 1 2 3 4 5 6 
#
# 1 0.019257 -0.005099 -0.001115 0.002086 -0.008897 0.002158
# 2 -0.005099 0.012650 0.001096 -0.011192 0.001665 0.007617
# 3 -0.001115 0.001096 0.012395 -0.001625 -0.003213 0.001726
# 4 0.002086 -0.011192 -0.001625 0.044784 0.000217 -0.008848
# 5 -0.008897 0.001665 -0.003213 0.000217 0.039264 -0.002611
# 6 0.002158 0.007617 0.001726 -0.008848 -0.002611 0.048211
#
#
# Mechanical properties :
#
#
# Convention : Reuss Voigt Hill
#
# Bulk Modulus (GPa) = 29.35499 39.41345 34.38422
# Shear Modulus (GPa) = 25.23301 32.42932 28.83116
#
# Velocity S-wave (km/s) = 3.51942 3.98983 3.76198
# Velocity P-wave (km/s) = 5.56100 6.36963 5.97900
#
# Compressibility (1/GPa) = 0.03406575
#
# Stress axis : x y z
#
# Youngs Moduli (GPa) = 51.92895 79.05339 80.67465
#
# Poissons Ratio (x) = 0.40308 0.08995
# Poissons Ratio (y) = 0.26477 -0.08838
# Poissons Ratio (z) = 0.05790 -0.08660
#
# Static dielectric constant tensor:
#      x y z
#    x 3.619040 -0.437240 0.009250 
#    y -0.437240 4.484420 0.194510 
#    z 0.009250 0.194510 4.040880 
# 
# 
# High freq. dielectric constant tensor:
#      x y z
#    x 1.752460 -0.024190 0.010740 
#    y -0.024190 1.812150 0.008720 
#    z 0.010740 0.008720 1.815820 
# 
# From -- ./inp_files/32549.got.cif
#   From: 2010.06.25/outbox.cif.g09.slc.cpg/sg2_17_cif.got.tgz:32549.got - 2010.06.27 13:26:56.
