data_PCOD8042085
_publ_section_title
;
Structure prediction by ZEFSAII (Michael W. Deem and Ramdas Pophale) SiO2 
 PCOD8042085
Probable space group: P -1
;
_chemical_formula_sum "Si O2"
_cell_formula_units_Z 16
_cell_length_a 5.047234
_cell_length_b 9.868565
_cell_length_c 17.639792
_cell_angle_alpha 72.923043
_cell_angle_beta 102.409198
_cell_angle_gamma 94.626200
_cell_volume 820.115887
_symmetry_space_group_name_H-M "P -1"
_symmetry_group_IT_number 2
_symmetry_cell_setting 'triclinic'
loop_
_space_group_symop_operation_xyz
x,y,z
-x,-y,-z
loop_
_atom_site_type_symbol
_atom_site_label
_atom_site_fract_x
_atom_site_fract_y
_atom_site_fract_z
Si Si1 0.618922 0.185569 0.826035
Si Si2 0.233591 0.906587 0.999307
Si Si3 0.443540 0.939442 0.424537
Si Si4 0.090654 0.926991 0.666703
Si Si5 0.560725 0.553155 0.319127
Si Si6 0.952544 0.627702 0.634890
Si Si7 0.091684 0.995920 0.824733
Si Si8 0.330295 0.360538 0.529744
O O1 0.596782 0.338357 0.761439
O O2 0.320874 0.117521 0.820909
O O3 0.811837 0.078715 0.809035
O O4 0.725373 0.216445 0.914634
O O5 0.150125 0.872293 0.912405
O O6 0.500000 0.000000 0.000000
O O7 0.000000 0.000000 0.000000
O O8 0.622360 0.022891 0.358661
O O9 0.126443 0.953412 0.385070
O O10 0.500000 0.000000 0.500000
O O11 0.492950 0.774050 0.457078
O O12 0.988470 0.779570 0.650111
O O13 0.100847 0.911793 0.760464
O O14 0.338888 0.436239 0.349571
O O15 0.716773 0.638246 0.382783
O O16 0.801371 0.469653 0.306037
O O17 0.943108 0.643116 0.538904
O O18 0.500000 0.500000 0.500000
#
# Coordination Sequence:
#
# PCOD8042085 Si02
#       8
#     2   2   2   2   2   2   2   2
#     4  10  19  35  57  86 115 140 181 233 286 335
#     4   8  16  30  53  82 114 141 171 224 285 337
#     4  12  25  41  60  83 112 151 191 235 285 332
#     4  12  24  39  60  80 115 148 192 231 279 338
#     4  11  22  37  56  79 108 144 192 230 278 333
#     4  11  24  38  54  77 109 151 187 231 279 327
#     4  10  19  34  57  87 112 143 182 227 285 340
#     4  10  23  39  58  80 109 144 188 235 280 329
#
# _framework density 19.509440000000001
#
# number of rings (size 3 to 8) (size 9 to 14) (size 15 to 20)
#    0.000    1.500    1.250    4.500    1.750    3.000 
#    0.000    0.000    0.000    1.500    0.000    0.000 
#    0.000    0.000    0.000    0.000    0.000    0.000 
#
# Total GULP energy -198252.940327 kJ/mol
# GULP energy per Si atom -12390.808770 kJ/mol
# Density = 1.946504 g / cm^3
# Si number density = 19.509440 Si / 1000 Ang^3
#
#
#
# Elastic Constant Matrix: (Units=GPa)
#
#
# Indices 1 2 3 4 5 6 
#
# 1 85.8397 12.9079 14.1267 1.5485 5.6014 -10.4207
# 2 12.9079 97.7903 43.7389 -4.1163 2.8972 -7.1085
# 3 14.1267 43.7389 148.9899 2.8089 2.1269 -10.3933
# 4 1.5485 -4.1163 2.8089 22.2814 -5.9488 3.7129
# 5 5.6014 2.8972 2.1269 -5.9488 29.4662 -2.1453
# 6 -10.4207 -7.1085 -10.3933 3.7129 -2.1453 20.7460
#
#
#
# Elastic Compliance Matrix: (Units=1/GPa)
#
#
# Indices 1 2 3 4 5 6 
#
# 1 0.012828 -0.001125 -0.000375 -0.002711 -0.002404 0.006107
# 2 -0.001125 0.012103 -0.003392 0.002469 -0.000129 0.001428
# 3 -0.000375 -0.003392 0.008001 -0.002218 -0.000401 0.003013
# 4 -0.002711 0.002469 -0.002218 0.050024 0.009836 -0.009563
# 5 -0.002404 -0.000129 -0.000401 0.009836 0.036462 0.000558
# 6 0.006107 0.001428 0.003013 -0.009563 0.000558 0.055037
#
#
# Mechanical properties :
#
#
# Convention : Reuss Voigt Hill
#
# Bulk Modulus (GPa) = 43.19727 52.68522 47.94125
# Shear Modulus (GPa) = 26.04802 31.95515 29.00158
#
# Velocity S-wave (km/s) = 3.65793 4.05153 3.85975
# Velocity P-wave (km/s) = 6.32696 6.99644 6.67010
#
# Compressibility (1/GPa) = 0.02314961
#
# Stress axis : x y z
#
# Youngs Moduli (GPa) = 77.95740 82.62494 124.98746
#
# Poissons Ratio (x) = 0.09292 0.04683
# Poissons Ratio (y) = 0.08767 0.42390
# Poissons Ratio (z) = 0.02921 0.28022
#
# Static dielectric constant tensor:
#      x y z
#    x 3.644620 0.046360 -0.181370 
#    y 0.046360 2.857870 0.521370 
#    z -0.181370 0.521370 3.478300 
# 
# 
# High freq. dielectric constant tensor:
#      x y z
#    x 1.776210 -0.004240 0.006110 
#    y -0.004240 1.725580 0.000670 
#    z 0.006110 0.000670 1.771840 
# 
# From -- ./inp_files/105028.got.cif
#   From: 2010.06.25/outbox.cif.g09.slc.cpg/sg2_53_cif.got.tgz:105028.got - 2010.06.27 13:26:56.
