data_PCOD8042853
_publ_section_title
;
Structure prediction by ZEFSAII (Michael W. Deem and Ramdas Pophale) SiO2 
 PCOD8042853
Probable space group: P -1
;
_chemical_formula_sum "Si O2"
_cell_formula_units_Z 14
_cell_length_a 14.938065
_cell_length_b 9.177907
_cell_length_c 9.578858
_cell_angle_alpha 64.314765
_cell_angle_beta 36.797318
_cell_angle_gamma 81.250304
_cell_volume 661.051645
_symmetry_space_group_name_H-M "P -1"
_symmetry_group_IT_number 2
_symmetry_cell_setting 'triclinic'
loop_
_space_group_symop_operation_xyz
x,y,z
-x,-y,-z
loop_
_atom_site_type_symbol
_atom_site_label
_atom_site_fract_x
_atom_site_fract_y
_atom_site_fract_z
Si Si1 0.136372 0.077340 0.554114
Si Si2 0.340980 0.941141 0.900266
Si Si3 0.035241 0.300284 0.173356
Si Si4 0.695777 0.038045 0.378417
Si Si5 0.979449 0.317011 0.544434
Si Si6 0.250235 0.633198 0.636268
Si Si7 0.433850 0.142787 0.962076
O O1 0.050737 0.216944 0.608610
O O2 0.187735 0.045386 0.658741
O O3 0.297644 0.155899 0.227929
O O4 0.004723 0.899905 0.732844
O O5 0.272784 0.964814 0.824103
O O6 0.510890 0.916201 0.686709
O O7 0.357567 0.097266 0.921265
O O8 0.210861 0.773889 0.202210
O O9 0.071430 0.324018 0.282268
O O10 0.883121 0.352231 0.308219
O O11 0.193799 0.434892 0.843870
O O12 0.727768 0.231134 0.318846
O O13 0.000000 0.500000 0.500000
O O14 0.414343 0.677584 0.323453
O O15 0.500000 0.000000 0.000000
#
# Coordination Sequence:
#
# PCOD8042853 Si02
#       7
#     2   2   2   2   2   2   2
#     4  11  22  39  65  91 122 159 216 248 296 370
#     4  10  19  35  63  87 123 162 198 240 313 362
#     4  10  19  36  61  92 119 159 202 251 301 368
#     4   9  19  36  61  92 121 163 201 245 300 376
#     4  12  25  39  60  86 126 165 207 259 308 353
#     4   9  18  33  62  91 125 154 200 249 307 358
#     4  11  17  36  65  95 118 164 203 245 301 368
#
# _framework density 21.178376
#
# number of rings (size 3 to 8) (size 9 to 14) (size 15 to 20)
#    0.000    1.714    5.714    1.286    0.000    0.571 
#    0.000    1.429    6.286    0.000    0.000    0.000 
#    0.000    0.000    0.000    0.000    0.000    0.000 
#
# Total GULP energy -173535.233446 kJ/mol
# GULP energy per Si atom -12395.373818 kJ/mol
# Density = 2.113017 g / cm^3
# Si number density = 21.178376 Si / 1000 Ang^3
#
#
#
# Elastic Constant Matrix: (Units=GPa)
#
#
# Indices 1 2 3 4 5 6 
#
# 1 107.1380 39.3905 20.3524 -9.2338 12.4383 7.9975
# 2 39.3905 86.4886 32.0505 -18.9267 -0.9259 -13.0845
# 3 20.3524 32.0505 136.5634 -29.5167 -18.4991 1.8847
# 4 -9.2338 -18.9267 -29.5167 25.4754 7.3436 4.6764
# 5 12.4383 -0.9259 -18.4991 7.3436 36.1554 3.4236
# 6 7.9975 -13.0845 1.8847 4.6764 3.4236 21.0411
#
#
#
# Elastic Compliance Matrix: (Units=1/GPa)
#
#
# Indices 1 2 3 4 5 6 
#
# 1 0.013325 -0.006848 -0.000379 0.002280 -0.004559 -0.009054
# 2 -0.006848 0.019023 -0.002276 0.006857 -0.000971 0.013270
# 3 -0.000379 -0.002276 0.010788 0.010487 0.003955 -0.005212
# 4 0.002280 0.006857 0.010487 0.061098 -0.006703 -0.010030
# 5 -0.004559 -0.000971 0.003955 -0.006703 0.032879 -0.003085
# 6 -0.009054 0.013270 -0.005212 -0.010030 -0.003085 0.062418
#
#
# Mechanical properties :
#
#
# Convention : Reuss Voigt Hill
#
# Bulk Modulus (GPa) = 41.44444 57.08632 49.26538
# Shear Modulus (GPa) = 22.06729 32.42749 27.24739
#
# Velocity S-wave (km/s) = 3.23146 3.91725 3.59077
# Velocity P-wave (km/s) = 5.79093 6.89009 6.36428
#
# Compressibility (1/GPa) = 0.02412869
#
# Stress axis : x y z
#
# Youngs Moduli (GPa) = 75.04621 52.56928 92.69842
#
# Poissons Ratio (x) = 0.36001 0.03509
# Poissons Ratio (y) = 0.51394 0.21103
# Poissons Ratio (z) = 0.02841 0.11967
#
# Static dielectric constant tensor:
#      x y z
#    x 3.935540 0.200510 0.014370 
#    y 0.200510 3.280150 -0.139020 
#    z 0.014370 -0.139020 4.219520 
# 
# 
# High freq. dielectric constant tensor:
#      x y z
#    x 1.842050 0.009420 -0.003000 
#    y 0.009420 1.773550 -0.001610 
#    z -0.003000 -0.001610 1.849680 
# 
# From -- ./inp_files/295288.got.cif
#   From: 2010.06.25/outbox.cif.g09.slc.cpg/sg2_148_cif.got.tgz:295288.got - 2010.06.27 13:26:56.
