data_PCOD8042009
_publ_section_title
;
Structure prediction by ZEFSAII (Michael W. Deem and Ramdas Pophale) SiO2 
 PCOD8042009
Probable space group: P -1
;
_chemical_formula_sum "Si O2"
_cell_formula_units_Z 16
_cell_length_a 12.154822
_cell_length_b 16.600826
_cell_length_c 10.107513
_cell_angle_alpha 146.314567
_cell_angle_beta 58.129129
_cell_angle_gamma 106.573909
_cell_volume 907.769612
_symmetry_space_group_name_H-M "P -1"
_symmetry_group_IT_number 2
_symmetry_cell_setting 'triclinic'
loop_
_space_group_symop_operation_xyz
x,y,z
-x,-y,-z
loop_
_atom_site_type_symbol
_atom_site_label
_atom_site_fract_x
_atom_site_fract_y
_atom_site_fract_z
Si Si1 0.160826 0.060638 0.591667
Si Si2 0.617624 0.802548 0.044979
Si Si3 0.850893 0.187271 0.940702
Si Si4 0.550935 0.370932 0.683053
Si Si5 0.136450 0.097368 0.954763
Si Si6 0.600153 0.484364 0.534873
Si Si7 0.431014 0.126852 0.530403
Si Si8 0.163130 0.843251 0.797326
O O1 0.167189 0.012189 0.676127
O O2 0.277093 0.139871 0.600409
O O3 0.010117 0.179128 0.810798
O O4 0.193470 0.905609 0.274031
O O5 0.777353 0.788002 0.928708
O O6 0.559507 0.814739 0.247083
O O7 0.528302 0.949444 0.216634
O O8 0.615482 0.649229 0.768830
O O9 0.750248 0.362406 0.242002
O O10 0.837002 0.108940 0.983066
O O11 0.524536 0.438683 0.645219
O O12 0.483765 0.235616 0.550195
O O13 0.713739 0.310101 0.520559
O O14 0.500000 0.500000 0.000000
O O15 0.183620 0.975896 0.875895
O O16 0.975690 0.192288 0.199782
O O17 0.500000 0.500000 0.500000
#
# Coordination Sequence:
#
# PCOD8042009 Si02
#       8
#     2   2   2   2   2   2   2   2
#     4   9  18  34  57  80 104 145 179 217 259 326
#     4  10  19  34  56  81 109 138 184 221 259 319
#     4   9  19  36  54  79 109 140 179 219 267 319
#     4  11  21  37  54  79 113 141 177 222 267 321
#     4   9  17  33  57  80 103 138 181 219 259 312
#     4  11  23  38  54  80 111 144 176 223 278 315
#     4  10  19  34  57  83 103 142 186 218 259 318
#     4   9  18  33  52  82 106 136 176 219 268 306
#
# _framework density 17.625616999999998
#
# number of rings (size 3 to 8) (size 9 to 14) (size 15 to 20)
#    0.000    2.250    2.500    0.750    0.000    1.000 
#    4.500    4.375    0.000    0.750    0.000    0.000 
#    0.000    0.000    0.000    0.000    0.000    0.000 
#
# Total GULP energy -198351.964181 kJ/mol
# GULP energy per Si atom -12396.997761 kJ/mol
# Density = 1.758550 g / cm^3
# Si number density = 17.625617 Si / 1000 Ang^3
#
#
#
# Elastic Constant Matrix: (Units=GPa)
#
#
# Indices 1 2 3 4 5 6 
#
# 1 110.9808 58.8137 61.6111 2.6201 7.9420 -2.0508
# 2 58.8137 108.9342 52.7164 4.2119 4.0498 2.3884
# 3 61.6111 52.7164 125.0135 7.0056 6.3579 2.4826
# 4 2.6201 4.2119 7.0056 21.4448 5.3756 -0.2706
# 5 7.9420 4.0498 6.3579 5.3756 25.7665 0.5766
# 6 -2.0508 2.3884 2.4826 -0.2706 0.5766 25.2455
#
#
#
# Elastic Compliance Matrix: (Units=1/GPa)
#
#
# Indices 1 2 3 4 5 6 
#
# 1 0.015010 -0.005699 -0.004987 0.001671 -0.002901 0.002333
# 2 -0.005699 0.013723 -0.002911 -0.001219 0.000606 -0.001502
# 3 -0.004987 -0.002911 0.011876 -0.002625 -0.000359 -0.001318
# 4 0.001671 -0.001219 -0.002625 0.050085 -0.010154 0.001278
# 5 -0.002901 0.000606 -0.000359 -0.010154 0.041845 -0.001322
# 6 0.002333 -0.001502 -0.001318 0.001278 -0.001322 0.040116
#
#
# Mechanical properties :
#
#
# Convention : Reuss Voigt Hill
#
# Bulk Modulus (GPa) = 74.53832 76.80122 75.66977
# Shear Modulus (GPa) = 24.47127 25.94385 25.20756
#
# Velocity S-wave (km/s) = 3.73016 3.84075 3.78586
# Velocity P-wave (km/s) = 7.80600 7.95844 7.88259
#
# Compressibility (1/GPa) = 0.01341592
#
# Stress axis : x y z
#
# Youngs Moduli (GPa) = 66.62063 72.87175 84.20406
#
# Poissons Ratio (x) = 0.41527 0.41993
# Poissons Ratio (y) = 0.37965 0.24511
# Poissons Ratio (z) = 0.33224 0.21212
#
# Static dielectric constant tensor:
#      x y z
#    x 3.747340 -0.268890 -0.455650 
#    y -0.268890 3.531490 0.023990 
#    z -0.455650 0.023990 3.447180 
# 
# 
# High freq. dielectric constant tensor:
#      x y z
#    x 1.689350 -0.001210 -0.014430 
#    y -0.001210 1.671350 -0.013810 
#    z -0.014430 -0.013810 1.674940 
# 
# From -- ./inp_files/260317.got.cif
#   From: 2010.06.25/outbox.cif.g09.slc.cpg/sg2_131_cif.got.tgz:260317.got - 2010.06.27 13:26:56.
