data_PCOD8042913
_publ_section_title
;
Structure prediction by ZEFSAII (Michael W. Deem and Ramdas Pophale) SiO2 
 PCOD8042913
Probable space group: P -1
;
_chemical_formula_sum "Si O2"
_cell_formula_units_Z 14
_cell_length_a 9.081182
_cell_length_b 8.469201
_cell_length_c 14.435145
_cell_angle_alpha 66.972836
_cell_angle_beta 135.086314
_cell_angle_gamma 90.469642
_cell_volume 656.768639
_symmetry_space_group_name_H-M "P -1"
_symmetry_group_IT_number 2
_symmetry_cell_setting 'triclinic'
loop_
_space_group_symop_operation_xyz
x,y,z
-x,-y,-z
loop_
_atom_site_type_symbol
_atom_site_label
_atom_site_fract_x
_atom_site_fract_y
_atom_site_fract_z
Si Si1 0.917213 0.470819 0.868653
Si Si2 0.755771 0.851032 0.032584
Si Si3 0.359222 0.231193 0.717090
Si Si4 0.444288 0.512770 0.579763
Si Si5 0.413520 0.408379 0.878844
Si Si6 0.120897 0.707096 0.809869
Si Si7 0.004438 0.129030 0.675145
O O1 0.658118 0.489306 0.746217
O O2 0.073456 0.263424 0.946520
O O3 0.932457 0.628993 0.770359
O O4 0.000000 0.500000 0.000000
O O5 0.598839 0.746056 0.018686
O O6 0.885113 0.879972 0.173066
O O7 0.598878 0.052206 0.874234
O O8 0.359702 0.344362 0.597906
O O9 0.327760 0.386657 0.745517
O O10 0.147902 0.172229 0.646705
O O11 0.500000 0.500000 0.500000
O O12 0.251048 0.714344 0.473989
O O13 0.246625 0.618272 0.789387
O O14 0.680923 0.368746 0.005277
O O15 0.994564 0.931125 0.693740
#
# Coordination Sequence:
#
# PCOD8042913 Si02
#       7
#     2   2   2   2   2   2   2
#     4  11  25  42  65  96 135 180 218 264 327 399
#     4  10  19  38  71 100 124 166 234 269 316 384
#     4  11  21  40  70  99 122 174 231 270 313 396
#     4  12  27  45  64  94 142 178 213 267 335 392
#     4   9  17  34  64 100 128 158 214 285 320 366
#     4  10  19  35  64  95 133 163 213 273 332 370
#     4  11  21  42  68 101 129 172 219 279 327 387
#
# _framework density 21.316488
#
# number of rings (size 3 to 8) (size 9 to 14) (size 15 to 20)
#    0.000    1.429    4.286    2.143    0.000    2.286 
#    0.000    0.714    0.000    0.000    0.000    0.000 
#    0.000    0.000    0.000    0.000    0.000    0.000 
#
# Total GULP energy -173602.993834 kJ/mol
# GULP energy per Si atom -12400.213845 kJ/mol
# Density = 2.126797 g / cm^3
# Si number density = 21.316488 Si / 1000 Ang^3
#
#
#
# Elastic Constant Matrix: (Units=GPa)
#
#
# Indices 1 2 3 4 5 6 
#
# 1 96.5084 42.4191 45.9539 -25.2552 7.2948 -0.1948
# 2 42.4191 121.8387 38.8935 -30.8066 5.8544 -10.7819
# 3 45.9539 38.8935 79.4491 -22.3531 12.3965 -10.5593
# 4 -25.2552 -30.8066 -22.3531 36.0329 -1.7975 4.8331
# 5 7.2948 5.8544 12.3965 -1.7975 34.9288 -1.0617
# 6 -0.1948 -10.7819 -10.5593 4.8331 -1.0617 28.0792
#
#
#
# Elastic Compliance Matrix: (Units=1/GPa)
#
#
# Indices 1 2 3 4 5 6 
#
# 1 0.016317 -0.002347 -0.007297 0.005491 -0.000278 -0.004488
# 2 -0.002347 0.011601 -0.002075 0.006635 -0.000300 0.002504
# 3 -0.007297 -0.002075 0.020800 0.004967 -0.005075 0.005928
# 4 0.005491 0.006635 0.004967 0.040605 -0.002012 -0.002611
# 5 -0.000278 -0.000300 -0.005075 -0.002012 0.030420 -0.000529
# 6 -0.004488 0.002504 0.005928 -0.002611 -0.000529 0.039203
#
#
# Mechanical properties :
#
#
# Convention : Reuss Voigt Hill
#
# Bulk Modulus (GPa) = 39.55686 61.36990 50.46338
# Shear Modulus (GPa) = 26.20415 31.17683 28.69049
#
# Velocity S-wave (km/s) = 3.50993 3.82850 3.67267
# Velocity P-wave (km/s) = 5.91805 6.95670 6.45829
#
# Compressibility (1/GPa) = 0.02528006
#
# Stress axis : x y z
#
# Youngs Moduli (GPa) = 61.28639 86.20112 48.07660
#
# Poissons Ratio (x) = 0.20230 0.35081
# Poissons Ratio (y) = 0.14383 0.09977
# Poissons Ratio (z) = 0.44720 0.17888
#
# Static dielectric constant tensor:
#      x y z
#    x 3.995430 0.032530 0.155730 
#    y 0.032530 4.015020 -0.036090 
#    z 0.155730 -0.036090 3.550980 
# 
# 
# High freq. dielectric constant tensor:
#      x y z
#    x 1.837660 -0.000410 0.013390 
#    y -0.000410 1.844610 -0.006750 
#    z 0.013390 -0.006750 1.812600 
# 
# From -- ./inp_files/153785.got.cif
#   From: 2010.06.25/outbox.cif.g09.slc.cpg/sg2_77_cif.got.tgz:153785.got - 2010.06.27 13:26:56.
