data_PCOD8042095
_publ_section_title
;
Structure prediction by ZEFSAII (Michael W. Deem and Ramdas Pophale) SiO2 
 PCOD8042095
Probable space group: P -1
;
_chemical_formula_sum "Si O2"
_cell_formula_units_Z 14
_cell_length_a 12.139649
_cell_length_b 14.871658
_cell_length_c 12.884317
_cell_angle_alpha 20.230596
_cell_angle_beta 83.627815
_cell_angle_gamma 93.247546
_cell_volume 706.500168
_symmetry_space_group_name_H-M "P -1"
_symmetry_group_IT_number 2
_symmetry_cell_setting 'triclinic'
loop_
_space_group_symop_operation_xyz
x,y,z
-x,-y,-z
loop_
_atom_site_type_symbol
_atom_site_label
_atom_site_fract_x
_atom_site_fract_y
_atom_site_fract_z
Si Si1 0.494029 0.707770 0.864803
Si Si2 0.133238 0.617134 0.414978
Si Si3 0.844684 0.482087 0.243885
Si Si4 0.217027 0.374582 0.310261
Si Si5 0.746116 0.921087 0.729728
Si Si6 0.116418 0.820902 0.770115
Si Si7 0.855023 0.824682 0.236174
O O1 0.606787 0.790359 0.842488
O O2 0.500000 0.000000 0.500000
O O3 0.500000 0.500000 0.000000
O O4 0.366882 0.534352 0.130969
O O5 0.111776 0.531039 0.630257
O O6 0.209512 0.471039 0.506757
O O7 0.000000 0.500000 0.500000
O O8 0.209504 0.970057 0.007810
O O9 0.762413 0.153645 0.565586
O O10 0.762645 0.653316 0.066079
O O11 0.967055 0.653157 0.975230
O O12 0.154699 0.248637 0.562902
O O13 0.174025 0.108500 0.523317
O O14 0.173806 0.607424 0.024623
O O15 0.850377 0.081247 0.457661
O O16 0.000000 0.000000 0.000000
#
# Coordination Sequence:
#
# PCOD8042095 Si02
#       7
#     2   2   2   2   2   2   2
#     4  12  23  44  64  88 125 171 218 253 288 365
#     4  10  20  37  58  84 119 154 201 252 303 368
#     4  12  24  39  61  93 128 169 199 253 329 376
#     4  12  22  38  67  94 122 165 212 265 302 356
#     4  12  24  40  60  88 132 168 207 250 308 375
#     4  12  22  38  60  93 131 162 205 249 316 382
#     4  10  19  34  57  90 118 147 197 262 313 349
#
# _framework density 19.815988999999998
#
# number of rings (size 3 to 8) (size 9 to 14) (size 15 to 20)
#    0.000    0.571    2.857    8.571    0.000    0.000 
#    0.000    0.000    0.000    5.143    0.000    0.000 
#    0.000    0.000    0.000    0.000    0.000    0.000 
#
# Total GULP energy -173625.104586 kJ/mol
# GULP energy per Si atom -12401.793185 kJ/mol
# Density = 1.977089 g / cm^3
# Si number density = 19.815989 Si / 1000 Ang^3
#
#
#
# Elastic Constant Matrix: (Units=GPa)
#
#
# Indices 1 2 3 4 5 6 
#
# 1 97.5910 38.8985 46.7797 -18.9133 18.9821 13.6994
# 2 38.8985 115.0730 75.0847 -1.8012 26.6539 6.8713
# 3 46.7797 75.0847 90.7813 -22.8692 33.4586 -17.4353
# 4 -18.9133 -1.8012 -22.8692 44.9785 -11.0050 1.2500
# 5 18.9821 26.6539 33.4586 -11.0050 43.3174 -13.0258
# 6 13.6994 6.8713 -17.4353 1.2500 -13.0258 30.7222
#
#
#
# Elastic Compliance Matrix: (Units=1/GPa)
#
#
# Indices 1 2 3 4 5 6 
#
# 1 0.023908 0.015538 -0.030080 -0.005783 -0.008695 -0.034658
# 2 0.015538 0.049449 -0.061062 -0.024237 -0.013481 -0.057372
# 3 -0.030080 -0.061062 0.098999 0.035049 0.008936 0.085616
# 4 -0.005783 -0.024237 0.035049 0.038044 0.009126 0.030211
# 5 -0.008695 -0.013481 0.008936 0.009126 0.039074 0.028160
# 6 -0.034658 -0.057372 0.085616 0.030211 0.028160 0.120135
#
#
# Mechanical properties :
#
#
# Convention : Reuss Voigt Hill
#
# Bulk Modulus (GPa) = 47.28406 69.44124 58.36265
# Shear Modulus (GPa) = 9.47210 33.31579 21.39395
#
# Velocity S-wave (km/s) = 2.18870 4.10476 3.28934
# Velocity P-wave (km/s) = 5.50460 7.58845 6.62892
#
# Compressibility (1/GPa) = 0.02114878
#
# Stress axis : x y z
#
# Youngs Moduli (GPa) = 41.82749 20.22269 10.10112
#
# Poissons Ratio (x) = -0.31423 0.30384
# Poissons Ratio (y) = -0.64994 0.61680
# Poissons Ratio (z) = 1.25817 1.23484
#
# Static dielectric constant tensor:
#      x y z
#    x 1.839300 1.491610 -2.298250 
#    y 1.491610 2.129530 2.202020 
#    z -2.298250 2.202020 0.156200 
# 
# 
# High freq. dielectric constant tensor:
#      x y z
#    x 1.757220 -0.014190 0.031070 
#    y -0.014190 1.781960 -0.011700 
#    z 0.031070 -0.011700 1.786170 
# 
# From -- ./inp_files/65793.got.cif
#   From: 2010.06.25/outbox.cif.g09.slc.cpg/sg2_33_cif.got.tgz:65793.got - 2010.06.27 13:26:56.
