data_PCOD8042684
_publ_section_title
;
Structure prediction by ZEFSAII (Michael W. Deem and Ramdas Pophale) SiO2 
 PCOD8042684
Probable space group: P -1
;
_chemical_formula_sum "Si O2"
_cell_formula_units_Z 16
_cell_length_a 14.272283
_cell_length_b 13.941475
_cell_length_c 9.241797
_cell_angle_alpha 54.965581
_cell_angle_beta 134.448923
_cell_angle_gamma 140.486636
_cell_volume 832.926327
_symmetry_space_group_name_H-M "P -1"
_symmetry_group_IT_number 2
_symmetry_cell_setting 'triclinic'
loop_
_space_group_symop_operation_xyz
x,y,z
-x,-y,-z
loop_
_atom_site_type_symbol
_atom_site_label
_atom_site_fract_x
_atom_site_fract_y
_atom_site_fract_z
Si Si1 0.920324 0.648340 0.533205
Si Si2 0.863571 0.987236 0.956019
Si Si3 0.240849 0.782881 0.948096
Si Si4 0.771050 0.326204 0.669839
Si Si5 0.845647 0.866163 0.353423
Si Si6 0.106537 0.761777 0.349193
Si Si7 0.596235 0.881717 0.218564
Si Si8 0.387808 0.075353 0.471974
O O1 0.774430 0.469352 0.557718
O O2 0.857703 0.732885 0.466064
O O3 0.092451 0.694803 0.747469
O O4 0.953804 0.680030 0.370369
O O5 0.850930 0.927239 0.150804
O O6 0.922614 0.156281 0.877812
O O7 0.686187 0.876839 0.770115
O O8 0.000000 0.000000 0.000000
O O9 0.310724 0.953959 0.894266
O O10 0.163393 0.694156 0.092730
O O11 0.394064 0.782598 0.064542
O O12 0.885901 0.355163 0.630258
O O13 0.585101 0.169307 0.574852
O O14 0.666984 0.803987 0.285645
O O15 0.000000 0.000000 0.500000
O O16 0.285788 0.893909 0.509371
O O17 0.642850 0.893543 0.427004
#
# Coordination Sequence:
#
# PCOD8042684 Si02
#       8
#     2   2   2   2   2   2   2   2
#     4  12  23  38  57  88 124 148 190 243 289 346
#     4  10  19  35  60  85 109 146 199 239 273 333
#     4  10  20  38  58  86 116 151 192 240 281 345
#     4  11  23  37  58  87 118 152 190 237 298 337
#     4  12  21  36  60  90 114 151 190 240 290 342
#     4  10  20  37  61  80 111 153 194 235 280 337
#     4  10  19  36  63  86 112 148 201 241 278 332
#     4   9  20  38  60  85 111 148 194 243 274 341
#
# _framework density 19.209381
#
# number of rings (size 3 to 8) (size 9 to 14) (size 15 to 20)
#    0.750    0.750    3.750    2.625    0.000    1.000 
#    0.000    3.125    2.750    0.000    0.000    0.000 
#    0.000    0.000    0.000    0.000    0.000    0.000 
#
# Total GULP energy -198279.673594 kJ/mol
# GULP energy per Si atom -12392.479600 kJ/mol
# Density = 1.916566 g / cm^3
# Si number density = 19.209381 Si / 1000 Ang^3
#
#
#
# Elastic Constant Matrix: (Units=GPa)
#
#
# Indices 1 2 3 4 5 6 
#
# 1 139.6714 18.8550 35.1661 -4.9882 0.1523 -16.0489
# 2 18.8550 49.6377 15.4733 -16.8456 1.4501 -7.9269
# 3 35.1661 15.4733 111.1555 0.4967 -7.3861 -5.9071
# 4 -4.9882 -16.8456 0.4967 22.5289 2.9946 4.4678
# 5 0.1523 1.4501 -7.3861 2.9946 31.7338 -3.4577
# 6 -16.0489 -7.9269 -5.9071 4.4678 -3.4577 23.3351
#
#
#
# Elastic Compliance Matrix: (Units=1/GPa)
#
#
# Indices 1 2 3 4 5 6 
#
# 1 0.008494 -0.001973 -0.002151 -0.000502 0.000113 0.004740
# 2 -0.001973 0.030203 -0.003780 0.022144 -0.004001 0.003114
# 3 -0.002151 -0.003780 0.010492 -0.004182 0.003146 0.001160
# 4 -0.000502 0.022144 -0.004182 0.063551 -0.008781 -0.007350
# 5 0.000113 -0.004001 0.003146 -0.008781 0.033933 0.006224
# 6 0.004740 0.003114 0.001160 -0.007350 0.006224 0.049795
#
#
# Mechanical properties :
#
#
# Convention : Reuss Voigt Hill
#
# Bulk Modulus (GPa) = 29.95553 48.82816 39.39185
# Shear Modulus (GPa) = 22.38106 30.91759 26.64933
#
# Velocity S-wave (km/s) = 3.41708 4.01622 3.72870
# Velocity P-wave (km/s) = 5.58539 6.85425 6.25209
#
# Compressibility (1/GPa) = 0.03338282
#
# Stress axis : x y z
#
# Youngs Moduli (GPa) = 117.72804 33.10953 95.30673
#
# Poissons Ratio (x) = 0.06531 0.20501
# Poissons Ratio (y) = 0.23223 0.36022
# Poissons Ratio (z) = 0.25324 0.12514
#
# Static dielectric constant tensor:
#      x y z
#    x 3.411110 0.002030 0.201600 
#    y 0.002030 3.230630 -0.020610 
#    z 0.201600 -0.020610 3.335880 
# 
# 
# High freq. dielectric constant tensor:
#      x y z
#    x 1.751190 0.001240 -0.009150 
#    y 0.001240 1.711560 -0.001800 
#    z -0.009150 -0.001800 1.753910 
# 
# From -- ./inp_files/311034.got.cif
#   From: 2010.06.25/outbox.cif.g09.slc.cpg/sg2_156_cif.got.tgz:311034.got - 2010.06.27 13:26:56.
