data_PCOD8042472
_publ_section_title
;
Structure prediction by ZEFSAII (Michael W. Deem and Ramdas Pophale) SiO2 
 PCOD8042472
Probable space group: P -1
;
_chemical_formula_sum "Si O2"
_cell_formula_units_Z 14
_cell_length_a 12.699541
_cell_length_b 9.784949
_cell_length_c 18.596227
_cell_angle_alpha 71.502797
_cell_angle_beta 35.541404
_cell_angle_gamma 45.730112
_cell_volume 767.772104
_symmetry_space_group_name_H-M "P -1"
_symmetry_group_IT_number 2
_symmetry_cell_setting 'triclinic'
loop_
_space_group_symop_operation_xyz
x,y,z
-x,-y,-z
loop_
_atom_site_type_symbol
_atom_site_label
_atom_site_fract_x
_atom_site_fract_y
_atom_site_fract_z
Si Si1 0.763930 0.894860 0.535426
Si Si2 0.677395 0.315289 0.781713
Si Si3 0.128525 0.544911 0.273325
Si Si4 0.418849 0.181844 0.963547
Si Si5 0.481507 0.969924 0.824529
Si Si6 0.953461 0.198467 0.990773
Si Si7 0.131603 0.304322 0.762648
O O1 0.470830 0.140689 0.615873
O O2 0.690603 0.887262 0.656673
O O3 0.012633 0.865795 0.405974
O O4 0.905672 0.674439 0.444965
O O5 0.689721 0.418684 0.825539
O O6 0.639572 0.177689 0.856074
O O7 0.395983 0.537129 0.849784
O O8 0.365435 0.265395 0.184745
O O9 0.928266 0.670413 0.292526
O O10 0.455577 0.114646 0.871589
O O11 0.078213 0.444278 0.124432
O O12 0.500000 0.000000 0.000000
O O13 0.144292 0.147401 0.957692
O O14 0.076250 0.182676 0.849409
O O15 0.000000 0.000000 0.000000
#
# Coordination Sequence:
#
# PCOD8042472 Si02
#       7
#     2   2   2   2   2   2   2
#     4   9  21  38  59  89 116 151 198 237 295 340
#     4   9  22  36  60  86 120 145 202 232 295 334
#     4  10  19  37  62  88 114 154 192 246 287 334
#     4  11  23  40  58  87 115 160 192 238 294 348
#     4  11  21  37  65  81 123 153 194 238 292 348
#     4  10  19  35  56  91 114 150 194 242 282 341
#     4  10  21  36  62  84 123 152 194 238 292 348
#
# _framework density 18.234577000000002
#
# number of rings (size 3 to 8) (size 9 to 14) (size 15 to 20)
#    0.857    1.143    2.857    0.857    0.000    9.143 
#    0.000    0.714    0.000    0.000    0.000    0.000 
#    0.000    0.000    0.000    0.000    0.000    0.000 
#
# Total GULP energy -173517.111057 kJ/mol
# GULP energy per Si atom -12394.079361 kJ/mol
# Density = 1.819307 g / cm^3
# Si number density = 18.234577 Si / 1000 Ang^3
#
#
#
# Elastic Constant Matrix: (Units=GPa)
#
#
# Indices 1 2 3 4 5 6 
#
# 1 97.0764 43.8795 55.2466 -1.4840 -2.7009 -3.7621
# 2 43.8795 116.9445 42.6372 -3.7163 -11.6652 2.7946
# 3 55.2466 42.6372 110.8443 5.8613 -18.6144 1.9482
# 4 -1.4840 -3.7163 5.8613 22.8832 1.3365 1.0802
# 5 -2.7009 -11.6652 -18.6144 1.3365 45.3635 3.9953
# 6 -3.7621 2.7946 1.9482 1.0802 3.9953 31.9470
#
#
#
# Elastic Compliance Matrix: (Units=1/GPa)
#
#
# Indices 1 2 3 4 5 6 
#
# 1 0.016273 -0.003733 -0.007422 0.002404 -0.003375 0.003036
# 2 -0.003733 0.011022 -0.002158 0.002069 0.001803 -0.001568
# 3 -0.007422 -0.002158 0.014747 -0.004824 0.005381 -0.002094
# 4 0.002404 0.002069 -0.004824 0.045617 -0.002576 -0.000824
# 5 -0.003375 0.001803 0.005381 -0.002576 0.024936 -0.003915
# 6 0.003036 -0.001568 -0.002094 -0.000824 -0.003915 0.032442
#
#
# Mechanical properties :
#
#
# Convention : Reuss Voigt Hill
#
# Bulk Modulus (GPa) = 64.87040 67.59908 66.23474
# Shear Modulus (GPa) = 28.28063 32.24554 30.26309
#
# Velocity S-wave (km/s) = 3.94246 4.20977 4.07830
# Velocity P-wave (km/s) = 7.50844 7.79627 7.65371
#
# Compressibility (1/GPa) = 0.01541535
#
# Stress axis : x y z
#
# Youngs Moduli (GPa) = 61.45235 90.73129 67.81205
#
# Poissons Ratio (x) = 0.33866 0.50331
# Poissons Ratio (y) = 0.22937 0.14635
# Poissons Ratio (z) = 0.45610 0.19581
#
# Static dielectric constant tensor:
#      x y z
#    x 3.390460 -0.050240 -0.123820 
#    y -0.050240 3.342540 0.084710 
#    z -0.123820 0.084710 3.366980 
# 
# 
# High freq. dielectric constant tensor:
#      x y z
#    x 1.703090 -0.008540 -0.008730 
#    y -0.008540 1.701620 0.006910 
#    z -0.008730 0.006910 1.703460 
# 
# From -- ./inp_files/238851.got.cif
#   From: 2010.06.25/outbox.cif.g09.slc.cpg/sg2_120_cif.got.tgz:238851.got - 2010.06.27 13:26:56.
