data_PCOD8042682
_publ_section_title
;
Structure prediction by ZEFSAII (Michael W. Deem and Ramdas Pophale) SiO2 
 PCOD8042682
Probable space group: P -1
;
_chemical_formula_sum "Si O2"
_cell_formula_units_Z 16
_cell_length_a 10.876601
_cell_length_b 21.121109
_cell_length_c 17.761051
_cell_angle_alpha 161.987012
_cell_angle_beta 137.803849
_cell_angle_gamma 50.164801
_cell_volume 806.284893
_symmetry_space_group_name_H-M "P -1"
_symmetry_group_IT_number 2
_symmetry_cell_setting 'triclinic'
loop_
_space_group_symop_operation_xyz
x,y,z
-x,-y,-z
loop_
_atom_site_type_symbol
_atom_site_label
_atom_site_fract_x
_atom_site_fract_y
_atom_site_fract_z
Si Si1 0.159449 0.360467 0.839242
Si Si2 0.151432 0.068070 0.805390
Si Si3 0.134003 0.997202 0.127911
Si Si4 0.224581 0.594653 0.696764
Si Si5 0.557969 0.189678 0.365044
Si Si6 0.437037 0.400850 0.689130
Si Si7 0.203508 0.222683 0.166123
Si Si8 0.126106 0.391266 0.032246
O O1 0.071908 0.549995 0.991676
O O2 0.382058 0.445378 0.007858
O O3 0.162151 0.320241 0.884495
O O4 0.036525 0.135257 0.492231
O O5 0.339568 0.995342 0.792248
O O6 0.186944 0.221239 0.067398
O O7 0.110723 0.195963 0.860298
O O8 0.275802 0.235813 0.481563
O O9 0.268491 0.850471 0.997886
O O10 0.003249 0.906166 0.038072
O O11 0.000000 0.000000 0.000000
O O12 0.339033 0.554340 0.775151
O O13 0.276335 0.472821 0.509680
O O14 0.000000 0.500000 0.500000
O O15 0.512003 0.250722 0.496965
O O16 0.362151 0.109584 0.136560
O O17 0.701236 0.400368 0.628120
#
# Coordination Sequence:
#
# PCOD8042682 Si02
#       8
#     2   2   2   2   2   2   2   2
#     4   9  20  37  55  80 112 143 198 236 257 330
#     4  11  21  36  56  82 119 157 177 223 286 332
#     4  11  19  37  60  83 106 148 183 227 284 321
#     4   9  18  34  54  82 108 134 184 232 267 328
#     4   9  19  35  53  85 117 143 187 231 269 339
#     4  10  19  35  60  85 108 143 191 236 271 318
#     4  10  21  37  53  87 123 142 184 228 276 346
#     4   9  19  36  55  77 109 152 193 230 273 319
#
# _framework density 19.844100999999998
#
# number of rings (size 3 to 8) (size 9 to 14) (size 15 to 20)
#    0.000    2.250    3.750    1.500    0.000    4.500 
#    4.500    0.625    0.000    3.750    0.000    0.000 
#    0.000    0.000    0.000    0.000    0.000    0.000 
#
# Total GULP energy -198313.095439 kJ/mol
# GULP energy per Si atom -12394.568465 kJ/mol
# Density = 1.979894 g / cm^3
# Si number density = 19.844101 Si / 1000 Ang^3
#
#
#
# Elastic Constant Matrix: (Units=GPa)
#
#
# Indices 1 2 3 4 5 6 
#
# 1 45.9248 38.8508 12.7346 -0.2647 3.6051 -11.6201
# 2 38.8508 118.2289 41.6581 11.2714 -2.8961 -17.2311
# 3 12.7346 41.6581 68.5118 0.6168 12.7675 -10.9797
# 4 -0.2647 11.2714 0.6168 32.4972 -5.0945 2.6528
# 5 3.6051 -2.8961 12.7675 -5.0945 29.2680 -7.0344
# 6 -11.6201 -17.2311 -10.9797 2.6528 -7.0344 24.4924
#
#
#
# Elastic Compliance Matrix: (Units=1/GPa)
#
#
# Indices 1 2 3 4 5 6 
#
# 1 0.032429 -0.010769 0.002411 0.002741 -0.003834 0.007492
# 2 -0.010769 0.016336 -0.008358 -0.004924 0.006975 0.005174
# 3 0.002411 -0.008358 0.021365 0.000813 -0.009839 0.001928
# 4 0.002741 -0.004924 0.000813 0.033406 0.003580 -0.004389
# 5 -0.003834 0.006975 -0.009839 0.003580 0.042787 0.010579
# 6 0.007492 0.005174 0.001928 -0.004389 0.010579 0.052401
#
#
# Mechanical properties :
#
#
# Convention : Reuss Voigt Hill
#
# Bulk Modulus (GPa) = 27.24952 46.57251 36.91101
# Shear Modulus (GPa) = 20.45915 26.54631 23.50273
#
# Velocity S-wave (km/s) = 3.21439 3.66149 3.44520
# Velocity P-wave (km/s) = 5.24767 6.43393 5.87084
#
# Compressibility (1/GPa) = 0.03669790
#
# Stress axis : x y z
#
# Youngs Moduli (GPa) = 30.83663 61.21386 46.80554
#
# Poissons Ratio (x) = 0.65922 -0.11284
# Poissons Ratio (y) = 0.33208 0.39119
# Poissons Ratio (z) = -0.07434 0.51161
#
# Static dielectric constant tensor:
#      x y z
#    x 3.582260 -0.515970 0.068870 
#    y -0.515970 3.935490 0.352380 
#    z 0.068870 0.352380 4.219660 
# 
# 
# High freq. dielectric constant tensor:
#      x y z
#    x 1.742420 -0.025750 0.017830 
#    y -0.025750 1.773230 0.000790 
#    z 0.017830 0.000790 1.767390 
# 
# From -- ./inp_files/436583.got.cif
#   From: 2010.06.25/outbox.cif.g09.slc.cpg/sg2_219_cif.got.tgz:436583.got - 2010.06.27 13:26:56.
