data_PCOD8042504
_publ_section_title
;
Structure prediction by ZEFSAII (Michael W. Deem and Ramdas Pophale) SiO2 
 PCOD8042504
Probable space group: P -1
;
_chemical_formula_sum "Si O2"
_cell_formula_units_Z 16
_cell_length_a 12.045868
_cell_length_b 13.606054
_cell_length_c 15.135731
_cell_angle_alpha 62.700220
_cell_angle_beta 151.660321
_cell_angle_gamma 130.771297
_cell_volume 843.999101
_symmetry_space_group_name_H-M "P -1"
_symmetry_group_IT_number 2
_symmetry_cell_setting 'triclinic'
loop_
_space_group_symop_operation_xyz
x,y,z
-x,-y,-z
loop_
_atom_site_type_symbol
_atom_site_label
_atom_site_fract_x
_atom_site_fract_y
_atom_site_fract_z
Si Si1 0.851063 0.122341 0.081579
Si Si2 0.755401 0.787545 0.367994
Si Si3 0.724587 0.563314 0.320161
Si Si4 0.823621 0.354847 0.891535
Si Si5 0.782188 0.034661 0.246181
Si Si6 0.784693 0.339147 0.515769
Si Si7 0.864983 0.872299 0.894123
Si Si8 0.089242 0.356251 0.903371
O O1 0.990077 0.139031 0.268988
O O2 0.969436 0.077878 0.104651
O O3 0.904667 0.262943 0.033731
O O4 0.525909 0.993969 0.935708
O O5 0.748836 0.677262 0.350143
O O6 0.514012 0.713327 0.306241
O O7 0.062933 0.892748 0.584336
O O8 0.711591 0.885572 0.238792
O O9 0.733732 0.457504 0.433094
O O10 0.000553 0.637974 0.419960
O O11 0.427428 0.487500 0.086313
O O12 0.908119 0.375130 0.840077
O O13 0.000000 0.500000 0.000000
O O14 0.472579 0.196937 0.335217
O O15 0.928614 0.336197 0.707634
O O16 0.919196 0.774751 0.025167
O O17 0.000000 0.000000 0.000000
#
# Coordination Sequence:
#
# PCOD8042504 Si02
#       8
#     2   2   2   2   2   2   2   2
#     4   9  20  38  55  79 115 146 186 236 278 338
#     4  10  20  35  58  83 112 147 188 234 281 338
#     4  10  21  40  58  84 115 147 194 238 275 338
#     4  10  19  35  57  83 114 146 180 229 292 336
#     4   9  20  37  56  81 111 150 189 230 283 336
#     4  10  23  39  59  84 112 153 190 231 290 333
#     4  10  23  39  58  85 115 147 191 237 280 339
#     4  10  21  40  59  82 118 148 186 239 285 336
#
# _framework density 18.957367000000001
#
# number of rings (size 3 to 8) (size 9 to 14) (size 15 to 20)
#    0.000    2.250    1.250    0.375    3.500    2.500 
#    2.250    1.250    0.000    0.000    0.000    0.000 
#    0.000    0.000    0.000    0.000    0.000    0.000 
#
# Total GULP energy -198251.425596 kJ/mol
# GULP energy per Si atom -12390.714100 kJ/mol
# Density = 1.891422 g / cm^3
# Si number density = 18.957367 Si / 1000 Ang^3
#
#
#
# Elastic Constant Matrix: (Units=GPa)
#
#
# Indices 1 2 3 4 5 6 
#
# 1 129.3514 53.7415 57.2097 8.7725 8.9598 -0.3153
# 2 53.7415 79.7696 46.3708 19.2078 0.8240 -14.3000
# 3 57.2097 46.3708 111.3083 3.7105 -3.9614 -2.1258
# 4 8.7725 19.2078 3.7105 22.9450 4.2792 -3.4441
# 5 8.9598 0.8240 -3.9614 4.2792 29.0870 -0.5801
# 6 -0.3153 -14.3000 -2.1258 -3.4441 -0.5801 34.8394
#
#
#
# Elastic Compliance Matrix: (Units=1/GPa)
#
#
# Indices 1 2 3 4 5 6 
#
# 1 0.012582 -0.007396 -0.003685 0.002383 -0.004578 -0.002988
# 2 -0.007396 0.027417 -0.006714 -0.018330 0.003464 0.009023
# 3 -0.003685 -0.006714 0.013599 0.004130 0.002540 -0.001509
# 4 0.002383 -0.018330 0.004130 0.058660 -0.008314 -0.001589
# 5 -0.004578 0.003464 0.002540 -0.008314 0.037287 0.001334
# 6 -0.002988 0.009023 -0.001509 -0.001589 0.001334 0.032152
#
#
# Mechanical properties :
#
#
# Convention : Reuss Voigt Hill
#
# Bulk Modulus (GPa) = 55.53143 70.56368 63.04755
# Shear Modulus (GPa) = 22.39240 28.24811 25.32026
#
# Velocity S-wave (km/s) = 3.44058 3.86435 3.65861
# Velocity P-wave (km/s) = 6.71862 7.56400 7.15381
#
# Compressibility (1/GPa) = 0.01800782
#
# Stress axis : x y z
#
# Youngs Moduli (GPa) = 79.47960 36.47344 73.53604
#
# Poissons Ratio (x) = 0.26978 0.27097
# Poissons Ratio (y) = 0.58787 0.49370
# Poissons Ratio (z) = 0.29287 0.24487
#
# Static dielectric constant tensor:
#      x y z
#    x 6.626810 0.613150 1.968990 
#    y 0.613150 3.551070 0.250880 
#    z 1.968990 0.250880 4.900060 
# 
# 
# High freq. dielectric constant tensor:
#      x y z
#    x 1.744930 0.006750 0.008250 
#    y 0.006750 1.732430 0.002620 
#    z 0.008250 0.002620 1.739560 
# 
# From -- ./inp_files/450014.got.cif
#   From: 2010.06.25/outbox.cif.g09.slc.cpg/sg2_226_cif.got.tgz:450014.got - 2010.06.27 13:26:56.
