data_PCOD8042662
_publ_section_title
;
Structure prediction by ZEFSAII (Michael W. Deem and Ramdas Pophale) SiO2 
 PCOD8042662
Probable space group: P -1
;
_chemical_formula_sum "Si O2"
_cell_formula_units_Z 14
_cell_length_a 9.760853
_cell_length_b 12.524240
_cell_length_c 7.892898
_cell_angle_alpha 37.680426
_cell_angle_beta 108.529026
_cell_angle_gamma 110.216292
_cell_volume 551.805650
_symmetry_space_group_name_H-M "P -1"
_symmetry_group_IT_number 2
_symmetry_cell_setting 'triclinic'
loop_
_space_group_symop_operation_xyz
x,y,z
-x,-y,-z
loop_
_atom_site_type_symbol
_atom_site_label
_atom_site_fract_x
_atom_site_fract_y
_atom_site_fract_z
Si Si1 0.518116 0.762563 0.154177
Si Si2 0.922507 0.337405 0.067516
Si Si3 0.522357 0.801253 0.739214
Si Si4 0.797614 0.600417 0.484796
Si Si5 0.846742 0.768578 0.958489
Si Si6 0.081938 0.851556 0.377399
Si Si7 0.646387 0.177903 0.669849
O O1 0.637343 0.643691 0.411068
O O2 0.385384 0.731928 0.276736
O O3 0.465410 0.703382 0.016672
O O4 0.590699 0.968034 0.919133
O O5 0.846971 0.192076 0.356235
O O6 0.043131 0.253093 0.119010
O O7 0.808234 0.405465 0.807635
O O8 0.000000 0.500000 0.000000
O O9 0.692527 0.791199 0.787350
O O10 0.432823 0.724827 0.632967
O O11 0.500000 0.000000 0.500000
O O12 0.917809 0.748902 0.433454
O O13 0.823983 0.602770 0.288469
O O14 0.913480 0.937644 0.889196
O O15 0.180318 0.791259 0.339531
#
# Coordination Sequence:
#
# PCOD8042662 Si02
#       7
#     2   2   2   2   2   2   2
#     4   9  19  35  60  86 118 162 197 239 311 356
#     4  10  24  39  56  85 125 163 192 244 313 361
#     4   9  17  34  57  88 119 152 196 249 301 354
#     4  10  21  40  62  85 127 156 197 246 309 366
#     4  11  20  38  64  89 114 158 209 249 291 353
#     4  11  21  38  59  97 117 149 207 254 294 351
#     4  10  19  35  59  91 121 153 198 256 294 355
#
# _framework density 25.371254
#
# number of rings (size 3 to 8) (size 9 to 14) (size 15 to 20)
#    0.000    2.000    4.286    1.286    4.000    0.000 
#    2.571    0.714    0.000    1.714    0.000    0.000 
#    0.000    0.000    0.000    0.000    0.000    0.000 
#
# Total GULP energy -173549.763837 kJ/mol
# GULP energy per Si atom -12396.411703 kJ/mol
# Density = 2.531351 g / cm^3
# Si number density = 25.371254 Si / 1000 Ang^3
#
#
#
# Elastic Constant Matrix: (Units=GPa)
#
#
# Indices 1 2 3 4 5 6 
#
# 1 143.3859 36.8103 51.4126 7.1247 -4.4950 -48.0541
# 2 36.8103 59.8520 2.1800 19.2106 6.7873 -25.5434
# 3 51.4126 2.1800 138.1356 19.9453 9.7290 -24.3609
# 4 7.1247 19.2106 19.9453 23.6860 -5.3253 -0.8264
# 5 -4.4950 6.7873 9.7290 -5.3253 41.2676 4.5853
# 6 -48.0541 -25.5434 -24.3609 -0.8264 4.5853 48.0236
#
#
#
# Elastic Compliance Matrix: (Units=1/GPa)
#
#
# Indices 1 2 3 4 5 6 
#
# 1 0.012454 -0.008996 -0.005348 0.009291 0.004777 0.004667
# 2 -0.008996 0.065174 0.021989 -0.074239 -0.030738 0.038476
# 3 -0.005348 0.021989 0.017614 -0.033755 -0.014494 0.016083
# 4 0.009291 -0.074239 -0.033755 0.136289 0.044233 -0.049192
# 5 0.004777 -0.030738 -0.014494 0.044233 0.041390 -0.022112
# 6 0.004667 0.038476 0.016083 -0.049192 -0.022112 0.055381
#
#
# Mechanical properties :
#
#
# Convention : Reuss Voigt Hill
#
# Bulk Modulus (GPa) = 9.04717 58.01993 33.53355
# Shear Modulus (GPa) = 14.29162 39.32682 26.80922
#
# Velocity S-wave (km/s) = 2.37597 3.94134 3.25418
# Velocity P-wave (km/s) = 3.33176 6.60532 5.23120
#
# Compressibility (1/GPa) = 0.11053175
#
# Stress axis : x y z
#
# Youngs Moduli (GPa) = 80.29779 15.34345 56.77403
#
# Poissons Ratio (x) = 0.13803 0.30363
# Poissons Ratio (y) = 0.72239 -1.24842
# Poissons Ratio (z) = 0.42943 -0.33739
#
# Static dielectric constant tensor:
#      x y z
#    x 4.399140 -0.125540 -0.004960 
#    y -0.125540 4.254160 0.307070 
#    z -0.004960 0.307070 5.421730 
# 
# 
# High freq. dielectric constant tensor:
#      x y z
#    x 2.012530 -0.007990 -0.000070 
#    y -0.007990 1.989130 0.015020 
#    z -0.000070 0.015020 2.035100 
# 
# From -- ./inp_files/199044.got.cif
#   From: 2010.06.25/outbox.cif.g09.slc.cpg/sg2_100_cif.got.tgz:199044.got - 2010.06.27 13:26:56.
