data_PCOD8042956
_publ_section_title
;
Structure prediction by ZEFSAII (Michael W. Deem and Ramdas Pophale) SiO2 
 PCOD8042956
Probable space group: P -1
;
_chemical_formula_sum "Si O2"
_cell_formula_units_Z 16
_cell_length_a 19.885695
_cell_length_b 7.688643
_cell_length_c 8.741883
_cell_angle_alpha 67.459939
_cell_angle_beta 110.926766
_cell_angle_gamma 57.375201
_cell_volume 716.270892
_symmetry_space_group_name_H-M "P -1"
_symmetry_group_IT_number 2
_symmetry_cell_setting 'triclinic'
loop_
_space_group_symop_operation_xyz
x,y,z
-x,-y,-z
loop_
_atom_site_type_symbol
_atom_site_label
_atom_site_fract_x
_atom_site_fract_y
_atom_site_fract_z
Si Si1 0.078156 0.194572 0.254150
Si Si2 0.313252 0.675478 0.497251
Si Si3 0.549249 0.290701 0.969514
Si Si4 0.273164 0.337809 0.506239
Si Si5 0.278587 0.857658 0.061584
Si Si6 0.799668 0.386134 0.948250
Si Si7 0.902492 0.450181 0.263475
Si Si8 0.951695 0.159884 0.711692
O O1 0.022913 0.285797 0.347805
O O2 0.215085 0.976065 0.427465
O O3 0.068072 0.019753 0.215901
O O4 0.000000 0.500000 0.000000
O O5 0.441626 0.420271 0.752588
O O6 0.282205 0.522600 0.524575
O O7 0.311886 0.768848 0.296210
O O8 0.614758 0.281712 0.901306
O O9 0.500000 0.500000 0.000000
O O10 0.632079 0.971810 0.223507
O O11 0.142621 0.526971 0.373947
O O12 0.285849 0.325775 0.335922
O O13 0.255417 0.700556 0.016641
O O14 0.171385 0.223003 0.842210
O O15 0.827689 0.474251 0.077021
O O16 0.914776 0.080761 0.050349
O O17 0.939502 0.233807 0.498845
#
# Coordination Sequence:
#
# PCOD8042956 Si02
#       8
#     2   2   2   2   2   2   2   2
#     4  10  19  35  67 102 128 164 216 261 327 395
#     4  10  23  45  69  92 133 178 219 268 331 395
#     4  12  27  44  65  96 131 170 230 280 323 387
#     4  10  22  44  65  94 131 175 220 272 332 390
#     4  11  24  46  67  98 131 177 224 270 329 394
#     4  10  23  41  67 100 134 170 221 267 334 399
#     4  11  22  42  69  99 139 174 212 271 336 393
#     4  10  21  40  65  97 139 176 213 269 332 399
#
# _framework density 22.337917999999998
#
# number of rings (size 3 to 8) (size 9 to 14) (size 15 to 20)
#    0.000    1.500    2.500    2.625    1.750    4.500 
#    4.500    1.250    0.000    0.000    0.000    0.000 
#    0.000    0.000    0.000    0.000    0.000    0.000 
#
# Total GULP energy -198227.066577 kJ/mol
# GULP energy per Si atom -12389.191661 kJ/mol
# Density = 2.228708 g / cm^3
# Si number density = 22.337918 Si / 1000 Ang^3
#
#
#
# Elastic Constant Matrix: (Units=GPa)
#
#
# Indices 1 2 3 4 5 6 
#
# 1 102.6772 32.1415 62.3927 5.5684 -12.5019 -20.0311
# 2 32.1415 69.6000 17.9507 2.7199 -16.0051 -27.9789
# 3 62.3927 17.9507 142.3694 -7.0622 -16.6384 -12.4879
# 4 5.5684 2.7199 -7.0622 22.1772 4.2987 3.9613
# 5 -12.5019 -16.0051 -16.6384 4.2987 32.6993 -6.3822
# 6 -20.0311 -27.9789 -12.4879 3.9613 -6.3822 24.1081
#
#
#
# Elastic Compliance Matrix: (Units=1/GPa)
#
#
# Indices 1 2 3 4 5 6 
#
# 1 0.019872 0.012161 -0.005642 -0.018638 0.020177 0.036106
# 2 0.012161 0.089016 0.003669 -0.055816 0.086174 0.147298
# 3 -0.005642 0.003669 0.010357 0.002034 0.005841 0.006148
# 4 -0.018638 -0.055816 0.002034 0.090239 -0.067095 -0.111800
# 5 0.020177 0.086174 0.005841 -0.067095 0.124220 0.163710
# 6 0.036106 0.147298 0.006148 -0.111800 0.163710 0.307322
#
#
# Mechanical properties :
#
#
# Convention : Reuss Voigt Hill
#
# Bulk Modulus (GPa) = 7.16221 59.95740 33.55980
# Shear Modulus (GPa) = 7.49412 29.27436 18.38424
#
# Velocity S-wave (km/s) = 1.83362 3.62404 2.87192
# Velocity P-wave (km/s) = 2.77419 6.66415 5.10427
#
# Compressibility (1/GPa) = 0.13962176
#
# Stress axis : x y z
#
# Youngs Moduli (GPa) = 50.32195 11.23390 96.55730
#
# Poissons Ratio (x) = -0.13661 0.54474
# Poissons Ratio (y) = -0.61195 -0.35430
# Poissons Ratio (z) = 0.28390 -0.04122
#
# Static dielectric constant tensor:
#      x y z
#    x 4.251880 -0.191140 -0.153220 
#    y -0.191140 3.808680 0.066690 
#    z -0.153220 0.066690 3.716760 
# 
# 
# High freq. dielectric constant tensor:
#      x y z
#    x 1.885370 -0.008480 -0.015610 
#    y -0.008480 1.868770 -0.005620 
#    z -0.015610 -0.005620 1.891660 
# 
# From -- ./inp_files/343427.got.cif
#   From: 2010.06.25/outbox.cif.g09.slc.cpg/sg2_172_cif.got.tgz:343427.got - 2010.06.27 13:26:56.
