data_PCOD8042026
_publ_section_title
;
Structure prediction by ZEFSAII (Michael W. Deem and Ramdas Pophale) SiO2 
 PCOD8042026
Probable space group: P -1
;
_chemical_formula_sum "Si O2"
_cell_formula_units_Z 12
_cell_length_a 8.669637
_cell_length_b 12.734729
_cell_length_c 5.403859
_cell_angle_alpha 109.512348
_cell_angle_beta 82.691531
_cell_angle_gamma 103.965945
_cell_volume 545.019590
_symmetry_space_group_name_H-M "P -1"
_symmetry_group_IT_number 2
_symmetry_cell_setting 'triclinic'
loop_
_space_group_symop_operation_xyz
x,y,z
-x,-y,-z
loop_
_atom_site_type_symbol
_atom_site_label
_atom_site_fract_x
_atom_site_fract_y
_atom_site_fract_z
Si Si1 0.196011 0.830202 0.133839
Si Si2 0.438579 0.402111 0.742328
Si Si3 0.709450 0.061264 0.310151
Si Si4 0.748791 0.496368 0.499091
Si Si5 0.485908 0.171023 0.723609
Si Si6 0.997505 0.597691 0.883234
O O1 0.178909 0.906929 0.441286
O O2 0.363957 0.788496 0.089057
O O3 0.195034 0.897673 0.928594
O O4 0.046821 0.723118 0.088129
O O5 0.581018 0.412151 0.522619
O O6 0.276719 0.422017 0.661190
O O7 0.404803 0.276604 0.765637
O O8 0.500000 0.500000 0.000000
O O9 0.553270 0.117602 0.421158
O O10 0.650087 0.924885 0.196543
O O11 0.869649 0.413568 0.357994
O O12 0.822637 0.579033 0.778311
O O13 0.000000 0.500000 0.000000
#
# Coordination Sequence:
#
# PCOD8042026 Si02
#       6
#     2   2   2   2   2   2
#     4  10  19  34  56  85 117 145 201 248 296 346
#     4  11  21  39  56  91 121 159 188 249 306 363
#     4   9  20  34  55  91 110 159 197 253 292 344
#     4  10  23  36  57  86 121 154 202 235 313 356
#     4   9  19  32  58  81 122 149 203 243 297 353
#     4  11  22  37  60  86 118 160 200 250 300 359
#
# _framework density 22.017557
#
# number of rings (size 3 to 8) (size 9 to 14) (size 15 to 20)
#    1.000    1.000    0.000    4.500    4.667    1.333 
#    0.000    0.000    0.000    2.000    0.000    0.000 
#    0.000    0.000    0.000    0.000    0.000    0.000 
#
# Total GULP energy -148733.907039 kJ/mol
# GULP energy per Si atom -12394.492253 kJ/mol
# Density = 2.196744 g / cm^3
# Si number density = 22.017557 Si / 1000 Ang^3
#
#
#
# Elastic Constant Matrix: (Units=GPa)
#
#
# Indices 1 2 3 4 5 6 
#
# 1 60.3030 24.9816 11.8916 3.5483 30.9994 1.4792
# 2 24.9816 157.4295 36.3467 -3.9621 22.5625 5.0998
# 3 11.8916 36.3467 93.6869 -18.1573 33.4060 -1.8590
# 4 3.5483 -3.9621 -18.1573 33.0221 2.7631 1.9998
# 5 30.9994 22.5625 33.4060 2.7631 39.6855 2.7985
# 6 1.4792 5.0998 -1.8590 1.9998 2.7985 31.0627
#
#
#
# Elastic Compliance Matrix: (Units=1/GPa)
#
#
# Indices 1 2 3 4 5 6 
#
# 1 0.031588 -0.002571 0.008775 0.003594 -0.030990 0.002004
# 2 -0.002571 0.007388 -0.002668 -0.000242 0.000159 -0.001249
# 3 0.008775 -0.002668 0.022025 0.012769 -0.024961 0.002765
# 4 0.003594 -0.000242 0.012769 0.038255 -0.016054 -0.000384
# 5 -0.030990 0.000159 -0.024961 -0.016054 0.071831 -0.005482
# 6 0.002004 -0.001249 0.002765 -0.000384 -0.005482 0.032987
#
#
# Mechanical properties :
#
#
# Convention : Reuss Voigt Hill
#
# Bulk Modulus (GPa) = 14.69061 50.87323 32.78192
# Shear Modulus (GPa) = 22.75893 36.63402 29.69647
#
# Velocity S-wave (km/s) = 3.21856 4.08346 3.67654
# Velocity P-wave (km/s) = 4.52757 6.73712 5.73967
#
# Compressibility (1/GPa) = 0.06807070
#
# Stress axis : x y z
#
# Youngs Moduli (GPa) = 31.65755 135.36124 45.40225
#
# Poissons Ratio (x) = 0.34807 -0.39838
# Poissons Ratio (y) = 0.08140 0.12115
# Poissons Ratio (z) = -0.27778 0.36119
#
# Static dielectric constant tensor:
#      x y z
#    x 3.988360 0.210100 0.067290 
#    y 0.210100 3.773180 -0.082500 
#    z 0.067290 -0.082500 3.967890 
# 
# 
# High freq. dielectric constant tensor:
#      x y z
#    x 1.832790 0.019630 0.015850 
#    y 0.019630 1.854690 -0.008400 
#    z 0.015850 -0.008400 1.864820 
# 
# From -- ./inp_files/19579.got.cif
#   From: 2010.06.25/outbox.cif.g09.slc.cpg/sg2_10_cif.got.tgz:19579.got - 2010.06.27 13:26:56.
