data_PCOD8042671
_publ_section_title
;
Structure prediction by ZEFSAII (Michael W. Deem and Ramdas Pophale) SiO2 
 PCOD8042671
Probable space group: P -1
;
_chemical_formula_sum "Si O2"
_cell_formula_units_Z 16
_cell_length_a 15.741087
_cell_length_b 11.366096
_cell_length_c 16.671471
_cell_angle_alpha 45.598087
_cell_angle_beta 155.449652
_cell_angle_gamma 136.157947
_cell_volume 848.517221
_symmetry_space_group_name_H-M "P -1"
_symmetry_group_IT_number 2
_symmetry_cell_setting 'triclinic'
loop_
_space_group_symop_operation_xyz
x,y,z
-x,-y,-z
loop_
_atom_site_type_symbol
_atom_site_label
_atom_site_fract_x
_atom_site_fract_y
_atom_site_fract_z
Si Si1 0.460043 0.722256 0.288854
Si Si2 0.633808 0.521226 0.987949
Si Si3 0.235537 0.596883 0.682321
Si Si4 0.748768 0.488184 0.641044
Si Si5 0.427457 0.990476 0.635155
Si Si6 0.234974 0.547983 0.033653
Si Si7 0.765592 0.892071 0.874997
Si Si8 0.609790 0.755571 0.642471
O O1 0.670760 0.658631 0.493040
O O2 0.296749 0.604957 0.268047
O O3 0.529208 0.920329 0.282655
O O4 0.341022 0.706545 0.108415
O O5 0.734299 0.426197 0.186315
O O6 0.629084 0.426283 0.944091
O O7 0.392854 0.516354 0.805310
O O8 0.780463 0.718573 0.013892
O O9 0.277739 0.798178 0.605287
O O10 0.000000 0.500000 0.500000
O O11 0.629430 0.359458 0.529358
O O12 0.997389 0.545166 0.808585
O O13 0.657977 0.999383 0.790346
O O14 0.309549 0.099248 0.425986
O O15 0.235714 0.368805 0.163449
O O16 0.611522 0.844328 0.687744
O O17 0.000000 0.000000 0.000000
#
# Coordination Sequence:
#
# PCOD8042671 Si02
#       8
#     2   2   2   2   2   2   2   2
#     4   9  19  33  50  84 118 147 187 225 272 345
#     4   9  22  39  56  87 106 140 204 223 272 352
#     4  10  22  42  61  76 109 155 188 237 280 321
#     4   9  18  34  53  80 120 156 179 222 277 346
#     4  10  21  37  54  82 119 145 190 234 272 340
#     4  10  19  35  60  81 116 151 181 229 287 333
#     4  10  21  34  56  87 117 145 176 236 294 339
#     4   9  20  32  52  85 115 140 186 227 278 341
#
# _framework density 18.856422999999999
#
# number of rings (size 3 to 8) (size 9 to 14) (size 15 to 20)
#    0.000    2.500    0.000    1.500    8.750    4.000 
#    0.000    0.625    0.000    1.500    0.000    0.000 
#    0.000    0.000    0.000    0.000    0.000    0.000 
#
# Total GULP energy -198388.781199 kJ/mol
# GULP energy per Si atom -12399.298825 kJ/mol
# Density = 1.881351 g / cm^3
# Si number density = 18.856423 Si / 1000 Ang^3
#
#
#
# Elastic Constant Matrix: (Units=GPa)
#
#
# Indices 1 2 3 4 5 6 
#
# 1 109.7709 55.8884 57.4944 13.9433 -8.8196 -14.4782
# 2 55.8884 106.0970 57.1188 10.7531 -0.8810 -11.0452
# 3 57.4944 57.1188 104.7874 16.2025 -1.7883 -4.6229
# 4 13.9433 10.7531 16.2025 26.0959 3.2479 -5.4309
# 5 -8.8196 -0.8810 -1.7883 3.2479 27.9420 4.3345
# 6 -14.4782 -11.0452 -4.6229 -5.4309 4.3345 35.7491
#
#
#
# Elastic Compliance Matrix: (Units=1/GPa)
#
#
# Indices 1 2 3 4 5 6 
#
# 1 0.015313 -0.004587 -0.005242 -0.002903 0.004201 0.003156
# 2 -0.004587 0.015100 -0.005716 0.000487 -0.001759 0.002356
# 3 -0.005242 -0.005716 0.016278 -0.005536 0.000263 -0.002657
# 4 -0.002903 0.000487 -0.005536 0.045294 -0.007458 0.006044
# 5 0.004201 -0.001759 0.000263 -0.007458 0.038661 -0.004629
# 6 0.003156 0.002356 -0.002657 0.006044 -0.004629 0.031115
#
#
# Mechanical properties :
#
#
# Convention : Reuss Voigt Hill
#
# Bulk Modulus (GPa) = 64.09097 73.51761 68.80429
# Shear Modulus (GPa) = 25.24608 27.96767 26.60687
#
# Velocity S-wave (km/s) = 3.66301 3.85540 3.76044
# Velocity P-wave (km/s) = 7.20784 7.67408 7.44461
#
# Compressibility (1/GPa) = 0.01560282
#
# Stress axis : x y z
#
# Youngs Moduli (GPa) = 65.30227 66.22594 61.43220
#
# Poissons Ratio (x) = 0.30376 0.32203
# Poissons Ratio (y) = 0.29952 0.35112
# Poissons Ratio (z) = 0.34232 0.37851
#
# Static dielectric constant tensor:
#      x y z
#    x 3.520160 -0.219910 -0.137760 
#    y -0.219910 3.361370 -0.089460 
#    z -0.137760 -0.089460 3.400830 
# 
# 
# High freq. dielectric constant tensor:
#      x y z
#    x 1.727390 -0.022500 -0.006570 
#    y -0.022500 1.712940 -0.002570 
#    z -0.006570 -0.002570 1.728110 
# 
# From -- ./inp_files/439608.got.cif
#   From: 2010.06.25/outbox.cif.g09.slc.cpg/sg2_220_cif.got.tgz:439608.got - 2010.06.27 13:26:56.
