data_PCOD8042141
_publ_section_title
;
Structure prediction by ZEFSAII (Michael W. Deem and Ramdas Pophale) SiO2 
 PCOD8042141
Probable space group: P -1
;
_chemical_formula_sum "Si O2"
_cell_formula_units_Z 14
_cell_length_a 5.124736
_cell_length_b 6.938924
_cell_length_c 17.825747
_cell_angle_alpha 64.289615
_cell_angle_beta 68.803635
_cell_angle_gamma 95.611664
_cell_volume 507.437860
_symmetry_space_group_name_H-M "P -1"
_symmetry_group_IT_number 2
_symmetry_cell_setting 'triclinic'
loop_
_space_group_symop_operation_xyz
x,y,z
-x,-y,-z
loop_
_atom_site_type_symbol
_atom_site_label
_atom_site_fract_x
_atom_site_fract_y
_atom_site_fract_z
Si Si1 0.400095 0.246757 0.574911
Si Si2 0.865541 0.172449 0.445959
Si Si3 0.871324 0.140152 0.068974
Si Si4 0.182620 0.495220 0.867302
Si Si5 0.834511 0.321827 0.645043
Si Si6 0.156455 0.315720 0.236803
Si Si7 0.778029 0.041779 0.831192
O O1 0.500000 0.500000 0.500000
O O2 0.518123 0.114793 0.519239
O O3 0.530058 0.217171 0.649047
O O4 0.047888 0.175547 0.622154
O O5 0.028964 0.412693 0.427985
O O6 0.925599 0.193453 0.347049
O O7 0.000000 0.000000 0.500000
O O8 0.861732 0.325135 0.099530
O O9 0.546912 0.038930 0.086213
O O10 0.987680 0.946233 0.128624
O O11 0.090371 0.252051 0.958926
O O12 0.514359 0.558246 0.790116
O O13 0.970520 0.496144 0.818998
O O14 0.800467 0.276823 0.746110
O O15 0.175935 0.132501 0.205572
#
# Coordination Sequence:
#
# PCOD8042141 Si02
#       7
#     2   2   2   2   2   2   2
#     4  10  22  41  61  82 113 158 201 240 288 349
#     4  11  24  41  62  88 119 157 200 248 302 349
#     4   9  17  32  59  86 113 151 194 233 280 347
#     4   9  18  34  55  86 119 148 187 240 290 338
#     4  11  23  42  62  85 120 158 201 244 289 351
#     4  10  21  34  55  86 119 149 189 244 294 339
#     4  10  19  34  58  87 115 151 195 237 284 345
#
# _framework density 27.589587999999999
#
# number of rings (size 3 to 8) (size 9 to 14) (size 15 to 20)
#    0.000    2.000    0.000    4.286    0.000    9.143 
#    0.000    9.286    0.000    5.143    0.000    0.000 
#    0.000    0.000    0.000    0.000    0.000    0.286 
#
# Total GULP energy -173561.934406 kJ/mol
# GULP energy per Si atom -12397.281029 kJ/mol
# Density = 2.752679 g / cm^3
# Si number density = 27.589588 Si / 1000 Ang^3
#
#
#
# Elastic Constant Matrix: (Units=GPa)
#
#
# Indices 1 2 3 4 5 6 
#
# 1 149.8085 21.8073 52.5012 -4.0484 16.7079 -33.8559
# 2 21.8073 63.0085 25.1988 -1.4765 11.6352 -25.1818
# 3 52.5012 25.1988 162.5316 -18.6731 -1.0789 -27.8367
# 4 -4.0484 -1.4765 -18.6731 50.0242 -5.6433 14.3912
# 5 16.7079 11.6352 -1.0789 -5.6433 53.9865 -3.8028
# 6 -33.8559 -25.1818 -27.8367 14.3912 -3.8028 33.2917
#
#
#
# Elastic Compliance Matrix: (Units=1/GPa)
#
#
# Indices 1 2 3 4 5 6 
#
# 1 0.009853 0.002430 -0.002048 -0.003504 -0.003184 0.011296
# 2 0.002430 0.025662 -0.001678 -0.006849 -0.005425 0.022820
# 3 -0.002048 -0.001678 0.007737 0.002169 0.001543 0.002356
# 4 -0.003504 -0.006849 0.002169 0.025847 0.004063 -0.017640
# 5 -0.003184 -0.005425 0.001543 0.004063 0.020750 -0.005438
# 6 0.011296 0.022820 0.002356 -0.017640 -0.005438 0.067759
#
#
# Mechanical properties :
#
#
# Convention : Reuss Voigt Hill
#
# Bulk Modulus (GPa) = 24.59509 63.81814 44.20661
# Shear Modulus (GPa) = 28.77592 45.84989 37.31291
#
# Velocity S-wave (km/s) = 3.23305 4.08101 3.68153
# Velocity P-wave (km/s) = 4.78235 6.73703 5.84202
#
# Compressibility (1/GPa) = 0.04065852
#
# Stress axis : x y z
#
# Youngs Moduli (GPa) = 101.49605 38.96741 129.24186
#
# Poissons Ratio (x) = -0.09467 0.26474
# Poissons Ratio (y) = -0.24659 0.21687
# Poissons Ratio (z) = 0.20791 0.06539
#
# Static dielectric constant tensor:
#      x y z
#    x 5.755030 -0.630390 -1.022310 
#    y -0.630390 5.580100 0.933350 
#    z -1.022310 0.933350 7.659700 
# 
# 
# High freq. dielectric constant tensor:
#      x y z
#    x 2.112610 -0.009100 -0.001690 
#    y -0.009100 2.137280 0.000790 
#    z -0.001690 0.000790 2.120400 
# 
# From -- ./inp_files/547865.got.cif
#   From: 2010.06.25/outbox.cif.g09.slc.cpg/sg2_274_cif.got.tgz:547865.got - 2010.06.27 13:26:56.
