data_PCOD8042876
_publ_section_title
;
Structure prediction by ZEFSAII (Michael W. Deem and Ramdas Pophale) SiO2 
 PCOD8042876
Probable space group: P -1
;
_chemical_formula_sum "Si O2"
_cell_formula_units_Z 16
_cell_length_a 9.179949
_cell_length_b 9.192680
_cell_length_c 17.602719
_cell_angle_alpha 120.028091
_cell_angle_beta 140.908527
_cell_angle_gamma 79.555967
_cell_volume 750.321498
_symmetry_space_group_name_H-M "P -1"
_symmetry_group_IT_number 2
_symmetry_cell_setting 'triclinic'
loop_
_space_group_symop_operation_xyz
x,y,z
-x,-y,-z
loop_
_atom_site_type_symbol
_atom_site_label
_atom_site_fract_x
_atom_site_fract_y
_atom_site_fract_z
Si Si1 0.416828 0.109717 0.793866
Si Si2 0.699347 0.604873 0.270346
Si Si3 0.964481 0.186264 0.041578
Si Si4 0.539656 0.689613 0.527531
Si Si5 0.537111 0.781590 0.983534
Si Si6 0.260724 0.724086 0.561044
Si Si7 0.910569 0.123308 0.173746
Si Si8 0.454679 0.497572 0.299446
O O1 0.277074 0.215762 0.718843
O O2 0.407498 0.148549 0.889396
O O3 0.278183 0.896621 0.663968
O O4 0.702488 0.174056 0.897550
O O5 0.573442 0.605471 0.300277
O O6 0.974847 0.605320 0.393528
O O7 0.521964 0.431272 0.104333
O O8 0.973970 0.222537 0.144429
O O9 0.183912 0.347295 0.130964
O O10 0.000000 0.000000 0.000000
O O11 0.500000 0.500000 0.500000
O O12 0.411657 0.788695 0.558677
O O13 0.419967 0.643142 0.382807
O O14 0.829342 0.812388 0.659816
O O15 0.782363 0.901695 0.064420
O O16 0.299361 0.812759 0.857935
O O17 0.367746 0.598749 0.619825
#
# Coordination Sequence:
#
# PCOD8042876 Si02
#       8
#     2   2   2   2   2   2   2   2
#     4  11  25  42  64  92 129 173 204 261 321 378
#     4  12  26  42  61  95 135 165 210 258 319 379
#     4  11  19  38  65  88 125 159 214 260 313 369
#     4  10  19  38  63  96 123 161 206 266 317 360
#     4  10  23  37  64  92 126 169 210 259 318 369
#     4  11  23  42  67  90 127 171 211 256 315 376
#     4  10  19  35  63  94 123 155 218 262 307 370
#     4  11  23  38  68  97 122 164 213 265 311 368
#
# _framework density 21.324190999999999
#
# number of rings (size 3 to 8) (size 9 to 14) (size 15 to 20)
#    0.000    1.250    3.750    3.375    7.000    0.500 
#    0.000    0.625    0.000    0.000    0.000    0.000 
#    0.000    0.000    0.000    0.000    0.000    0.000 
#
# Total GULP energy -198345.030118 kJ/mol
# GULP energy per Si atom -12396.564382 kJ/mol
# Density = 2.127566 g / cm^3
# Si number density = 21.324191 Si / 1000 Ang^3
#
#
#
# Elastic Constant Matrix: (Units=GPa)
#
#
# Indices 1 2 3 4 5 6 
#
# 1 89.5594 5.1604 31.5688 4.5935 -8.4519 11.3665
# 2 5.1604 48.7558 10.6989 2.2241 -6.0565 6.0244
# 3 31.5688 10.6989 102.6815 15.3859 5.7679 3.4807
# 4 4.5935 2.2241 15.3859 25.0568 -4.4035 -1.1911
# 5 -8.4519 -6.0565 5.7679 -4.4035 51.7264 6.8184
# 6 11.3665 6.0244 3.4807 -1.1911 6.8184 22.6537
#
#
#
# Elastic Compliance Matrix: (Units=1/GPa)
#
#
# Indices 1 2 3 4 5 6 
#
# 1 0.014008 0.000918 -0.004419 0.000388 0.003945 -0.007761
# 2 0.000918 0.022374 -0.002559 -0.000226 0.003989 -0.007230
# 3 -0.004419 -0.002559 0.012568 -0.007175 -0.003240 0.001565
# 4 0.000388 -0.000226 -0.007175 0.045136 0.004414 0.002012
# 5 0.003945 0.003989 -0.003240 0.004414 0.022373 -0.009044
# 6 -0.007761 -0.007230 0.001565 0.002012 -0.009044 0.052547
#
#
# Mechanical properties :
#
#
# Convention : Reuss Voigt Hill
#
# Bulk Modulus (GPa) = 27.15097 37.31697 32.23397
# Shear Modulus (GPa) = 25.85291 32.79195 29.32243
#
# Velocity S-wave (km/s) = 3.48569 3.92571 3.71223
# Velocity P-wave (km/s) = 5.38147 6.17139 5.78992
#
# Compressibility (1/GPa) = 0.03683109
#
# Stress axis : x y z
#
# Youngs Moduli (GPa) = 71.38835 44.69509 79.56599
#
# Poissons Ratio (x) = -0.04105 0.35161
# Poissons Ratio (y) = -0.06556 0.20359
# Poissons Ratio (z) = 0.31547 0.11436
#
# Static dielectric constant tensor:
#      x y z
#    x 4.097390 -0.096280 -0.018690 
#    y -0.096280 3.375790 0.115530 
#    z -0.018690 0.115530 4.098950 
# 
# 
# High freq. dielectric constant tensor:
#      x y z
#    x 1.842750 0.001500 0.002600 
#    y 0.001500 1.792190 0.016840 
#    z 0.002600 0.016840 1.849800 
# 
# From -- ./inp_files/257648.got.cif
#   From: 2010.06.25/outbox.cif.g09.slc.cpg/sg2_129_cif.got.tgz:257648.got - 2010.06.27 13:26:56.
