data_PCOD8042066
_publ_section_title
;
Structure prediction by ZEFSAII (Michael W. Deem and Ramdas Pophale) SiO2 
 PCOD8042066
Probable space group: P -1
;
_chemical_formula_sum "Si O2"
_cell_formula_units_Z 16
_cell_length_a 8.754973
_cell_length_b 21.152410
_cell_length_c 9.752317
_cell_angle_alpha 102.536147
_cell_angle_beta 104.943833
_cell_angle_gamma 27.187223
_cell_volume 796.950763
_symmetry_space_group_name_H-M "P -1"
_symmetry_group_IT_number 2
_symmetry_cell_setting 'triclinic'
loop_
_space_group_symop_operation_xyz
x,y,z
-x,-y,-z
loop_
_atom_site_type_symbol
_atom_site_label
_atom_site_fract_x
_atom_site_fract_y
_atom_site_fract_z
Si Si1 0.199891 0.798008 0.550545
Si Si2 0.343940 0.487505 0.426705
Si Si3 0.287038 0.280531 0.422579
Si Si4 0.027278 0.642009 0.888277
Si Si5 0.014765 0.139526 0.180243
Si Si6 0.464891 0.435987 0.122783
Si Si7 0.576108 0.041368 0.340133
Si Si8 0.431395 0.948734 0.955093
O O1 0.388146 0.661904 0.530650
O O2 0.414596 0.775916 0.516321
O O3 0.113947 0.851819 0.711329
O O4 0.861970 0.907239 0.437339
O O5 0.500000 0.500000 0.500000
O O6 0.276289 0.505612 0.257610
O O7 0.997578 0.599124 0.477052
O O8 0.422122 0.160270 0.433476
O O9 0.153328 0.334211 0.260490
O O10 0.319340 0.576684 0.849770
O O11 0.183425 0.535542 0.984664
O O12 0.770446 0.783546 0.974137
O O13 0.276476 0.099042 0.274536
O O14 0.707021 0.285873 0.098211
O O15 0.176702 0.028080 0.060702
O O16 0.727863 0.008351 0.211287
O O17 0.500000 0.000000 0.000000
#
# Coordination Sequence:
#
# PCOD8042066 Si02
#       8
#     2   2   2   2   2   2   2   2
#     4  11  24  36  58  84 115 155 185 228 290 333
#     4  11  22  39  58  84 112 147 192 237 275 332
#     4  11  21  41  56  82 120 149 184 236 281 337
#     4  10  19  34  57  82 111 143 186 230 285 326
#     4  10  19  38  55  85 114 141 190 238 268 332
#     4  10  19  34  57  85 106 144 187 231 278 326
#     4  10  20  38  58  83 112 152 190 229 279 333
#     4   9  17  32  55  80 111 136 183 238 270 319
#
# _framework density 20.076522000000001
#
# number of rings (size 3 to 8) (size 9 to 14) (size 15 to 20)
#    0.000    1.750    5.000    1.875    0.000    4.000 
#    0.000    6.250    0.000    0.000    0.000    0.000 
#    0.000    0.000    0.000    0.000    0.000    0.000 
#
# Total GULP energy -198384.477871 kJ/mol
# GULP energy per Si atom -12399.029867 kJ/mol
# Density = 2.003083 g / cm^3
# Si number density = 20.076522 Si / 1000 Ang^3
#
#
#
# Elastic Constant Matrix: (Units=GPa)
#
#
# Indices 1 2 3 4 5 6 
#
# 1 41.5111 23.7180 15.1393 2.8095 -15.1981 -6.3043
# 2 23.7180 137.2344 77.5847 -0.3721 -19.5889 -2.8173
# 3 15.1393 77.5847 90.3977 5.1424 -22.8918 -3.2321
# 4 2.8095 -0.3721 5.1424 43.5116 -4.8574 -9.6120
# 5 -15.1981 -19.5889 -22.8918 -4.8574 25.6687 4.6782
# 6 -6.3043 -2.8173 -3.2321 -9.6120 4.6782 16.5941
#
#
#
# Elastic Compliance Matrix: (Units=1/GPa)
#
#
# Indices 1 2 3 4 5 6 
#
# 1 0.033343 -0.004991 0.003408 0.001185 0.017706 0.008179
# 2 -0.004991 0.015026 -0.012811 0.001641 -0.002573 -0.000164
# 3 0.003408 -0.012811 0.025256 -0.001950 0.014617 -0.001211
# 4 0.001185 0.001641 -0.001950 0.026778 0.002521 0.015149
# 5 0.017706 -0.002573 0.014617 0.002521 0.062258 -0.006954
# 6 0.008179 -0.000164 -0.001211 0.015149 -0.006954 0.073841
#
#
# Mechanical properties :
#
#
# Convention : Reuss Voigt Hill
#
# Bulk Modulus (GPa) = 22.30282 55.78082 39.04182
# Shear Modulus (GPa) = 17.84214 27.33497 22.58856
#
# Velocity S-wave (km/s) = 2.98435 3.69391 3.35792
# Velocity P-wave (km/s) = 4.79668 6.78511 5.87562
#
# Compressibility (1/GPa) = 0.04483738
#
# Stress axis : x y z
#
# Youngs Moduli (GPa) = 29.99114 66.55198 39.59518
#
# Poissons Ratio (x) = 0.33216 -0.13495
# Poissons Ratio (y) = 0.14969 0.50725
# Poissons Ratio (z) = -0.10222 0.85260
#
# Static dielectric constant tensor:
#      x y z
#    x 3.329600 -0.107470 -0.342200 
#    y -0.107470 3.874700 0.249600 
#    z -0.342200 0.249600 4.101340 
# 
# 
# High freq. dielectric constant tensor:
#      x y z
#    x 1.753660 -0.000240 -0.017800 
#    y -0.000240 1.791170 0.005900 
#    z -0.017800 0.005900 1.785560 
# 
# From -- ./inp_files/223703.got.cif
#   From: 2010.06.25/outbox.cif.g09.slc.cpg/sg2_112_cif.got.tgz:223703.got - 2010.06.27 13:26:56.
