data_PCOD8042550
_publ_section_title
;
Structure prediction by ZEFSAII (Michael W. Deem and Ramdas Pophale) SiO2 
 PCOD8042550
Probable space group: P -1
;
_chemical_formula_sum "Si O2"
_cell_formula_units_Z 16
_cell_length_a 13.110150
_cell_length_b 21.343583
_cell_length_c 19.867097
_cell_angle_alpha 160.694958
_cell_angle_beta 41.313917
_cell_angle_gamma 150.145214
_cell_volume 834.590830
_symmetry_space_group_name_H-M "P -1"
_symmetry_group_IT_number 2
_symmetry_cell_setting 'triclinic'
loop_
_space_group_symop_operation_xyz
x,y,z
-x,-y,-z
loop_
_atom_site_type_symbol
_atom_site_label
_atom_site_fract_x
_atom_site_fract_y
_atom_site_fract_z
Si Si1 0.506020 0.220037 0.374148
Si Si2 0.440554 0.662641 0.202856
Si Si3 0.674359 0.646380 0.501667
Si Si4 0.932354 0.182044 0.987055
Si Si5 0.127514 0.717544 0.747368
Si Si6 0.347873 0.846112 0.317162
Si Si7 0.833025 0.367580 0.111624
Si Si8 0.655875 0.193662 0.397839
O O1 0.427683 0.344558 0.505183
O O2 0.747224 0.363339 0.369625
O O3 0.543155 0.267653 0.485554
O O4 0.325096 0.889974 0.120832
O O5 0.459824 0.783611 0.244187
O O6 0.606167 0.907163 0.422589
O O7 0.500000 0.500000 0.000000
O O8 0.191875 0.456916 0.145963
O O9 0.500000 0.500000 0.500000
O O10 0.744144 0.500765 0.298194
O O11 0.890944 0.952815 0.733336
O O12 0.830885 0.085701 0.015948
O O13 0.821805 0.259732 0.080988
O O14 0.243484 0.869991 0.771832
O O15 0.861337 0.450230 0.601251
O O16 0.081683 0.583434 0.175358
O O17 0.465653 0.930877 0.272110
#
# Coordination Sequence:
#
# PCOD8042550 Si02
#       8
#     2   2   2   2   2   2   2   2
#     4   9  20  37  56  80 116 147 184 228 279 323
#     4  10  20  35  56  84 112 140 186 233 275 325
#     4  11  21  34  56  87 113 146 188 233 277 327
#     4  10  19  35  58  82 112 146 178 238 282 317
#     4   9  17  35  60  78 109 150 187 224 278 328
#     4  10  20  37  59  81 110 150 185 224 282 332
#     4  10  21  35  57  86 113 142 189 233 277 330
#     4   9  19  36  60  79 109 156 185 221 279 336
#
# _framework density 19.171071999999999
#
# number of rings (size 3 to 8) (size 9 to 14) (size 15 to 20)
#    0.750    1.500    1.250    2.250    0.000    2.500 
#    2.250    1.875    0.000    3.000    0.000    0.000 
#    0.000    0.000    0.000    0.000    0.000    0.000 
#
# Total GULP energy -198209.119873 kJ/mol
# GULP energy per Si atom -12388.069992 kJ/mol
# Density = 1.912744 g / cm^3
# Si number density = 19.171072 Si / 1000 Ang^3
#
#
#
# Elastic Constant Matrix: (Units=GPa)
#
#
# Indices 1 2 3 4 5 6 
#
# 1 86.3881 43.9590 43.7356 1.5609 3.2224 5.3072
# 2 43.9590 78.0365 23.8027 7.8097 1.0108 -16.7081
# 3 43.7356 23.8027 83.8197 -1.5997 -13.5918 13.2172
# 4 1.5609 7.8097 -1.5997 28.2116 8.0825 -0.0373
# 5 3.2224 1.0108 -13.5918 8.0825 24.8659 6.1901
# 6 5.3072 -16.7081 13.2172 -0.0373 6.1901 30.9000
#
#
#
# Elastic Compliance Matrix: (Units=1/GPa)
#
#
# Indices 1 2 3 4 5 6 
#
# 1 0.022107 -0.010978 -0.008810 0.003375 -0.007207 -0.004517
# 2 -0.010978 0.025342 -0.005502 -0.005055 -0.005722 0.019082
# 3 -0.008810 -0.005502 0.023479 -0.002022 0.018651 -0.015243
# 4 0.003375 -0.005055 -0.002022 0.040764 -0.014724 0.000550
# 5 -0.007207 -0.005722 0.018651 -0.014724 0.061902 -0.022252
# 6 -0.004517 0.019082 -0.015243 0.000550 -0.022252 0.054435
#
#
# Mechanical properties :
#
#
# Convention : Reuss Voigt Hill
#
# Bulk Modulus (GPa) = 49.14046 52.35990 50.75018
# Shear Modulus (GPa) = 17.51989 25.91197 21.71593
#
# Velocity S-wave (km/s) = 3.02631 3.68042 3.36928
# Velocity P-wave (km/s) = 6.15627 6.74032 6.45490
#
# Compressibility (1/GPa) = 0.02034983
#
# Stress axis : x y z
#
# Youngs Moduli (GPa) = 45.23450 39.46006 42.59138
#
# Poissons Ratio (x) = 0.43317 0.37522
# Poissons Ratio (y) = 0.49656 0.23433
# Poissons Ratio (z) = 0.39850 0.21711
#
# Static dielectric constant tensor:
#      x y z
#    x 3.654580 0.118040 0.046540 
#    y 0.118040 3.452440 0.121020 
#    z 0.046540 0.121020 3.401940 
# 
# 
# High freq. dielectric constant tensor:
#      x y z
#    x 1.749830 0.007180 0.018530 
#    y 0.007180 1.740880 0.013610 
#    z 0.018530 0.013610 1.723030 
# 
# From -- ./inp_files/596268.got.cif
#   From: 2010.06.25/outbox.cif.g09.slc.cpg/sg2_299_cif.got.tgz:596268.got - 2010.06.27 13:26:56.
