data_PCOD8042874
_publ_section_title
;
Structure prediction by ZEFSAII (Michael W. Deem and Ramdas Pophale) SiO2 
 PCOD8042874
Probable space group: P -1
;
_chemical_formula_sum "Si O2"
_cell_formula_units_Z 16
_cell_length_a 17.078929
_cell_length_b 5.411414
_cell_length_c 19.587098
_cell_angle_alpha 118.748144
_cell_angle_beta 28.130436
_cell_angle_gamma 129.856267
_cell_volume 637.218018
_symmetry_space_group_name_H-M "P -1"
_symmetry_group_IT_number 2
_symmetry_cell_setting 'triclinic'
loop_
_space_group_symop_operation_xyz
x,y,z
-x,-y,-z
loop_
_atom_site_type_symbol
_atom_site_label
_atom_site_fract_x
_atom_site_fract_y
_atom_site_fract_z
Si Si1 0.714106 0.648568 0.827501
Si Si2 0.770664 0.386472 0.396150
Si Si3 0.189953 0.172755 0.459190
Si Si4 0.804345 0.409282 0.594807
Si Si5 0.619668 0.488240 0.120087
Si Si6 0.613613 0.120372 0.200396
Si Si7 0.837606 0.397895 0.822841
Si Si8 0.402122 0.704254 0.619188
O O1 0.696276 0.485384 0.746708
O O2 0.831398 0.547834 0.774991
O O3 0.822225 0.042984 0.784701
O O4 0.500000 0.500000 0.000000
O O5 0.784239 0.697904 0.466425
O O6 0.775258 0.419457 0.314834
O O7 0.950705 0.345233 0.273142
O O8 0.560664 0.089670 0.540690
O O9 0.078013 0.304176 0.515089
O O10 0.387447 0.292346 0.281636
O O11 0.068226 0.762222 0.501064
O O12 0.622968 0.094442 0.653056
O O13 0.709401 0.383652 0.099490
O O14 0.701608 0.881052 0.105201
O O15 0.665805 0.368611 0.998338
O O16 0.677286 0.346802 0.249586
O O17 0.500000 0.500000 0.500000
#
# Coordination Sequence:
#
# PCOD8042874 Si02
#       8
#     2   2   2   2   2   2   2   2
#     4  12  24  44  70 101 137 190 233 270 344 421
#     4  11  26  43  68 106 138 178 226 291 348 403
#     4  10  19  38  65  90 132 178 221 264 335 409
#     4  10  19  35  63  93 122 172 231 267 312 399
#     4  10  19  39  63  92 127 180 218 264 338 397
#     4  10  20  38  67  96 125 175 231 271 320 415
#     4  12  27  44  68 106 146 172 228 300 338 389
#     4  11  23  43  76  98 133 188 234 270 350 431
#
# _framework density 25.109145999999999
#
# number of rings (size 3 to 8) (size 9 to 14) (size 15 to 20)
#    0.000    1.250    2.500    6.375    3.500    0.000 
#    0.000    5.000    0.000    0.000    0.000    0.000 
#    0.000    0.000    0.000    0.000    0.000    0.000 
#
# Total GULP energy -198410.747998 kJ/mol
# GULP energy per Si atom -12400.671750 kJ/mol
# Density = 2.505200 g / cm^3
# Si number density = 25.109146 Si / 1000 Ang^3
#
#
#
# Elastic Constant Matrix: (Units=GPa)
#
#
# Indices 1 2 3 4 5 6 
#
# 1 183.4307 75.9884 19.6925 9.8184 10.5894 -17.8646
# 2 75.9884 139.9514 27.1679 36.8520 7.2457 -29.5034
# 3 19.6925 27.1679 37.4324 -1.4058 -0.2749 6.7176
# 4 9.8184 36.8520 -1.4058 38.5056 3.8292 -4.5729
# 5 10.5894 7.2457 -0.2749 3.8292 44.9464 3.8419
# 6 -17.8646 -29.5034 6.7176 -4.5729 3.8419 50.3927
#
#
#
# Elastic Compliance Matrix: (Units=1/GPa)
#
#
# Indices 1 2 3 4 5 6 
#
# 1 0.007297 -0.004276 -0.000744 0.002391 -0.001281 0.000497
# 2 -0.004276 0.018282 -0.013351 -0.015595 -0.001519 0.009668
# 3 -0.000744 -0.013351 0.039515 0.012685 0.002548 -0.012391
# 4 0.002391 -0.015595 0.012685 0.040089 -0.000851 -0.006271
# 5 -0.001281 -0.001519 0.002548 -0.000851 0.023185 -0.003528
# 6 0.000497 0.009668 -0.012391 -0.006271 -0.003528 0.027033
#
#
# Mechanical properties :
#
#
# Convention : Reuss Voigt Hill
#
# Bulk Modulus (GPa) = 35.27136 67.39026 51.33081
# Shear Modulus (GPa) = 24.80214 42.63332 33.71773
#
# Velocity S-wave (km/s) = 3.14630 4.12505 3.66846
# Velocity P-wave (km/s) = 5.22270 7.04168 6.19927
#
# Compressibility (1/GPa) = 0.02835161
#
# Stress axis : x y z
#
# Youngs Moduli (GPa) = 137.03502 54.69783 25.30656
#
# Poissons Ratio (x) = 0.23390 0.01883
# Poissons Ratio (y) = 0.58600 0.33787
# Poissons Ratio (z) = 0.10198 0.73029
#
# Static dielectric constant tensor:
#      x y z
#    x 5.647950 -0.683680 0.048070 
#    y -0.683680 4.828230 0.463090 
#    z 0.048070 0.463090 4.040390 
# 
# 
# High freq. dielectric constant tensor:
#      x y z
#    x 2.027910 -0.012530 0.006800 
#    y -0.012530 2.004350 0.020650 
#    z 0.006800 0.020650 1.986730 
# 
# From -- ./inp_files/126716.got.cif
#   From: 2010.06.25/outbox.cif.g09.slc.cpg/sg2_64_cif.got.tgz:126716.got - 2010.06.27 13:26:56.
