data_PCOD8042483
_publ_section_title
;
Structure prediction by ZEFSAII (Michael W. Deem and Ramdas Pophale) SiO2 
 PCOD8042483
Probable space group: P -1
;
_chemical_formula_sum "Si O2"
_cell_formula_units_Z 16
_cell_length_a 19.208831
_cell_length_b 9.094182
_cell_length_c 12.077707
_cell_angle_alpha 39.806992
_cell_angle_beta 49.829554
_cell_angle_gamma 78.594725
_cell_volume 818.860334
_symmetry_space_group_name_H-M "P -1"
_symmetry_group_IT_number 2
_symmetry_cell_setting 'triclinic'
loop_
_space_group_symop_operation_xyz
x,y,z
-x,-y,-z
loop_
_atom_site_type_symbol
_atom_site_label
_atom_site_fract_x
_atom_site_fract_y
_atom_site_fract_z
Si Si1 0.359755 0.593279 0.467467
Si Si2 0.727093 0.468592 0.726201
Si Si3 0.778598 0.447900 0.929743
Si Si4 0.620508 0.971340 0.960325
Si Si5 0.266669 0.340575 0.939166
Si Si6 0.975591 0.695621 0.284796
Si Si7 0.969096 0.177448 0.593882
Si Si8 0.784515 0.911247 0.257357
O O1 0.342405 0.824646 0.303897
O O2 0.341206 0.564448 0.634846
O O3 0.269744 0.279379 0.687664
O O4 0.487289 0.698852 0.248004
O O5 0.716068 0.430212 0.890873
O O6 0.637193 0.153791 0.947176
O O7 0.851877 0.618426 0.457811
O O8 0.711683 0.706190 0.557697
O O9 0.909523 0.739347 0.620059
O O10 0.713181 0.469129 0.084870
O O11 0.772592 0.165889 0.113022
O O12 0.695853 0.859265 0.954598
O O13 0.132567 0.142967 0.157680
O O14 0.952486 0.405075 0.430330
O O15 0.034009 0.796577 0.286579
O O16 0.078817 0.953424 0.952211
#
# Coordination Sequence:
#
# PCOD8042483 Si02
#       8
#     2   2   2   2   2   2   2   2
#     4  10  22  39  60  83 105 139 190 237 269 310
#     4  10  19  35  57  79 109 144 184 227 270 320
#     4  10  23  34  52  83 120 148 173 217 273 338
#     4  10  22  39  60  83 105 139 190 237 269 310
#     4  12  20  37  58  80 114 149 180 218 276 330
#     4   9  15  30  56  83 105 136 185 231 266 315
#     4   9  17  31  53  81 115 145 175 220 268 325
#     4  10  19  35  57  79 109 144 184 227 270 320
#
# _framework density 19.539352000000001
#
# number of rings (size 3 to 8) (size 9 to 14) (size 15 to 20)
#    0.000    2.000    2.500    2.625    0.000    1.000 
#    0.000    2.500    0.000    9.000    0.000    0.000 
#    0.000    0.000    0.000    0.000    0.000    0.000 
#
# Total GULP energy -198292.315455 kJ/mol
# GULP energy per Si atom -12393.269716 kJ/mol
# Density = 1.949488 g / cm^3
# Si number density = 19.539352 Si / 1000 Ang^3
#
#
#
# Elastic Constant Matrix: (Units=GPa)
#
#
# Indices 1 2 3 4 5 6 
#
# 1 61.1312 13.7586 22.5368 4.5799 10.3755 5.0216
# 2 13.7586 63.1998 32.7384 10.2208 16.0506 7.8252
# 3 22.5368 32.7384 75.7263 -6.2360 6.5192 -2.7507
# 4 4.5799 10.2208 -6.2360 16.5850 8.4265 0.4785
# 5 10.3755 16.0506 6.5192 8.4265 32.2496 0.7146
# 6 5.0216 7.8252 -2.7507 0.4785 0.7146 13.8396
#
#
#
# Elastic Compliance Matrix: (Units=1/GPa)
#
#
# Indices 1 2 3 4 5 6 
#
# 1 0.020990 0.003801 -0.008645 -0.008870 -0.004337 -0.010953
# 2 0.003801 0.032063 -0.017041 -0.022895 -0.007272 -0.021728
# 3 -0.008645 -0.017041 0.025586 0.022040 -0.000047 0.017098
# 4 -0.008870 -0.022895 0.022040 0.092070 -0.014666 0.018118
# 5 -0.004337 -0.007272 -0.000047 -0.014666 0.039773 0.004129
# 6 -0.010953 -0.021728 0.017098 0.018118 0.004129 0.091075
#
#
# Mechanical properties :
#
#
# Convention : Reuss Voigt Hill
#
# Bulk Modulus (GPa) = 28.67994 37.56945 33.12469
# Shear Modulus (GPa) = 14.00761 21.26976 17.63869
#
# Velocity S-wave (km/s) = 2.68039 3.30291 3.00780
# Velocity P-wave (km/s) = 4.92841 5.81506 5.39000
#
# Compressibility (1/GPa) = 0.03486758
#
# Stress axis : x y z
#
# Youngs Moduli (GPa) = 47.64131 31.18886 39.08430
#
# Poissons Ratio (x) = -0.11853 0.33788
# Poissons Ratio (y) = -0.18106 0.66604
# Poissons Ratio (z) = 0.41185 0.53150
#
# Static dielectric constant tensor:
#      x y z
#    x 3.598930 0.081120 0.028290 
#    y 0.081120 3.168010 -0.084160 
#    z 0.028290 -0.084160 3.619040 
# 
# 
# High freq. dielectric constant tensor:
#      x y z
#    x 1.763830 0.007580 0.006180 
#    y 0.007580 1.721410 -0.012720 
#    z 0.006180 -0.012720 1.773490 
# 
# From -- ./inp_files/221136.got.cif
#   From: 2010.06.25/outbox.cif.g09.slc.cpg/sg2_111_cif.got.tgz:221136.got - 2010.06.27 13:26:56.
