data_PCOD8042778
_publ_section_title
;
Structure prediction by ZEFSAII (Michael W. Deem and Ramdas Pophale) SiO2 
 PCOD8042778
Probable space group: P -1
;
_chemical_formula_sum "Si O2"
_cell_formula_units_Z 16
_cell_length_a 8.265911
_cell_length_b 14.844280
_cell_length_c 8.124289
_cell_angle_alpha 52.557442
_cell_angle_beta 66.136339
_cell_angle_gamma 85.533288
_cell_volume 704.149678
_symmetry_space_group_name_H-M "P -1"
_symmetry_group_IT_number 2
_symmetry_cell_setting 'triclinic'
loop_
_space_group_symop_operation_xyz
x,y,z
-x,-y,-z
loop_
_atom_site_type_symbol
_atom_site_label
_atom_site_fract_x
_atom_site_fract_y
_atom_site_fract_z
Si Si1 0.453139 0.368595 0.842370
Si Si2 0.338252 0.234024 0.716351
Si Si3 0.406781 0.140003 0.260541
Si Si4 0.097698 0.400892 0.124577
Si Si5 0.990369 0.140077 0.421092
Si Si6 0.347873 0.439379 0.260721
Si Si7 0.616825 0.969678 0.262949
Si Si8 0.987535 0.063898 0.163494
O O1 0.449222 0.317868 0.716616
O O2 0.620303 0.482111 0.672405
O O3 0.505311 0.275372 0.049607
O O4 0.263978 0.401975 0.930437
O O5 0.347537 0.307696 0.461887
O O6 0.423281 0.122680 0.767687
O O7 0.130852 0.179194 0.917046
O O8 0.199631 0.135956 0.301827
O O9 0.445693 0.103824 0.465952
O O10 0.495049 0.063136 0.180992
O O11 0.966670 0.269950 0.326673
O O12 0.158110 0.431135 0.255069
O O13 0.000000 0.500000 0.000000
O O14 0.890178 0.096533 0.336724
O O15 0.926161 0.048431 0.700354
O O16 0.500000 0.500000 0.000000
O O17 0.833636 0.028195 0.125359
#
# Coordination Sequence:
#
# PCOD8042778 Si02
#       8
#     2   2   2   2   2   2   2   2
#     4  10  21  40  61  85 122 160 204 252 307 345
#     4  12  21  38  65  89 128 155 201 256 310 358
#     4   9  18  39  58  86 122 160 202 245 287 365
#     4  10  20  39  66  90 119 159 208 251 296 363
#     4   9  18  37  61  87 122 163 197 241 305 358
#     4  10  22  40  66  86 113 162 211 246 305 367
#     4  10  21  32  61  92 122 159 203 240 298 362
#     4  10  19  35  61  88 124 163 193 245 307 370
#
# _framework density 22.722439999999999
#
# number of rings (size 3 to 8) (size 9 to 14) (size 15 to 20)
#    0.000    2.000    2.500    3.750    0.000    1.500 
#    0.000    6.875    8.250    0.000    0.000    0.000 
#    0.000    0.000    0.000    0.000    0.000    0.000 
#
# Total GULP energy -198215.305455 kJ/mol
# GULP energy per Si atom -12388.456591 kJ/mol
# Density = 2.267072 g / cm^3
# Si number density = 22.722440 Si / 1000 Ang^3
#
#
#
# Elastic Constant Matrix: (Units=GPa)
#
#
# Indices 1 2 3 4 5 6 
#
# 1 46.2642 53.8299 11.2401 -12.3198 13.2947 5.4738
# 2 53.8299 156.3463 24.2670 -24.2938 10.9833 10.3203
# 3 11.2401 24.2670 105.5772 -28.1848 -0.8810 -4.4105
# 4 -12.3198 -24.2938 -28.1848 39.9741 -1.7987 4.7564
# 5 13.2947 10.9833 -0.8810 -1.7987 13.9746 -6.1216
# 6 5.4738 10.3203 -4.4105 4.7564 -6.1216 45.2261
#
#
#
# Elastic Compliance Matrix: (Units=1/GPa)
#
#
# Indices 1 2 3 4 5 6 
#
# 1 0.052771 -0.013204 -0.001689 0.006290 -0.043544 -0.010094
# 2 -0.013204 0.011222 -0.000458 0.002689 0.003714 -0.000787
# 3 -0.001689 -0.000458 0.011878 0.007619 0.004239 0.001240
# 4 0.006290 0.002689 0.007619 0.034310 -0.005377 -0.004968
# 5 -0.043544 0.003714 0.004239 -0.005377 0.119066 0.021518
# 6 -0.010094 -0.000787 0.001240 -0.004968 0.021518 0.027068
#
#
# Mechanical properties :
#
#
# Convention : Reuss Voigt Hill
#
# Bulk Modulus (GPa) = 22.13905 54.09573 38.11739
# Shear Modulus (GPa) = 16.55220 34.42503 25.48861
#
# Velocity S-wave (km/s) = 2.70191 3.89655 3.35287
# Velocity P-wave (km/s) = 4.41567 6.64101 5.63920
#
# Compressibility (1/GPa) = 0.04516905
#
# Stress axis : x y z
#
# Youngs Moduli (GPa) = 18.94973 89.10936 84.18906
#
# Poissons Ratio (x) = 1.17662 0.14221
# Poissons Ratio (y) = 0.25022 0.03854
# Poissons Ratio (z) = 0.03201 0.04079
#
# Static dielectric constant tensor:
#      x y z
#    x 3.847760 0.358580 0.017650 
#    y 0.358580 4.444460 -0.357360 
#    z 0.017650 -0.357360 4.292280 
# 
# 
# High freq. dielectric constant tensor:
#      x y z
#    x 1.857980 0.031780 0.012550 
#    y 0.031780 1.901040 -0.022150 
#    z 0.012550 -0.022150 1.898500 
# 
# From -- ./inp_files/205486.got.cif
#   From: 2010.06.25/outbox.cif.g09.slc.cpg/sg2_103_cif.got.tgz:205486.got - 2010.06.27 13:26:56.
