data_PCOD8042510
_publ_section_title
;
Structure prediction by ZEFSAII (Michael W. Deem and Ramdas Pophale) SiO2 
 PCOD8042510
Probable space group: P -1
;
_chemical_formula_sum "Si O2"
_cell_formula_units_Z 16
_cell_length_a 11.101116
_cell_length_b 11.575222
_cell_length_c 9.261603
_cell_angle_alpha 65.973926
_cell_angle_beta 61.679339
_cell_angle_gamma 52.833979
_cell_volume 822.439998
_symmetry_space_group_name_H-M "P -1"
_symmetry_group_IT_number 2
_symmetry_cell_setting 'triclinic'
loop_
_space_group_symop_operation_xyz
x,y,z
-x,-y,-z
loop_
_atom_site_type_symbol
_atom_site_label
_atom_site_fract_x
_atom_site_fract_y
_atom_site_fract_z
Si Si1 0.325083 0.048028 0.128149
Si Si2 0.223323 0.372883 0.039716
Si Si3 0.908105 0.883907 0.001720
Si Si4 0.328194 0.256157 0.474079
Si Si5 0.478321 0.360809 0.101519
Si Si6 0.891207 0.602923 0.211670
Si Si7 0.207182 0.881901 0.823508
Si Si8 0.648382 0.015097 0.540147
O O1 0.332385 0.965466 0.312372
O O2 0.227873 0.220990 0.125025
O O3 0.225019 0.008461 0.093439
O O4 0.500000 0.000000 0.000000
O O5 0.191624 0.431179 0.860580
O O6 0.389254 0.354760 0.010644
O O7 0.078109 0.480945 0.173475
O O8 0.872142 0.757469 0.113080
O O9 0.891828 0.961651 0.122978
O O10 0.090119 0.821356 0.878463
O O11 0.381837 0.352870 0.300014
O O12 0.193063 0.379035 0.594282
O O13 0.461633 0.121778 0.561448
O O14 0.280400 0.159579 0.447234
O O15 0.655227 0.223044 0.089729
O O16 0.500000 0.500000 0.000000
O O17 0.264742 0.911805 0.626013
#
# Coordination Sequence:
#
# PCOD8042510 Si02
#       8
#     2   2   2   2   2   2   2   2
#     4  11  21  35  59  86 113 146 193 236 277 329
#     4  10  21  35  57  84 113 149 188 231 280 340
#     4  10  20  35  57  84 114 153 181 232 284 334
#     4  10  20  35  59  84 112 147 189 236 278 329
#     4  11  22  38  56  81 114 152 189 232 283 339
#     4  10  20  37  57  84 115 148 188 232 285 331
#     4  10  21  36  57  83 116 148 189 228 285 339
#     4  10  19  35  57  86 112 146 190 237 275 331
#
# _framework density 19.454307
#
# number of rings (size 3 to 8) (size 9 to 14) (size 15 to 20)
#    0.000    1.750    2.500    3.000    1.750    1.000 
#    0.000    0.625    0.000    6.000    0.000    0.000 
#    0.000    0.000    0.000    0.000    0.000    0.000 
#
# Total GULP energy -198241.492148 kJ/mol
# GULP energy per Si atom -12390.093259 kJ/mol
# Density = 1.941003 g / cm^3
# Si number density = 19.454307 Si / 1000 Ang^3
#
#
#
# Elastic Constant Matrix: (Units=GPa)
#
#
# Indices 1 2 3 4 5 6 
#
# 1 119.8870 1.1867 38.8188 3.4278 -0.6036 -14.0383
# 2 1.1867 53.0049 28.7938 7.2324 -5.0506 -6.5842
# 3 38.8188 28.7938 98.1292 2.1076 -0.8644 -0.8590
# 4 3.4278 7.2324 2.1076 31.9062 -0.5553 -4.3321
# 5 -0.6036 -5.0506 -0.8644 -0.5553 27.4918 -1.0633
# 6 -14.0383 -6.5842 -0.8590 -4.3321 -1.0633 28.5762
#
#
#
# Elastic Compliance Matrix: (Units=1/GPa)
#
#
# Indices 1 2 3 4 5 6 
#
# 1 0.010691 0.003492 -0.005178 -0.000792 0.000922 0.005815
# 2 0.003492 0.025384 -0.008631 -0.004557 0.004639 0.006786
# 3 -0.005178 -0.008631 0.014704 0.000975 -0.001372 -0.003994
# 4 -0.000792 -0.004557 0.000975 0.032880 -0.000022 0.003574
# 5 0.000922 0.004639 -0.001372 -0.000022 0.037314 0.002866
# 6 0.005815 0.006786 -0.003994 0.003574 0.002866 0.039943
#
#
# Mechanical properties :
#
#
# Convention : Reuss Voigt Hill
#
# Bulk Modulus (GPa) = 33.17446 45.40221 39.28834
# Shear Modulus (GPa) = 26.09608 31.07629 28.58618
#
# Velocity S-wave (km/s) = 3.66649 4.00108 3.83744
# Velocity P-wave (km/s) = 5.91724 6.68831 6.31455
#
# Compressibility (1/GPa) = 0.03014367
#
# Stress axis : x y z
#
# Youngs Moduli (GPa) = 93.53226 39.39541 68.00990
#
# Poissons Ratio (x) = -0.13756 0.35216
# Poissons Ratio (y) = -0.32660 0.58703
# Poissons Ratio (z) = 0.48431 0.34004
#
# Static dielectric constant tensor:
#      x y z
#    x 4.205250 -0.096960 0.290400 
#    y -0.096960 3.547890 0.067610 
#    z 0.290400 0.067610 3.655690 
# 
# 
# High freq. dielectric constant tensor:
#      x y z
#    x 1.756530 -0.012120 0.009610 
#    y -0.012120 1.747110 0.004270 
#    z 0.009610 0.004270 1.750440 
# 
# From -- ./inp_files/256693.got.cif
#   From: 2010.06.25/outbox.cif.g09.slc.cpg/sg2_129_cif.got.tgz:256693.got - 2010.06.27 13:26:56.
