data_PCOD8042593
_publ_section_title
;
Structure prediction by ZEFSAII (Michael W. Deem and Ramdas Pophale) SiO2 
 PCOD8042593
Probable space group: P -1
;
_chemical_formula_sum "Si O2"
_cell_formula_units_Z 16
_cell_length_a 11.628989
_cell_length_b 7.470087
_cell_length_c 15.315412
_cell_angle_alpha 130.927237
_cell_angle_beta 81.024130
_cell_angle_gamma 67.391918
_cell_volume 752.772927
_symmetry_space_group_name_H-M "P -1"
_symmetry_group_IT_number 2
_symmetry_cell_setting 'triclinic'
loop_
_space_group_symop_operation_xyz
x,y,z
-x,-y,-z
loop_
_atom_site_type_symbol
_atom_site_label
_atom_site_fract_x
_atom_site_fract_y
_atom_site_fract_z
Si Si1 0.214219 0.529957 0.366845
Si Si2 0.112201 0.083843 0.427625
Si Si3 0.618332 0.390447 0.076281
Si Si4 0.159269 0.297977 0.652293
Si Si5 0.691784 0.416717 0.885199
Si Si6 0.422532 0.596170 0.447236
Si Si7 0.191402 0.285490 0.130917
Si Si8 0.395114 0.336528 0.666255
O O1 0.359815 0.418008 0.371388
O O2 0.255739 0.253062 0.211565
O O3 0.070257 0.664395 0.490264
O O4 0.159046 0.798014 0.389372
O O5 0.160075 0.249676 0.531997
O O6 0.198648 0.940807 0.279356
O O7 0.475484 0.411122 0.078691
O O8 0.573985 0.665267 0.234579
O O9 0.692270 0.406453 0.986303
O O10 0.742346 0.062762 0.008602
O O11 0.218339 0.489243 0.721191
O O12 0.993616 0.474578 0.771004
O O13 0.277454 0.965429 0.580912
O O14 0.750649 0.598779 0.909039
O O15 0.500000 0.500000 0.500000
O O16 0.558719 0.478789 0.326061
O O17 0.500000 0.000000 0.500000
#
# Coordination Sequence:
#
# PCOD8042593 Si02
#       8
#     2   2   2   2   2   2   2   2
#     4   8  15  31  58  87 114 151 192 241 291 343
#     4   8  14  32  62  83 112 151 194 239 292 339
#     4  11  23  38  59  90 119 156 201 241 303 361
#     4   9  19  38  61  83 118 161 196 241 299 343
#     4  10  20  37  60  90 119 154 193 252 295 349
#     4  10  19  35  58  92 114 152 201 244 292 351
#     4  10  20  40  61  87 121 158 196 245 302 351
#     4  10  21  41  59  79 118 156 192 249 296 348
#
# _framework density 21.254750000000001
#
# number of rings (size 3 to 8) (size 9 to 14) (size 15 to 20)
#    0.000    2.500    0.000    5.625    0.000    0.500 
#   20.250    1.875    0.000    0.000    0.000    0.000 
#    0.000    0.000    0.000    0.000    0.000    0.000 
#
# Total GULP energy -198275.960676 kJ/mol
# GULP energy per Si atom -12392.247542 kJ/mol
# Density = 2.120637 g / cm^3
# Si number density = 21.254750 Si / 1000 Ang^3
#
#
#
# Elastic Constant Matrix: (Units=GPa)
#
#
# Indices 1 2 3 4 5 6 
#
# 1 147.2619 49.9069 50.1619 -17.8978 -13.5459 -15.9233
# 2 49.9069 64.5168 49.4947 -17.4558 -4.2430 -8.4084
# 3 50.1619 49.4947 123.3539 -26.2347 -10.6180 1.7201
# 4 -17.8978 -17.4558 -26.2347 33.6728 1.1164 2.1184
# 5 -13.5459 -4.2430 -10.6180 1.1164 31.7626 -8.2940
# 6 -15.9233 -8.4084 1.7201 2.1184 -8.2940 20.1098
#
#
#
# Elastic Compliance Matrix: (Units=1/GPa)
#
#
# Indices 1 2 3 4 5 6 
#
# 1 0.010691 -0.005237 -0.001696 0.000923 0.005504 0.008593
# 2 -0.005237 0.028321 -0.008231 0.004944 0.000764 0.008193
# 3 -0.001696 -0.008231 0.013469 0.005685 0.000867 -0.006178
# 4 0.000923 0.004944 0.005685 0.037201 0.001376 -0.001039
# 5 0.005504 0.000764 0.000867 0.001376 0.039604 0.020793
# 6 0.008593 0.008193 -0.006178 -0.001039 0.020793 0.069171
#
#
# Mechanical properties :
#
#
# Convention : Reuss Voigt Hill
#
# Bulk Modulus (GPa) = 45.14006 70.47328 57.80667
# Shear Modulus (GPa) = 21.17130 29.48031 25.32581
#
# Velocity S-wave (km/s) = 3.15949 3.72828 3.45561
# Velocity P-wave (km/s) = 5.88163 7.19458 6.57098
#
# Compressibility (1/GPa) = 0.02215327
#
# Stress axis : x y z
#
# Youngs Moduli (GPa) = 93.53778 35.30899 74.24557
#
# Poissons Ratio (x) = 0.18492 0.12590
# Poissons Ratio (y) = 0.48988 0.61111
# Poissons Ratio (z) = 0.15861 0.29063
#
# Static dielectric constant tensor:
#      x y z
#    x 4.472380 -0.000200 0.012570 
#    y -0.000200 3.301110 -0.041110 
#    z 0.012570 -0.041110 4.137810 
# 
# 
# High freq. dielectric constant tensor:
#      x y z
#    x 1.845540 -0.000770 -0.008470 
#    y -0.000770 1.788800 -0.005040 
#    z -0.008470 -0.005040 1.833260 
# 
# From -- ./inp_files/514695.got.cif
#   From: 2010.06.25/outbox.cif.g09.slc.cpg/sg2_258_cif.got.tgz:514695.got - 2010.06.27 13:26:56.
