data_PCOD8042455
_publ_section_title
;
Structure prediction by ZEFSAII (Michael W. Deem and Ramdas Pophale) SiO2 
 PCOD8042455
Probable space group: P -1
;
_chemical_formula_sum "Si O2"
_cell_formula_units_Z 16
_cell_length_a 13.010991
_cell_length_b 8.227629
_cell_length_c 11.810973
_cell_angle_alpha 102.150707
_cell_angle_beta 138.810943
_cell_angle_gamma 75.677163
_cell_volume 806.172128
_symmetry_space_group_name_H-M "P -1"
_symmetry_group_IT_number 2
_symmetry_cell_setting 'triclinic'
loop_
_space_group_symop_operation_xyz
x,y,z
-x,-y,-z
loop_
_atom_site_type_symbol
_atom_site_label
_atom_site_fract_x
_atom_site_fract_y
_atom_site_fract_z
Si Si1 0.733289 0.716495 0.277013
Si Si2 0.256977 0.422969 0.493154
Si Si3 0.972221 0.700187 0.287777
Si Si4 0.590019 0.132716 0.031822
Si Si5 0.460969 0.687903 0.648883
Si Si6 0.212273 0.904276 0.603661
Si Si7 0.732552 0.863048 0.946709
Si Si8 0.615289 0.838209 0.611338
O O1 0.773563 0.605438 0.404778
O O2 0.836649 0.636586 0.244759
O O3 0.545634 0.719157 0.098814
O O4 0.783068 0.899396 0.363888
O O5 0.416340 0.506260 0.617425
O O6 0.280267 0.248152 0.418008
O O7 0.104081 0.545730 0.341122
O O8 0.038942 0.851103 0.434502
O O9 0.899598 0.777122 0.120961
O O10 0.683409 0.045629 0.988774
O O11 0.714990 0.188578 0.233856
O O12 0.500000 0.000000 0.000000
O O13 0.311483 0.828519 0.566823
O O14 0.604374 0.737127 0.852950
O O15 0.510081 0.704301 0.559831
O O16 0.734706 0.889218 0.815838
O O17 0.500000 0.000000 0.500000
#
# Coordination Sequence:
#
# PCOD8042455 Si02
#       8
#     2   2   2   2   2   2   2   2
#     4  11  19  35  56  83 119 148 190 231 267 333
#     4  11  23  36  56  84 117 152 183 227 288 334
#     4  11  22  35  54  86 120 153 181 221 293 342
#     4  10  15  31  58  83 105 143 194 235 267 311
#     4   9  19  36  57  87 106 145 189 231 278 324
#     4  10  18  33  60  84 110 149 192 229 280 327
#     4  10  19  34  60  83 114 142 191 230 280 327
#     4  10  20  39  66  83 103 142 197 243 275 322
#
# _framework density 19.846878
#
# number of rings (size 3 to 8) (size 9 to 14) (size 15 to 20)
#    0.750    1.000    5.000    2.625    0.000    0.500 
#    0.000    6.875    2.750    3.750    0.000    0.000 
#    0.000    0.000    0.000    0.000    0.000    0.000 
#
# Total GULP energy -198243.295775 kJ/mol
# GULP energy per Si atom -12390.205986 kJ/mol
# Density = 1.980171 g / cm^3
# Si number density = 19.846878 Si / 1000 Ang^3
#
#
#
# Elastic Constant Matrix: (Units=GPa)
#
#
# Indices 1 2 3 4 5 6 
#
# 1 50.0517 19.1847 27.4555 -2.8780 -7.6307 -4.1206
# 2 19.1847 61.8745 32.8606 -10.1363 3.5429 -11.5327
# 3 27.4555 32.8606 142.1060 -17.3980 2.1383 2.0335
# 4 -2.8780 -10.1363 -17.3980 22.9457 -3.2827 -0.0354
# 5 -7.6307 3.5429 2.1383 -3.2827 29.7721 0.0343
# 6 -4.1206 -11.5327 2.0335 -0.0354 0.0343 23.7112
#
#
#
# Elastic Compliance Matrix: (Units=1/GPa)
#
#
# Indices 1 2 3 4 5 6 
#
# 1 0.025672 -0.006261 -0.003817 -0.001372 0.007446 0.001731
# 2 -0.006261 0.023126 -0.003461 0.006333 -0.003422 0.010471
# 3 -0.003817 -0.003461 0.009228 0.004886 -0.000687 -0.003130
# 4 -0.001372 0.006333 0.004886 0.050503 0.004109 0.002492
# 5 0.007446 -0.003422 -0.000687 0.004109 0.036407 -0.000358
# 6 0.001731 0.010471 -0.003130 0.002492 -0.000358 0.047841
#
#
# Mechanical properties :
#
#
# Convention : Reuss Voigt Hill
#
# Bulk Modulus (GPa) = 32.31227 45.89265 39.10246
# Shear Modulus (GPa) = 21.72297 26.92124 24.32210
#
# Velocity S-wave (km/s) = 3.31195 3.68699 3.50449
# Velocity P-wave (km/s) = 5.56251 6.42641 6.01000
#
# Compressibility (1/GPa) = 0.03094799
#
# Stress axis : x y z
#
# Youngs Moduli (GPa) = 38.95347 43.24070 108.36467
#
# Poissons Ratio (x) = 0.27074 0.41361
# Poissons Ratio (y) = 0.24390 0.37505
# Poissons Ratio (z) = 0.14868 0.14966
#
# Static dielectric constant tensor:
#      x y z
#    x 3.502920 -0.137460 0.061490 
#    y -0.137460 3.324280 -0.057750 
#    z 0.061490 -0.057750 3.950780 
# 
# 
# High freq. dielectric constant tensor:
#      x y z
#    x 1.759600 -0.020080 -0.001230 
#    y -0.020080 1.748530 -0.004090 
#    z -0.001230 -0.004090 1.771390 
# 
# From -- ./inp_files/444797.got.cif
#   From: 2010.06.25/outbox.cif.g09.slc.cpg/sg2_223_cif.got.tgz:444797.got - 2010.06.27 13:26:56.
