data_PCOD8042503
_publ_section_title
;
Structure prediction by ZEFSAII (Michael W. Deem and Ramdas Pophale) SiO2 
 PCOD8042503
Probable space group: P -1
;
_chemical_formula_sum "Si O2"
_cell_formula_units_Z 16
_cell_length_a 15.525650
_cell_length_b 16.141341
_cell_length_c 12.525859
_cell_angle_alpha 36.685616
_cell_angle_beta 37.173493
_cell_angle_gamma 26.146263
_cell_volume 790.310876
_symmetry_space_group_name_H-M "P -1"
_symmetry_group_IT_number 2
_symmetry_cell_setting 'triclinic'
loop_
_space_group_symop_operation_xyz
x,y,z
-x,-y,-z
loop_
_atom_site_type_symbol
_atom_site_label
_atom_site_fract_x
_atom_site_fract_y
_atom_site_fract_z
Si Si1 0.891250 0.313368 0.966898
Si Si2 0.238377 0.433912 0.742117
Si Si3 0.296507 0.038864 0.732098
Si Si4 0.844386 0.069958 0.174281
Si Si5 0.073412 0.214124 0.448844
Si Si6 0.015586 0.309228 0.075581
Si Si7 0.640124 0.021622 0.787942
Si Si8 0.742917 0.709351 0.653211
O O1 0.799612 0.508846 0.794141
O O2 0.122883 0.118985 0.903886
O O3 0.757358 0.272286 0.105007
O O4 0.896874 0.327293 0.073948
O O5 0.487522 0.259646 0.676763
O O6 0.146560 0.616209 0.567091
O O7 0.164606 0.513493 0.852594
O O8 0.152260 0.347528 0.871697
O O9 0.242843 0.228334 0.541540
O O10 0.322352 0.911887 0.737959
O O11 0.509739 0.889417 0.738951
O O12 0.945470 0.912775 0.333395
O O13 0.000000 0.000000 0.000000
O O14 0.105543 0.324534 0.378372
O O15 0.262352 0.083452 0.314175
O O16 0.166791 0.088936 0.208448
O O17 0.500000 0.000000 0.000000
#
# Coordination Sequence:
#
# PCOD8042503 Si02
#       8
#     2   2   2   2   2   2   2   2
#     4  11  20  34  58  78 105 149 185 216 275 331
#     4   9  17  33  51  81 114 139 172 226 281 314
#     4   9  21  37  52  79 111 137 182 235 279 313
#     4   9  21  41  56  76 114 153 181 224 274 327
#     4  10  19  35  57  83 112 144 185 222 275 325
#     4   9  18  30  51  84 108 138 181 223 268 327
#     4   9  19  31  54  84 116 140 171 229 281 322
#     4  10  20  33  56  83 106 136 184 240 268 322
#
# _framework density 20.245197000000001
#
# number of rings (size 3 to 8) (size 9 to 14) (size 15 to 20)
#    0.000    2.500    1.250    1.125    3.500    0.500 
#    0.000    5.000    0.000    1.500    0.000    0.000 
#    0.000    0.000    0.000    0.000    0.000    0.000 
#
# Total GULP energy -198254.467931 kJ/mol
# GULP energy per Si atom -12390.904246 kJ/mol
# Density = 2.019912 g / cm^3
# Si number density = 20.245197 Si / 1000 Ang^3
#
#
#
# Elastic Constant Matrix: (Units=GPa)
#
#
# Indices 1 2 3 4 5 6 
#
# 1 76.0432 28.2693 25.4903 -21.9044 8.1965 10.2740
# 2 28.2693 98.6082 28.0074 -16.4243 8.7441 -6.8825
# 3 25.4903 28.0074 87.4860 -19.1667 8.8693 7.5815
# 4 -21.9044 -16.4243 -19.1667 29.1660 9.4791 -4.3737
# 5 8.1965 8.7441 8.8693 9.4791 18.6848 -3.1045
# 6 10.2740 -6.8825 7.5815 -4.3737 -3.1045 27.7946
#
#
#
# Elastic Compliance Matrix: (Units=1/GPa)
#
#
# Indices 1 2 3 4 5 6 
#
# 1 0.024469 -0.001707 0.002553 0.026174 -0.025911 -0.008939
# 2 -0.001707 0.013655 -0.001428 0.009038 -0.008744 0.004847
# 3 0.002553 -0.001428 0.017391 0.017795 -0.018618 -0.005320
# 4 0.026174 0.009038 0.017795 0.093441 -0.072508 -0.005686
# 5 -0.025911 -0.008744 -0.018618 -0.072508 0.116950 0.014144
# 6 -0.008939 0.004847 -0.005320 -0.005686 0.014144 0.042619
#
#
# Mechanical properties :
#
#
# Convention : Reuss Voigt Hill
#
# Bulk Modulus (GPa) = 18.39855 47.29682 32.84768
# Shear Modulus (GPa) = 15.25294 27.15377 21.20335
#
# Velocity S-wave (km/s) = 2.74781 3.66627 3.23976
# Velocity P-wave (km/s) = 4.37891 6.42921 5.50044
#
# Compressibility (1/GPa) = 0.05435212
#
# Stress axis : x y z
#
# Youngs Moduli (GPa) = 40.86743 73.23309 57.50161
#
# Poissons Ratio (x) = 0.12498 -0.14678
# Poissons Ratio (y) = 0.06974 0.08209
# Poissons Ratio (z) = -0.10432 0.10455
#
# Static dielectric constant tensor:
#      x y z
#    x 3.761280 -0.046730 0.071150 
#    y -0.046730 3.805840 -0.250170 
#    z 0.071150 -0.250170 3.602620 
# 
# 
# High freq. dielectric constant tensor:
#      x y z
#    x 1.778330 -0.001000 0.022830 
#    y -0.001000 1.782850 -0.011240 
#    z 0.022830 -0.011240 1.772070 
# 
# From -- ./inp_files/312751.got.cif
#   From: 2010.06.25/outbox.cif.g09.slc.cpg/sg2_157_cif.got.tgz:312751.got - 2010.06.27 13:26:56.
