data_PCOD8042040
_publ_section_title
;
Structure prediction by ZEFSAII (Michael W. Deem and Ramdas Pophale) SiO2 
 PCOD8042040
Probable space group: P -1
;
_chemical_formula_sum "Si O2"
_cell_formula_units_Z 16
_cell_length_a 9.429475
_cell_length_b 11.622740
_cell_length_c 12.066558
_cell_angle_alpha 110.089659
_cell_angle_beta 126.018295
_cell_angle_gamma 50.786812
_cell_volume 827.909442
_symmetry_space_group_name_H-M "P -1"
_symmetry_group_IT_number 2
_symmetry_cell_setting 'triclinic'
loop_
_space_group_symop_operation_xyz
x,y,z
-x,-y,-z
loop_
_atom_site_type_symbol
_atom_site_label
_atom_site_fract_x
_atom_site_fract_y
_atom_site_fract_z
Si Si1 0.025196 0.707054 0.809820
Si Si2 0.129269 0.324948 0.492974
Si Si3 0.344525 0.033791 0.175969
Si Si4 0.937730 0.057730 0.659726
Si Si5 0.185403 0.100139 0.614463
Si Si6 0.744930 0.140682 0.082657
Si Si7 0.409017 0.404345 0.910000
Si Si8 0.574899 0.204501 0.703293
O O1 0.969364 0.724919 0.660189
O O2 0.141875 0.792485 0.910901
O O3 0.155384 0.530213 0.839747
O O4 0.814956 0.789171 0.817449
O O5 0.129700 0.254914 0.588851
O O6 0.372862 0.259314 0.549418
O O7 0.000000 0.500000 0.500000
O O8 0.583342 0.987401 0.248802
O O9 0.339906 0.956177 0.260685
O O10 0.243999 0.994734 0.017093
O O11 0.010227 0.138861 0.639771
O O12 0.771488 0.179684 0.713156
O O13 0.151269 0.916671 0.768057
O O14 0.816718 0.001183 0.516073
O O15 0.492898 0.280856 0.006769
O O16 0.491647 0.325035 0.802669
O O17 0.500000 0.500000 0.000000
#
# Coordination Sequence:
#
# PCOD8042040 Si02
#       8
#     2   2   2   2   2   2   2   2
#     4  11  18  33  57  90 112 148 183 247 285 333
#     4  11  20  35  59  84 116 148 191 234 288 335
#     4  10  20  34  60  86 115 139 199 243 282 328
#     4  11  21  37  61  81 119 152 192 234 291 339
#     4  10  23  39  55  87 115 153 191 240 284 341
#     4  10  20  34  57  87 112 148 188 238 287 334
#     4   9  20  30  51  86 116 141 185 232 283 335
#     4  10  19  34  56  89 109 147 191 241 276 341
#
# _framework density 19.325786000000001
#
# number of rings (size 3 to 8) (size 9 to 14) (size 15 to 20)
#    0.000    1.750    3.750    1.125    3.500    2.500 
#    0.000    0.625    0.000    2.250    0.000    0.000 
#    0.000    0.000    0.000    0.000    0.000    0.000 
#
# Total GULP energy -198235.714169 kJ/mol
# GULP energy per Si atom -12389.732136 kJ/mol
# Density = 1.928180 g / cm^3
# Si number density = 19.325786 Si / 1000 Ang^3
#
#
#
# Elastic Constant Matrix: (Units=GPa)
#
#
# Indices 1 2 3 4 5 6 
#
# 1 87.6508 44.0349 23.9128 -1.9383 4.9600 -8.5359
# 2 44.0349 123.9473 35.2274 -3.5701 -0.6514 -17.9176
# 3 23.9128 35.2274 95.1362 -2.9125 18.7047 -5.8459
# 4 -1.9383 -3.5701 -2.9125 31.1432 1.4757 2.0242
# 5 4.9600 -0.6514 18.7047 1.4757 17.0697 -2.5231
# 6 -8.5359 -17.9176 -5.8459 2.0242 -2.5231 20.1336
#
#
#
# Elastic Compliance Matrix: (Units=1/GPa)
#
#
# Indices 1 2 3 4 5 6 
#
# 1 0.014332 -0.004547 -0.001288 0.000298 -0.002764 0.001280
# 2 -0.004547 0.012231 -0.004419 -0.000235 0.007936 0.008692
# 3 -0.001288 -0.004419 0.015865 0.001883 -0.017678 -0.002277
# 4 0.000298 -0.000235 0.001883 0.032767 -0.005512 -0.003521
# 5 -0.002764 0.007936 -0.017678 -0.005512 0.081236 0.011492
# 6 0.001280 0.008692 -0.002277 -0.003521 0.011492 0.059079
#
#
# Mechanical properties :
#
#
# Convention : Reuss Voigt Hill
#
# Bulk Modulus (GPa) = 45.62048 57.00937 51.31492
# Shear Modulus (GPa) = 20.54876 27.23991 23.89433
#
# Velocity S-wave (km/s) = 3.26434 3.75842 3.52006
# Velocity P-wave (km/s) = 6.15347 6.95683 6.56744
#
# Compressibility (1/GPa) = 0.02191998
#
# Stress axis : x y z
#
# Youngs Moduli (GPa) = 69.77368 81.76168 63.03298
#
# Poissons Ratio (x) = 0.37175 0.08117
# Poissons Ratio (y) = 0.31724 0.27856
# Poissons Ratio (z) = 0.08985 0.36133
#
# Static dielectric constant tensor:
#      x y z
#    x 3.181860 -0.282070 0.349670 
#    y -0.282070 4.383100 -0.442910 
#    z 0.349670 -0.442910 3.897310 
# 
# 
# High freq. dielectric constant tensor:
#      x y z
#    x 1.701000 -0.013120 0.027810 
#    y -0.013120 1.751510 -0.006820 
#    z 0.027810 -0.006820 1.772090 
# 
# From -- ./inp_files/190082.got.cif
#   From: 2010.06.25/outbox.cif.g09.slc.cpg/sg2_96_cif.got.tgz:190082.got - 2010.06.27 13:26:56.
