data_PCOD8042038
_publ_section_title
;
Structure prediction by ZEFSAII (Michael W. Deem and Ramdas Pophale) SiO2 
 PCOD8042038
Probable space group: P -1
;
_chemical_formula_sum "Si O2"
_cell_formula_units_Z 16
_cell_length_a 5.415600
_cell_length_b 17.432921
_cell_length_c 9.125696
_cell_angle_alpha 111.840929
_cell_angle_beta 106.261525
_cell_angle_gamma 68.707139
_cell_volume 734.585212
_symmetry_space_group_name_H-M "P -1"
_symmetry_group_IT_number 2
_symmetry_cell_setting 'triclinic'
loop_
_space_group_symop_operation_xyz
x,y,z
-x,-y,-z
loop_
_atom_site_type_symbol
_atom_site_label
_atom_site_fract_x
_atom_site_fract_y
_atom_site_fract_z
Si Si1 0.267724 0.673535 0.716754
Si Si2 0.886349 0.613879 0.813624
Si Si3 0.280313 0.573411 0.098342
Si Si4 0.105082 0.563541 0.375537
Si Si5 0.775083 0.187738 0.414639
Si Si6 0.555067 0.706954 0.318374
Si Si7 0.316919 0.135745 0.632911
Si Si8 0.718209 0.025835 0.389067
O O1 0.570884 0.661933 0.813286
O O2 0.167552 0.768561 0.694163
O O3 0.057525 0.672671 0.810943
O O4 0.274654 0.597150 0.548132
O O5 0.941214 0.528644 0.656889
O O6 0.996134 0.589106 0.979115
O O7 0.348231 0.664267 0.177939
O O8 0.279586 0.540175 0.239564
O O9 0.500000 0.500000 0.000000
O O10 0.835365 0.636399 0.343374
O O11 0.524791 0.253266 0.504386
O O12 0.730775 0.092750 0.306900
O O13 0.012677 0.176907 0.561968
O O14 0.572600 0.782432 0.259321
O O15 0.477899 0.079425 0.487882
O O16 0.334332 0.067414 0.723973
O O17 0.000000 0.000000 0.500000
#
# Coordination Sequence:
#
# PCOD8042038 Si02
#       8
#     2   2   2   2   2   2   2   2
#     4  12  25  42  62  91 124 165 207 263 315 377
#     4  12  28  41  60  90 127 162 216 263 316 364
#     4  12  25  42  61  84 119 167 217 264 312 361
#     4  12  24  42  64  83 117 168 216 266 310 362
#     4  10  19  34  56  88 120 160 197 252 316 369
#     4  11  20  35  62  84 118 158 214 252 311 360
#     4   9  16  31  53  87 121 150 197 252 310 362
#     4   8  16  28  52  85 125 149 187 249 315 363
#
# _framework density 21.781001
#
# number of rings (size 3 to 8) (size 9 to 14) (size 15 to 20)
#    0.000    1.250    3.750    2.625    3.500    0.000 
#    0.000    0.000    0.000    0.000    0.000    1.750 
#    0.000    0.000    0.000    0.000    0.000    0.000 
#
# Total GULP energy -198232.414422 kJ/mol
# GULP energy per Si atom -12389.525901 kJ/mol
# Density = 2.173143 g / cm^3
# Si number density = 21.781001 Si / 1000 Ang^3
#
#
#
# Elastic Constant Matrix: (Units=GPa)
#
#
# Indices 1 2 3 4 5 6 
#
# 1 91.7770 21.4113 4.0222 -2.6131 4.5580 5.6190
# 2 21.4113 125.5680 -16.3228 3.8800 8.0777 29.6820
# 3 4.0222 -16.3228 28.8874 -12.8690 10.2040 -3.6995
# 4 -2.6131 3.8800 -12.8690 18.0489 5.2893 -0.9671
# 5 4.5580 8.0777 10.2040 5.2893 30.3702 3.2573
# 6 5.6190 29.6820 -3.6995 -0.9671 3.2573 43.5038
#
#
#
# Elastic Compliance Matrix: (Units=1/GPa)
#
#
# Indices 1 2 3 4 5 6 
#
# 1 0.011577 -0.002281 -0.002671 0.000336 -0.000277 -0.000138
# 2 -0.002281 0.011575 0.012327 0.007895 -0.007630 -0.005808
# 3 -0.002671 0.012327 0.095995 0.080277 -0.049713 0.005605
# 4 0.000336 0.007895 0.080277 0.126685 -0.052056 0.008110
# 5 -0.000277 -0.007630 -0.049713 -0.052056 0.061274 -0.004731
# 6 -0.000138 -0.005808 0.005605 0.008110 -0.004731 0.027978
#
#
# Mechanical properties :
#
#
# Convention : Reuss Voigt Hill
#
# Bulk Modulus (GPa) = 7.46855 29.38375 18.42615
# Shear Modulus (GPa) = 13.69986 34.19269 23.94628
#
# Velocity S-wave (km/s) = 2.51067 3.96642 3.31933
# Velocity P-wave (km/s) = 3.44108 5.87337 4.81339
#
# Compressibility (1/GPa) = 0.13389489
#
# Stress axis : x y z
#
# Youngs Moduli (GPa) = 86.37809 86.39411 10.41720
#
# Poissons Ratio (x) = 0.19709 0.02783
# Poissons Ratio (y) = 0.19705 -0.12841
# Poissons Ratio (z) = 0.23075 -1.06495
#
# Static dielectric constant tensor:
#      x y z
#    x 4.100740 0.621860 0.198500 
#    y 0.621860 4.726520 0.023050 
#    z 0.198500 0.023050 3.445370 
# 
# 
# High freq. dielectric constant tensor:
#      x y z
#    x 1.881290 0.014270 0.008650 
#    y 0.014270 1.879260 0.000160 
#    z 0.008650 0.000160 1.777460 
# 
# From -- ./inp_files/52777.got.cif
#   From: 2010.06.25/outbox.cif.g09.slc.cpg/sg2_27_cif.got.tgz:52777.got - 2010.06.27 13:26:56.
