data_PCOD8042615
_publ_section_title
;
Structure prediction by ZEFSAII (Michael W. Deem and Ramdas Pophale) SiO2 
 PCOD8042615
Probable space group: P -1
;
_chemical_formula_sum "Si O2"
_cell_formula_units_Z 16
_cell_length_a 9.203452
_cell_length_b 11.245680
_cell_length_c 13.792055
_cell_angle_alpha 116.193768
_cell_angle_beta 91.139262
_cell_angle_gamma 40.839235
_cell_volume 707.537281
_symmetry_space_group_name_H-M "P -1"
_symmetry_group_IT_number 2
_symmetry_cell_setting 'triclinic'
loop_
_space_group_symop_operation_xyz
x,y,z
-x,-y,-z
loop_
_atom_site_type_symbol
_atom_site_label
_atom_site_fract_x
_atom_site_fract_y
_atom_site_fract_z
Si Si1 0.510007 0.162468 0.590889
Si Si2 0.105412 0.692981 0.061285
Si Si3 0.333115 0.998411 0.967876
Si Si4 0.624356 0.357473 0.721461
Si Si5 0.568342 0.623858 0.677890
Si Si6 0.636126 0.257506 0.985352
Si Si7 0.178190 0.008014 0.656205
Si Si8 0.105459 0.336362 0.532889
O O1 0.494965 0.312440 0.698932
O O2 0.683198 0.028068 0.445603
O O3 0.209438 0.354834 0.626524
O O4 0.644064 0.951664 0.588778
O O5 0.395332 0.406212 0.962314
O O6 0.127261 0.839354 0.097111
O O7 0.945054 0.745990 0.990528
O O8 0.950528 0.788832 0.195753
O O9 0.479285 0.801121 0.818219
O O10 0.267090 0.953364 0.042608
O O11 0.500000 0.000000 0.000000
O O12 0.554256 0.485305 0.666824
O O13 0.494503 0.538255 0.870336
O O14 0.938209 0.100151 0.647235
O O15 0.398461 0.755818 0.625174
O O16 0.872768 0.420174 0.593817
O O17 0.000000 0.500000 0.500000
#
# Coordination Sequence:
#
# PCOD8042615 Si02
#       8
#     2   2   2   2   2   2   2   2
#     4  11  23  37  60  85 114 152 190 236 282 337
#     4   9  19  36  60  82 110 149 189 234 284 329
#     4  10  21  36  58  85 116 149 187 234 282 340
#     4  10  21  37  59  87 113 146 194 237 277 333
#     4  10  21  38  59  81 114 156 187 229 288 336
#     4   9  19  38  60  82 115 149 186 237 285 328
#     4  10  19  35  59  84 113 147 190 232 281 334
#     4  11  23  40  56  82 117 152 187 232 287 338
#
# _framework density 22.613647
#
# number of rings (size 3 to 8) (size 9 to 14) (size 15 to 20)
#    0.000    2.000    2.500    0.750    0.000    3.000 
#    0.000    3.750    0.000    0.000    0.000    0.000 
#    0.000    0.000    0.000    0.000    0.000    0.000 
#
# Total GULP energy -198253.365135 kJ/mol
# GULP energy per Si atom -12390.835321 kJ/mol
# Density = 2.256218 g / cm^3
# Si number density = 22.613647 Si / 1000 Ang^3
#
#
#
# Elastic Constant Matrix: (Units=GPa)
#
#
# Indices 1 2 3 4 5 6 
#
# 1 64.9169 23.0694 10.7171 3.6884 28.8404 -4.6148
# 2 23.0694 151.1077 12.6563 -6.1541 22.3425 -13.2968
# 3 10.7171 12.6563 24.0049 -3.5873 0.4449 2.6415
# 4 3.6884 -6.1541 -3.5873 16.9665 0.1564 -6.5135
# 5 28.8404 22.3425 0.4449 0.1564 33.1309 -3.5897
# 6 -4.6148 -13.2968 2.6415 -6.5135 -3.5897 42.5309
#
#
#
# Elastic Compliance Matrix: (Units=1/GPa)
#
#
# Indices 1 2 3 4 5 6 
#
# 1 0.029615 0.000143 -0.014224 -0.008921 -0.025576 0.000616
# 2 0.000143 0.008090 -0.004069 0.003183 -0.005232 0.002843
# 3 -0.014224 -0.004069 0.051922 0.011263 0.014037 -0.003131
# 4 -0.008921 0.003183 0.011263 0.068319 0.006264 0.010319
# 5 -0.025576 -0.005232 0.014037 0.006264 0.055800 0.000386
# 6 0.000616 0.002843 -0.003131 0.010319 0.000386 0.026276
#
#
# Mechanical properties :
#
#
# Convention : Reuss Voigt Hill
#
# Bulk Modulus (GPa) = 18.75284 36.99058 27.87171
# Shear Modulus (GPa) = 17.00111 31.43142 24.21627
#
# Velocity S-wave (km/s) = 2.74489 3.73222 3.27596
# Velocity P-wave (km/s) = 4.28446 5.91319 5.16345
#
# Compressibility (1/GPa) = 0.05332525
#
# Stress axis : x y z
#
# Youngs Moduli (GPa) = 33.76633 123.60407 19.25983
#
# Poissons Ratio (x) = -0.01763 0.27395
# Poissons Ratio (y) = -0.00482 0.07838
# Poissons Ratio (z) = 0.48030 0.50300
#
# Static dielectric constant tensor:
#      x y z
#    x 4.134900 -0.175580 -0.317170 
#    y -0.175580 4.557280 -0.210350 
#    z -0.317170 -0.210350 3.704440 
# 
# 
# High freq. dielectric constant tensor:
#      x y z
#    x 1.885500 -0.014380 -0.019830 
#    y -0.014380 1.916890 -0.011930 
#    z -0.019830 -0.011930 1.849460 
# 
# From -- ./inp_files/273020.got.cif
#   From: 2010.06.25/outbox.cif.g09.slc.cpg/sg2_137_cif.got.tgz:273020.got - 2010.06.27 13:26:56.
