data_PCOD8042552
_publ_section_title
;
Structure prediction by ZEFSAII (Michael W. Deem and Ramdas Pophale) SiO2 
 PCOD8042552
Probable space group: P -1
;
_chemical_formula_sum "Si O2"
_cell_formula_units_Z 16
_cell_length_a 7.779429
_cell_length_b 11.949233
_cell_length_c 19.096562
_cell_angle_alpha 126.371515
_cell_angle_beta 145.703283
_cell_angle_gamma 55.552940
_cell_volume 794.112211
_symmetry_space_group_name_H-M "P -1"
_symmetry_group_IT_number 2
_symmetry_cell_setting 'triclinic'
loop_
_space_group_symop_operation_xyz
x,y,z
-x,-y,-z
loop_
_atom_site_type_symbol
_atom_site_label
_atom_site_fract_x
_atom_site_fract_y
_atom_site_fract_z
Si Si1 0.211579 0.843147 0.372380
Si Si2 0.873189 0.348030 0.049696
Si Si3 0.882003 0.829775 0.541412
Si Si4 0.703986 0.678693 0.086812
Si Si5 0.716156 0.421640 0.357660
Si Si6 0.743661 0.576784 0.679426
Si Si7 0.178249 0.713689 0.459295
Si Si8 0.268093 0.380472 0.075508
O O1 0.555513 0.788090 0.439215
O O2 0.180974 0.820809 0.436367
O O3 0.985998 0.759041 0.223874
O O4 0.110805 0.007236 0.382948
O O5 0.796834 0.513167 0.068656
O O6 0.029630 0.331294 0.173104
O O7 0.106519 0.284963 0.041951
O O8 0.573928 0.271721 0.931752
O O9 0.157434 0.744658 0.649525
O O10 0.938482 0.787441 0.463470
O O11 0.597287 0.708426 0.980591
O O12 0.459978 0.482286 0.350799
O O13 0.553590 0.439772 0.232759
O O14 0.000000 0.500000 0.500000
O O15 0.532329 0.678088 0.592037
O O16 0.927913 0.435234 0.652416
O O17 0.000000 0.500000 0.000000
#
# Coordination Sequence:
#
# PCOD8042552 Si02
#       8
#     2   2   2   2   2   2   2   2
#     4  11  22  40  54  81 120 159 200 240 282 347
#     4   9  18  35  50  82 111 143 184 240 282 347
#     4  10  24  37  58  83 116 156 199 242 289 347
#     4  10  20  33  55  76 110 156 190 232 285 341
#     4  10  20  36  61  91 118 149 190 249 298 339
#     4   9  18  33  55  88 115 140 186 248 300 345
#     4  10  19  35  58  82 113 151 186 240 299 346
#     4   9  20  35  56  85 118 149 185 233 298 358
#
# _framework density 20.148285000000001
#
# number of rings (size 3 to 8) (size 9 to 14) (size 15 to 20)
#    0.000    2.250    1.250    1.125    3.500    5.000 
#    2.250    0.625    0.000    6.750    0.000    0.000 
#    0.000    0.000    0.000    0.000    0.000    0.000 
#
# Total GULP energy -198236.524972 kJ/mol
# GULP energy per Si atom -12389.782811 kJ/mol
# Density = 2.010243 g / cm^3
# Si number density = 20.148285 Si / 1000 Ang^3
#
#
#
# Elastic Constant Matrix: (Units=GPa)
#
#
# Indices 1 2 3 4 5 6 
#
# 1 117.9086 19.9762 57.6693 3.1605 -1.3947 -5.0152
# 2 19.9762 38.1729 22.8661 -4.8446 -3.1349 0.7274
# 3 57.6693 22.8661 119.3123 -8.4309 -6.5655 16.2807
# 4 3.1605 -4.8446 -8.4309 21.1793 7.5206 -2.9145
# 5 -1.3947 -3.1349 -6.5655 7.5206 35.6501 -4.2055
# 6 -5.0152 0.7274 16.2807 -2.9145 -4.2055 24.9496
#
#
#
# Elastic Compliance Matrix: (Units=1/GPa)
#
#
# Indices 1 2 3 4 5 6 
#
# 1 0.012744 -0.003303 -0.006720 -0.004684 0.000740 0.006621
# 2 -0.003303 0.031222 -0.004194 0.005947 0.000825 0.001996
# 3 -0.006720 -0.004194 0.014088 0.004328 -0.000122 -0.009937
# 4 -0.004684 0.005947 0.004328 0.054765 -0.010332 0.000717
# 5 0.000740 0.000825 -0.000122 -0.010332 0.030803 0.004190
# 6 0.006621 0.001996 -0.009937 0.000717 0.004190 0.048628
#
#
# Mechanical properties :
#
#
# Convention : Reuss Voigt Hill
#
# Bulk Modulus (GPa) = 33.76186 52.93524 43.34855
# Shear Modulus (GPa) = 21.68659 28.01461 24.85060
#
# Velocity S-wave (km/s) = 3.28434 3.73288 3.51577
# Velocity P-wave (km/s) = 5.58351 6.70142 6.16784
#
# Compressibility (1/GPa) = 0.02961922
#
# Stress axis : x y z
#
# Youngs Moduli (GPa) = 78.47108 32.02894 70.98086
#
# Poissons Ratio (x) = 0.10580 0.47701
# Poissons Ratio (y) = 0.25920 0.29768
# Poissons Ratio (z) = 0.52734 0.13432
#
# Static dielectric constant tensor:
#      x y z
#    x 4.447970 -0.021940 -0.055510 
#    y -0.021940 3.374770 -0.294920 
#    z -0.055510 -0.294920 3.791930 
# 
# 
# High freq. dielectric constant tensor:
#      x y z
#    x 1.806060 0.000000 -0.003760 
#    y 0.000000 1.738110 -0.022490 
#    z -0.003760 -0.022490 1.783850 
# 
# From -- ./inp_files/589581.got.cif
#   From: 2010.06.25/outbox.cif.g09.slc.cpg/sg2_295_cif.got.tgz:589581.got - 2010.06.27 13:26:56.
