data_PCOD8042660
_publ_section_title
;
Structure prediction by ZEFSAII (Michael W. Deem and Ramdas Pophale) SiO2 
 PCOD8042660
Probable space group: P -1
;
_chemical_formula_sum "Si O2"
_cell_formula_units_Z 16
_cell_length_a 15.702284
_cell_length_b 17.931671
_cell_length_c 12.007321
_cell_angle_alpha 16.542155
_cell_angle_beta 49.713230
_cell_angle_gamma 47.331729
_cell_volume 707.717980
_symmetry_space_group_name_H-M "P -1"
_symmetry_group_IT_number 2
_symmetry_cell_setting 'triclinic'
loop_
_space_group_symop_operation_xyz
x,y,z
-x,-y,-z
loop_
_atom_site_type_symbol
_atom_site_label
_atom_site_fract_x
_atom_site_fract_y
_atom_site_fract_z
Si Si1 0.253674 0.293548 0.561181
Si Si2 0.372830 0.736293 0.806394
Si Si3 0.317295 0.479940 0.617509
Si Si4 0.493954 0.082672 0.745686
Si Si5 0.132882 0.204298 0.575452
Si Si6 0.711712 0.675996 0.908586
Si Si7 0.478843 0.576197 0.181051
Si Si8 0.124827 0.606960 0.420228
O O1 0.361599 0.076938 0.840923
O O2 0.200478 0.148266 0.716735
O O3 0.155471 0.414903 0.561993
O O4 0.294834 0.539305 0.118604
O O5 0.480854 0.703037 0.676577
O O6 0.292312 0.043799 0.426704
O O7 0.403739 0.707789 0.951629
O O8 0.395501 0.667061 0.230371
O O9 0.210782 0.475064 0.635990
O O10 0.269716 0.553996 0.678571
O O11 0.410050 0.190044 0.963098
O O12 0.505858 0.240368 0.627280
O O13 0.188827 0.375402 0.195665
O O14 0.003661 0.389365 0.438577
O O15 0.133390 0.909502 0.949441
O O16 0.590803 0.685054 0.937513
#
# Coordination Sequence:
#
# PCOD8042660 Si02
#       8
#     2   2   2   2   2   2   2   2
#     4  11  20  40  68  91 122 156 210 256 310 357
#     4  10  19  35  59  90 124 160 198 258 306 361
#     4  11  23  39  58  91 133 164 194 253 314 376
#     4  10  21  35  61  92 129 160 195 256 313 376
#     4  11  24  43  68  90 117 168 214 259 298 352
#     4  11  22  36  59  90 127 162 205 250 307 367
#     4  11  19  34  57  88 126 159 203 247 305 368
#     4  11  24  44  65  91 124 160 215 257 299 364
#
# _framework density 22.607876000000001
#
# number of rings (size 3 to 8) (size 9 to 14) (size 15 to 20)
#    0.000    1.250    3.750    4.500    0.000    4.500 
#    0.000    0.000    0.000    3.750    0.000    0.000 
#    0.000    0.000    0.000    0.000    0.000    0.000 
#
# Total GULP energy -198327.298380 kJ/mol
# GULP energy per Si atom -12395.456149 kJ/mol
# Density = 2.255642 g / cm^3
# Si number density = 22.607876 Si / 1000 Ang^3
#
#
#
# Elastic Constant Matrix: (Units=GPa)
#
#
# Indices 1 2 3 4 5 6 
#
# 1 82.6440 48.1930 14.9517 17.8996 -1.9890 -15.5904
# 2 48.1930 138.7690 26.7792 38.3214 5.7190 -9.5787
# 3 14.9517 26.7792 32.1544 18.2117 -5.0387 -5.9833
# 4 17.8996 38.3214 18.2117 45.9430 2.2675 0.7265
# 5 -1.9890 5.7190 -5.0387 2.2675 29.7133 2.7215
# 6 -15.5904 -9.5787 -5.9833 0.7265 2.7215 40.5321
#
#
#
# Elastic Compliance Matrix: (Units=1/GPa)
#
#
# Indices 1 2 3 4 5 6 
#
# 1 0.016466 -0.004544 -0.001481 -0.002188 0.001436 0.004984
# 2 -0.004544 0.011415 -0.004403 -0.005874 -0.002854 0.000597
# 3 -0.001481 -0.004403 0.046026 -0.014526 0.009220 0.004825
# 4 -0.002188 -0.005874 -0.014526 0.033529 -0.003604 -0.004733
# 5 0.001436 -0.002854 0.009220 -0.003604 0.036243 -0.001130
# 6 0.004984 0.000597 0.004825 -0.004733 -0.001130 0.027603
#
#
# Mechanical properties :
#
#
# Convention : Reuss Voigt Hill
#
# Bulk Modulus (GPa) = 18.84955 48.15725 33.50340
# Shear Modulus (GPa) = 23.82989 34.14725 28.98857
#
# Velocity S-wave (km/s) = 3.25014 3.89062 3.58471
# Velocity P-wave (km/s) = 4.73711 6.44437 5.65554
#
# Compressibility (1/GPa) = 0.05305166
#
# Stress axis : x y z
#
# Youngs Moduli (GPa) = 60.73008 87.60486 21.72704
#
# Poissons Ratio (x) = 0.39805 0.03217
# Poissons Ratio (y) = 0.27594 0.09566
# Poissons Ratio (z) = 0.08993 0.38573
#
# Static dielectric constant tensor:
#      x y z
#    x 3.885550 0.186590 0.115330 
#    y 0.186590 4.415750 0.402460 
#    z 0.115330 0.402460 4.661120 
# 
# 
# High freq. dielectric constant tensor:
#      x y z
#    x 1.870110 0.013050 0.006300 
#    y 0.013050 1.905400 0.015140 
#    z 0.006300 0.015140 1.890020 
# 
# From -- ./inp_files/209008.got.cif
#   From: 2010.06.25/outbox.cif.g09.slc.cpg/sg2_105_cif.got.tgz:209008.got - 2010.06.27 13:26:56.
