data_PCOD8042463
_publ_section_title
;
Structure prediction by ZEFSAII (Michael W. Deem and Ramdas Pophale) SiO2 
 PCOD8042463
Probable space group: P -1
;
_chemical_formula_sum "Si O2"
_cell_formula_units_Z 16
_cell_length_a 10.351960
_cell_length_b 9.015651
_cell_length_c 23.721690
_cell_angle_alpha 53.080981
_cell_angle_beta 117.588287
_cell_angle_gamma 150.494229
_cell_volume 861.683622
_symmetry_space_group_name_H-M "P -1"
_symmetry_group_IT_number 2
_symmetry_cell_setting 'triclinic'
loop_
_space_group_symop_operation_xyz
x,y,z
-x,-y,-z
loop_
_atom_site_type_symbol
_atom_site_label
_atom_site_fract_x
_atom_site_fract_y
_atom_site_fract_z
Si Si1 0.768453 0.399262 0.466885
Si Si2 0.296570 0.794053 0.331539
Si Si3 0.553782 0.827908 0.826442
Si Si4 0.200356 0.498988 0.674145
Si Si5 0.262313 0.389109 0.477586
Si Si6 0.520061 0.737020 0.964230
Si Si7 0.988431 0.286851 0.019898
Si Si8 0.949433 0.881057 0.167348
O O1 0.816014 0.564025 0.380998
O O2 0.760634 0.538679 0.483145
O O3 0.000000 0.500000 0.500000
O O4 0.500000 0.000000 0.500000
O O5 0.312372 0.592651 0.392194
O O6 0.998908 0.545362 0.340953
O O7 0.370264 0.910157 0.254655
O O8 0.500567 0.120851 0.338264
O O9 0.567649 0.898282 0.878670
O O10 0.256092 0.445477 0.839786
O O11 0.754907 0.874626 0.842149
O O12 0.122432 0.233889 0.755332
O O13 0.500000 0.500000 0.500000
O O14 0.000000 0.000000 0.500000
O O15 0.500000 0.500000 0.000000
O O16 0.257147 0.529509 0.987085
O O17 0.759052 0.032593 0.986137
O O18 0.937285 0.086942 0.105833
O O19 0.000000 0.500000 0.000000
#
# Coordination Sequence:
#
# PCOD8042463 Si02
#       8
#     2   2   2   2   2   2   2   2
#     4  12  21  38  62  86 111 148 206 237 272 342
#     4  10  20  37  57  86 117 147 191 238 296 334
#     4  10  20  34  61  87 109 147 200 249 272 332
#     4  10  19  35  60  85 109 148 199 247 273 333
#     4  12  24  38  58  87 123 152 181 238 302 347
#     4  12  21  38  63  87 115 152 210 238 276 343
#     4  12  24  38  57  89 126 156 186 241 304 348
#     4  10  19  35  56  86 116 147 191 240 296 332
#
# _framework density 18.568300000000001
#
# number of rings (size 3 to 8) (size 9 to 14) (size 15 to 20)
#    0.000    1.000    5.000    3.000    0.000    0.000 
#    0.000    2.500    0.000    0.000    0.000    0.000 
#    0.000    0.000    0.000    0.000    0.000    0.000 
#
# Total GULP energy -198437.751111 kJ/mol
# GULP energy per Si atom -12402.359444 kJ/mol
# Density = 1.852604 g / cm^3
# Si number density = 18.568300 Si / 1000 Ang^3
#
#
#
# Elastic Constant Matrix: (Units=GPa)
#
#
# Indices 1 2 3 4 5 6 
#
# 1 125.0624 58.5251 70.8567 2.6746 -0.2648 -4.7129
# 2 58.5251 128.0024 49.4587 7.7742 -5.0305 3.9765
# 3 70.8567 49.4587 195.5627 12.2053 -0.5315 -11.9765
# 4 2.6746 7.7742 12.2053 30.2442 -0.7378 -0.0845
# 5 -0.2648 -5.0305 -0.5315 -0.7378 29.5369 1.5010
# 6 -4.7129 3.9765 -11.9765 -0.0845 1.5010 33.5885
#
#
#
# Elastic Compliance Matrix: (Units=1/GPa)
#
#
# Indices 1 2 3 4 5 6 
#
# 1 0.011852 -0.004316 -0.003224 0.001348 -0.000707 0.001059
# 2 -0.004316 0.010467 -0.001107 -0.001825 0.001797 -0.002324
# 3 -0.003224 -0.001107 0.006827 -0.002186 -0.000257 0.002119
# 4 0.001348 -0.001825 -0.002186 0.034308 0.000535 -0.000312
# 5 -0.000707 0.001797 -0.000257 0.000535 0.034263 -0.001933
# 6 0.001059 -0.002324 0.002119 -0.000312 -0.001933 0.031037
#
#
# Mechanical properties :
#
#
# Convention : Reuss Voigt Hill
#
# Bulk Modulus (GPa) = 84.37072 89.58984 86.98028
# Shear Modulus (GPa) = 33.33378 36.65970 34.99674
#
# Velocity S-wave (km/s) = 4.24157 4.44815 4.34609
# Velocity P-wave (km/s) = 8.33814 8.64494 8.49292
#
# Compressibility (1/GPa) = 0.01185245
#
# Stress axis : x y z
#
# Youngs Moduli (GPa) = 84.37541 95.53846 146.47752
#
# Poissons Ratio (x) = 0.41232 0.47222
# Poissons Ratio (y) = 0.36414 0.16215
# Poissons Ratio (z) = 0.27201 0.10576
#
# Static dielectric constant tensor:
#      x y z
#    x 3.555450 0.077980 -0.291650 
#    y 0.077980 3.619620 0.172510 
#    z -0.291650 0.172510 4.067630 
# 
# 
# High freq. dielectric constant tensor:
#      x y z
#    x 1.687950 0.026170 -0.009000 
#    y 0.026170 1.739230 0.007570 
#    z -0.009000 0.007570 1.743950 
# 
# From -- ./inp_files/226403.got.cif
#   From: 2010.06.25/outbox.cif.g09.slc.cpg/sg2_114_cif.got.tgz:226403.got - 2010.06.27 13:26:56.
