data_PCOD8042024
_publ_section_title
;
Structure prediction by ZEFSAII (Michael W. Deem and Ramdas Pophale) SiO2 
 PCOD8042024
Probable space group: P -1
;
_chemical_formula_sum "Si O2"
_cell_formula_units_Z 14
_cell_length_a 14.745094
_cell_length_b 10.735736
_cell_length_c 8.249830
_cell_angle_alpha 55.527127
_cell_angle_beta 50.312748
_cell_angle_gamma 50.239587
_cell_volume 744.637820
_symmetry_space_group_name_H-M "P -1"
_symmetry_group_IT_number 2
_symmetry_cell_setting 'triclinic'
loop_
_space_group_symop_operation_xyz
x,y,z
-x,-y,-z
loop_
_atom_site_type_symbol
_atom_site_label
_atom_site_fract_x
_atom_site_fract_y
_atom_site_fract_z
Si Si1 0.840300 0.713047 0.966062
Si Si2 0.875246 0.555712 0.715075
Si Si3 0.595603 0.657765 0.830838
Si Si4 0.505526 0.426286 0.302829
Si Si5 0.677576 0.266395 0.508851
Si Si6 0.901828 0.352890 0.128529
Si Si7 0.595787 0.037170 0.976506
O O1 0.843440 0.535634 0.153165
O O2 0.865897 0.698677 0.751584
O O3 0.948788 0.751832 0.906491
O O4 0.700135 0.862586 0.061934
O O5 0.743758 0.633037 0.700099
O O6 0.000000 0.500000 0.500000
O O7 0.891415 0.389676 0.919603
O O8 0.566009 0.647211 0.683989
O O9 0.583785 0.511815 0.055288
O O10 0.489132 0.839478 0.876676
O O11 0.609534 0.276099 0.404830
O O12 0.396414 0.557301 0.446247
O O13 0.826138 0.241231 0.337822
O O14 0.677302 0.114302 0.724207
O O15 0.500000 0.000000 0.000000
#
# Coordination Sequence:
#
# PCOD8042024 Si02
#       7
#     2   2   2   2   2   2   2
#     4   9  20  36  59  82 114 147 194 228 278 343
#     4  10  19  34  56  85 110 146 187 235 273 323
#     4  10  19  35  58  86 117 142 185 242 280 330
#     4   9  19  33  57  89 107 145 194 229 280 331
#     4  10  20  35  61  81 115 152 187 236 274 343
#     4   9  19  38  58  83 104 155 196 226 267 341
#     4  11  21  38  57  85 120 149 181 236 297 332
#
# _framework density 18.801086999999999
#
# number of rings (size 3 to 8) (size 9 to 14) (size 15 to 20)
#    0.857    1.429    2.857    0.000    6.000    0.571 
#    0.000    2.143    0.000    1.714    0.000    0.000 
#    0.000    0.000    0.000    0.000    0.000    0.000 
#
# Total GULP energy -173526.194255 kJ/mol
# GULP energy per Si atom -12394.728161 kJ/mol
# Density = 1.875830 g / cm^3
# Si number density = 18.801087 Si / 1000 Ang^3
#
#
#
# Elastic Constant Matrix: (Units=GPa)
#
#
# Indices 1 2 3 4 5 6 
#
# 1 138.2427 34.4597 32.1937 16.7661 -9.5079 -11.0426
# 2 34.4597 71.7287 15.1952 14.9297 -8.4440 -12.7591
# 3 32.1937 15.1952 75.6856 11.2726 -18.9381 0.1819
# 4 16.7661 14.9297 11.2726 19.7710 2.7721 -5.4302
# 5 -9.5079 -8.4440 -18.9381 2.7721 31.7968 8.6895
# 6 -11.0426 -12.7591 0.1819 -5.4302 8.6895 27.6438
#
#
#
# Elastic Compliance Matrix: (Units=1/GPa)
#
#
# Indices 1 2 3 4 5 6 
#
# 1 0.009147 -0.002720 -0.002716 -0.003758 0.000289 0.001587
# 2 -0.002720 0.018811 0.000107 -0.011427 0.004135 0.004051
# 3 -0.002716 0.000107 0.020057 -0.013587 0.014654 -0.008443
# 4 -0.003758 -0.011427 -0.013587 0.077802 -0.023392 0.015950
# 5 0.000289 0.004135 0.014654 -0.023392 0.048278 -0.017843
# 6 0.001587 0.004051 -0.008443 0.015950 -0.017843 0.047476
#
#
# Mechanical properties :
#
#
# Convention : Reuss Voigt Hill
#
# Bulk Modulus (GPa) = 26.76912 49.92823 38.34867
# Shear Modulus (GPa) = 20.43475 29.42955 24.93215
#
# Velocity S-wave (km/s) = 3.30038 3.96069 3.64552
# Velocity P-wave (km/s) = 5.36585 6.89419 6.17746
#
# Compressibility (1/GPa) = 0.03735648
#
# Stress axis : x y z
#
# Youngs Moduli (GPa) = 109.32853 53.15969 49.85770
#
# Poissons Ratio (x) = 0.14461 0.13543
# Poissons Ratio (y) = 0.29740 -0.00535
# Poissons Ratio (z) = 0.29697 -0.00570
#
# Static dielectric constant tensor:
#      x y z
#    x 3.595460 -0.024600 0.062450 
#    y -0.024600 3.237810 0.055530 
#    z 0.062450 0.055530 3.313920 
# 
# 
# High freq. dielectric constant tensor:
#      x y z
#    x 1.741870 -0.008490 -0.007870 
#    y -0.008490 1.697000 0.003430 
#    z -0.007870 0.003430 1.714660 
# 
# From -- ./inp_files/302482.got.cif
#   From: 2010.06.25/outbox.cif.g09.slc.cpg/sg2_152_cif.got.tgz:302482.got - 2010.06.27 13:26:56.
