data_PCOD8042320
_publ_section_title
;
Structure prediction by ZEFSAII (Michael W. Deem and Ramdas Pophale) SiO2 
 PCOD8042320
Probable space group: P -1
;
_chemical_formula_sum "Si O2"
_cell_formula_units_Z 14
_cell_length_a 14.738065
_cell_length_b 11.924121
_cell_length_c 10.058840
_cell_angle_alpha 83.970041
_cell_angle_beta 75.057467
_cell_angle_gamma 149.535393
_cell_volume 644.283775
_symmetry_space_group_name_H-M "P -1"
_symmetry_group_IT_number 2
_symmetry_cell_setting 'triclinic'
loop_
_space_group_symop_operation_xyz
x,y,z
-x,-y,-z
loop_
_atom_site_type_symbol
_atom_site_label
_atom_site_fract_x
_atom_site_fract_y
_atom_site_fract_z
Si Si1 0.366146 0.450049 0.374137
Si Si2 0.262260 0.747952 0.319888
Si Si3 0.465324 0.174010 0.320482
Si Si4 0.738443 0.700851 0.067385
Si Si5 0.985530 0.319332 0.275353
Si Si6 0.055159 0.150251 0.282236
Si Si7 0.508214 0.836632 0.402101
O O1 0.578615 0.628228 0.184715
O O2 0.166177 0.280407 0.370921
O O3 0.477912 0.673855 0.390519
O O4 0.228835 0.209804 0.555358
O O5 0.367918 0.765188 0.368702
O O6 0.000000 0.500000 0.500000
O O7 0.220637 0.656311 0.195375
O O8 0.455461 0.066834 0.220903
O O9 0.608489 0.439316 0.180752
O O10 0.595874 0.267409 0.393709
O O11 0.184779 0.897368 0.502295
O O12 0.786243 0.757644 0.883269
O O13 0.000000 0.000000 0.000000
O O14 0.067990 0.288933 0.193255
O O15 0.810882 0.191364 0.249925
#
# Coordination Sequence:
#
# PCOD8042320 Si02
#       7
#     2   2   2   2   2   2   2
#     4  11  22  40  62  94 125 165 211 256 317 370
#     4  10  19  35  61  95 122 160 211 256 307 372
#     4   9  21  36  59  90 125 158 211 252 305 369
#     4  12  24  39  61  93 128 166 209 256 311 377
#     4   9  19  36  61  90 122 165 202 255 314 361
#     4  11  22  38  65  89 128 166 209 259 314 370
#     4  10  19  34  63  88 127 157 205 259 303 374
#
# _framework density 21.729557
#
# number of rings (size 3 to 8) (size 9 to 14) (size 15 to 20)
#    0.857    0.857    2.857    2.571    0.000    1.714 
#    0.000    2.143    0.000    1.714    0.000    0.000 
#    0.000    0.000    0.000    0.000    0.000    0.000 
#
# Total GULP energy -173444.421177 kJ/mol
# GULP energy per Si atom -12388.887227 kJ/mol
# Density = 2.168010 g / cm^3
# Si number density = 21.729557 Si / 1000 Ang^3
#
#
#
# Elastic Constant Matrix: (Units=GPa)
#
#
# Indices 1 2 3 4 5 6 
#
# 1 94.9308 46.4455 0.9124 -10.2948 -21.0325 -2.1189
# 2 46.4455 160.0505 14.7308 -7.0890 -6.0997 -15.6967
# 3 0.9124 14.7308 46.9894 2.8013 -15.3334 -8.1235
# 4 -10.2948 -7.0890 2.8013 23.6917 -3.1336 -0.8890
# 5 -21.0325 -6.0997 -15.3334 -3.1336 25.1087 0.9241
# 6 -2.1189 -15.6967 -8.1235 -0.8890 0.9241 40.3135
#
#
#
# Elastic Compliance Matrix: (Units=1/GPa)
#
#
# Indices 1 2 3 4 5 6 
#
# 1 0.017874 -0.004716 0.006905 0.008067 0.019041 0.000236
# 2 -0.004716 0.008008 -0.003385 0.000288 -0.004121 0.002289
# 3 0.006905 -0.003385 0.030666 0.001676 0.023724 0.004717
# 4 0.008067 0.000288 0.001676 0.047477 0.013717 0.001607
# 5 0.019041 -0.004121 0.023724 0.013717 0.070870 0.002855
# 6 0.000236 0.002289 0.004717 0.001607 0.002855 0.026630
#
#
# Mechanical properties :
#
#
# Convention : Reuss Voigt Hill
#
# Bulk Modulus (GPa) = 18.46565 47.34982 32.90773
# Shear Modulus (GPa) = 22.52563 33.81490 28.17027
#
# Velocity S-wave (km/s) = 3.22318 3.94911 3.60447
# Velocity P-wave (km/s) = 4.72950 6.52930 5.70088
#
# Compressibility (1/GPa) = 0.05415461
#
# Stress axis : x y z
#
# Youngs Moduli (GPa) = 55.94783 124.86854 32.60979
#
# Poissons Ratio (x) = 0.58891 -0.22516
# Poissons Ratio (y) = 0.26386 0.11039
# Poissons Ratio (z) = -0.38630 0.42269
#
# Static dielectric constant tensor:
#      x y z
#    x 3.626170 -0.148900 -0.251320 
#    y -0.148900 4.465230 0.045260 
#    z -0.251320 0.045260 3.609340 
# 
# 
# High freq. dielectric constant tensor:
#      x y z
#    x 1.837730 -0.009680 -0.020350 
#    y -0.009680 1.884020 0.001930 
#    z -0.020350 0.001930 1.815270 
# 
# From -- ./inp_files/450203.got.cif
#   From: 2010.06.25/outbox.cif.g09.slc.cpg/sg2_226_cif.got.tgz:450203.got - 2010.06.27 13:26:56.
