data_PCOD8042269
_publ_section_title
;
Structure prediction by ZEFSAII (Michael W. Deem and Ramdas Pophale) SiO2 
 PCOD8042269
Probable space group: P -1
;
_chemical_formula_sum "Si O2"
_cell_formula_units_Z 16
_cell_length_a 26.997587
_cell_length_b 26.515322
_cell_length_c 8.551037
_cell_angle_alpha 138.570213
_cell_angle_beta 137.389738
_cell_angle_gamma 10.895780
_cell_volume 765.626213
_symmetry_space_group_name_H-M "P -1"
_symmetry_group_IT_number 2
_symmetry_cell_setting 'triclinic'
loop_
_space_group_symop_operation_xyz
x,y,z
-x,-y,-z
loop_
_atom_site_type_symbol
_atom_site_label
_atom_site_fract_x
_atom_site_fract_y
_atom_site_fract_z
Si Si1 0.750140 0.035014 0.565767
Si Si2 0.248470 0.793713 0.662501
Si Si3 0.899848 0.574321 0.108482
Si Si4 0.246690 0.446664 0.353145
Si Si5 0.251230 0.791336 0.034879
Si Si6 0.247633 0.447726 0.729625
Si Si7 0.745378 0.040777 0.939152
Si Si8 0.401081 0.127739 0.402015
O O1 0.511841 0.221026 0.384240
O O2 0.751136 0.037179 0.758599
O O3 0.736118 0.134813 0.699371
O O4 0.015822 0.731439 0.416724
O O5 0.500000 0.500000 0.500000
O O6 0.250070 0.791293 0.846345
O O7 0.000000 0.000000 0.500000
O O8 0.234742 0.893522 0.796821
O O9 0.152234 0.326264 0.231196
O O10 0.652349 0.874942 0.281042
O O11 0.786586 0.602508 0.915088
O O12 0.000000 0.500000 0.000000
O O13 0.243963 0.439819 0.516951
O O14 0.500000 0.500000 0.000000
O O15 0.000000 0.000000 0.000000
O O16 0.293392 0.320740 0.619945
O O17 0.978696 0.753956 0.877917
O O18 0.473419 0.278416 0.918430
O O19 0.500000 0.000000 0.500000
#
# Coordination Sequence:
#
# PCOD8042269 Si02
#       8
#     2   2   2   2   2   2   2   2
#     4   9  19  34  57  91 118 157 200 252 303 358
#     4  11  22  39  65  94 125 159 207 261 306 355
#     4  12  24  40  67  97 119 159 217 261 306 360
#     4  10  19  34  61  90 119 148 208 269 295 337
#     4  11  22  39  65  92 125 166 207 245 306 383
#     4  10  19  35  61  87 117 157 207 254 297 357
#     4   9  19  34  59  90 114 155 209 251 293 360
#     4  12  26  42  63  91 131 168 203 250 321 382
#
# _framework density 20.897925000000001
#
# number of rings (size 3 to 8) (size 9 to 14) (size 15 to 20)
#    0.000    1.500    1.250    4.500    3.500    4.000 
#    0.000    0.000   27.500    0.000    0.000    0.000 
#    0.000    0.000    0.000    0.000    0.000    0.000 
#
# Total GULP energy -198424.795740 kJ/mol
# GULP energy per Si atom -12401.549734 kJ/mol
# Density = 2.085036 g / cm^3
# Si number density = 20.897925 Si / 1000 Ang^3
#
#
#
# Elastic Constant Matrix: (Units=GPa)
#
#
# Indices 1 2 3 4 5 6 
#
# 1 94.2663 50.8886 52.4409 -2.7282 30.4666 12.8977
# 2 50.8886 189.2744 67.1264 -8.1424 25.5251 9.7852
# 3 52.4409 67.1264 118.9979 -11.1637 36.7091 6.9192
# 4 -2.7282 -8.1424 -11.1637 46.3015 -3.2212 10.1022
# 5 30.4666 25.5251 36.7091 -3.2212 39.4343 4.5977
# 6 12.8977 9.7852 6.9192 10.1022 4.5977 36.7408
#
#
#
# Elastic Compliance Matrix: (Units=1/GPa)
#
#
# Indices 1 2 3 4 5 6 
#
# 1 0.016726 -0.001960 -0.003628 0.000026 -0.007843 -0.003692
# 2 -0.001960 0.006920 -0.002905 0.000555 -0.000129 -0.000744
# 3 -0.003628 -0.002905 0.014525 0.002225 -0.008630 -0.000220
# 4 0.000026 0.000555 0.002225 0.023820 0.000331 -0.007167
# 5 -0.007843 -0.000129 -0.008630 0.000331 0.039637 -0.000638
# 6 -0.003692 -0.000744 -0.000220 -0.007167 -0.000638 0.030804
#
#
# Mechanical properties :
#
#
# Convention : Reuss Voigt Hill
#
# Bulk Modulus (GPa) = 47.20623 82.60562 64.90593
# Shear Modulus (GPa) = 31.95304 39.96751 35.96028
#
# Velocity S-wave (km/s) = 3.91449 4.37797 4.15270
# Velocity P-wave (km/s) = 6.56270 8.07276 7.35658
#
# Compressibility (1/GPa) = 0.02118364
#
# Stress axis : x y z
#
# Youngs Moduli (GPa) = 59.78790 144.50264 68.84712
#
# Poissons Ratio (x) = 0.28329 0.24981
# Poissons Ratio (y) = 0.11721 0.19999
# Poissons Ratio (z) = 0.21694 0.41975
#
# Static dielectric constant tensor:
#      x y z
#    x 3.622910 0.039610 0.364700 
#    y 0.039610 4.174220 0.068330 
#    z 0.364700 0.068330 4.069880 
# 
# 
# High freq. dielectric constant tensor:
#      x y z
#    x 1.798720 0.001350 0.028530 
#    y 0.001350 1.843780 -0.002600 
#    z 0.028530 -0.002600 1.816140 
# 
# From -- ./inp_files/217776.got.cif
#   From: 2010.06.25/outbox.cif.g09.slc.cpg/sg2_109_cif.got.tgz:217776.got - 2010.06.27 13:26:56.
