data_PCOD8042981
_publ_section_title
;
Structure prediction by ZEFSAII (Michael W. Deem and Ramdas Pophale) SiO2 
 PCOD8042981
Probable space group: P -1
;
_chemical_formula_sum "Si O2"
_cell_formula_units_Z 16
_cell_length_a 10.482213
_cell_length_b 11.956533
_cell_length_c 15.668685
_cell_angle_alpha 126.920663
_cell_angle_beta 121.170026
_cell_angle_gamma 101.425290
_cell_volume 897.430301
_symmetry_space_group_name_H-M "P -1"
_symmetry_group_IT_number 2
_symmetry_cell_setting 'triclinic'
loop_
_space_group_symop_operation_xyz
x,y,z
-x,-y,-z
loop_
_atom_site_type_symbol
_atom_site_label
_atom_site_fract_x
_atom_site_fract_y
_atom_site_fract_z
Si Si1 0.626310 0.436175 0.351351
Si Si2 0.263788 0.212656 0.695763
Si Si3 0.645149 0.739855 0.436847
Si Si4 0.223023 0.329018 0.168618
Si Si5 0.331581 0.765650 0.860736
Si Si6 0.949436 0.931970 0.162456
Si Si7 0.046401 0.285795 0.268472
Si Si8 0.521148 0.672115 0.004343
O O1 0.723548 0.631511 0.416651
O O2 0.360356 0.276736 0.198868
O O3 0.695825 0.345958 0.284815
O O4 0.724703 0.505890 0.512573
O O5 0.367376 0.221854 0.648462
O O6 0.324546 0.419123 0.825066
O O7 0.377489 0.213514 0.815812
O O8 0.000000 0.000000 0.500000
O O9 0.399641 0.578142 0.322175
O O10 0.833351 0.954998 0.653740
O O11 0.090244 0.268401 0.179799
O O12 0.046615 0.180525 0.963391
O O13 0.418626 0.739939 0.959887
O O14 0.104355 0.681815 0.770200
O O15 0.500000 0.000000 0.000000
O O16 0.721923 0.750221 0.052753
O O17 0.944507 0.086610 0.195662
#
# Coordination Sequence:
#
# PCOD8042981 Si02
#       8
#     2   2   2   2   2   2   2   2
#     4   9  19  35  53  75 113 149 188 227 269 320
#     4  11  20  34  60  83 110 138 195 244 283 310
#     4   9  19  33  56  82 109 138 183 245 277 314
#     4  10  19  36  53  80 117 144 193 233 264 334
#     4  12  21  36  53  82 123 154 178 222 285 345
#     4  11  18  33  56  81 115 143 186 228 282 328
#     4  11  22  32  55  81 114 162 180 218 283 343
#     4  11  21  35  54  87 113 144 184 238 280 329
#
# _framework density 17.828682000000001
#
# number of rings (size 3 to 8) (size 9 to 14) (size 15 to 20)
#    0.750    0.750    6.250    1.125    0.000    0.000 
#    2.250    0.000    0.000    0.750    0.000    1.750 
#    0.000    0.000    0.000    0.000    0.000    0.000 
#
# Total GULP energy -198258.599700 kJ/mol
# GULP energy per Si atom -12391.162481 kJ/mol
# Density = 1.778810 g / cm^3
# Si number density = 17.828682 Si / 1000 Ang^3
#
#
#
# Elastic Constant Matrix: (Units=GPa)
#
#
# Indices 1 2 3 4 5 6 
#
# 1 75.0634 0.9903 14.0182 -2.0466 -21.4876 13.6786
# 2 0.9903 23.7381 0.0308 11.5066 -29.3024 6.1121
# 3 14.0182 0.0308 101.5545 3.0408 -28.5049 2.8134
# 4 -2.0466 11.5066 3.0408 25.0103 20.3955 -0.7526
# 5 -21.4876 -29.3024 -28.5049 20.3955 12.7619 -7.2251
# 6 13.6786 6.1121 2.8134 -0.7526 -7.2251 22.1168
#
#
#
# Elastic Compliance Matrix: (Units=1/GPa)
#
#
# Indices 1 2 3 4 5 6 
#
# 1 0.014848 -0.003820 -0.002636 0.004989 -0.002390 -0.008403
# 2 -0.003820 0.010008 -0.005919 0.013656 -0.022130 -0.006415
# 3 -0.002636 -0.005919 0.009198 0.003933 -0.003074 0.001225
# 4 0.004989 0.013656 0.003933 0.018609 0.018394 -0.000718
# 5 -0.002390 -0.022130 -0.003074 0.018394 -0.009650 0.005458
# 6 -0.008403 -0.006415 0.001225 -0.000718 0.005458 0.053787
#
#
# Mechanical properties :
#
#
# Convention : Reuss Voigt Hill
#
# Bulk Modulus (GPa) = 107.47643 25.60386 66.54014
# Shear Modulus (GPa) = 40.11229 24.33225 32.22227
#
# Velocity S-wave (km/s) = 4.74843 3.69830 4.25588
# Velocity P-wave (km/s) = 9.51195 5.71216 7.84557
#
# Compressibility (1/GPa) = 0.00930437
#
# Stress axis : x y z
#
# Youngs Moduli (GPa) = 67.34965 99.92225 108.71953
#
# Poissons Ratio (x) = 0.38175 0.28655
# Poissons Ratio (y) = 0.25730 0.64346
# Poissons Ratio (z) = 0.17751 0.59139
#
# Static dielectric constant tensor:
#      x y z
#    x 0.830540 1.577740 -0.983700 
#    y 1.577740 2.280330 0.547030 
#    z -0.983700 0.547030 3.071000 
# 
# 
# High freq. dielectric constant tensor:
#      x y z
#    x 1.643890 0.029450 -0.004640 
#    y 0.029450 1.673730 -0.007180 
#    z -0.004640 -0.007180 1.716490 
# 
# From -- ./inp_files/518108.got.cif
#   From: 2010.06.25/outbox.cif.g09.slc.cpg/sg2_260_cif.got.tgz:518108.got - 2010.06.27 13:26:56.
