data_PCOD8042488
_publ_section_title
;
Structure prediction by ZEFSAII (Michael W. Deem and Ramdas Pophale) SiO2 
 PCOD8042488
Probable space group: P -1
;
_chemical_formula_sum "Si O2"
_cell_formula_units_Z 16
_cell_length_a 13.575256
_cell_length_b 10.916315
_cell_length_c 9.788133
_cell_angle_alpha 109.246566
_cell_angle_beta 89.558601
_cell_angle_gamma 137.661479
_cell_volume 856.484846
_symmetry_space_group_name_H-M "P -1"
_symmetry_group_IT_number 2
_symmetry_cell_setting 'triclinic'
loop_
_space_group_symop_operation_xyz
x,y,z
-x,-y,-z
loop_
_atom_site_type_symbol
_atom_site_label
_atom_site_fract_x
_atom_site_fract_y
_atom_site_fract_z
Si Si1 0.469535 0.295442 0.036955
Si Si2 0.283374 0.344897 0.018913
Si Si3 0.470104 0.067281 0.146255
Si Si4 0.847762 0.324372 0.845880
Si Si5 0.167310 0.977195 0.774096
Si Si6 0.765167 0.357616 0.434510
Si Si7 0.086975 0.732236 0.447085
Si Si8 0.147226 0.416929 0.231873
O O1 0.415738 0.388692 0.106100
O O2 0.489845 0.234510 0.152457
O O3 0.633904 0.468360 0.016198
O O4 0.335057 0.092163 0.866707
O O5 0.190484 0.324973 0.129599
O O6 0.163338 0.129335 0.854606
O O7 0.594655 0.168449 0.301012
O O8 0.295967 0.867014 0.129870
O O9 0.500000 0.000000 0.000000
O O10 0.871734 0.233413 0.700812
O O11 0.814333 0.427102 0.813410
O O12 0.000000 0.500000 0.000000
O O13 0.141524 0.921127 0.592219
O O14 0.036168 0.771268 0.792555
O O15 0.817943 0.281026 0.479784
O O16 0.753063 0.459918 0.585129
O O17 0.897849 0.525210 0.381756
#
# Coordination Sequence:
#
# PCOD8042488 Si02
#       8
#     2   2   2   2   2   2   2   2
#     4   9  20  35  53  80 105 142 182 217 272 308
#     4   9  19  35  57  80 101 143 188 218 259 316
#     4  12  22  35  55  81 114 141 177 226 276 322
#     4  11  23  35  55  85 112 143 172 224 280 321
#     4   9  17  33  59  78 102 140 181 221 261 310
#     4   9  20  34  55  81 107 146 174 224 273 313
#     4   9  18  36  55  78 111 140 181 219 267 328
#     4  10  19  35  57  81 108 138 185 219 261 326
#
# _framework density 18.681007999999999
#
# number of rings (size 3 to 8) (size 9 to 14) (size 15 to 20)
#    0.750    1.500    0.000    4.125    0.000    3.000 
#    0.000    0.625    0.000    2.250    0.000    0.000 
#    0.000    0.000    0.000    0.000    0.000    0.000 
#
# Total GULP energy -198297.156990 kJ/mol
# GULP energy per Si atom -12393.572312 kJ/mol
# Density = 1.863849 g / cm^3
# Si number density = 18.681008 Si / 1000 Ang^3
#
#
#
# Elastic Constant Matrix: (Units=GPa)
#
#
# Indices 1 2 3 4 5 6 
#
# 1 62.9393 27.6954 46.8820 -3.8857 -15.5984 4.3636
# 2 27.6954 110.9568 44.1712 -5.4700 -1.8631 5.8632
# 3 46.8820 44.1712 129.4157 4.1830 -20.0461 14.1131
# 4 -3.8857 -5.4700 4.1830 29.3582 4.9058 0.6014
# 5 -15.5984 -1.8631 -20.0461 4.9058 41.2426 -0.2449
# 6 4.3636 5.8632 14.1131 0.6014 -0.2449 24.9992
#
#
#
# Elastic Compliance Matrix: (Units=1/GPa)
#
#
# Indices 1 2 3 4 5 6 
#
# 1 0.023781 -0.002979 -0.006934 0.002707 0.005170 0.000448
# 2 -0.002979 0.011107 -0.003129 0.002539 -0.002450 -0.000403
# 3 -0.006934 -0.003129 0.012561 -0.003817 0.003766 -0.005018
# 4 0.002707 0.002539 -0.003817 0.036274 -0.005030 0.000165
# 5 0.005170 -0.002450 0.003766 -0.005030 0.028508 -0.002053
# 6 0.000448 -0.000403 -0.005018 0.000165 -0.002053 0.042827
#
#
# Mechanical properties :
#
#
# Convention : Reuss Voigt Hill
#
# Bulk Modulus (GPa) = 46.80539 60.08992 53.44766
# Shear Modulus (GPa) = 26.55831 31.42422 28.99126
#
# Velocity S-wave (km/s) = 3.77460 4.10585 3.94370
# Velocity P-wave (km/s) = 6.64126 7.39686 7.02922
#
# Compressibility (1/GPa) = 0.02136506
#
# Stress axis : x y z
#
# Youngs Moduli (GPa) = 42.04961 90.03109 79.61229
#
# Poissons Ratio (x) = 0.26821 0.55201
# Poissons Ratio (y) = 0.12527 0.24915
# Poissons Ratio (z) = 0.29156 0.28175
#
# Static dielectric constant tensor:
#      x y z
#    x 3.272730 0.043080 -0.182190 
#    y 0.043080 3.453450 0.001390 
#    z -0.182190 0.001390 3.648170 
# 
# 
# High freq. dielectric constant tensor:
#      x y z
#    x 1.705870 0.013820 -0.015800 
#    y 0.013820 1.724720 0.008610 
#    z -0.015800 0.008610 1.720510 
# 
# From -- ./inp_files/308038.got.cif
#   From: 2010.06.25/outbox.cif.g09.slc.cpg/sg2_155_cif.got.tgz:308038.got - 2010.06.27 13:26:56.
