data_PCOD8042860
_publ_section_title
;
Structure prediction by ZEFSAII (Michael W. Deem and Ramdas Pophale) SiO2 
 PCOD8042860
Probable space group: P -1
;
_chemical_formula_sum "Si O2"
_cell_formula_units_Z 14
_cell_length_a 9.193816
_cell_length_b 25.222550
_cell_length_c 9.294028
_cell_angle_alpha 122.731594
_cell_angle_beta 132.269684
_cell_angle_gamma 29.082134
_cell_volume 768.505591
_symmetry_space_group_name_H-M "P -1"
_symmetry_group_IT_number 2
_symmetry_cell_setting 'triclinic'
loop_
_space_group_symop_operation_xyz
x,y,z
-x,-y,-z
loop_
_atom_site_type_symbol
_atom_site_label
_atom_site_fract_x
_atom_site_fract_y
_atom_site_fract_z
Si Si1 0.193411 0.402394 0.590688
Si Si2 0.754466 0.226336 0.487244
Si Si3 0.787982 0.976020 0.653870
Si Si4 0.423841 0.766880 0.914362
Si Si5 0.644416 0.596949 0.990096
Si Si6 0.767718 0.400223 0.422393
Si Si7 0.222244 0.216252 0.685678
O O1 0.542120 0.285346 0.578239
O O2 0.000000 0.500000 0.500000
O O3 0.952600 0.406731 0.468718
O O4 0.291036 0.415033 0.815793
O O5 0.502576 0.288849 0.270383
O O6 0.985286 0.100835 0.451863
O O7 0.997631 0.223792 0.631084
O O8 0.045086 0.898935 0.848697
O O9 0.500000 0.000000 0.500000
O O10 0.600018 0.092569 0.704130
O O11 0.431146 0.714165 0.969684
O O12 0.715977 0.742390 0.102526
O O13 0.426048 0.591538 0.810730
O O14 0.000000 0.500000 0.000000
O O15 0.500000 0.500000 0.500000
O O16 0.038238 0.287032 0.522718
#
# Coordination Sequence:
#
# PCOD8042860 Si02
#       7
#     2   2   2   2   2   2   2
#     4  12  25  39  59  86 124 150 191 250 300 341
#     4   9  21  36  57  90 121 146 193 246 292 332
#     4   8  17  34  60  87 120 151 198 240 283 343
#     4  10  19  35  63  89 115 152 202 235 287 346
#     4  12  22  39  62  86 115 156 201 238 289 355
#     4  12  23  39  63  87 114 157 198 240 291 354
#     4  11  18  37  65  88 114 159 202 235 287 351
#
# _framework density 18.217175000000001
#
# number of rings (size 3 to 8) (size 9 to 14) (size 15 to 20)
#    0.857    0.571    4.286    2.143    0.000    1.714 
#    0.000    0.714    0.000    4.286    0.000    0.000 
#    0.000    0.000    0.000    0.000    0.000    0.000 
#
# Total GULP energy -173475.886697 kJ/mol
# GULP energy per Si atom -12391.134764 kJ/mol
# Density = 1.817571 g / cm^3
# Si number density = 18.217175 Si / 1000 Ang^3
#
#
#
# Elastic Constant Matrix: (Units=GPa)
#
#
# Indices 1 2 3 4 5 6 
#
# 1 108.7203 52.9502 54.3265 4.3645 8.5791 -7.2191
# 2 52.9502 121.5398 36.0633 -1.7638 -12.4235 -4.3612
# 3 54.3265 36.0633 161.8811 6.9365 12.3666 -5.2933
# 4 4.3645 -1.7638 6.9365 30.2699 3.4943 -6.1630
# 5 8.5791 -12.4235 12.3666 3.4943 38.4448 1.5459
# 6 -7.2191 -4.3612 -5.2933 -6.1630 1.5459 31.3435
#
#
#
# Elastic Compliance Matrix: (Units=1/GPa)
#
#
# Indices 1 2 3 4 5 6 
#
# 1 0.013846 -0.005471 -0.003034 -0.000773 -0.003890 0.001955
# 2 -0.005471 0.011512 -0.001172 0.001150 0.005209 0.000113
# 3 -0.003034 -0.001172 0.007673 -0.001083 -0.002085 0.000324
# 4 -0.000773 0.001150 -0.001083 0.035152 -0.002578 0.006838
# 5 -0.003890 0.005209 -0.002085 -0.002578 0.029568 -0.002488
# 6 0.001955 0.000113 0.000324 0.006838 -0.002488 0.033893
#
#
# Mechanical properties :
#
#
# Convention : Reuss Voigt Hill
#
# Bulk Modulus (GPa) = 73.11104 75.42458 74.26781
# Shear Modulus (GPa) = 32.14267 36.59838 34.37053
#
# Velocity S-wave (km/s) = 4.20505 4.48705 4.34834
# Velocity P-wave (km/s) = 7.98729 8.26667 8.12818
#
# Compressibility (1/GPa) = 0.01367783
#
# Stress axis : x y z
#
# Youngs Moduli (GPa) = 72.22249 86.86465 130.33011
#
# Poissons Ratio (x) = 0.47522 0.39538
# Poissons Ratio (y) = 0.39511 0.15277
# Poissons Ratio (z) = 0.21910 0.10182
#
# Static dielectric constant tensor:
#      x y z
#    x 3.181670 0.117170 0.189890 
#    y 0.117170 4.172180 0.017160 
#    z 0.189890 0.017160 3.589050 
# 
# 
# High freq. dielectric constant tensor:
#      x y z
#    x 1.672400 0.009430 0.019810 
#    y 0.009430 1.715950 -0.002890 
#    z 0.019810 -0.002890 1.721340 
# 
# From -- ./inp_files/220193.got.cif
#   From: 2010.06.25/outbox.cif.g09.slc.cpg/sg2_111_cif.got.tgz:220193.got - 2010.06.27 13:26:56.
