data_PCOD8042574
_publ_section_title
;
Structure prediction by ZEFSAII (Michael W. Deem and Ramdas Pophale) SiO2 
 PCOD8042574
Probable space group: P -1
;
_chemical_formula_sum "Si O2"
_cell_formula_units_Z 14
_cell_length_a 7.608098
_cell_length_b 15.727178
_cell_length_c 8.772288
_cell_angle_alpha 37.454720
_cell_angle_beta 70.697577
_cell_angle_gamma 71.629072
_cell_volume 599.888258
_symmetry_space_group_name_H-M "P -1"
_symmetry_group_IT_number 2
_symmetry_cell_setting 'triclinic'
loop_
_space_group_symop_operation_xyz
x,y,z
-x,-y,-z
loop_
_atom_site_type_symbol
_atom_site_label
_atom_site_fract_x
_atom_site_fract_y
_atom_site_fract_z
Si Si1 0.544084 0.880346 0.282927
Si Si2 0.949281 0.505542 0.681729
Si Si3 0.553256 0.578872 0.599569
Si Si4 0.307720 0.360530 0.863838
Si Si5 0.707988 0.949602 0.667842
Si Si6 0.965779 0.027547 0.229265
Si Si7 0.018727 0.190734 0.700211
O O1 0.469727 0.729851 0.474967
O O2 0.764535 0.858789 0.268084
O O3 0.451323 0.934903 0.390711
O O4 0.500000 0.000000 0.000000
O O5 0.724575 0.507406 0.758038
O O6 0.020743 0.644339 0.540242
O O7 0.000000 0.500000 0.500000
O O8 0.078261 0.382281 0.906740
O O9 0.397480 0.468120 0.800206
O O10 0.627293 0.608780 0.368176
O O11 0.371798 0.201278 0.120855
O O12 0.778835 0.006959 0.406402
O O13 0.875238 0.921903 0.780267
O O14 0.049454 0.882956 0.328231
O O15 0.909883 0.142921 0.950209
#
# Coordination Sequence:
#
# PCOD8042574 Si02
#       7
#     2   2   2   2   2   2   2
#     4  11  19  36  64  88 121 158 203 259 298 365
#     4   9  18  34  59  88 118 154 209 252 290 370
#     4   9  19  33  57  90 116 162 209 243 301 368
#     4  10  19  35  58  87 123 161 199 250 308 367
#     4  11  22  39  60  94 126 154 201 260 314 354
#     4  10  22  38  61  89 124 156 206 256 303 366
#     4  10  21  39  63  91 115 163 213 245 302 373
#
# _framework density 23.337681
#
# number of rings (size 3 to 8) (size 9 to 14) (size 15 to 20)
#    0.000    2.000    2.857    1.714    2.000    0.571 
#    7.714    0.714    3.143    1.714    0.000    0.000 
#    0.000    0.000    0.000    0.000    0.000    0.000 
#
# Total GULP energy -173538.615845 kJ/mol
# GULP energy per Si atom -12395.615417 kJ/mol
# Density = 2.328456 g / cm^3
# Si number density = 23.337681 Si / 1000 Ang^3
#
#
#
# Elastic Constant Matrix: (Units=GPa)
#
#
# Indices 1 2 3 4 5 6 
#
# 1 68.4337 38.8373 37.5309 -19.8656 -7.8842 2.8072
# 2 38.8373 125.4090 60.9699 -23.8131 -6.9790 -2.1401
# 3 37.5309 60.9699 61.5757 -5.1269 -17.1479 -0.0060
# 4 -19.8656 -23.8131 -5.1269 48.9589 1.2278 -7.4400
# 5 -7.8842 -6.9790 -17.1479 1.2278 23.0121 -8.0407
# 6 2.8072 -2.1401 -0.0060 -7.4400 -8.0407 34.4070
#
#
#
# Elastic Compliance Matrix: (Units=1/GPa)
#
#
# Indices 1 2 3 4 5 6 
#
# 1 0.025863 0.003021 -0.019513 0.009893 -0.005681 -0.001114
# 2 0.003021 0.019439 -0.023406 0.008543 -0.010875 0.000264
# 3 -0.019513 -0.023406 0.059380 -0.013150 0.032911 0.004994
# 4 0.009893 0.008543 -0.013150 0.028060 -0.003586 0.004951
# 5 -0.005681 -0.010875 0.032911 -0.003586 0.068148 0.014943
# 6 -0.001114 0.000264 0.004994 0.004951 0.014943 0.033735
#
#
# Mechanical properties :
#
#
# Convention : Reuss Voigt Hill
#
# Bulk Modulus (GPa) = 40.18423 58.89942 49.54182
# Shear Modulus (GPa) = 15.49340 29.14762 22.32051
#
# Velocity S-wave (km/s) = 2.57938 3.53788 3.09595
# Velocity P-wave (km/s) = 5.11145 6.47932 5.83560
#
# Compressibility (1/GPa) = 0.02488538
#
# Stress axis : x y z
#
# Youngs Moduli (GPa) = 38.66521 51.44223 16.84059
#
# Poissons Ratio (x) = -0.15539 0.32861
# Poissons Ratio (y) = -0.11679 0.39418
# Poissons Ratio (z) = 0.75447 1.20407
#
# Static dielectric constant tensor:
#      x y z
#    x 4.097010 0.592600 -0.410260 
#    y 0.592600 3.790160 0.236280 
#    z -0.410260 0.236280 3.574080 
# 
# 
# High freq. dielectric constant tensor:
#      x y z
#    x 1.920820 0.007770 -0.006940 
#    y 0.007770 1.933030 -0.022520 
#    z -0.006940 -0.022520 1.885550 
# 
# From -- ./inp_files/184770.got.cif
#   From: 2010.06.25/outbox.cif.g09.slc.cpg/sg2_93_cif.got.tgz:184770.got - 2010.06.27 13:26:56.
