data_PCOD8042396
_publ_section_title
;
Structure prediction by ZEFSAII (Michael W. Deem and Ramdas Pophale) SiO2 
 PCOD8042396
Probable space group: P -1
;
_chemical_formula_sum "Si O2"
_cell_formula_units_Z 16
_cell_length_a 16.143724
_cell_length_b 34.065869
_cell_length_c 19.745120
_cell_angle_alpha 16.141621
_cell_angle_beta 18.525022
_cell_angle_gamma 18.316279
_cell_volume 863.089500
_symmetry_space_group_name_H-M "P -1"
_symmetry_group_IT_number 2
_symmetry_cell_setting 'triclinic'
loop_
_space_group_symop_operation_xyz
x,y,z
-x,-y,-z
loop_
_atom_site_type_symbol
_atom_site_label
_atom_site_fract_x
_atom_site_fract_y
_atom_site_fract_z
Si Si1 0.848664 0.890143 0.279093
Si Si2 0.329152 0.927653 0.341985
Si Si3 0.278483 0.185015 0.362873
Si Si4 0.630264 0.572767 0.723706
Si Si5 0.179056 0.042944 0.557768
Si Si6 0.228213 0.756160 0.082746
Si Si7 0.365010 0.866962 0.257237
Si Si8 0.278783 0.474375 0.417407
O O1 0.902877 0.774106 0.494142
O O2 0.505445 0.987256 0.368842
O O3 0.987801 0.787222 0.275297
O O4 0.000000 0.000000 0.000000
O O5 0.505322 0.760234 0.519153
O O6 0.334455 0.913416 0.281479
O O7 0.000000 0.000000 0.500000
O O8 0.483766 0.039705 0.055746
O O9 0.094996 0.197072 0.416951
O O10 0.464140 0.285348 0.049334
O O11 0.500000 0.000000 0.500000
O O12 0.561842 0.533148 0.765924
O O13 0.968184 0.488127 0.616254
O O14 0.500000 0.500000 0.000000
O O15 0.955822 0.092503 0.587436
O O16 0.140145 0.907286 0.853614
O O17 0.261687 0.615298 0.242609
O O18 0.559526 0.681965 0.404616
#
# Coordination Sequence:
#
# PCOD8042396 Si02
#       8
#     2   2   2   2   2   2   2   2
#     4  10  15  31  54  78 107 136 182 230 270 314
#     4  10  21  39  59  80 108 145 180 226 277 322
#     4   8  16  29  49  76 104 136 174 225 268 311
#     4  10  21  38  60  79 108 145 184 225 271 329
#     4  10  19  31  54  82 103 141 181 230 272 315
#     4  10  18  32  54  80 106 139 185 227 268 322
#     4  10  22  38  53  79 117 141 182 226 271 334
#     4  10  22  37  54  80 111 150 178 223 277 325
#
# _framework density 18.538056000000001
#
# number of rings (size 3 to 8) (size 9 to 14) (size 15 to 20)
#    0.000    2.500    3.750    1.500    0.000    7.000 
#    0.000    0.625    0.000    0.750    0.000    0.000 
#    0.000    0.000    0.000    0.000    0.000    0.000 
#
# Total GULP energy -198275.832592 kJ/mol
# GULP energy per Si atom -12392.239537 kJ/mol
# Density = 1.849586 g / cm^3
# Si number density = 18.538056 Si / 1000 Ang^3
#
#
#
# Elastic Constant Matrix: (Units=GPa)
#
#
# Indices 1 2 3 4 5 6 
#
# 1 74.6067 38.1104 57.0322 -8.8118 -11.2357 1.2298
# 2 38.1104 83.7172 50.1533 4.7672 3.9881 9.2945
# 3 57.0322 50.1533 109.2544 11.6246 3.3175 6.7512
# 4 -8.8118 4.7672 11.6246 28.6557 2.5686 -4.4630
# 5 -11.2357 3.9881 3.3175 2.5686 33.0765 3.1315
# 6 1.2298 9.2945 6.7512 -4.4630 3.1315 34.8297
#
#
#
# Elastic Compliance Matrix: (Units=1/GPa)
#
#
# Indices 1 2 3 4 5 6 
#
# 1 0.034313 -0.007623 -0.017087 0.018485 0.012343 0.005394
# 2 -0.007623 0.018511 -0.003697 -0.004238 -0.003727 -0.004162
# 3 -0.017087 -0.003697 0.021620 -0.013448 -0.006125 -0.003773
# 4 0.018485 -0.004238 -0.013448 0.047805 0.003585 0.008888
# 5 0.012343 -0.003727 -0.006125 0.003585 0.035303 -0.000968
# 6 0.005394 -0.004162 -0.003773 0.008888 -0.000968 0.031589
#
#
# Mechanical properties :
#
#
# Convention : Reuss Voigt Hill
#
# Bulk Modulus (GPa) = 56.72355 62.01888 59.37122
# Shear Modulus (GPa) = 19.85464 27.46454 23.65959
#
# Velocity S-wave (km/s) = 3.27620 3.85323 3.57637
# Velocity P-wave (km/s) = 6.70643 7.30233 7.01071
#
# Compressibility (1/GPa) = 0.01762936
#
# Stress axis : x y z
#
# Youngs Moduli (GPa) = 29.14359 54.02251 46.25368
#
# Poissons Ratio (x) = 0.41181 0.79035
# Poissons Ratio (y) = 0.22216 0.17099
# Poissons Ratio (z) = 0.49799 0.19971
#
# Static dielectric constant tensor:
#      x y z
#    x 3.846740 0.422510 -0.016970 
#    y 0.422510 4.199950 0.443950 
#    z -0.016970 0.443950 3.715820 
# 
# 
# High freq. dielectric constant tensor:
#      x y z
#    x 1.720700 0.014820 -0.008940 
#    y 0.014820 1.695710 0.014820 
#    z -0.008940 0.014820 1.720780 
# 
# From -- ./inp_files/574619.got.cif
#   From: 2010.06.25/outbox.cif.g09.slc.cpg/sg2_288_cif.got.tgz:574619.got - 2010.06.27 13:26:56.
