data_PCOD8042423
_publ_section_title
;
Structure prediction by ZEFSAII (Michael W. Deem and Ramdas Pophale) SiO2 
 PCOD8042423
Probable space group: P -1
;
_chemical_formula_sum "Si O2"
_cell_formula_units_Z 16
_cell_length_a 11.860665
_cell_length_b 11.105011
_cell_length_c 19.911431
_cell_angle_alpha 35.889963
_cell_angle_beta 135.916235
_cell_angle_gamma 108.843030
_cell_volume 826.317157
_symmetry_space_group_name_H-M "P -1"
_symmetry_group_IT_number 2
_symmetry_cell_setting 'triclinic'
loop_
_space_group_symop_operation_xyz
x,y,z
-x,-y,-z
loop_
_atom_site_type_symbol
_atom_site_label
_atom_site_fract_x
_atom_site_fract_y
_atom_site_fract_z
Si Si1 0.673250 0.483691 0.777732
Si Si2 0.074463 0.461066 0.795140
Si Si3 0.497309 0.313843 0.032679
Si Si4 0.625205 0.964482 0.363462
Si Si5 0.358790 0.504922 0.088508
Si Si6 0.358046 0.851182 0.364608
Si Si7 0.944265 0.563775 0.048597
Si Si8 0.997617 0.084216 0.886175
O O1 0.587651 0.516159 0.801048
O O2 0.471842 0.664634 0.562329
O O3 0.808646 0.587813 0.784714
O O4 0.818216 0.175696 0.958587
O O5 0.260979 0.445972 0.850579
O O6 0.133166 0.346602 0.947972
O O7 0.037734 0.294741 0.807071
O O8 0.870920 0.767958 0.573348
O O9 0.622955 0.283966 0.033226
O O10 0.500000 0.500000 0.000000
O O11 0.599248 0.038178 0.239777
O O12 0.531914 0.813169 0.406993
O O13 0.520412 0.217236 0.253057
O O14 0.120573 0.608906 0.928945
O O15 0.231765 0.771671 0.308901
O O16 0.189048 0.160287 0.175276
O O17 0.000000 0.000000 0.000000
#
# Coordination Sequence:
#
# PCOD8042423 Si02
#       8
#     2   2   2   2   2   2   2   2
#     4  11  22  38  58  87 120 154 183 230 294 346
#     4  12  20  37  58  88 113 144 193 239 284 326
#     4  10  20  39  58  83 116 147 196 235 278 335
#     4  10  20  35  59  87 113 147 192 237 285 329
#     4  10  22  40  57  84 122 152 186 235 288 345
#     4  10  19  35  55  88 113 147 189 228 289 338
#     4  10  19  37  56  87 117 147 182 239 288 337
#     4  11  21  37  58  84 118 150 190 239 280 338
#
# _framework density 19.363025
#
# number of rings (size 3 to 8) (size 9 to 14) (size 15 to 20)
#    0.000    1.500    7.500    0.375    0.000    7.000 
#    4.500    0.625    0.000    1.500    0.000    0.000 
#    0.000    0.000    0.000    0.000    0.000    0.000 
#
# Total GULP energy -198359.454759 kJ/mol
# GULP energy per Si atom -12397.465922 kJ/mol
# Density = 1.931895 g / cm^3
# Si number density = 19.363025 Si / 1000 Ang^3
#
#
#
# Elastic Constant Matrix: (Units=GPa)
#
#
# Indices 1 2 3 4 5 6 
#
# 1 101.4701 54.9625 39.9533 20.4858 -15.3846 5.8656
# 2 54.9625 83.4323 43.4508 20.2705 -4.2302 8.8110
# 3 39.9533 43.4508 104.9791 25.9953 0.3449 -2.0976
# 4 20.4858 20.2705 25.9953 29.8446 -1.1279 4.2169
# 5 -15.3846 -4.2302 0.3449 -1.1279 29.5944 7.1310
# 6 5.8656 8.8110 -2.0976 4.2169 7.1310 27.9369
#
#
#
# Elastic Compliance Matrix: (Units=1/GPa)
#
#
# Indices 1 2 3 4 5 6 
#
# 1 0.017733 -0.008947 -0.002287 -0.003397 0.008494 -0.002729
# 2 -0.008947 0.021743 -0.004724 -0.003880 -0.000524 -0.004615
# 3 -0.002287 -0.004724 0.014674 -0.008897 -0.003664 0.005350
# 4 -0.003397 -0.003880 -0.008897 0.047126 0.001052 -0.006113
# 5 0.008494 -0.000524 -0.003664 0.001052 0.041245 -0.012580
# 6 -0.002729 -0.004615 0.005350 -0.006113 -0.012580 0.042359
#
#
# Mechanical properties :
#
#
# Convention : Reuss Voigt Hill
#
# Bulk Modulus (GPa) = 44.97710 62.95718 53.96714
# Shear Modulus (GPa) = 22.30068 27.57618 24.93843
#
# Velocity S-wave (km/s) = 3.39737 3.77791 3.59268
# Velocity P-wave (km/s) = 6.21838 7.18435 6.71875
#
# Compressibility (1/GPa) = 0.02223354
#
# Stress axis : x y z
#
# Youngs Moduli (GPa) = 56.39114 45.99098 68.14997
#
# Poissons Ratio (x) = 0.41147 0.15587
# Poissons Ratio (y) = 0.50452 0.32196
# Poissons Ratio (z) = 0.12898 0.21728
#
# Static dielectric constant tensor:
#      x y z
#    x 3.764810 0.275510 -0.078880 
#    y 0.275510 3.518460 0.143550 
#    z -0.078880 0.143550 3.590490 
# 
# 
# High freq. dielectric constant tensor:
#      x y z
#    x 1.740950 0.015160 0.005190 
#    y 0.015160 1.727820 0.018550 
#    z 0.005190 0.018550 1.753110 
# 
# From -- ./inp_files/568596.got.cif
#   From: 2010.06.25/outbox.cif.g09.slc.cpg/sg2_285_cif.got.tgz:568596.got - 2010.06.27 13:26:56.
