data_PCOD8042064
_publ_section_title
;
Structure prediction by ZEFSAII (Michael W. Deem and Ramdas Pophale) SiO2 
 PCOD8042064
Probable space group: P -1
;
_chemical_formula_sum "Si O2"
_cell_formula_units_Z 12
_cell_length_a 12.671460
_cell_length_b 8.933717
_cell_length_c 9.883004
_cell_angle_alpha 57.906985
_cell_angle_beta 88.577675
_cell_angle_gamma 48.752063
_cell_volume 612.578822
_symmetry_space_group_name_H-M "P -1"
_symmetry_group_IT_number 2
_symmetry_cell_setting 'triclinic'
loop_
_space_group_symop_operation_xyz
x,y,z
-x,-y,-z
loop_
_atom_site_type_symbol
_atom_site_label
_atom_site_fract_x
_atom_site_fract_y
_atom_site_fract_z
Si Si1 0.669302 0.691877 0.171371
Si Si2 0.661907 0.755228 0.445192
Si Si3 0.793712 0.284679 0.155982
Si Si4 0.022560 0.623037 0.831848
Si Si5 0.222362 0.046165 0.554581
Si Si6 0.577909 0.664699 0.741613
O O1 0.689506 0.630430 0.359671
O O2 0.677370 0.496937 0.182681
O O3 0.819897 0.623430 0.148794
O O4 0.500000 0.000000 0.000000
O O5 0.796531 0.738353 0.475305
O O6 0.677631 0.583334 0.641065
O O7 0.479774 0.077052 0.307865
O O8 0.946106 0.226897 0.167178
O O9 0.855392 0.008480 0.322228
O O10 0.694575 0.405492 0.961089
O O11 0.860854 0.844754 0.641102
O O12 0.000000 0.500000 0.000000
O O13 0.416087 0.757354 0.667079
#
# Coordination Sequence:
#
# PCOD8042064 Si02
#       6
#     2   2   2   2   2   2
#     4  10  20  34  58  81 110 140 186 227 268 317
#     4   9  18  33  56  79 110 140 188 217 265 323
#     4  10  20  35  57  80 111 145 181 226 271 324
#     4  10  22  35  60  80 110 146 185 221 271 332
#     4  10  19  34  57  82 108 146 183 221 275 321
#     4   9  18  32  60  77 108 149 184 211 265 341
#
# _framework density 19.589314999999999
#
# number of rings (size 3 to 8) (size 9 to 14) (size 15 to 20)
#    2.000    0.333    1.667    2.000    2.333    0.667 
#    0.000    0.833    3.667    2.000    0.000    0.000 
#    0.000    0.000    0.000    0.000    0.000    0.000 
#
# Total GULP energy -148668.498668 kJ/mol
# GULP energy per Si atom -12389.041556 kJ/mol
# Density = 1.954473 g / cm^3
# Si number density = 19.589315 Si / 1000 Ang^3
#
#
#
# Elastic Constant Matrix: (Units=GPa)
#
#
# Indices 1 2 3 4 5 6 
#
# 1 113.3817 11.0040 67.1046 11.9945 0.4514 -0.4423
# 2 11.0040 44.0435 22.2926 24.1965 -1.7492 -7.8912
# 3 67.1046 22.2926 172.4841 29.0696 1.9332 -1.1492
# 4 11.9945 24.1965 29.0696 27.5980 -5.3587 -5.7033
# 5 0.4514 -1.7492 1.9332 -5.3587 44.5550 1.7419
# 6 -0.4423 -7.8912 -1.1492 -5.7033 1.7419 12.9500
#
#
#
# Elastic Compliance Matrix: (Units=1/GPa)
#
#
# Indices 1 2 3 4 5 6 
#
# 1 0.011480 -0.000927 -0.004421 0.000419 0.000105 -0.000395
# 2 -0.000927 0.045838 0.001190 -0.039406 -0.003417 0.011110
# 3 -0.004421 0.001190 0.008931 -0.009314 -0.001316 -0.002558
# 4 0.000419 -0.039406 -0.009314 0.084387 0.008565 0.011188
# 5 0.000105 -0.003417 -0.001316 0.008565 0.023458 -0.001578
# 6 -0.000395 0.011110 -0.002558 0.011188 -0.001578 0.088889
#
#
# Mechanical properties :
#
#
# Convention : Reuss Voigt Hill
#
# Bulk Modulus (GPa) = 17.26139 58.96797 38.11468
# Shear Modulus (GPa) = 17.20520 32.32115 24.76317
#
# Velocity S-wave (km/s) = 2.96682 4.06635 3.55930
# Velocity P-wave (km/s) = 4.53506 7.22595 6.03246
#
# Compressibility (1/GPa) = 0.05793275
#
# Stress axis : x y z
#
# Youngs Moduli (GPa) = 87.10858 21.81605 111.96810
#
# Poissons Ratio (x) = 0.02023 0.49499
# Poissons Ratio (y) = 0.08078 -0.13326
# Poissons Ratio (z) = 0.38509 -0.02596
#
# Static dielectric constant tensor:
#      x y z
#    x 3.542380 -0.020220 0.062490 
#    y -0.020220 3.064440 0.206980 
#    z 0.062490 0.206980 3.457040 
# 
# 
# High freq. dielectric constant tensor:
#      x y z
#    x 1.760520 -0.004130 0.005370 
#    y -0.004130 1.706900 0.017020 
#    z 0.005370 0.017020 1.769870 
# 
# From -- ./inp_files/209826.got.cif
#   From: 2010.06.25/outbox.cif.g09.slc.cpg/sg2_105_cif.got.tgz:209826.got - 2010.06.27 13:26:56.
