data_PCOD8042575
_publ_section_title
;
Structure prediction by ZEFSAII (Michael W. Deem and Ramdas Pophale) SiO2 
 PCOD8042575
Probable space group: P -1
;
_chemical_formula_sum "Si O2"
_cell_formula_units_Z 14
_cell_length_a 18.302790
_cell_length_b 11.910260
_cell_length_c 7.530587
_cell_angle_alpha 67.649227
_cell_angle_beta 67.191853
_cell_angle_gamma 27.756265
_cell_volume 702.077454
_symmetry_space_group_name_H-M "P -1"
_symmetry_group_IT_number 2
_symmetry_cell_setting 'triclinic'
loop_
_space_group_symop_operation_xyz
x,y,z
-x,-y,-z
loop_
_atom_site_type_symbol
_atom_site_label
_atom_site_fract_x
_atom_site_fract_y
_atom_site_fract_z
Si Si1 0.387191 0.516279 0.897155
Si Si2 0.244331 0.141634 0.516465
Si Si3 0.906714 0.243678 0.382972
Si Si4 0.375944 0.786762 0.846873
Si Si5 0.092231 0.756246 0.022121
Si Si6 0.560423 0.618221 0.458919
Si Si7 0.042964 0.631346 0.445927
O O1 0.299632 0.752962 0.918605
O O2 0.419027 0.489371 0.672991
O O3 0.552732 0.279414 0.987306
O O4 0.276958 0.544015 0.010455
O O5 0.200658 0.339471 0.470962
O O6 0.108983 0.254057 0.463017
O O7 0.255666 0.053997 0.747830
O O8 0.413998 0.908144 0.396648
O O9 0.720007 0.475896 0.444894
O O10 0.964076 0.277423 0.429173
O O11 0.941998 0.235833 0.152881
O O12 0.000000 0.000000 0.500000
O O13 0.518936 0.588857 0.684675
O O14 0.038957 0.717658 0.220888
O O15 0.000000 0.000000 0.000000
#
# Coordination Sequence:
#
# PCOD8042575 Si02
#       7
#     2   2   2   2   2   2   2
#     4  10  19  35  58  88 117 147 199 249 291 344
#     4   9  23  42  62  82 124 164 193 246 291 356
#     4  11  23  38  64  91 119 156 197 246 302 349
#     4   9  19  35  57  86 114 157 192 241 292 344
#     4  11  22  37  60  87 121 152 197 250 301 346
#     4   9  21  39  56  91 114 155 197 239 297 346
#     4  11  22  45  58  87 124 157 201 242 297 355
#
# _framework density 19.940819999999999
#
# number of rings (size 3 to 8) (size 9 to 14) (size 15 to 20)
#    0.857    1.143    1.429    2.143    2.000    0.571 
#    7.714    2.857    0.000    0.000    0.000    0.000 
#    0.000    0.000    0.000    0.000    0.000    0.000 
#
# Total GULP energy -173495.254560 kJ/mol
# GULP energy per Si atom -12392.518183 kJ/mol
# Density = 1.989543 g / cm^3
# Si number density = 19.940820 Si / 1000 Ang^3
#
#
#
# Elastic Constant Matrix: (Units=GPa)
#
#
# Indices 1 2 3 4 5 6 
#
# 1 107.1759 35.5140 36.2961 -5.8282 18.4293 12.0584
# 2 35.5140 106.6143 13.9399 -17.5420 -5.0064 6.2886
# 3 36.2961 13.9399 76.1184 -8.0012 12.1352 7.1076
# 4 -5.8282 -17.5420 -8.0012 35.2134 0.1047 -7.4688
# 5 18.4293 -5.0064 12.1352 0.1047 29.2291 -4.5160
# 6 12.0584 6.2886 7.1076 -7.4688 -4.5160 27.1608
#
#
#
# Elastic Compliance Matrix: (Units=1/GPa)
#
#
# Indices 1 2 3 4 5 6 
#
# 1 0.014489 -0.004694 -0.004227 -0.002226 -0.009161 -0.006375
# 2 -0.004694 0.012054 -0.000433 0.005501 0.005467 0.001828
# 3 -0.004227 -0.000433 0.016442 0.002313 -0.004623 -0.002458
# 4 -0.002226 0.005501 0.002313 0.033123 0.002603 0.008650
# 5 -0.009161 0.005467 -0.004623 0.002603 0.044714 0.012162
# 6 -0.006375 0.001828 -0.002458 0.008650 0.012162 0.044269
#
#
# Mechanical properties :
#
#
# Convention : Reuss Voigt Hill
#
# Bulk Modulus (GPa) = 41.19328 51.26765 46.23046
# Shear Modulus (GPa) = 26.05622 31.93122 28.99372
#
# Velocity S-wave (km/s) = 3.61872 4.00596 3.81726
# Velocity P-wave (km/s) = 6.17761 6.86751 6.53167
#
# Compressibility (1/GPa) = 0.02427580
#
# Stress axis : x y z
#
# Youngs Moduli (GPa) = 69.01750 82.96092 60.81874
#
# Poissons Ratio (x) = 0.38943 0.25711
# Poissons Ratio (y) = 0.32397 0.02635
# Poissons Ratio (z) = 0.29177 0.03594
#
# Static dielectric constant tensor:
#      x y z
#    x 3.609580 -0.161890 0.003450 
#    y -0.161890 3.592680 -0.146220 
#    z 0.003450 -0.146220 2.228370 
# 
# 
# High freq. dielectric constant tensor:
#      x y z
#    x 1.779710 -0.016130 0.008850 
#    y -0.016130 1.765900 -0.004340 
#    z 0.008850 -0.004340 1.767080 
# 
# From -- ./inp_files/331679.got.cif
#   From: 2010.06.25/outbox.cif.g09.slc.cpg/sg2_166_cif.got.tgz:331679.got - 2010.06.27 13:26:56.
