data_PCOD8042409
_publ_section_title
;
Structure prediction by ZEFSAII (Michael W. Deem and Ramdas Pophale) SiO2 
 PCOD8042409
Probable space group: P -1
;
_chemical_formula_sum "Si O2"
_cell_formula_units_Z 14
_cell_length_a 19.445206
_cell_length_b 9.504460
_cell_length_c 8.175387
_cell_angle_alpha 51.576297
_cell_angle_beta 128.252930
_cell_angle_gamma 140.192857
_cell_volume 726.949285
_symmetry_space_group_name_H-M "P -1"
_symmetry_group_IT_number 2
_symmetry_cell_setting 'triclinic'
loop_
_space_group_symop_operation_xyz
x,y,z
-x,-y,-z
loop_
_atom_site_type_symbol
_atom_site_label
_atom_site_fract_x
_atom_site_fract_y
_atom_site_fract_z
Si Si1 0.366853 0.473287 0.168148
Si Si2 0.234738 0.524417 0.161886
Si Si3 0.459655 0.773140 0.515547
Si Si4 0.407885 0.179214 0.622321
Si Si5 0.879886 0.877476 0.486995
Si Si6 0.765443 0.083240 0.191892
Si Si7 0.667445 0.660860 0.151614
O O1 0.269578 0.491843 0.057466
O O2 0.374086 0.344854 0.426248
O O3 0.490318 0.719708 0.171415
O O4 0.341530 0.345674 0.051974
O O5 0.346214 0.667691 0.329949
O O6 0.136742 0.275138 0.272231
O O7 0.186934 0.666465 0.982584
O O8 0.561943 0.861039 0.480805
O O9 0.438688 0.579632 0.750224
O O10 0.500000 0.000000 0.500000
O O11 0.299701 0.951016 0.710972
O O12 0.783399 0.705903 0.336036
O O13 0.866750 0.071230 0.381541
O O14 0.000000 0.000000 0.500000
O O15 0.677242 0.876321 0.083525
#
# Coordination Sequence:
#
# PCOD8042409 Si02
#       7
#     2   2   2   2   2   2   2
#     4  10  19  35  55  80 118 155 183 227 271 336
#     4  10  21  37  56  85 115 143 193 225 285 341
#     4  10  22  33  50  85 119 157 186 227 269 333
#     4  10  20  33  53  78 123 158 182 222 276 327
#     4   9  20  43  62  80 109 143 190 246 288 326
#     4  10  21  37  57  86 108 153 188 227 284 334
#     4   9  21  36  54  86 110 149 194 228 275 331
#
# _framework density 19.258564
#
# number of rings (size 3 to 8) (size 9 to 14) (size 15 to 20)
#    0.857    1.429    1.429    1.714    6.000    2.857 
#    0.000    0.714    0.000    0.857    0.000    0.000 
#    0.000    0.000    0.000    0.000    0.000    0.000 
#
# Total GULP energy -173466.361733 kJ/mol
# GULP energy per Si atom -12390.454409 kJ/mol
# Density = 1.921473 g / cm^3
# Si number density = 19.258564 Si / 1000 Ang^3
#
#
#
# Elastic Constant Matrix: (Units=GPa)
#
#
# Indices 1 2 3 4 5 6 
#
# 1 141.9926 44.8585 52.2538 -17.2411 -5.1379 2.7736
# 2 44.8585 42.1326 24.4330 -9.8122 -2.9656 -13.0728
# 3 52.2538 24.4330 90.6366 -25.7975 -0.4304 -6.6054
# 4 -17.2411 -9.8122 -25.7975 31.2164 -13.4140 0.5264
# 5 -5.1379 -2.9656 -0.4304 -13.4140 26.5661 -2.7645
# 6 2.7736 -13.0728 -6.6054 0.5264 -2.7645 29.3806
#
#
#
# Elastic Compliance Matrix: (Units=1/GPa)
#
#
# Indices 1 2 3 4 5 6 
#
# 1 0.013422 -0.014608 -0.004828 -0.001322 -0.000706 -0.008895
# 2 -0.014608 0.050653 0.000264 0.012747 0.011857 0.024863
# 3 -0.004828 0.000264 0.018856 0.016461 0.008264 0.005295
# 4 -0.001322 0.012747 0.016461 0.063669 0.034793 0.011631
# 5 -0.000706 0.011857 0.008264 0.034793 0.057781 0.012014
# 6 -0.008895 0.024863 0.005295 0.011631 0.012014 0.048051
#
#
# Mechanical properties :
#
#
# Convention : Reuss Voigt Hill
#
# Bulk Modulus (GPa) = 22.42868 57.53917 39.98392
# Shear Modulus (GPa) = 16.35923 27.64706 22.00315
#
# Velocity S-wave (km/s) = 2.91770 3.79301 3.38377
# Velocity P-wave (km/s) = 4.79812 7.00889 6.00610
#
# Compressibility (1/GPa) = 0.04458578
#
# Stress axis : x y z
#
# Youngs Moduli (GPa) = 74.50409 19.74229 53.03464
#
# Poissons Ratio (x) = 0.28840 0.25606
# Poissons Ratio (y) = 1.08837 -0.01400
# Poissons Ratio (z) = 0.35971 -0.00521
#
# Static dielectric constant tensor:
#      x y z
#    x 3.423020 -0.160410 0.006350 
#    y -0.160410 3.145300 -0.189350 
#    z 0.006350 -0.189350 3.487030 
# 
# 
# High freq. dielectric constant tensor:
#      x y z
#    x 1.749190 -0.017000 -0.005490 
#    y -0.017000 1.703300 -0.014980 
#    z -0.005490 -0.014980 1.743270 
# 
# From -- ./inp_files/342447.got.cif
#   From: 2010.06.25/outbox.cif.g09.slc.cpg/sg2_172_cif.got.tgz:342447.got - 2010.06.27 13:26:56.
