data_PCOD8042071
_publ_section_title
;
Structure prediction by ZEFSAII (Michael W. Deem and Ramdas Pophale) SiO2 
 PCOD8042071
Probable space group: P -1
;
_chemical_formula_sum "Si O2"
_cell_formula_units_Z 12
_cell_length_a 20.855298
_cell_length_b 14.738553
_cell_length_c 11.347907
_cell_angle_alpha 139.812181
_cell_angle_beta 147.671051
_cell_angle_gamma 19.703526
_cell_volume 619.186241
_symmetry_space_group_name_H-M "P -1"
_symmetry_group_IT_number 2
_symmetry_cell_setting 'triclinic'
loop_
_space_group_symop_operation_xyz
x,y,z
-x,-y,-z
loop_
_atom_site_type_symbol
_atom_site_label
_atom_site_fract_x
_atom_site_fract_y
_atom_site_fract_z
Si Si1 0.943234 0.902290 0.355821
Si Si2 0.563779 0.280477 0.342758
Si Si3 0.081313 0.290655 0.059577
Si Si4 0.141484 0.517325 0.853806
Si Si5 0.263836 0.091157 0.553732
Si Si6 0.300119 0.319114 0.322260
O O1 0.184014 0.581259 0.449158
O O2 0.827395 0.935621 0.098354
O O3 0.000000 0.000000 0.500000
O O4 0.773102 0.074426 0.372267
O O5 0.500000 0.500000 0.500000
O O6 0.641935 0.119774 0.420724
O O7 0.340203 0.434640 0.087818
O O8 0.036075 0.290774 0.122525
O O9 0.271256 0.225349 0.282383
O O10 0.836918 0.592234 0.922108
O O11 0.257603 0.246641 0.764607
O O12 0.992883 0.691974 0.677102
O O13 0.431073 0.930323 0.539502
#
# Coordination Sequence:
#
# PCOD8042071 Si02
#       6
#     2   2   2   2   2   2
#     4  10  19  34  57  84 108 148 200 234 289 344
#     4  12  23  40  65  84 120 158 194 248 295 352
#     4   9  18  34  56  84 111 155 190 234 289 338
#     4  11  23  38  61  91 121 155 197 243 294 349
#     4  11  23  38  61  91 121 155 197 243 294 349
#     4   9  18  34  56  84 111 155 190 234 289 338
#
# _framework density 19.380275000000001
#
# number of rings (size 3 to 8) (size 9 to 14) (size 15 to 20)
#    1.000    0.667    1.667    4.500    0.000    1.333 
#    0.000    1.667    0.000    4.000    0.000    0.000 
#    0.000    0.000    0.000    0.000    0.000    0.000 
#
# Total GULP energy -148764.221039 kJ/mol
# GULP energy per Si atom -12397.018420 kJ/mol
# Density = 1.933616 g / cm^3
# Si number density = 19.380275 Si / 1000 Ang^3
#
#
#
# Elastic Constant Matrix: (Units=GPa)
#
#
# Indices 1 2 3 4 5 6 
#
# 1 59.0476 22.0317 23.2668 0.7814 22.8759 -16.9602
# 2 22.0317 101.6372 42.3541 21.0947 8.2997 -9.4778
# 3 23.2668 42.3541 91.4481 5.5591 12.0760 14.6257
# 4 0.7814 21.0947 5.5591 35.3660 2.6042 1.7318
# 5 22.8759 8.2997 12.0760 2.6042 28.3671 5.4814
# 6 -16.9602 -9.4778 14.6257 1.7318 5.4814 36.9354
#
#
#
# Elastic Compliance Matrix: (Units=1/GPa)
#
#
# Indices 1 2 3 4 5 6 
#
# 1 0.044518 0.000861 -0.011834 0.001595 -0.037212 0.030797
# 2 0.000861 0.015709 -0.007964 -0.008345 -0.002753 0.008380
# 3 -0.011834 -0.007964 0.019208 0.002298 0.006610 -0.016172
# 4 0.001595 -0.008345 0.002298 0.033192 -0.002184 -0.003551
# 5 -0.037212 -0.002753 0.006610 -0.002184 0.069367 -0.030603
# 6 0.030797 0.008380 -0.016172 -0.003551 -0.030603 0.054478
#
#
# Mechanical properties :
#
#
# Convention : Reuss Voigt Hill
#
# Bulk Modulus (GPa) = 24.06045 47.49313 35.77679
# Shear Modulus (GPa) = 17.34900 31.09905 24.22402
#
# Velocity S-wave (km/s) = 2.99522 4.01019 3.53927
# Velocity P-wave (km/s) = 4.94000 6.78242 5.93316
#
# Compressibility (1/GPa) = 0.04156198
#
# Stress axis : x y z
#
# Youngs Moduli (GPa) = 22.46258 63.65628 52.06029
#
# Poissons Ratio (x) = -0.05478 0.61607
# Poissons Ratio (y) = -0.01933 0.41461
# Poissons Ratio (z) = 0.26582 0.50697
#
# Static dielectric constant tensor:
#      x y z
#    x 3.573580 -0.153170 0.174940 
#    y -0.153170 3.492970 0.070770 
#    z 0.174940 0.070770 3.418730 
# 
# 
# High freq. dielectric constant tensor:
#      x y z
#    x 1.754920 -0.013490 0.010490 
#    y -0.013490 1.751710 0.008100 
#    z 0.010490 0.008100 1.737850 
# 
# From -- ./inp_files/200877.got.cif
#   From: 2010.06.25/outbox.cif.g09.slc.cpg/sg2_101_cif.got.tgz:200877.got - 2010.06.27 13:26:56.
