data_PCOD8042747
_publ_section_title
;
Structure prediction by ZEFSAII (Michael W. Deem and Ramdas Pophale) SiO2 
 PCOD8042747
Probable space group: P -1
;
_chemical_formula_sum "Si O2"
_cell_formula_units_Z 16
_cell_length_a 8.448523
_cell_length_b 18.142620
_cell_length_c 7.642447
_cell_angle_alpha 102.447531
_cell_angle_beta 105.814122
_cell_angle_gamma 41.699849
_cell_volume 749.635074
_symmetry_space_group_name_H-M "P -1"
_symmetry_group_IT_number 2
_symmetry_cell_setting 'triclinic'
loop_
_space_group_symop_operation_xyz
x,y,z
-x,-y,-z
loop_
_atom_site_type_symbol
_atom_site_label
_atom_site_fract_x
_atom_site_fract_y
_atom_site_fract_z
Si Si1 0.665398 0.221870 0.225730
Si Si2 0.022792 0.355385 0.862176
Si Si3 0.567178 0.759361 0.496490
Si Si4 0.503088 0.567609 0.804693
Si Si5 0.624521 0.873494 0.335875
Si Si6 0.173180 0.107953 0.285547
Si Si7 0.000157 0.676197 0.769067
Si Si8 0.402704 0.336740 0.875568
O O1 0.586833 0.195040 0.348882
O O2 0.571205 0.339157 0.300745
O O3 0.952752 0.123268 0.238074
O O4 0.552492 0.234424 0.010089
O O5 0.745614 0.442893 0.753766
O O6 0.177956 0.232903 0.779382
O O7 0.126872 0.400376 0.846979
O O8 0.033934 0.351961 0.071589
O O9 0.489728 0.860214 0.419584
O O10 0.522128 0.703213 0.324201
O O11 0.853112 0.674645 0.584425
O O12 0.284105 0.581997 0.757792
O O13 0.560002 0.587725 0.024266
O O14 0.769243 0.887172 0.496205
O O15 0.410599 0.985699 0.216904
O O16 0.102367 0.203547 0.193524
#
# Coordination Sequence:
#
# PCOD8042747 Si02
#       8
#     2   2   2   2   2   2   2   2
#     4   9  19  37  62  79 117 153 181 234 281 340
#     4  11  19  36  58  84 115 149 193 232 283 334
#     4  10  19  37  59  87 114 149 192 226 286 338
#     4   9  20  36  57  82 120 149 183 239 279 332
#     4   9  21  36  59  82 115 150 187 243 277 335
#     4   9  19  40  55  82 116 149 189 236 288 328
#     4  10  19  35  61  81 116 150 189 235 281 340
#     4   9  20  36  57  84 116 152 182 233 278 337
#
# _framework density 21.343717999999999
#
# number of rings (size 3 to 8) (size 9 to 14) (size 15 to 20)
#    0.750    1.750    1.250    0.750    0.000    2.000 
#    0.000   19.375    0.000    0.000    0.000    0.000 
#    0.000    0.000    0.000    0.000    0.000    0.000 
#
# Total GULP energy -198226.135745 kJ/mol
# GULP energy per Si atom -12389.133484 kJ/mol
# Density = 2.129514 g / cm^3
# Si number density = 21.343718 Si / 1000 Ang^3
#
#
#
# Elastic Constant Matrix: (Units=GPa)
#
#
# Indices 1 2 3 4 5 6 
#
# 1 55.7483 7.2158 12.0777 2.2737 14.0960 -14.8192
# 2 7.2158 103.3482 8.7396 -1.3004 7.8076 -26.9019
# 3 12.0777 8.7396 61.0549 -3.2602 -0.1332 -3.4275
# 4 2.2737 -1.3004 -3.2602 20.6507 6.5342 1.3701
# 5 14.0960 7.8076 -0.1332 6.5342 22.9326 -6.2101
# 6 -14.8192 -26.9019 -3.4275 1.3701 -6.2101 25.9217
#
#
#
# Elastic Compliance Matrix: (Units=1/GPa)
#
#
# Indices 1 2 3 4 5 6 
#
# 1 0.025662 0.003341 -0.004786 -0.000221 -0.012974 0.014409
# 2 0.003341 0.013788 -0.001777 0.000026 -0.002606 0.015359
# 3 -0.004786 -0.001777 0.017620 0.002545 0.002436 -0.001801
# 4 -0.000221 0.000026 0.002545 0.054781 -0.017310 -0.006806
# 5 -0.012974 -0.002606 0.002436 -0.017310 0.058825 0.005208
# 6 0.014409 0.015359 -0.001801 -0.006806 0.005208 0.064124
#
#
# Mechanical properties :
#
#
# Convention : Reuss Voigt Hill
#
# Bulk Modulus (GPa) = 19.75238 30.69083 25.22161
# Shear Modulus (GPa) = 19.37096 26.70887 23.03991
#
# Velocity S-wave (km/s) = 3.01586 3.54131 3.28909
# Velocity P-wave (km/s) = 4.62620 5.57958 5.12511
#
# Compressibility (1/GPa) = 0.05062682
#
# Stress axis : x y z
#
# Youngs Moduli (GPa) = 38.96841 72.52564 56.75412
#
# Poissons Ratio (x) = -0.24231 0.27162
# Poissons Ratio (y) = -0.13019 0.10083
# Poissons Ratio (z) = 0.18650 0.12886
#
# Static dielectric constant tensor:
#      x y z
#    x 3.772240 -0.146400 0.150030 
#    y -0.146400 3.741160 -0.215200 
#    z 0.150030 -0.215200 3.656610 
# 
# 
# High freq. dielectric constant tensor:
#      x y z
#    x 1.834540 -0.010830 0.010640 
#    y -0.010830 1.816940 -0.019400 
#    z 0.010640 -0.019400 1.815630 
# 
# From -- ./inp_files/212787.got.cif
#   From: 2010.06.25/outbox.cif.g09.slc.cpg/sg2_107_cif.got.tgz:212787.got - 2010.06.27 13:26:56.
