data_PCOD8042367
_publ_section_title
;
Structure prediction by ZEFSAII (Michael W. Deem and Ramdas Pophale) SiO2 
 PCOD8042367
Probable space group: P -1
;
_chemical_formula_sum "Si O2"
_cell_formula_units_Z 16
_cell_length_a 18.398814
_cell_length_b 11.484105
_cell_length_c 12.406992
_cell_angle_alpha 45.974179
_cell_angle_beta 30.359736
_cell_angle_gamma 38.200441
_cell_volume 818.194623
_symmetry_space_group_name_H-M "P -1"
_symmetry_group_IT_number 2
_symmetry_cell_setting 'triclinic'
loop_
_space_group_symop_operation_xyz
x,y,z
-x,-y,-z
loop_
_atom_site_type_symbol
_atom_site_label
_atom_site_fract_x
_atom_site_fract_y
_atom_site_fract_z
Si Si1 0.444062 0.294913 0.213889
Si Si2 0.600596 0.449250 0.070740
Si Si3 0.962875 0.386224 0.208259
Si Si4 0.772386 0.754222 0.316765
Si Si5 0.355128 0.612254 0.469777
Si Si6 0.679969 0.899979 0.108302
Si Si7 0.177622 0.934532 0.861603
Si Si8 0.439918 0.781754 0.435281
O O1 0.471481 0.414451 0.191657
O O2 0.347420 0.204311 0.454368
O O3 0.619873 0.119367 0.060330
O O4 0.345017 0.430191 0.151736
O O5 0.495472 0.573568 0.226611
O O6 0.763593 0.251723 0.021543
O O7 0.904223 0.527015 0.296331
O O8 0.825334 0.331401 0.385110
O O9 0.000000 0.500000 0.000000
O O10 0.140461 0.193402 0.122210
O O11 0.682528 0.803057 0.283217
O O12 0.848231 0.889650 0.145999
O O13 0.340956 0.780280 0.455617
O O14 0.417120 0.429422 0.581525
O O15 0.543462 0.887815 0.215316
O O16 0.308969 0.887514 0.629512
O O17 0.000000 0.000000 0.000000
#
# Coordination Sequence:
#
# PCOD8042367 Si02
#       8
#     2   2   2   2   2   2   2   2
#     4  11  20  37  64  85 117 157 201 241 296 354
#     4  10  22  38  59  88 117 158 194 246 300 354
#     4  10  20  31  56  88 119 145 193 251 291 335
#     4  11  19  36  62  87 116 151 203 248 286 347
#     4  10  19  35  52  83 121 151 190 243 302 345
#     4  11  20  35  60  91 114 154 205 244 287 350
#     4  11  23  36  60  91 117 151 202 252 299 347
#     4  10  20  32  57  82 114 152 194 242 294 348
#
# _framework density 19.555247999999999
#
# number of rings (size 3 to 8) (size 9 to 14) (size 15 to 20)
#    0.000    1.500    6.250    1.125    3.500    1.000 
#    0.000    1.875    2.750    0.000    0.000    0.000 
#    0.000    0.000    0.000    0.000    0.000    0.000 
#
# Total GULP energy -198300.941195 kJ/mol
# GULP energy per Si atom -12393.808825 kJ/mol
# Density = 1.951074 g / cm^3
# Si number density = 19.555248 Si / 1000 Ang^3
#
#
#
# Elastic Constant Matrix: (Units=GPa)
#
#
# Indices 1 2 3 4 5 6 
#
# 1 87.9268 45.7515 34.2164 3.8497 -9.4187 11.5863
# 2 45.7515 96.4418 36.9516 16.2783 2.7667 3.6896
# 3 34.2164 36.9516 57.6936 8.7417 -13.2874 -8.6544
# 4 3.8497 16.2783 8.7417 28.3661 -3.8417 3.3057
# 5 -9.4187 2.7667 -13.2874 -3.8417 28.7957 -0.4566
# 6 11.5863 3.6896 -8.6544 3.3057 -0.4566 33.7539
#
#
#
# Elastic Compliance Matrix: (Units=1/GPa)
#
#
# Indices 1 2 3 4 5 6 
#
# 1 0.019428 -0.006606 -0.008551 0.005282 0.003612 -0.008607
# 2 -0.006606 0.018724 -0.009214 -0.008099 -0.009315 -0.001474
# 3 -0.008551 -0.009214 0.033951 -0.003729 0.013466 0.013194
# 4 0.005282 -0.008099 -0.003729 0.041871 0.006278 -0.005900
# 5 0.003612 -0.009315 0.013466 0.006278 0.043906 0.003210
# 6 -0.008607 -0.001474 0.013194 -0.005900 0.003210 0.036746
#
#
# Mechanical properties :
#
#
# Convention : Reuss Voigt Hill
#
# Bulk Modulus (GPa) = 42.80512 52.87789 47.84151
# Shear Modulus (GPa) = 19.90817 26.52600 23.21709
#
# Velocity S-wave (km/s) = 3.19415 3.68702 3.44940
# Velocity P-wave (km/s) = 5.96157 6.72491 6.35471
#
# Compressibility (1/GPa) = 0.02336169
#
# Stress axis : x y z
#
# Youngs Moduli (GPa) = 51.47271 53.40847 29.45431
#
# Poissons Ratio (x) = 0.35282 0.25185
# Poissons Ratio (y) = 0.34003 0.27138
# Poissons Ratio (z) = 0.44012 0.49209
#
# Static dielectric constant tensor:
#      x y z
#    x 5.051930 3.059360 3.735850 
#    y 3.059360 9.283710 7.153010 
#    z 3.735850 7.153010 12.373330 
# 
# 
# High freq. dielectric constant tensor:
#      x y z
#    x 1.742550 0.028930 -0.001430 
#    y 0.028930 1.757350 0.016640 
#    z -0.001430 0.016640 1.741330 
# 
# From -- ./inp_files/329193.got.cif
#   From: 2010.06.25/outbox.cif.g09.slc.cpg/sg2_165_cif.got.tgz:329193.got - 2010.06.27 13:26:56.
