data_PCOD8042235
_publ_section_title
;
Structure prediction by ZEFSAII (Michael W. Deem and Ramdas Pophale) SiO2 
 PCOD8042235
Probable space group: P -1
;
_chemical_formula_sum "Si O2"
_cell_formula_units_Z 16
_cell_length_a 6.334205
_cell_length_b 12.064333
_cell_length_c 14.535597
_cell_angle_alpha 82.010690
_cell_angle_beta 64.173860
_cell_angle_gamma 47.356434
_cell_volume 714.721437
_symmetry_space_group_name_H-M "P -1"
_symmetry_group_IT_number 2
_symmetry_cell_setting 'triclinic'
loop_
_space_group_symop_operation_xyz
x,y,z
-x,-y,-z
loop_
_atom_site_type_symbol
_atom_site_label
_atom_site_fract_x
_atom_site_fract_y
_atom_site_fract_z
Si Si1 0.396019 0.440778 0.736995
Si Si2 0.224509 0.754706 0.481712
Si Si3 0.410893 0.667035 0.789826
Si Si4 0.341041 0.274184 0.902701
Si Si5 0.798801 0.045385 0.408115
Si Si6 0.755894 0.948159 0.793960
Si Si7 0.748376 0.585060 0.912500
Si Si8 0.307652 0.197078 0.330804
O O1 0.493190 0.388620 0.619000
O O2 0.534511 0.514186 0.734229
O O3 0.530716 0.297853 0.795334
O O4 0.002442 0.574760 0.803847
O O5 0.374776 0.804433 0.510120
O O6 0.064257 0.709567 0.580605
O O7 0.932159 0.898290 0.458191
O O8 0.466174 0.634778 0.892813
O O9 0.636730 0.689362 0.702823
O O10 0.029689 0.816686 0.829053
O O11 0.951041 0.414638 0.940221
O O12 0.464517 0.106762 0.885311
O O13 0.410879 0.285604 0.993444
O O14 0.552630 0.074356 0.377930
O O15 0.099738 0.010123 0.309042
O O16 0.605857 0.894512 0.770806
#
# Coordination Sequence:
#
# PCOD8042235 Si02
#       8
#     2   2   2   2   2   2   2   2
#     4  10  21  39  62  87 121 157 197 249 297 352
#     4  10  19  34  60  89 122 158 202 246 291 351
#     4  11  23  39  60  85 131 161 191 243 307 354
#     4   9  20  43  67  88 116 152 207 253 297 349
#     4   9  18  35  57  89 124 155 198 253 293 345
#     4  10  20  40  62  89 121 159 199 249 292 358
#     4   9  21  42  63  91 118 152 200 256 302 350
#     4  10  22  36  56  89 126 161 196 239 297 359
#
# _framework density 22.386346
#
# number of rings (size 3 to 8) (size 9 to 14) (size 15 to 20)
#    0.750    1.500    1.250    1.125    0.000    3.500 
#    0.000   11.250    0.000    0.000    0.000    0.000 
#    0.000    0.000    0.000    0.000    0.000    0.000 
#
# Total GULP energy -198323.287379 kJ/mol
# GULP energy per Si atom -12395.205461 kJ/mol
# Density = 2.233539 g / cm^3
# Si number density = 22.386346 Si / 1000 Ang^3
#
#
#
# Elastic Constant Matrix: (Units=GPa)
#
#
# Indices 1 2 3 4 5 6 
#
# 1 80.6390 36.1626 34.2511 4.3558 30.2532 -0.2119
# 2 36.1626 81.1096 38.9072 13.6506 25.8863 1.1252
# 3 34.2511 38.9072 119.0797 33.9935 35.7325 -13.9395
# 4 4.3558 13.6506 33.9935 28.0131 -1.6041 12.2181
# 5 30.2532 25.8863 35.7325 -1.6041 42.2087 -9.4466
# 6 -0.2119 1.1252 -13.9395 12.2181 -9.4466 25.0423
#
#
#
# Elastic Compliance Matrix: (Units=1/GPa)
#
#
# Indices 1 2 3 4 5 6 
#
# 1 0.019670 -0.005058 -0.006813 0.012656 -0.007527 -0.012412
# 2 -0.005058 0.018686 0.002359 -0.013133 -0.009612 0.003212
# 3 -0.006813 0.002359 0.053355 -0.094502 -0.031013 0.063945
# 4 0.012656 -0.013133 -0.094502 0.217694 0.056654 -0.136748
# 5 -0.007527 -0.009612 -0.031013 0.056654 0.058347 -0.022526
# 6 -0.012412 0.003212 0.063945 -0.136748 -0.022526 0.133499
#
#
# Mechanical properties :
#
#
# Convention : Reuss Voigt Hill
#
# Bulk Modulus (GPa) = 13.75738 55.49667 34.62702
# Shear Modulus (GPa) = 9.18267 30.48667 19.83467
#
# Velocity S-wave (km/s) = 2.02751 3.69432 2.97983
# Velocity P-wave (km/s) = 3.41172 6.56061 5.22883
#
# Compressibility (1/GPa) = 0.07268828
#
# Stress axis : x y z
#
# Youngs Moduli (GPa) = 50.83848 53.51676 18.74223
#
# Poissons Ratio (x) = 0.27067 0.12768
# Poissons Ratio (y) = 0.25712 -0.04421
# Poissons Ratio (z) = 0.34634 -0.12623
#
# Static dielectric constant tensor:
#      x y z
#    x 3.756310 0.072250 0.254860 
#    y 0.072250 3.850860 -0.121340 
#    z 0.254860 -0.121340 4.022360 
# 
# 
# High freq. dielectric constant tensor:
#      x y z
#    x 1.856540 0.010920 0.019160 
#    y 0.010920 1.873970 -0.012000 
#    z 0.019160 -0.012000 1.883430 
# 
# From -- ./inp_files/468287.got.cif
#   From: 2010.06.25/outbox.cif.g09.slc.cpg/sg2_235_cif.got.tgz:468287.got - 2010.06.27 13:26:56.
