data_PCOD8042137
_publ_section_title
;
Structure prediction by ZEFSAII (Michael W. Deem and Ramdas Pophale) SiO2 
 PCOD8042137
Probable space group: P -1
;
_chemical_formula_sum "Si O2"
_cell_formula_units_Z 16
_cell_length_a 12.806478
_cell_length_b 14.252043
_cell_length_c 12.203640
_cell_angle_alpha 92.525952
_cell_angle_beta 33.256313
_cell_angle_gamma 117.059375
_cell_volume 788.661519
_symmetry_space_group_name_H-M "P -1"
_symmetry_group_IT_number 2
_symmetry_cell_setting 'triclinic'
loop_
_space_group_symop_operation_xyz
x,y,z
-x,-y,-z
loop_
_atom_site_type_symbol
_atom_site_label
_atom_site_fract_x
_atom_site_fract_y
_atom_site_fract_z
Si Si1 0.177299 0.253713 0.987253
Si Si2 0.688528 0.873416 0.009664
Si Si3 0.832178 0.362000 0.067572
Si Si4 0.335907 0.449875 0.526117
Si Si5 0.769007 0.783607 0.496346
Si Si6 0.897346 0.861475 0.623687
Si Si7 0.283295 0.879537 0.773002
Si Si8 0.708521 0.115472 0.576125
O O1 0.457109 0.428102 0.743386
O O2 0.264039 0.178911 0.932484
O O3 0.034123 0.197678 0.987387
O O4 0.955086 0.215401 0.269965
O O5 0.658083 0.793168 0.925862
O O6 0.387006 0.818605 0.288967
O O7 0.975080 0.047539 0.754263
O O8 0.549186 0.294941 0.252809
O O9 0.734206 0.239412 0.225182
O O10 0.000000 0.500000 0.000000
O O11 0.057144 0.412840 0.779860
O O12 0.500000 0.500000 0.500000
O O13 0.195657 0.298731 0.605312
O O14 0.770264 0.759931 0.624290
O O15 0.171190 0.904202 0.432683
O O16 0.000000 0.000000 0.500000
O O17 0.500000 0.000000 0.500000
O O18 0.402188 0.955995 0.791369
#
# Coordination Sequence:
#
# PCOD8042137 Si02
#       8
#     2   2   2   2   2   2   2   2
#     4  10  22  40  57  90 130 157 204 252 299 366
#     4  10  22  39  65  93 123 159 206 249 307 363
#     4  12  23  38  59  87 123 158 199 245 299 362
#     4  12  24  42  60  89 124 164 204 246 304 369
#     4  11  23  40  64  91 122 161 201 255 305 360
#     4   9  20  39  61  92 125 154 205 257 301 356
#     4  10  19  34  58  86 120 157 192 238 304 355
#     4  10  21  38  62  91 123 160 202 256 302 358
#
# _framework density 20.287535999999999
#
# number of rings (size 3 to 8) (size 9 to 14) (size 15 to 20)
#    0.000    1.500    2.500    3.750    0.000    6.500 
#    0.000    2.500    0.000    4.500    0.000    0.000 
#    0.000    0.000    0.000    0.000    0.000    0.000 
#
# Total GULP energy -198292.260416 kJ/mol
# GULP energy per Si atom -12393.266276 kJ/mol
# Density = 2.024136 g / cm^3
# Si number density = 20.287536 Si / 1000 Ang^3
#
#
#
# Elastic Constant Matrix: (Units=GPa)
#
#
# Indices 1 2 3 4 5 6 
#
# 1 147.9787 54.0169 38.5825 6.6253 -14.7308 -2.7444
# 2 54.0169 106.2777 30.6383 12.4038 4.1498 -0.2116
# 3 38.5825 30.6383 108.3200 8.6470 -2.6401 -11.1182
# 4 6.6253 12.4038 8.6470 40.7774 -16.3596 -3.6349
# 5 -14.7308 4.1498 -2.6401 -16.3596 25.4995 3.5079
# 6 -2.7444 -0.2116 -11.1182 -3.6349 3.5079 30.4539
#
#
#
# Elastic Compliance Matrix: (Units=1/GPa)
#
#
# Indices 1 2 3 4 5 6 
#
# 1 0.009960 -0.005247 -0.002217 0.004026 0.009031 -0.000508
# 2 -0.005247 0.013788 -0.001789 -0.006972 -0.009833 -0.000730
# 3 -0.002217 -0.001789 0.011014 -0.001673 -0.001442 0.003775
# 4 0.004026 -0.006972 -0.001673 0.037299 0.027074 0.001037
# 5 0.009031 -0.009833 -0.001442 0.027074 0.063791 -0.003897
# 6 -0.000508 -0.000730 0.003775 0.001037 -0.003897 0.034737
#
#
# Mechanical properties :
#
#
# Convention : Reuss Voigt Hill
#
# Bulk Modulus (GPa) = 61.51587 67.67240 64.59414
# Shear Modulus (GPa) = 25.70519 35.30206 30.50362
#
# Velocity S-wave (km/s) = 3.56342 4.17596 3.88179
# Velocity P-wave (km/s) = 6.87884 7.52865 7.21107
#
# Compressibility (1/GPa) = 0.01625597
#
# Stress axis : x y z
#
# Youngs Moduli (GPa) = 100.39756 72.52662 90.79714
#
# Poissons Ratio (x) = 0.38053 0.20131
# Poissons Ratio (y) = 0.52677 0.16244
# Poissons Ratio (z) = 0.22259 0.12976
#
# Static dielectric constant tensor:
#      x y z
#    x 4.241730 0.295950 -0.000810 
#    y 0.295950 3.956070 0.067950 
#    z -0.000810 0.067950 3.597830 
# 
# 
# High freq. dielectric constant tensor:
#      x y z
#    x 1.798420 -0.007510 -0.000920 
#    y -0.007510 1.784540 0.008090 
#    z -0.000920 0.008090 1.789250 
# 
# From -- ./inp_files/434022.got.cif
#   From: 2010.06.25/outbox.cif.g09.slc.cpg/sg2_218_cif.got.tgz:434022.got - 2010.06.27 13:26:56.
