data_PCOD8042640
_publ_section_title
;
Structure prediction by ZEFSAII (Michael W. Deem and Ramdas Pophale) SiO2 
 PCOD8042640
Probable space group: P -1
;
_chemical_formula_sum "Si O2"
_cell_formula_units_Z 16
_cell_length_a 8.917030
_cell_length_b 14.939720
_cell_length_c 18.367257
_cell_angle_alpha 42.449890
_cell_angle_beta 41.462845
_cell_angle_gamma 31.417758
_cell_volume 809.526167
_symmetry_space_group_name_H-M "P -1"
_symmetry_group_IT_number 2
_symmetry_cell_setting 'triclinic'
loop_
_space_group_symop_operation_xyz
x,y,z
-x,-y,-z
loop_
_atom_site_type_symbol
_atom_site_label
_atom_site_fract_x
_atom_site_fract_y
_atom_site_fract_z
Si Si1 0.655186 0.125000 0.691969
Si Si2 0.476159 0.119951 0.326513
Si Si3 0.075860 0.467508 0.076173
Si Si4 0.461470 0.414143 0.498014
Si Si5 0.252672 0.166874 0.940030
Si Si6 0.375655 0.696250 0.934493
Si Si7 0.052734 0.208377 0.558394
Si Si8 0.966690 0.787159 0.688297
O O1 0.420019 0.282370 0.624510
O O2 0.435072 0.153983 0.814795
O O3 0.878623 0.152654 0.620756
O O4 0.881744 0.924445 0.699246
O O5 0.551686 0.241739 0.200852
O O6 0.265546 0.199402 0.427200
O O7 0.324087 0.107473 0.321474
O O8 0.775212 0.915824 0.359063
O O9 0.442699 0.319233 0.050860
O O10 0.931819 0.390560 0.206149
O O11 0.913561 0.654170 0.061417
O O12 0.000000 0.500000 0.000000
O O13 0.500000 0.500000 0.500000
O O14 0.746958 0.281291 0.421504
O O15 0.173710 0.585322 0.455133
O O16 0.993894 0.165070 0.005758
O O17 0.500000 0.000000 0.000000
O O18 0.500000 0.500000 0.000000
#
# Coordination Sequence:
#
# PCOD8042640 Si02
#       8
#     2   2   2   2   2   2   2   2
#     4  11  22  36  62  87 119 158 204 246 299 362
#     4  10  20  37  60  88 120 155 196 249 305 361
#     4  10  21  39  62  89 119 159 205 251 306 359
#     4  10  19  35  59  87 111 153 197 239 297 356
#     4  11  22  39  61  90 123 161 208 249 303 367
#     4   9  21  37  61  85 123 160 203 244 302 358
#     4  10  21  36  62  89 119 155 200 245 307 360
#     4  11  21  38  61  86 121 155 198 249 304 359
#
# _framework density 19.764648000000001
#
# number of rings (size 3 to 8) (size 9 to 14) (size 15 to 20)
#    0.000    1.750    2.500    3.375    3.500    1.000 
#    0.000    8.750    0.000    0.000    0.000    0.000 
#    0.000    0.000    0.000    0.000    0.000    0.000 
#
# Total GULP energy -198237.447929 kJ/mol
# GULP energy per Si atom -12389.840496 kJ/mol
# Density = 1.971966 g / cm^3
# Si number density = 19.764648 Si / 1000 Ang^3
#
#
#
# Elastic Constant Matrix: (Units=GPa)
#
#
# Indices 1 2 3 4 5 6 
#
# 1 72.7001 51.7389 56.4159 0.3464 14.7702 -17.0004
# 2 51.7389 127.9451 56.6192 -5.1747 5.9667 -19.1697
# 3 56.4159 56.6192 164.6234 -7.8962 9.8086 -21.1237
# 4 0.3464 -5.1747 -7.8962 36.9423 -3.1461 8.8968
# 5 14.7702 5.9667 9.8086 -3.1461 27.2818 -2.2121
# 6 -17.0004 -19.1697 -21.1237 8.8968 -2.2121 34.3539
#
#
#
# Elastic Compliance Matrix: (Units=1/GPa)
#
#
# Indices 1 2 3 4 5 6 
#
# 1 0.026914 -0.007156 -0.005504 -0.004941 -0.011069 0.006508
# 2 -0.007156 0.011537 -0.001342 0.001114 0.002118 0.001919
# 3 -0.005504 -0.001342 0.008658 0.001386 0.000444 0.001520
# 4 -0.004941 0.001114 0.001386 0.030001 0.004709 -0.008437
# 5 -0.011069 0.002118 0.000444 0.004709 0.042363 -0.002514
# 6 0.006508 0.001919 0.001520 -0.008437 -0.002514 0.036358
#
#
# Mechanical properties :
#
#
# Convention : Reuss Voigt Hill
#
# Bulk Modulus (GPa) = 52.34775 77.20185 64.77480
# Shear Modulus (GPa) = 26.28757 33.08192 29.68474
#
# Velocity S-wave (km/s) = 3.65091 4.09564 3.87965
# Velocity P-wave (km/s) = 6.65697 7.84290 7.27414
#
# Compressibility (1/GPa) = 0.01910302
#
# Stress axis : x y z
#
# Youngs Moduli (GPa) = 37.15595 86.67389 115.50649
#
# Poissons Ratio (x) = 0.62025 0.63580
# Poissons Ratio (y) = 0.26589 0.15503
# Poissons Ratio (z) = 0.20452 0.11633
#
# Static dielectric constant tensor:
#      x y z
#    x 3.602970 -0.524750 -0.088920 
#    y -0.524750 3.899800 -0.324590 
#    z -0.088920 -0.324590 3.835160 
# 
# 
# High freq. dielectric constant tensor:
#      x y z
#    x 1.745740 -0.019740 0.001010 
#    y -0.019740 1.774210 -0.018300 
#    z 0.001010 -0.018300 1.790480 
# 
# From -- ./inp_files/199453.got.cif
#   From: 2010.06.25/outbox.cif.g09.slc.cpg/sg2_100_cif.got.tgz:199453.got - 2010.06.27 13:26:56.
