data_PCOD8042030
_publ_section_title
;
Structure prediction by ZEFSAII (Michael W. Deem and Ramdas Pophale) SiO2 
 PCOD8042030
Probable space group: P -1
;
_chemical_formula_sum "Si O2"
_cell_formula_units_Z 16
_cell_length_a 19.573918
_cell_length_b 12.094337
_cell_length_c 14.696476
_cell_angle_alpha 28.769277
_cell_angle_beta 150.482687
_cell_angle_gamma 133.650406
_cell_volume 785.435263
_symmetry_space_group_name_H-M "P -1"
_symmetry_group_IT_number 2
_symmetry_cell_setting 'triclinic'
loop_
_space_group_symop_operation_xyz
x,y,z
-x,-y,-z
loop_
_atom_site_type_symbol
_atom_site_label
_atom_site_fract_x
_atom_site_fract_y
_atom_site_fract_z
Si Si1 0.389167 0.371048 0.928033
Si Si2 0.679426 0.478882 0.458994
Si Si3 0.329492 0.088794 0.739401
Si Si4 0.070851 0.655570 0.408030
Si Si5 0.532574 0.162668 0.618941
Si Si6 0.005459 0.805378 0.024845
Si Si7 0.759862 0.708450 0.697049
Si Si8 0.660353 0.300208 0.831755
O O1 0.385074 0.372460 0.813038
O O2 0.237891 0.506782 0.700455
O O3 0.500000 0.500000 0.000000
O O4 0.438266 0.090504 0.217034
O O5 0.720070 0.653555 0.453327
O O6 0.553691 0.366311 0.428063
O O7 0.827785 0.267289 0.761985
O O8 0.270557 0.101895 0.558417
O O9 0.500000 0.000000 0.000000
O O10 0.287033 0.876393 0.894256
O O11 0.000000 0.500000 0.500000
O O12 0.059006 0.906770 0.262231
O O13 0.992737 0.706542 0.182613
O O14 0.370497 0.234512 0.421277
O O15 0.659826 0.134957 0.862611
O O16 0.910642 0.693755 0.929731
O O17 0.776535 0.448087 0.857796
O O18 0.500000 0.500000 0.500000
#
# Coordination Sequence:
#
# PCOD8042030 Si02
#       8
#     2   2   2   2   2   2   2   2
#     4  11  23  38  62  93 116 150 207 258 299 350
#     4  11  23  39  61  85 124 163 193 247 305 354
#     4  12  19  36  61  86 122 160 199 240 303 350
#     4  10  22  43  66  82 120 165 198 248 309 359
#     4  11  20  37  61  88 120 155 200 249 298 350
#     4  10  24  42  59  90 123 159 203 246 301 358
#     4  11  22  37  61  91 123 160 204 244 289 364
#     4  10  19  34  56  86 117 156 191 240 295 352
#
# _framework density 20.37087
#
# number of rings (size 3 to 8) (size 9 to 14) (size 15 to 20)
#    0.000    1.250    5.000    2.250    0.000    3.000 
#    0.000    0.625    0.000    0.000    0.000    0.000 
#    0.000    0.000    0.000    0.000    0.000    0.000 
#
# Total GULP energy -198356.382823 kJ/mol
# GULP energy per Si atom -12397.273926 kJ/mol
# Density = 2.032450 g / cm^3
# Si number density = 20.370870 Si / 1000 Ang^3
#
#
#
# Elastic Constant Matrix: (Units=GPa)
#
#
# Indices 1 2 3 4 5 6 
#
# 1 98.2567 17.4366 28.9180 -4.9748 -11.4486 10.8056
# 2 17.4366 116.7317 27.5202 -1.2031 -5.5587 4.6137
# 3 28.9180 27.5202 57.9993 -13.4538 -6.1129 7.9184
# 4 -4.9748 -1.2031 -13.4538 40.1781 -0.5886 -3.0433
# 5 -11.4486 -5.5587 -6.1129 -0.5886 28.4606 -11.2761
# 6 10.8056 4.6137 7.9184 -3.0433 -11.2761 27.6318
#
#
#
# Elastic Compliance Matrix: (Units=1/GPa)
#
#
# Indices 1 2 3 4 5 6 
#
# 1 0.012412 -0.000331 -0.005545 -0.000444 0.002907 -0.002072
# 2 -0.000331 0.009742 -0.004683 -0.001306 0.000737 0.000002
# 3 -0.005545 -0.004683 0.024386 0.007144 0.001136 -0.002787
# 4 -0.000444 -0.001306 0.007144 0.027411 0.002633 0.002438
# 5 0.002907 0.000737 0.001136 0.002633 0.043223 0.016343
# 6 -0.002072 0.000002 -0.002787 0.002438 0.016343 0.044737
#
#
# Mechanical properties :
#
#
# Convention : Reuss Voigt Hill
#
# Bulk Modulus (GPa) = 39.33685 46.74858 43.04272
# Shear Modulus (GPa) = 26.10916 32.52829 29.31873
#
# Velocity S-wave (km/s) = 3.58396 4.00034 3.79786
# Velocity P-wave (km/s) = 6.03975 6.65849 6.35665
#
# Compressibility (1/GPa) = 0.02542145
#
# Stress axis : x y z
#
# Youngs Moduli (GPa) = 80.56487 102.65159 41.00706
#
# Poissons Ratio (x) = 0.03397 0.22740
# Poissons Ratio (y) = 0.02666 0.19203
# Poissons Ratio (z) = 0.44677 0.48071
#
# Static dielectric constant tensor:
#      x y z
#    x 2.334410 0.197100 0.033130 
#    y 0.197100 3.717190 -0.167220 
#    z 0.033130 -0.167220 3.471560 
# 
# 
# High freq. dielectric constant tensor:
#      x y z
#    x 1.796470 -0.004170 -0.011690 
#    y -0.004170 1.797210 -0.018340 
#    z -0.011690 -0.018340 1.785080 
# 
# From -- ./inp_files/541061.got.cif
#   From: 2010.06.25/outbox.cif.g09.slc.cpg/sg2_271_cif.got.tgz:541061.got - 2010.06.27 13:26:56.
