data_PCOD8042216
_publ_section_title
;
Structure prediction by ZEFSAII (Michael W. Deem and Ramdas Pophale) SiO2 
 PCOD8042216
Probable space group: P -1
;
_chemical_formula_sum "Si O2"
_cell_formula_units_Z 12
_cell_length_a 14.150588
_cell_length_b 7.180862
_cell_length_c 11.656596
_cell_angle_alpha 102.838320
_cell_angle_beta 41.648657
_cell_angle_gamma 77.617401
_cell_volume 621.224483
_symmetry_space_group_name_H-M "P -1"
_symmetry_group_IT_number 2
_symmetry_cell_setting 'triclinic'
loop_
_space_group_symop_operation_xyz
x,y,z
-x,-y,-z
loop_
_atom_site_type_symbol
_atom_site_label
_atom_site_fract_x
_atom_site_fract_y
_atom_site_fract_z
Si Si1 0.522247 0.027050 0.352561
Si Si2 0.015846 0.105793 0.614844
Si Si3 0.794387 0.493835 0.021728
Si Si4 0.748131 0.203338 0.191332
Si Si5 0.844317 0.661401 0.390398
Si Si6 0.888629 0.196602 0.295853
O O1 0.500000 0.000000 0.500000
O O2 0.587187 0.193981 0.300096
O O3 0.337169 0.143278 0.477184
O O4 0.661055 0.763783 0.140219
O O5 0.121935 0.909524 0.590788
O O6 0.127119 0.215053 0.510386
O O7 0.000000 0.000000 0.500000
O O8 0.821319 0.317844 0.868859
O O9 0.990006 0.429908 0.859745
O O10 0.726958 0.432223 0.186912
O O11 0.750891 0.225265 0.330226
O O12 0.921387 0.962208 0.956304
O O13 0.843835 0.447329 0.406176
#
# Coordination Sequence:
#
# PCOD8042216 Si02
#       6
#     2   2   2   2   2   2
#     4  12  23  34  57  90 123 155 187 228 289 350
#     4   9  20  40  63  82 108 155 199 241 291 330
#     4   9  22  40  56  84 123 152 188 238 282 343
#     4  10  20  35  57  84 122 156 183 229 292 345
#     4  10  22  37  58  86 114 152 195 234 285 338
#     4  10  19  34  60  83 115 154 191 232 286 345
#
# _framework density 19.316687999999999
#
# number of rings (size 3 to 8) (size 9 to 14) (size 15 to 20)
#    1.000    1.000    1.667    2.000    2.333    6.000 
#    0.000    0.833    0.000    5.000    0.000    0.000 
#    0.000    0.000    0.000    0.000    0.000    0.000 
#
# Total GULP energy -148662.670527 kJ/mol
# GULP energy per Si atom -12388.555877 kJ/mol
# Density = 1.927272 g / cm^3
# Si number density = 19.316688 Si / 1000 Ang^3
#
#
#
# Elastic Constant Matrix: (Units=GPa)
#
#
# Indices 1 2 3 4 5 6 
#
# 1 98.9213 42.5047 36.4480 15.1260 11.3206 14.5859
# 2 42.5047 115.6226 29.7673 18.4524 -1.9096 13.3085
# 3 36.4480 29.7673 58.8152 11.4754 -7.9497 1.0103
# 4 15.1260 18.4524 11.4754 24.1717 -2.5971 0.9263
# 5 11.3206 -1.9096 -7.9497 -2.5971 37.7384 1.8740
# 6 14.5859 13.3085 1.0103 0.9263 1.8740 24.6268
#
#
#
# Elastic Compliance Matrix: (Units=1/GPa)
#
#
# Indices 1 2 3 4 5 6 
#
# 1 0.017365 -0.002362 -0.009425 -0.005069 -0.007272 -0.007878
# 2 -0.002362 0.011821 -0.003251 -0.005775 0.000457 -0.004674
# 3 -0.009425 -0.003251 0.026085 -0.003407 0.007634 0.005816
# 4 -0.005069 -0.005775 -0.003407 0.050822 0.003806 0.004062
# 5 -0.007272 0.000457 0.007634 0.003806 0.030509 0.001282
# 6 -0.007878 -0.004674 0.005816 0.004062 0.001282 0.047309
#
#
# Mechanical properties :
#
#
# Convention : Reuss Voigt Hill
#
# Bulk Modulus (GPa) = 39.68665 54.53322 47.10993
# Shear Modulus (GPa) = 22.48367 28.28330 25.38348
#
# Velocity S-wave (km/s) = 3.41537 3.83062 3.62894
# Velocity P-wave (km/s) = 6.01190 6.91790 6.48075
#
# Compressibility (1/GPa) = 0.02519739
#
# Stress axis : x y z
#
# Youngs Moduli (GPa) = 57.58642 84.59536 38.33669
#
# Poissons Ratio (x) = 0.19979 0.36130
# Poissons Ratio (y) = 0.13600 0.12461
# Poissons Ratio (z) = 0.54272 0.27498
#
# Static dielectric constant tensor:
#      x y z
#    x 3.213690 0.288360 -0.062070 
#    y 0.288360 3.675940 0.166100 
#    z -0.062070 0.166100 3.270080 
# 
# 
# High freq. dielectric constant tensor:
#      x y z
#    x 1.721060 0.019540 -0.018160 
#    y 0.019540 1.770430 0.019410 
#    z -0.018160 0.019410 1.725480 
# 
# From -- ./inp_files/303711.got.cif
#   From: 2010.06.25/outbox.cif.g09.slc.cpg/sg2_152_cif.got.tgz:303711.got - 2010.06.27 13:26:56.
