data_PCOD8042411
_publ_section_title
;
Structure prediction by ZEFSAII (Michael W. Deem and Ramdas Pophale) SiO2 
 PCOD8042411
Probable space group: P -1
;
_chemical_formula_sum "Si O2"
_cell_formula_units_Z 14
_cell_length_a 8.623091
_cell_length_b 17.815573
_cell_length_c 8.308997
_cell_angle_alpha 71.543777
_cell_angle_beta 86.346725
_cell_angle_gamma 35.376167
_cell_volume 655.597668
_symmetry_space_group_name_H-M "P -1"
_symmetry_group_IT_number 2
_symmetry_cell_setting 'triclinic'
loop_
_space_group_symop_operation_xyz
x,y,z
-x,-y,-z
loop_
_atom_site_type_symbol
_atom_site_label
_atom_site_fract_x
_atom_site_fract_y
_atom_site_fract_z
Si Si1 0.120329 0.355615 0.913643
Si Si2 0.309992 0.970814 0.475324
Si Si3 0.723366 0.504740 0.568835
Si Si4 0.279106 0.810385 0.522888
Si Si5 0.432934 0.351759 0.059516
Si Si6 0.826127 0.804024 0.762945
Si Si7 0.378517 0.516422 0.744204
O O1 0.023677 0.402814 0.700532
O O2 0.864183 0.495418 0.946787
O O3 0.388019 0.298546 0.972276
O O4 0.188660 0.235458 0.039016
O O5 0.314829 0.888136 0.426570
O O6 0.609640 0.851107 0.626891
O O7 0.263782 0.066142 0.296186
O O8 0.050258 0.076616 0.551827
O O9 0.482722 0.675579 0.480746
O O10 0.619257 0.472956 0.696961
O O11 0.778598 0.460622 0.410041
O O12 0.346682 0.767914 0.736751
O O13 0.544484 0.380547 0.933855
O O14 0.142084 0.665718 0.757930
#
# Coordination Sequence:
#
# PCOD8042411 Si02
#       7
#     2   2   2   2   2   2   2
#     4   9  18  32  53  79 105 130 173 223 259 301
#     4  10  20  32  56  78 106 138 178 214 248 304
#     4  10  21  35  54  79 108 136 169 219 269 311
#     4  10  19  35  55  82 102 139 175 216 255 308
#     4   9  18  32  53  79 105 130 173 223 259 301
#     4  10  19  35  55  82 102 139 175 216 255 308
#     4  10  21  35  54  79 108 136 169 219 269 311
#
# _framework density 21.354562999999999
#
# number of rings (size 3 to 8) (size 9 to 14) (size 15 to 20)
#    0.000    2.286    2.857    0.000    4.000    2.286 
#    0.000    0.000    0.000   10.286    0.000    0.000 
#    0.000    0.000    0.000    0.000    0.000    0.000 
#
# Total GULP energy -173558.639451 kJ/mol
# GULP energy per Si atom -12397.045675 kJ/mol
# Density = 2.130596 g / cm^3
# Si number density = 21.354563 Si / 1000 Ang^3
#
#
#
# Elastic Constant Matrix: (Units=GPa)
#
#
# Indices 1 2 3 4 5 6 
#
# 1 63.5716 9.4735 0.7714 -7.1540 -7.4450 17.1021
# 2 9.4735 38.0089 18.0278 -8.4560 -11.6958 16.9654
# 3 0.7714 18.0278 52.3320 -8.0393 -6.1853 13.4544
# 4 -7.1540 -8.4560 -8.0393 21.8268 8.7214 0.6553
# 5 -7.4450 -11.6958 -6.1853 8.7214 30.1197 -7.9210
# 6 17.1021 16.9654 13.4544 0.6553 -7.9210 30.7002
#
#
#
# Elastic Compliance Matrix: (Units=1/GPa)
#
#
# Indices 1 2 3 4 5 6 
#
# 1 0.020308 0.001210 0.004301 0.009116 0.000038 -0.014052
# 2 0.001210 0.043066 -0.007033 0.012390 0.006754 -0.019913
# 3 0.004301 -0.007033 0.025274 0.009013 -0.001779 -0.010238
# 4 0.009116 0.012390 0.009013 0.063568 -0.015044 -0.021113
# 5 0.000038 0.006754 -0.001779 -0.015044 0.041974 0.008177
# 6 -0.014052 -0.019913 -0.010238 -0.021113 0.008177 0.058452
#
#
# Mechanical properties :
#
#
# Convention : Reuss Voigt Hill
#
# Bulk Modulus (GPa) = 11.68135 23.38419 17.53277
# Shear Modulus (GPa) = 17.59192 24.90533 21.24862
#
# Velocity S-wave (km/s) = 2.87331 3.41878 3.15785
# Velocity P-wave (km/s) = 4.06078 5.15348 4.63941
#
# Compressibility (1/GPa) = 0.08560655
#
# Stress axis : x y z
#
# Youngs Moduli (GPa) = 49.24089 23.21992 39.56575
#
# Poissons Ratio (x) = -0.02809 -0.17019
# Poissons Ratio (y) = -0.05957 0.27825
# Poissons Ratio (z) = -0.21181 0.16330
#
# Static dielectric constant tensor:
#      x y z
#    x 4.119760 0.248740 0.019180 
#    y 0.248740 3.454040 -0.287270 
#    z 0.019180 -0.287270 3.926100 
# 
# 
# High freq. dielectric constant tensor:
#      x y z
#    x 1.857990 0.018060 -0.002530 
#    y 0.018060 1.788980 -0.030440 
#    z -0.002530 -0.030440 1.824030 
# 
# From -- ./inp_files/165502.got.cif
#   From: 2010.06.25/outbox.cif.g09.slc.cpg/sg2_83_cif.got.tgz:165502.got - 2010.06.27 13:26:56.
