data_PCOD8042724
_publ_section_title
;
Structure prediction by ZEFSAII (Michael W. Deem and Ramdas Pophale) SiO2 
 PCOD8042724
Probable space group: P -1
;
_chemical_formula_sum "Si O2"
_cell_formula_units_Z 16
_cell_length_a 9.918392
_cell_length_b 18.384359
_cell_length_c 9.584361
_cell_angle_alpha 66.551309
_cell_angle_beta 137.357513
_cell_angle_gamma 137.582998
_cell_volume 757.210993
_symmetry_space_group_name_H-M "P -1"
_symmetry_group_IT_number 2
_symmetry_cell_setting 'triclinic'
loop_
_space_group_symop_operation_xyz
x,y,z
-x,-y,-z
loop_
_atom_site_type_symbol
_atom_site_label
_atom_site_fract_x
_atom_site_fract_y
_atom_site_fract_z
Si Si1 0.259723 0.226089 0.741710
Si Si2 0.238036 0.947446 0.714982
Si Si3 0.359297 0.810824 0.873174
Si Si4 0.698835 0.951205 0.769591
Si Si5 0.707779 0.632607 0.546018
Si Si6 0.752639 0.781586 0.671296
Si Si7 0.440268 0.840108 0.369732
Si Si8 0.970476 0.809275 0.108798
O O1 0.403905 0.340676 0.681779
O O2 0.957090 0.122987 0.517017
O O3 0.219279 0.243356 0.856866
O O4 0.456577 0.204012 0.897906
O O5 0.410413 0.913621 0.902251
O O6 0.032388 0.904638 0.723596
O O7 0.455188 0.081567 0.747993
O O8 0.449314 0.841832 0.755794
O O9 0.027174 0.692056 0.715007
O O10 0.646484 0.921265 0.591829
O O11 0.738381 0.056174 0.750562
O O12 0.000000 0.000000 0.000000
O O13 0.500000 0.500000 0.500000
O O14 0.708337 0.680884 0.655130
O O15 0.479288 0.757210 0.438229
O O16 0.775451 0.785280 0.852937
O O17 0.106105 0.762282 0.208101
#
# Coordination Sequence:
#
# PCOD8042724 Si02
#       8
#     2   2   2   2   2   2   2   2
#     4  10  20  37  63  87 115 155 202 237 286 361
#     4  10  21  34  50  83 127 167 198 221 277 357
#     4  10  19  35  60  91 116 154 203 235 282 347
#     4  12  19  33  59  90 133 169 190 221 279 360
#     4  10  25  48  65  81 109 151 210 266 306 343
#     4  10  24  37  53  87 119 153 200 254 290 345
#     4  12  20  33  55  82 130 172 192 222 289 347
#     4  12  22  34  57  91 130 160 191 232 284 361
#
# _framework density 21.130175000000001
#
# number of rings (size 3 to 8) (size 9 to 14) (size 15 to 20)
#    0.000    1.500    5.000    2.250    0.000    5.000 
#    0.000    0.625    0.000    5.250    0.000    0.000 
#    0.000    0.000    0.000    0.000    0.000    0.000 
#
# Total GULP energy -198351.943407 kJ/mol
# GULP energy per Si atom -12396.996463 kJ/mol
# Density = 2.108208 g / cm^3
# Si number density = 21.130175 Si / 1000 Ang^3
#
#
#
# Elastic Constant Matrix: (Units=GPa)
#
#
# Indices 1 2 3 4 5 6 
#
# 1 89.5901 11.4913 30.8654 -16.1726 12.7710 -2.7907
# 2 11.4913 77.9305 11.6953 -13.1222 6.1771 -0.7957
# 3 30.8654 11.6953 87.8351 -29.5371 9.1888 -3.7654
# 4 -16.1726 -13.1222 -29.5371 25.0498 -2.5807 1.8534
# 5 12.7710 6.1771 9.1888 -2.5807 54.5343 -9.0849
# 6 -2.7907 -0.7957 -3.7654 1.8534 -9.0849 18.5394
#
#
#
# Elastic Compliance Matrix: (Units=1/GPa)
#
#
# Indices 1 2 3 4 5 6 
#
# 1 0.013400 -0.000550 -0.002748 0.004891 -0.002421 -0.000240
# 2 -0.000550 0.014264 0.001282 0.008537 -0.001426 -0.000763
# 3 -0.002748 0.001282 0.019783 0.022003 -0.001688 0.000632
# 4 0.004891 0.008537 0.022003 0.073435 -0.002874 -0.003178
# 5 -0.002421 -0.001426 -0.001688 -0.002874 0.020835 0.009728
# 6 -0.000240 -0.000763 0.000632 -0.003178 0.009728 0.059084
#
#
# Mechanical properties :
#
#
# Convention : Reuss Voigt Hill
#
# Bulk Modulus (GPa) = 23.03441 40.38443 31.70942
# Shear Modulus (GPa) = 22.79951 33.04495 27.92223
#
# Velocity S-wave (km/s) = 3.28838 3.95888 3.63910
# Velocity P-wave (km/s) = 5.03416 6.32856 5.71810
#
# Compressibility (1/GPa) = 0.04341330
#
# Stress axis : x y z
#
# Youngs Moduli (GPa) = 74.62812 70.10885 50.54894
#
# Poissons Ratio (x) = 0.03859 0.13889
# Poissons Ratio (y) = 0.04108 -0.06478
# Poissons Ratio (z) = 0.20504 -0.08985
#
# Static dielectric constant tensor:
#      x y z
#    x 4.088430 -0.151660 0.185380 
#    y -0.151660 3.465570 -0.486210 
#    z 0.185380 -0.486210 4.009320 
# 
# 
# High freq. dielectric constant tensor:
#      x y z
#    x 1.851590 -0.005310 0.003110 
#    y -0.005310 1.753510 -0.036670 
#    z 0.003110 -0.036670 1.843820 
# 
# From -- ./inp_files/217381.got.cif
#   From: 2010.06.25/outbox.cif.g09.slc.cpg/sg2_109_cif.got.tgz:217381.got - 2010.06.27 13:26:56.
