data_PCOD8042233
_publ_section_title
;
Structure prediction by ZEFSAII (Michael W. Deem and Ramdas Pophale) SiO2 
 PCOD8042233
Probable space group: P -1
;
_chemical_formula_sum "Si O2"
_cell_formula_units_Z 16
_cell_length_a 11.321258
_cell_length_b 9.262122
_cell_length_c 13.056969
_cell_angle_alpha 44.337475
_cell_angle_beta 72.894627
_cell_angle_gamma 52.874003
_cell_volume 739.306607
_symmetry_space_group_name_H-M "P -1"
_symmetry_group_IT_number 2
_symmetry_cell_setting 'triclinic'
loop_
_space_group_symop_operation_xyz
x,y,z
-x,-y,-z
loop_
_atom_site_type_symbol
_atom_site_label
_atom_site_fract_x
_atom_site_fract_y
_atom_site_fract_z
Si Si1 0.719547 0.617448 0.966660
Si Si2 0.134099 0.300406 0.274465
Si Si3 0.619178 0.960980 0.127815
Si Si4 0.927585 0.013719 0.688445
Si Si5 0.133239 0.238273 0.994262
Si Si6 0.348602 0.747843 0.866112
Si Si7 0.237346 0.919434 0.599664
Si Si8 0.647800 0.454951 0.431912
O O1 0.716898 0.760164 0.792390
O O2 0.554589 0.795208 0.971125
O O3 0.856181 0.573001 0.026520
O O4 0.766237 0.336523 0.069134
O O5 0.996371 0.600322 0.141879
O O6 0.073056 0.146671 0.322945
O O7 0.188169 0.195135 0.429249
O O8 0.703486 0.934708 0.014578
O O9 0.621525 0.718846 0.277552
O O10 0.701693 0.014359 0.169068
O O11 0.787678 0.307885 0.551379
O O12 0.087823 0.971685 0.664758
O O13 0.897590 0.939612 0.844634
O O14 0.361610 0.824065 0.707865
O O15 0.500000 0.500000 0.000000
O O16 0.312799 0.703713 0.602642
O O17 0.500000 0.500000 0.500000
#
# Coordination Sequence:
#
# PCOD8042233 Si02
#       8
#     2   2   2   2   2   2   2   2
#     4  10  20  38  59  83 115 153 191 234 289 351
#     4  10  19  34  60  89 112 147 195 237 286 350
#     4  11  22  38  57  86 118 149 194 245 286 333
#     4  10  20  35  60  92 119 151 193 237 290 349
#     4  11  20  35  62  91 114 145 194 247 286 331
#     4  10  23  40  59  82 115 159 198 232 286 352
#     4  11  21  40  62  83 118 160 192 233 290 352
#     4  11  22  38  62  94 120 146 190 245 292 338
#
# _framework density 21.641901000000001
#
# number of rings (size 3 to 8) (size 9 to 14) (size 15 to 20)
#    0.000    1.500    0.000    9.375    0.000    3.000 
#    0.000   11.875    0.000    0.000    0.000    0.000 
#    0.000    0.000    0.000    0.000    0.000    0.000 
#
# Total GULP energy -198255.970536 kJ/mol
# GULP energy per Si atom -12390.998158 kJ/mol
# Density = 2.159264 g / cm^3
# Si number density = 21.641901 Si / 1000 Ang^3
#
#
#
# Elastic Constant Matrix: (Units=GPa)
#
#
# Indices 1 2 3 4 5 6 
#
# 1 60.4768 43.8894 42.1692 14.2061 6.5876 -10.7911
# 2 43.8894 57.0812 32.2713 10.2888 -11.2975 -4.7842
# 3 42.1692 32.2713 158.6242 19.9041 13.5093 -0.7884
# 4 14.2061 10.2888 19.9041 29.6953 -9.2320 -4.2497
# 5 6.5876 -11.2975 13.5093 -9.2320 35.7330 4.6809
# 6 -10.7911 -4.7842 -0.7884 -4.2497 4.6809 39.9600
#
#
#
# Elastic Compliance Matrix: (Units=1/GPa)
#
#
# Indices 1 2 3 4 5 6 
#
# 1 0.068247 -0.053885 -0.001122 -0.022709 -0.036877 0.013861
# 2 -0.053885 0.065009 -0.004203 0.016386 0.037555 -0.009508
# 3 -0.001122 -0.004203 0.008663 -0.005696 -0.005795 -0.000562
# 4 -0.022709 0.016386 -0.005696 0.050096 0.024706 -0.001849
# 5 -0.036877 0.037555 -0.005795 0.024706 0.056485 -0.009566
# 6 0.013861 -0.009508 -0.000562 -0.001849 -0.009566 0.028543
#
#
# Mechanical properties :
#
#
# Convention : Reuss Voigt Hill
#
# Bulk Modulus (GPa) = 42.55039 56.98245 49.76642
# Shear Modulus (GPa) = 12.39792 31.60114 21.99953
#
# Velocity S-wave (km/s) = 2.39606 3.82538 3.19176
# Velocity P-wave (km/s) = 5.23055 6.77482 6.05214
#
# Compressibility (1/GPa) = 0.02350155
#
# Stress axis : x y z
#
# Youngs Moduli (GPa) = 14.65262 15.38247 115.43590
#
# Poissons Ratio (x) = 0.82888 0.12946
# Poissons Ratio (y) = 0.78955 0.48514
# Poissons Ratio (z) = 0.01643 0.06465
#
# Static dielectric constant tensor:
#      x y z
#    x 4.256030 0.040690 0.056110 
#    y 0.040690 3.824210 -0.049220 
#    z 0.056110 -0.049220 4.381080 
# 
# 
# High freq. dielectric constant tensor:
#      x y z
#    x 1.838840 -0.021940 0.000550 
#    y -0.021940 1.819660 -0.003420 
#    z 0.000550 -0.003420 1.875410 
# 
# From -- ./inp_files/286096.got.cif
#   From: 2010.06.25/outbox.cif.g09.slc.cpg/sg2_144_cif.got.tgz:286096.got - 2010.06.27 13:26:56.
