data_PCOD8042872
_publ_section_title
;
Structure prediction by ZEFSAII (Michael W. Deem and Ramdas Pophale) SiO2 
 PCOD8042872
Probable space group: P -1
;
_chemical_formula_sum "Si O2"
_cell_formula_units_Z 14
_cell_length_a 7.114805
_cell_length_b 11.569294
_cell_length_c 13.316745
_cell_angle_alpha 43.910484
_cell_angle_beta 43.294608
_cell_angle_gamma 54.925307
_cell_volume 518.393218
_symmetry_space_group_name_H-M "P -1"
_symmetry_group_IT_number 2
_symmetry_cell_setting 'triclinic'
loop_
_space_group_symop_operation_xyz
x,y,z
-x,-y,-z
loop_
_atom_site_type_symbol
_atom_site_label
_atom_site_fract_x
_atom_site_fract_y
_atom_site_fract_z
Si Si1 0.575606 0.029908 0.150751
Si Si2 0.230780 0.714614 0.229367
Si Si3 0.677223 0.667542 0.559296
Si Si4 0.862705 0.354960 0.318039
Si Si5 0.006329 0.148162 0.214650
Si Si6 0.691151 0.879609 0.597621
Si Si7 0.227910 0.267418 0.862986
O O1 0.287522 0.034969 0.201945
O O2 0.527601 0.059865 0.268953
O O3 0.740408 0.846551 0.178243
O O4 0.749155 0.175234 0.947996
O O5 0.233353 0.520787 0.320980
O O6 0.478925 0.740174 0.191360
O O7 0.938244 0.766024 0.365670
O O8 0.460674 0.674613 0.546396
O O9 0.548308 0.756052 0.655571
O O10 0.887657 0.540143 0.236454
O O11 0.989425 0.322911 0.176418
O O12 0.019954 0.214871 0.415422
O O13 0.007748 0.190777 0.069564
O O14 0.753914 0.044429 0.409074
#
# Coordination Sequence:
#
# PCOD8042872 Si02
#       7
#     2   2   2   2   2   2   2
#     4  10  19  35  63  92 125 167 207 255 319 375
#     4   9  19  37  61  91 127 169 207 255 319 373
#     4  10  21  40  64  91 128 168 211 258 311 377
#     4  10  22  39  67  97 122 163 215 262 311 370
#     4  10  20  39  64  92 124 166 211 255 314 376
#     4  11  23  41  66  94 128 165 208 262 316 372
#     4  10  19  37  67  93 123 168 212 255 314 378
#
# _framework density 27.006526000000001
#
# number of rings (size 3 to 8) (size 9 to 14) (size 15 to 20)
#    0.000    2.000    0.000    5.571    0.000    2.286 
#    0.000   17.857    0.000   28.286    0.000    0.000 
#    0.000    0.000    0.000    0.000    0.000    0.000 
#
# Total GULP energy -173581.739022 kJ/mol
# GULP energy per Si atom -12398.695644 kJ/mol
# Density = 2.694506 g / cm^3
# Si number density = 27.006526 Si / 1000 Ang^3
#
#
#
# Elastic Constant Matrix: (Units=GPa)
#
#
# Indices 1 2 3 4 5 6 
#
# 1 61.4769 29.8232 20.7611 -2.2431 4.1669 5.4993
# 2 29.8232 210.6302 80.0271 -5.2136 15.0804 12.4061
# 3 20.7611 80.0271 159.6154 9.2961 2.1174 28.7648
# 4 -2.2431 -5.2136 9.2961 32.1610 4.8497 -2.2755
# 5 4.1669 15.0804 2.1174 4.8497 22.2875 2.5864
# 6 5.4993 12.4061 28.7648 -2.2755 2.5864 30.1296
#
#
#
# Elastic Compliance Matrix: (Units=1/GPa)
#
#
# Indices 1 2 3 4 5 6 
#
# 1 0.017870 -0.001766 -0.001333 0.001619 -0.002262 -0.000946
# 2 -0.001766 0.006621 -0.003459 0.002749 -0.004593 0.001501
# 3 -0.001333 -0.003459 0.009923 -0.004671 0.003647 -0.008472
# 4 0.001619 0.002749 -0.004671 0.034987 -0.010091 0.006541
# 5 -0.002262 -0.004593 0.003647 -0.010091 0.050981 -0.006316
# 6 -0.000946 0.001501 -0.008472 0.006541 -0.006316 0.041869
#
#
# Mechanical properties :
#
#
# Convention : Reuss Voigt Hill
#
# Bulk Modulus (GPa) = 46.95371 76.99391 61.97381
# Shear Modulus (GPa) = 27.40230 36.98970 32.19600
#
# Velocity S-wave (km/s) = 3.18882 3.70490 3.45651
# Velocity P-wave (km/s) = 5.56614 6.84639 6.23919
#
# Compressibility (1/GPa) = 0.02129757
#
# Stress axis : x y z
#
# Youngs Moduli (GPa) = 55.95937 151.04526 100.77355
#
# Poissons Ratio (x) = 0.26676 0.13431
# Poissons Ratio (y) = 0.09883 0.34860
# Poissons Ratio (z) = 0.07458 0.52250
#
# Static dielectric constant tensor:
#      x y z
#    x 4.589860 -0.130430 -0.115200 
#    y -0.130430 5.205170 0.085040 
#    z -0.115200 0.085040 4.833530 
# 
# 
# High freq. dielectric constant tensor:
#      x y z
#    x 2.084310 -0.013590 -0.007710 
#    y -0.013590 2.108630 0.001790 
#    z -0.007710 0.001790 2.071890 
# 
# From -- ./inp_files/497371.got.cif
#   From: 2010.06.25/outbox.cif.g09.slc.cpg/sg2_249_cif.got.tgz:497371.got - 2010.06.27 13:26:56.
