data_PCOD8042337
_publ_section_title
;
Structure prediction by ZEFSAII (Michael W. Deem and Ramdas Pophale) SiO2 
 PCOD8042337
Probable space group: P -1
;
_chemical_formula_sum "Si O2"
_cell_formula_units_Z 16
_cell_length_a 15.475609
_cell_length_b 32.410042
_cell_length_c 9.350800
_cell_angle_alpha 147.234200
_cell_angle_beta 40.846869
_cell_angle_gamma 161.981151
_cell_volume 758.588304
_symmetry_space_group_name_H-M "P -1"
_symmetry_group_IT_number 2
_symmetry_cell_setting 'triclinic'
loop_
_space_group_symop_operation_xyz
x,y,z
-x,-y,-z
loop_
_atom_site_type_symbol
_atom_site_label
_atom_site_fract_x
_atom_site_fract_y
_atom_site_fract_z
Si Si1 0.793619 0.356374 0.046142
Si Si2 0.041251 0.249160 0.262484
Si Si3 0.562192 0.614627 0.606236
Si Si4 0.699723 0.859127 0.785733
Si Si5 0.534333 0.066985 0.512016
Si Si6 0.016537 0.127921 0.398961
Si Si7 0.198893 0.031078 0.325128
Si Si8 0.394181 0.688813 0.157816
O O1 0.617218 0.320855 0.272277
O O2 0.135334 0.543015 0.170152
O O3 0.718391 0.232201 0.820762
O O4 0.698779 0.319645 0.895285
O O5 0.245935 0.412980 0.395586
O O6 0.211966 0.322929 0.411310
O O7 0.724291 0.121511 0.313884
O O8 0.980869 0.139609 0.934499
O O9 0.688562 0.687417 0.500355
O O10 0.546334 0.686424 0.922862
O O11 0.886520 0.875430 0.596259
O O12 0.654308 0.879951 0.754516
O O13 0.870343 0.002880 0.094664
O O14 0.500000 0.000000 0.500000
O O15 0.223150 0.930759 0.432627
O O16 0.417529 0.150237 0.530478
O O17 0.000000 0.000000 0.500000
#
# Coordination Sequence:
#
# PCOD8042337 Si02
#       8
#     2   2   2   2   2   2   2   2
#     4  10  22  39  67  93 118 170 217 253 298 383
#     4  11  22  36  59  91 125 162 206 252 313 368
#     4  11  19  38  63  92 118 165 213 254 292 380
#     4  10  20  37  62  92 124 160 213 256 309 361
#     4  11  20  34  57  92 124 155 209 259 302 358
#     4  10  19  34  64  90 119 160 216 257 291 371
#     4  12  24  40  62  94 128 161 204 265 320 363
#     4  11  22  40  67  95 124 159 214 264 307 364
#
# _framework density 21.091809999999999
#
# number of rings (size 3 to 8) (size 9 to 14) (size 15 to 20)
#    0.000    1.250    6.250    0.750    3.500    0.500 
#    0.000    0.625    0.000    2.250    0.000    0.000 
#    0.000    0.000    0.000    0.000    0.000    0.000 
#
# Total GULP energy -198271.085034 kJ/mol
# GULP energy per Si atom -12391.942815 kJ/mol
# Density = 2.104380 g / cm^3
# Si number density = 21.091810 Si / 1000 Ang^3
#
#
#
# Elastic Constant Matrix: (Units=GPa)
#
#
# Indices 1 2 3 4 5 6 
#
# 1 42.1112 5.2846 9.9374 2.1640 -19.7024 4.6820
# 2 5.2846 123.6389 29.7299 4.5520 -14.2902 9.2674
# 3 9.9374 29.7299 88.7130 10.2848 -13.6858 3.2423
# 4 2.1640 4.5520 10.2848 25.0673 0.6588 -12.4564
# 5 -19.7024 -14.2902 -13.6858 0.6588 27.0705 -2.8977
# 6 4.6820 9.2674 3.2423 -12.4564 -2.8977 32.4233
#
#
#
# Elastic Compliance Matrix: (Units=1/GPa)
#
#
# Indices 1 2 3 4 5 6 
#
# 1 0.037824 0.002345 0.000550 -0.008002 0.028522 -0.006712
# 2 0.002345 0.009490 -0.002157 -0.002908 0.005324 -0.003477
# 3 0.000550 -0.002157 0.013786 -0.006946 0.006083 -0.002966
# 4 -0.008002 -0.002908 -0.006946 0.055762 -0.009740 0.023233
# 5 0.028522 0.005324 0.006083 -0.009740 0.063359 -0.004328
# 6 -0.006712 -0.003477 -0.002966 0.023233 -0.004328 0.041641
#
#
# Mechanical properties :
#
#
# Convention : Reuss Voigt Hill
#
# Bulk Modulus (GPa) = 15.98062 38.26299 27.12180
# Shear Modulus (GPa) = 20.72596 30.87965 25.80281
#
# Velocity S-wave (km/s) = 3.13813 3.83045 3.50145
# Velocity P-wave (km/s) = 4.55232 6.14359 5.40682
#
# Compressibility (1/GPa) = 0.06257580
#
# Stress axis : x y z
#
# Youngs Moduli (GPa) = 26.43801 105.37821 72.53928
#
# Poissons Ratio (x) = -0.24714 -0.03990
# Poissons Ratio (y) = -0.06201 0.15649
# Poissons Ratio (z) = -0.01454 0.22733
#
# Static dielectric constant tensor:
#      x y z
#    x 4.102770 -0.036760 -0.679520 
#    y -0.036760 4.637880 0.151480 
#    z -0.679520 0.151480 3.252320 
# 
# 
# High freq. dielectric constant tensor:
#      x y z
#    x 1.820950 -0.000010 -0.028320 
#    y -0.000010 1.850400 0.005750 
#    z -0.028320 0.005750 1.778970 
# 
# From -- ./inp_files/320981.got.cif
#   From: 2010.06.25/outbox.cif.g09.slc.cpg/sg2_161_cif.got.tgz:320981.got - 2010.06.27 13:26:56.
