data_PCOD8042127
_publ_section_title
;
Structure prediction by ZEFSAII (Michael W. Deem and Ramdas Pophale) SiO2 
 PCOD8042127
Probable space group: P -1
;
_chemical_formula_sum "Si O2"
_cell_formula_units_Z 14
_cell_length_a 13.279834
_cell_length_b 13.715867
_cell_length_c 9.391584
_cell_angle_alpha 132.678470
_cell_angle_beta 145.987767
_cell_angle_gamma 51.100276
_cell_volume 694.330186
_symmetry_space_group_name_H-M "P -1"
_symmetry_group_IT_number 2
_symmetry_cell_setting 'triclinic'
loop_
_space_group_symop_operation_xyz
x,y,z
-x,-y,-z
loop_
_atom_site_type_symbol
_atom_site_label
_atom_site_fract_x
_atom_site_fract_y
_atom_site_fract_z
Si Si1 0.318201 0.862921 0.923283
Si Si2 0.620916 0.276763 0.438897
Si Si3 0.973444 0.906275 0.742140
Si Si4 0.412879 0.978614 0.721936
Si Si5 0.321824 0.461228 0.132017
Si Si6 0.407149 0.578043 0.836141
Si Si7 0.013525 0.600590 0.486881
O O1 0.290817 0.805313 0.675989
O O2 0.414354 0.738386 0.010445
O O3 0.124433 0.927685 0.823317
O O4 0.445420 0.979016 0.185342
O O5 0.611482 0.177723 0.464731
O O6 0.413438 0.350358 0.241947
O O7 0.744492 0.390937 0.732909
O O8 0.002829 0.752804 0.681765
O O9 0.782502 0.936880 0.464355
O O10 0.000000 0.000000 0.000000
O O11 0.500000 0.000000 0.000000
O O12 0.482048 0.483338 0.231543
O O13 0.153999 0.402413 0.815851
O O14 0.196539 0.556266 0.565520
O O15 0.500000 0.500000 0.000000
O O16 0.000000 0.500000 0.500000
#
# Coordination Sequence:
#
# PCOD8042127 Si02
#       7
#     2   2   2   2   2   2   2
#     4   9  21  41  59  86 123 161 198 259 304 358
#     4   9  20  38  65  87 120 160 204 255 299 361
#     4  11  25  41  61  93 126 160 207 256 304 372
#     4  10  21  40  63  86 120 164 206 246 306 360
#     4  10  20  40  59  90 124 153 203 254 299 364
#     4  10  19  34  58  84 115 158 197 238 307 357
#     4  11  22  37  61  85 122 161 195 247 307 357
#
# _framework density 20.163318
#
# number of rings (size 3 to 8) (size 9 to 14) (size 15 to 20)
#    0.000    2.000    1.429    2.571    2.000    2.857 
#    2.571   15.714    0.000    0.000    0.000    0.000 
#    0.000    0.000    0.000    0.000    0.000    0.000 
#
# Total GULP energy -173473.299409 kJ/mol
# GULP energy per Si atom -12390.949958 kJ/mol
# Density = 2.011743 g / cm^3
# Si number density = 20.163318 Si / 1000 Ang^3
#
#
#
# Elastic Constant Matrix: (Units=GPa)
#
#
# Indices 1 2 3 4 5 6 
#
# 1 98.0929 58.5515 47.0968 3.8627 28.7632 0.1301
# 2 58.5515 105.0619 45.5549 5.2566 12.8106 13.6687
# 3 47.0968 45.5549 106.9098 -0.9026 12.1609 -11.1122
# 4 3.8627 5.2566 -0.9026 33.6833 -1.0146 -0.9064
# 5 28.7632 12.8106 12.1609 -1.0146 34.7161 3.3878
# 6 0.1301 13.6687 -11.1122 -0.9064 3.3878 40.5948
#
#
#
# Elastic Compliance Matrix: (Units=1/GPa)
#
#
# Indices 1 2 3 4 5 6 
#
# 1 0.021305 -0.008927 -0.003762 -0.001473 -0.013375 0.002991
# 2 -0.008927 0.017074 -0.004492 -0.001857 0.003324 -0.007269
# 3 -0.003762 -0.004492 0.013540 0.001625 -0.000439 0.005304
# 4 -0.001473 -0.001857 0.001625 0.030295 0.002068 0.001579
# 5 -0.013375 0.003324 -0.000439 0.002068 0.039306 -0.004431
# 6 0.002991 -0.007269 0.005304 0.001579 -0.004431 0.028929
#
#
# Mechanical properties :
#
#
# Convention : Reuss Voigt Hill
#
# Bulk Modulus (GPa) = 56.95646 68.05233 62.50439
# Shear Modulus (GPa) = 26.22430 32.38960 29.30695
#
# Velocity S-wave (km/s) = 3.61029 4.01229 3.81659
# Velocity P-wave (km/s) = 6.75927 7.43562 7.10550
#
# Compressibility (1/GPa) = 0.01755727
#
# Stress axis : x y z
#
# Youngs Moduli (GPa) = 46.93805 58.56777 73.85537
#
# Poissons Ratio (x) = 0.52281 0.27783
# Poissons Ratio (y) = 0.41900 0.33178
# Poissons Ratio (z) = 0.17657 0.26311
#
# Static dielectric constant tensor:
#      x y z
#    x 3.691000 0.152070 0.217720 
#    y 0.152070 3.958750 0.112350 
#    z 0.217720 0.112350 3.821050 
# 
# 
# High freq. dielectric constant tensor:
#      x y z
#    x 1.775200 0.017400 0.015560 
#    y 0.017400 1.799960 0.001180 
#    z 0.015560 0.001180 1.779260 
# 
# From -- ./inp_files/454141.got.cif
#   From: 2010.06.25/outbox.cif.g09.slc.cpg/sg2_228_cif.got.tgz:454141.got - 2010.06.27 13:26:56.
