data_PCOD8042922
_publ_section_title
;
Structure prediction by ZEFSAII (Michael W. Deem and Ramdas Pophale) SiO2 
 PCOD8042922
Probable space group: P -1
;
_chemical_formula_sum "Si O2"
_cell_formula_units_Z 14
_cell_length_a 24.026761
_cell_length_b 9.803208
_cell_length_c 18.662954
_cell_angle_alpha 30.420242
_cell_angle_beta 162.583119
_cell_angle_gamma 141.131049
_cell_volume 637.246434
_symmetry_space_group_name_H-M "P -1"
_symmetry_group_IT_number 2
_symmetry_cell_setting 'triclinic'
loop_
_space_group_symop_operation_xyz
x,y,z
-x,-y,-z
loop_
_atom_site_type_symbol
_atom_site_label
_atom_site_fract_x
_atom_site_fract_y
_atom_site_fract_z
Si Si1 0.602201 0.840435 0.629356
Si Si2 0.588822 0.243059 0.907075
Si Si3 0.263496 0.150442 0.862683
Si Si4 0.348686 0.839758 0.820201
Si Si5 0.041243 0.169421 0.710866
Si Si6 0.576877 0.270008 0.284953
Si Si7 0.004158 0.731313 0.237081
O O1 0.533187 0.559992 0.665745
O O2 0.500000 0.000000 0.500000
O O3 0.528904 0.035129 0.382497
O O4 0.838045 0.772168 0.954579
O O5 0.407134 0.128518 0.754950
O O6 0.701597 0.221544 0.131443
O O7 0.709241 0.061535 0.073108
O O8 0.205570 0.010732 0.927317
O O9 0.080515 0.405438 0.499433
O O10 0.451264 0.264453 0.059989
O O11 0.155296 0.910557 0.505045
O O12 0.513229 0.572461 0.109909
O O13 0.000000 0.500000 0.500000
O O14 0.100203 0.090223 0.901821
O O15 0.808458 0.175137 0.599800
#
# Coordination Sequence:
#
# PCOD8042922 Si02
#       7
#     2   2   2   2   2   2   2
#     4  12  26  43  64  93 140 174 209 263 339 387
#     4  11  24  41  63 100 132 168 213 279 319 376
#     4  11  22  39  72  98 127 163 227 268 318 373
#     4  11  21  40  66  99 127 168 219 267 313 381
#     4  10  19  35  65 100 124 161 217 267 312 372
#     4  12  22  43  68  97 128 174 213 266 326 395
#     4  11  22  40  68  98 124 173 222 262 313 393
#
# _framework density 21.969522000000001
#
# number of rings (size 3 to 8) (size 9 to 14) (size 15 to 20)
#    0.000    0.857    5.714    4.286    0.000    2.857 
#    0.000    0.000    0.000    3.429    0.000    0.000 
#    0.000    0.000    0.000    0.000    0.000    0.000 
#
# Total GULP energy -173517.390497 kJ/mol
# GULP energy per Si atom -12394.099321 kJ/mol
# Density = 2.191952 g / cm^3
# Si number density = 21.969522 Si / 1000 Ang^3
#
#
#
# Elastic Constant Matrix: (Units=GPa)
#
#
# Indices 1 2 3 4 5 6 
#
# 1 119.2627 20.4929 0.5073 -16.9490 19.5946 -18.1992
# 2 20.4929 87.7981 25.3494 -11.1765 -2.8378 -1.5300
# 3 0.5073 25.3494 52.7962 8.8153 4.5550 -6.9637
# 4 -16.9490 -11.1765 8.8153 33.6127 0.7739 1.9519
# 5 19.5946 -2.8378 4.5550 0.7739 27.1157 3.6217
# 6 -18.1992 -1.5300 -6.9637 1.9519 3.6217 41.0742
#
#
#
# Elastic Compliance Matrix: (Units=1/GPa)
#
#
# Indices 1 2 3 4 5 6 
#
# 1 0.012285 -0.003271 0.002503 0.004319 -0.010628 0.006477
# 2 -0.003271 0.015826 -0.009539 0.006170 0.005885 -0.003289
# 3 0.002503 -0.009539 0.026527 -0.009056 -0.007856 0.006374
# 4 0.004319 0.006170 -0.009056 0.036454 -0.001866 -0.000960
# 5 -0.010628 0.005885 -0.007856 -0.001866 0.047878 -0.009955
# 6 0.006477 -0.003289 0.006374 -0.000960 -0.009955 0.029098
#
#
# Mechanical properties :
#
#
# Convention : Reuss Voigt Hill
#
# Bulk Modulus (GPa) = 29.39145 39.17291 34.28218
# Shear Modulus (GPa) = 24.99723 34.59437 29.79580
#
# Velocity S-wave (km/s) = 3.37681 3.97249 3.68670
# Velocity P-wave (km/s) = 5.34894 6.23781 5.81039
#
# Compressibility (1/GPa) = 0.03402350
#
# Stress axis : x y z
#
# Youngs Moduli (GPa) = 81.40212 63.18865 37.69708
#
# Poissons Ratio (x) = 0.20667 -0.09434
# Poissons Ratio (y) = 0.26624 0.35959
# Poissons Ratio (z) = -0.20371 0.60275
#
# Static dielectric constant tensor:
#      x y z
#    x 4.542110 -0.092000 -0.051030 
#    y -0.092000 4.101750 0.019430 
#    z -0.051030 0.019430 3.719950 
# 
# 
# High freq. dielectric constant tensor:
#      x y z
#    x 1.888480 0.003010 0.000600 
#    y 0.003010 1.860790 0.021700 
#    z 0.000600 0.021700 1.829600 
# 
# From -- ./inp_files/184468.got.cif
#   From: 2010.06.25/outbox.cif.g09.slc.cpg/sg2_93_cif.got.tgz:184468.got - 2010.06.27 13:26:56.
