data_PCOD8042918
_publ_section_title
;
Structure prediction by ZEFSAII (Michael W. Deem and Ramdas Pophale) SiO2 
 PCOD8042918
Probable space group: P -1
;
_chemical_formula_sum "Si O2"
_cell_formula_units_Z 14
_cell_length_a 21.845059
_cell_length_b 8.835420
_cell_length_c 5.356480
_cell_angle_alpha 108.818785
_cell_angle_beta 61.725144
_cell_angle_gamma 145.342611
_cell_volume 513.108146
_symmetry_space_group_name_H-M "P -1"
_symmetry_group_IT_number 2
_symmetry_cell_setting 'triclinic'
loop_
_space_group_symop_operation_xyz
x,y,z
-x,-y,-z
loop_
_atom_site_type_symbol
_atom_site_label
_atom_site_fract_x
_atom_site_fract_y
_atom_site_fract_z
Si Si1 0.533590 0.246477 0.062394
Si Si2 0.813428 0.250711 0.085405
Si Si3 0.033670 0.888620 0.973974
Si Si4 0.733010 0.419600 0.266733
Si Si5 0.559499 0.385827 0.589860
Si Si6 0.799832 0.676548 0.769042
Si Si7 0.217678 0.003171 0.488369
O O1 0.486249 0.252550 0.401950
O O2 0.479976 0.235945 0.915242
O O3 0.674317 0.535346 0.927866
O O4 0.500000 0.000000 0.000000
O O5 0.706326 0.181299 0.233743
O O6 0.813262 0.167879 0.311122
O O7 0.805395 0.113954 0.799693
O O8 0.932106 0.571456 0.000705
O O9 0.139782 0.020324 0.661182
O O10 0.091365 0.005671 0.205826
O O11 0.000000 0.000000 0.000000
O O12 0.618342 0.315885 0.440758
O O13 0.820977 0.624578 0.439615
O O14 0.796499 0.549232 0.945262
O O15 0.647856 0.696118 0.589961
#
# Coordination Sequence:
#
# PCOD8042918 Si02
#       7
#     2   2   2   2   2   2   2
#     4  10  19  35  64  99 120 145 200 265 315 351
#     4  12  26  39  60  90 126 168 209 252 296 358
#     4  12  24  44  64  86 128 168 215 250 301 357
#     4  10  20  40  60  86 116 164 209 241 303 351
#     4  10  20  39  64  89 126 159 199 251 310 367
#     4  10  21  37  64  86 121 153 207 250 306 353
#     4  12  25  43  57  91 131 161 207 252 303 365
#
# _framework density 27.284696
#
# number of rings (size 3 to 8) (size 9 to 14) (size 15 to 20)
#    0.000    1.143    4.286    3.000    2.000    1.714 
#    0.000    0.000    0.000    0.000    0.000   80.000 
#    0.000    0.000    0.000    0.000    0.000    0.000 
#
# Total GULP energy -173438.397860 kJ/mol
# GULP energy per Si atom -12388.456990 kJ/mol
# Density = 2.722260 g / cm^3
# Si number density = 27.284696 Si / 1000 Ang^3
#
#
#
# Elastic Constant Matrix: (Units=GPa)
#
#
# Indices 1 2 3 4 5 6 
#
# 1 68.7071 -0.8337 35.2343 5.9261 11.9056 -19.6501
# 2 -0.8337 103.4838 33.4440 10.7179 27.8565 -7.9817
# 3 35.2343 33.4440 162.2785 21.2068 63.7187 -12.7687
# 4 5.9261 10.7179 21.2068 42.1418 -6.2866 8.1392
# 5 11.9056 27.8565 63.7187 -6.2866 54.0962 -0.3207
# 6 -19.6501 -7.9817 -12.7687 8.1392 -0.3207 34.0442
#
#
#
# Elastic Compliance Matrix: (Units=1/GPa)
#
#
# Indices 1 2 3 4 5 6 
#
# 1 0.020880 0.004082 -0.000586 -0.007497 -0.006793 0.014518
# 2 0.004082 0.013756 0.003234 -0.009333 -0.012823 0.008905
# 3 -0.000586 0.003234 0.018277 -0.015727 -0.024828 0.010801
# 4 -0.007497 -0.009333 -0.015727 0.043910 0.029949 -0.022630
# 5 -0.006793 -0.012823 -0.024828 0.029949 0.059173 -0.022842
# 6 0.014518 0.008905 0.010801 -0.022630 -0.022842 0.049087
#
#
# Mechanical properties :
#
#
# Convention : Reuss Voigt Hill
#
# Bulk Modulus (GPa) = 15.06608 52.23984 33.65296
# Shear Modulus (GPa) = 23.39220 43.83145 33.61182
#
# Velocity S-wave (km/s) = 2.93121 4.01240 3.51364
# Velocity P-wave (km/s) = 4.12187 6.37602 5.36858
#
# Compressibility (1/GPa) = 0.06637425
#
# Stress axis : x y z
#
# Youngs Moduli (GPa) = 47.89244 72.69365 54.71465
#
# Poissons Ratio (x) = -0.29675 0.03204
# Poissons Ratio (y) = -0.19551 -0.17694
# Poissons Ratio (z) = 0.02805 -0.23508
#
# Static dielectric constant tensor:
#      x y z
#    x 5.443090 0.081030 0.792300 
#    y 0.081030 5.058700 0.150270 
#    z 0.792300 0.150270 6.058220 
# 
# 
# High freq. dielectric constant tensor:
#      x y z
#    x 2.084180 -0.001900 0.032950 
#    y -0.001900 2.103310 0.006020 
#    z 0.032950 0.006020 2.115340 
# 
# From -- ./inp_files/35086.got.cif
#   From: 2010.06.25/outbox.cif.g09.slc.cpg/sg2_18_cif.got.tgz:35086.got - 2010.06.27 13:26:56.
