data_PCOD8042214
_publ_section_title
;
Structure prediction by ZEFSAII (Michael W. Deem and Ramdas Pophale) SiO2 
 PCOD8042214
Probable space group: P -1
;
_chemical_formula_sum "Si O2"
_cell_formula_units_Z 16
_cell_length_a 14.523536
_cell_length_b 8.493207
_cell_length_c 29.274058
_cell_angle_alpha 125.775425
_cell_angle_beta 158.996357
_cell_angle_gamma 43.895680
_cell_volume 839.082975
_symmetry_space_group_name_H-M "P -1"
_symmetry_group_IT_number 2
_symmetry_cell_setting 'triclinic'
loop_
_space_group_symop_operation_xyz
x,y,z
-x,-y,-z
loop_
_atom_site_type_symbol
_atom_site_label
_atom_site_fract_x
_atom_site_fract_y
_atom_site_fract_z
Si Si1 0.272211 0.161102 0.543428
Si Si2 0.329597 0.067236 0.180358
Si Si3 0.915857 0.076249 0.809634
Si Si4 0.361509 0.388746 0.387605
Si Si5 0.039394 0.369508 0.566945
Si Si6 0.802540 0.097427 0.994397
Si Si7 0.400881 0.458024 0.312708
Si Si8 0.249816 0.555828 0.854806
O O1 0.576391 0.166009 0.688887
O O2 0.096131 0.229039 0.522012
O O3 0.031059 0.369373 0.430252
O O4 0.376850 0.899910 0.532863
O O5 0.417735 0.251499 0.257146
O O6 0.077489 0.127370 0.113523
O O7 0.645617 0.790409 0.283563
O O8 0.188319 0.085866 0.067906
O O9 0.874542 0.285789 0.795184
O O10 0.141980 0.013172 0.947743
O O11 0.060960 0.841398 0.803967
O O12 0.500000 0.500000 0.500000
O O13 0.312079 0.465889 0.325239
O O14 0.009481 0.487350 0.257995
O O15 0.744976 0.404367 0.462573
O O16 0.460471 0.367804 0.879601
O O17 0.500000 0.500000 0.000000
#
# Coordination Sequence:
#
# PCOD8042214 Si02
#       8
#     2   2   2   2   2   2   2   2
#     4   9  18  36  58  80 113 152 185 221 289 342
#     4  11  21  36  58  85 117 142 191 237 274 339
#     4   9  18  38  58  82 112 150 191 228 279 342
#     4  11  23  38  57  87 119 145 190 244 282 336
#     4  10  19  34  60  83 109 151 182 229 282 348
#     4  10  21  37  60  82 108 154 195 226 273 339
#     4  11  22  35  58  85 115 147 182 238 297 327
#     4   9  19  40  63  75 109 163 191 223 282 346
#
# _framework density 19.068435999999998
#
# number of rings (size 3 to 8) (size 9 to 14) (size 15 to 20)
#    0.000    2.000    2.500    1.875    1.750    0.500 
#    2.250    7.500    5.500    0.000    0.000    0.000 
#    0.000    0.000    0.000    0.000    0.000    0.000 
#
# Total GULP energy -198348.328223 kJ/mol
# GULP energy per Si atom -12396.770514 kJ/mol
# Density = 1.902503 g / cm^3
# Si number density = 19.068436 Si / 1000 Ang^3
#
#
#
# Elastic Constant Matrix: (Units=GPa)
#
#
# Indices 1 2 3 4 5 6 
#
# 1 60.0028 50.3886 32.0183 -4.9211 -4.4244 5.6259
# 2 50.3886 117.0251 45.1666 -9.9062 -10.9510 8.9183
# 3 32.0183 45.1666 81.1740 -7.5986 4.0486 5.8658
# 4 -4.9211 -9.9062 -7.5986 35.0139 -5.6617 -1.6694
# 5 -4.4244 -10.9510 4.0486 -5.6617 28.1487 -4.3025
# 6 5.6259 8.9183 5.8658 -1.6694 -4.3025 25.3430
#
#
#
# Elastic Compliance Matrix: (Units=1/GPa)
#
#
# Indices 1 2 3 4 5 6 
#
# 1 0.028006 -0.009655 -0.005633 0.000128 0.001285 -0.001289
# 2 -0.009655 0.015337 -0.004661 0.002814 0.005525 -0.001052
# 3 -0.005633 -0.004661 0.017622 0.000743 -0.005398 -0.002055
# 4 0.000128 0.002814 0.000743 0.030856 0.007538 0.002122
# 5 0.001285 0.005525 -0.005398 0.007538 0.041164 0.006505
# 6 -0.001289 -0.001052 -0.002055 0.002122 0.006505 0.041835
#
#
# Mechanical properties :
#
#
# Convention : Reuss Voigt Hill
#
# Bulk Modulus (GPa) = 47.47168 57.03877 52.25522
# Shear Modulus (GPa) = 22.54871 26.40965 24.47918
#
# Velocity S-wave (km/s) = 3.44250 3.72559 3.58684
# Velocity P-wave (km/s) = 6.38362 6.96306 6.67963
#
# Compressibility (1/GPa) = 0.02106519
#
# Stress axis : x y z
#
# Youngs Moduli (GPa) = 35.70617 65.20150 56.74637
#
# Poissons Ratio (x) = 0.62955 0.31967
# Poissons Ratio (y) = 0.34476 0.26452
# Poissons Ratio (z) = 0.20114 0.30394
#
# Static dielectric constant tensor:
#      x y z
#    x 3.533260 -0.228910 0.203870 
#    y -0.228910 4.053870 -0.487540 
#    z 0.203870 -0.487540 3.586990 
# 
# 
# High freq. dielectric constant tensor:
#      x y z
#    x 1.729640 -0.004260 0.008670 
#    y -0.004260 1.742140 -0.016640 
#    z 0.008670 -0.016640 1.737770 
# 
# From -- ./inp_files/267905.got.cif
#   From: 2010.06.25/outbox.cif.g09.slc.cpg/sg2_134_cif.got.tgz:267905.got - 2010.06.27 13:26:56.
