data_PCOD8042780
_publ_section_title
;
Structure prediction by ZEFSAII (Michael W. Deem and Ramdas Pophale) SiO2 
 PCOD8042780
Probable space group: P -1
;
_chemical_formula_sum "Si O2"
_cell_formula_units_Z 14
_cell_length_a 8.994236
_cell_length_b 12.517087
_cell_length_c 9.194550
_cell_angle_alpha 123.653889
_cell_angle_beta 67.285524
_cell_angle_gamma 131.086325
_cell_volume 649.045035
_symmetry_space_group_name_H-M "P -1"
_symmetry_group_IT_number 2
_symmetry_cell_setting 'triclinic'
loop_
_space_group_symop_operation_xyz
x,y,z
-x,-y,-z
loop_
_atom_site_type_symbol
_atom_site_label
_atom_site_fract_x
_atom_site_fract_y
_atom_site_fract_z
Si Si1 0.584346 0.951265 0.649590
Si Si2 0.030811 0.384389 0.653931
Si Si3 0.038134 0.789930 0.173538
Si Si4 0.000273 0.812617 0.740490
Si Si5 0.419548 0.780668 0.295627
Si Si6 0.230186 0.179455 0.918614
Si Si7 0.230698 0.735133 0.803308
O O1 0.522584 0.827421 0.450430
O O2 0.459963 0.862090 0.774451
O O3 0.816271 0.043379 0.671762
O O4 0.540536 0.073298 0.700637
O O5 0.061742 0.274955 0.456355
O O6 0.189238 0.564341 0.689151
O O7 0.068952 0.352700 0.779142
O O8 0.813438 0.349973 0.697580
O O9 0.873944 0.785492 0.139888
O O10 0.183580 0.771088 0.005472
O O11 0.101905 0.743466 0.734661
O O12 0.811044 0.778381 0.875664
O O13 0.151831 0.998056 0.800055
O O14 0.533068 0.717380 0.119457
#
# Coordination Sequence:
#
# PCOD8042780 Si02
#       7
#     2   2   2   2   2   2   2
#     4  10  19  35  61  89 113 146 208 236 278 333
#     4  11  22  38  63  85 119 152 198 232 292 344
#     4  10  23  36  60  88 117 155 189 244 289 340
#     4  10  20  35  61  88 109 154 194 241 282 340
#     4  10  19  35  61  92 110 149 195 248 275 343
#     4  10  20  38  60  86 122 144 197 240 295 333
#     4  11  20  38  61  88 116 152 196 242 281 345
#
# _framework density 21.570150999999999
#
# number of rings (size 3 to 8) (size 9 to 14) (size 15 to 20)
#    0.000    1.714    2.857    3.000    0.000    2.286 
#    0.000    2.857    3.143    1.714    0.000    0.000 
#    0.000    0.000    0.000    0.000    0.000    0.000 
#
# Total GULP energy -173585.709845 kJ/mol
# GULP energy per Si atom -12398.979275 kJ/mol
# Density = 2.152106 g / cm^3
# Si number density = 21.570151 Si / 1000 Ang^3
#
#
#
# Elastic Constant Matrix: (Units=GPa)
#
#
# Indices 1 2 3 4 5 6 
#
# 1 62.5136 17.0856 27.9992 -13.4652 -12.3352 5.2689
# 2 17.0856 100.6525 21.4098 -2.9957 0.7444 -18.0308
# 3 27.9992 21.4098 73.3698 -19.3546 -3.0918 -6.6187
# 4 -13.4652 -2.9957 -19.3546 16.5213 -2.3363 5.5107
# 5 -12.3352 0.7444 -3.0918 -2.3363 29.0634 -7.6292
# 6 5.2689 -18.0308 -6.6187 5.5107 -7.6292 25.9196
#
#
#
# Elastic Compliance Matrix: (Units=1/GPa)
#
#
# Indices 1 2 3 4 5 6 
#
# 1 0.026673 -0.005325 -0.003468 0.022034 0.009755 -0.011825
# 2 -0.005325 0.013319 -0.003473 -0.009885 -0.000791 0.011329
# 3 -0.003468 -0.003473 0.022107 0.022872 0.002778 -0.000111
# 4 0.022034 -0.009885 0.022872 0.114043 0.014515 -0.025489
# 5 0.009755 -0.000791 0.002778 0.014515 0.041986 0.007448
# 6 -0.011825 0.011329 -0.000111 -0.025489 0.007448 0.056449
#
#
# Mechanical properties :
#
#
# Convention : Reuss Voigt Hill
#
# Bulk Modulus (GPa) = 26.61936 41.05836 33.83886
# Shear Modulus (GPa) = 16.04461 25.63695 20.84078
#
# Velocity S-wave (km/s) = 2.73029 3.45126 3.11173
# Velocity P-wave (km/s) = 4.72302 5.91250 5.35092
#
# Compressibility (1/GPa) = 0.03756664
#
# Stress axis : x y z
#
# Youngs Moduli (GPa) = 37.49142 75.08052 45.23403
#
# Poissons Ratio (x) = 0.39977 0.15688
# Poissons Ratio (y) = 0.19963 0.15712
# Poissons Ratio (z) = 0.13003 0.26079
#
# Static dielectric constant tensor:
#      x y z
#    x 3.661990 -0.018370 -0.011340 
#    y -0.018370 3.810080 -0.316260 
#    z -0.011340 -0.316260 4.094430 
# 
# 
# High freq. dielectric constant tensor:
#      x y z
#    x 1.821730 -0.006210 -0.000760 
#    y -0.006210 1.837850 -0.025770 
#    z -0.000760 -0.025770 1.851180 
# 
# From -- ./inp_files/157610.got.cif
#   From: 2010.06.25/outbox.cif.g09.slc.cpg/sg2_79_cif.got.tgz:157610.got - 2010.06.27 13:26:56.
