data_PCOD8042708
_publ_section_title
;
Structure prediction by ZEFSAII (Michael W. Deem and Ramdas Pophale) SiO2 
 PCOD8042708
Probable space group: P -1
;
_chemical_formula_sum "Si O2"
_cell_formula_units_Z 14
_cell_length_a 20.379094
_cell_length_b 11.870605
_cell_length_c 8.849958
_cell_angle_alpha 35.214847
_cell_angle_beta 145.891723
_cell_angle_gamma 145.342040
_cell_volume 617.583589
_symmetry_space_group_name_H-M "P -1"
_symmetry_group_IT_number 2
_symmetry_cell_setting 'triclinic'
loop_
_space_group_symop_operation_xyz
x,y,z
-x,-y,-z
loop_
_atom_site_type_symbol
_atom_site_label
_atom_site_fract_x
_atom_site_fract_y
_atom_site_fract_z
Si Si1 0.637367 0.552332 0.632439
Si Si2 0.269279 0.149122 0.774282
Si Si3 0.956863 0.731011 0.734752
Si Si4 0.131936 0.722628 0.826874
Si Si5 0.207553 0.667969 0.719403
Si Si6 0.866027 0.790513 0.008709
Si Si7 0.206376 0.985761 0.129507
O O1 0.500000 0.500000 0.500000
O O2 0.638199 0.620502 0.382495
O O3 0.756054 0.767307 0.699038
O O4 0.668030 0.344874 0.945470
O O5 0.120328 0.121142 0.559244
O O6 0.256885 0.946981 0.869107
O O7 0.317172 0.116280 0.068556
O O8 0.002094 0.719973 0.660071
O O9 0.851804 0.486645 0.852908
O O10 0.074747 0.801835 0.003127
O O11 0.122935 0.715957 0.634122
O O12 0.258726 0.862451 0.481609
O O13 0.119499 0.435042 0.722893
O O14 0.816711 0.825250 0.038965
O O15 0.000000 0.000000 0.000000
#
# Coordination Sequence:
#
# PCOD8042708 Si02
#       7
#     2   2   2   2   2   2   2
#     4  10  23  47  67  85 125 172 215 255 310 381
#     4  11  22  40  60  90 126 173 211 251 310 385
#     4  10  21  36  58  94 135 167 205 255 315 377
#     4  10  19  35  60  88 129 165 212 249 312 374
#     4  10  23  39  59  96 129 159 212 265 312 367
#     4  10  22  40  66  94 132 164 207 261 318 365
#     4  11  22  35  59  94 128 162 202 264 320 365
#
# _framework density 22.668997000000001
#
# number of rings (size 3 to 8) (size 9 to 14) (size 15 to 20)
#    0.857    0.857    1.429    4.286    0.000    9.143 
#    0.000    4.286    0.000    0.000    0.000    0.000 
#    0.000    0.000    0.000    0.000    0.000    0.000 
#
# Total GULP energy -173436.767727 kJ/mol
# GULP energy per Si atom -12388.340552 kJ/mol
# Density = 2.261740 g / cm^3
# Si number density = 22.668997 Si / 1000 Ang^3
#
#
#
# Elastic Constant Matrix: (Units=GPa)
#
#
# Indices 1 2 3 4 5 6 
#
# 1 154.0898 42.5959 67.4445 -12.1405 -37.3570 -10.9534
# 2 42.5959 54.4239 28.9027 -12.5458 -3.0778 -20.3520
# 3 67.4445 28.9027 117.4454 -27.3532 -36.7249 1.7745
# 4 -12.1405 -12.5458 -27.3532 26.1654 9.3709 10.3900
# 5 -37.3570 -3.0778 -36.7249 9.3709 37.3732 -8.8319
# 6 -10.9534 -20.3520 1.7745 10.3900 -8.8319 44.1910
#
#
#
# Elastic Compliance Matrix: (Units=1/GPa)
#
#
# Indices 1 2 3 4 5 6 
#
# 1 0.012487 -0.007510 -0.003555 -0.006860 0.010935 0.003577
# 2 -0.007510 0.031331 -0.005046 0.005673 -0.009032 0.009632
# 3 -0.003555 -0.005046 0.017790 0.013454 0.008885 -0.005307
# 4 -0.006860 0.005673 0.013454 0.063311 -0.013093 -0.017130
# 5 0.010935 -0.009032 0.008885 -0.013093 0.051700 0.011605
# 6 0.003577 0.009632 -0.005307 -0.017130 0.011605 0.034512
#
#
# Mechanical properties :
#
#
# Convention : Reuss Voigt Hill
#
# Bulk Modulus (GPa) = 34.03120 67.09392 50.56256
# Shear Modulus (GPa) = 19.75146 34.01365 26.88255
#
# Velocity S-wave (km/s) = 2.95498 3.87776 3.44739
# Velocity P-wave (km/s) = 5.16598 7.05059 6.18054
#
# Compressibility (1/GPa) = 0.02938480
#
# Stress axis : x y z
#
# Youngs Moduli (GPa) = 80.08577 31.91746 56.21287
#
# Poissons Ratio (x) = 0.23971 0.19982
# Poissons Ratio (y) = 0.60147 0.28365
# Poissons Ratio (z) = 0.28469 0.16105
#
# Static dielectric constant tensor:
#      x y z
#    x 4.353720 -0.389270 -0.270160 
#    y -0.389270 3.724160 -0.364540 
#    z -0.270160 -0.364540 4.027770 
# 
# 
# High freq. dielectric constant tensor:
#      x y z
#    x 1.894070 -0.031560 -0.027240 
#    y -0.031560 1.856530 -0.044680 
#    z -0.027240 -0.044680 1.885800 
# 
# From -- ./inp_files/344991.got.cif
#   From: 2010.06.25/outbox.cif.g09.slc.cpg/sg2_173_cif.got.tgz:344991.got - 2010.06.27 13:26:56.
