data_PCOD8042441
_publ_section_title
;
Structure prediction by ZEFSAII (Michael W. Deem and Ramdas Pophale) SiO2 
 PCOD8042441
Probable space group: P -1
;
_chemical_formula_sum "Si O2"
_cell_formula_units_Z 16
_cell_length_a 9.492836
_cell_length_b 6.618372
_cell_length_c 19.621434
_cell_angle_alpha 71.701344
_cell_angle_beta 112.603518
_cell_angle_gamma 132.350386
_cell_volume 838.333059
_symmetry_space_group_name_H-M "P -1"
_symmetry_group_IT_number 2
_symmetry_cell_setting 'triclinic'
loop_
_space_group_symop_operation_xyz
x,y,z
-x,-y,-z
loop_
_atom_site_type_symbol
_atom_site_label
_atom_site_fract_x
_atom_site_fract_y
_atom_site_fract_z
Si Si1 0.935740 0.935860 0.137433
Si Si2 0.562197 0.583970 0.341010
Si Si3 0.552160 0.779870 0.455696
Si Si4 0.696388 0.035450 0.590577
Si Si5 0.188099 0.415094 0.222751
Si Si6 0.941016 0.857636 0.293834
Si Si7 0.278454 0.877433 0.979359
Si Si8 0.055412 0.677208 0.094347
O O1 0.877224 0.751647 0.214661
O O2 0.996179 0.852999 0.092900
O O3 0.751481 0.920421 0.083565
O O4 0.128613 0.250228 0.157237
O O5 0.624498 0.804720 0.389168
O O6 0.416624 0.583389 0.263780
O O7 0.756101 0.692250 0.325586
O O8 0.463685 0.277341 0.379863
O O9 0.500000 0.500000 0.500000
O O10 0.367759 0.781248 0.421292
O O11 0.712628 0.021447 0.512355
O O12 0.908487 0.190104 0.647226
O O13 0.137662 0.618141 0.181321
O O14 0.053197 0.186987 0.281325
O O15 0.141540 0.587220 0.947211
O O16 0.227165 0.849262 0.052596
O O17 0.500000 0.000000 0.000000
#
# Coordination Sequence:
#
# PCOD8042441 Si02
#       8
#     2   2   2   2   2   2   2   2
#     4   9  20  39  53  81 113 144 182 225 273 326
#     4  10  19  35  56  81 110 148 180 229 273 318
#     4   9  19  36  61  79 110 148 184 221 278 322
#     4   9  19  39  54  82 112 144 184 228 268 329
#     4   8  20  34  54  79 113 141 184 225 269 326
#     4   9  20  37  53  81 118 137 186 232 263 326
#     4  10  22  38  57  84 110 139 189 231 264 332
#     4  10  20  38  59  76 110 151 177 224 285 315
#
# _framework density 19.085493
#
# number of rings (size 3 to 8) (size 9 to 14) (size 15 to 20)
#    0.750    2.000    0.000    0.375    3.500    1.000 
#    4.500    5.625    0.000    0.000    0.000    0.000 
#    0.000    0.000    0.000    0.000    0.000    0.000 
#
# Total GULP energy -198237.591077 kJ/mol
# GULP energy per Si atom -12389.849442 kJ/mol
# Density = 1.904205 g / cm^3
# Si number density = 19.085493 Si / 1000 Ang^3
#
#
#
# Elastic Constant Matrix: (Units=GPa)
#
#
# Indices 1 2 3 4 5 6 
#
# 1 153.7857 54.0176 77.2282 2.2466 3.8606 4.7971
# 2 54.0176 41.5416 27.9783 1.2492 0.8179 -1.8108
# 3 77.2282 27.9783 112.8466 -3.6086 17.9646 1.2264
# 4 2.2466 1.2492 -3.6086 8.8322 -5.1792 -0.7295
# 5 3.8606 0.8179 17.9646 -5.1792 36.3199 0.5726
# 6 4.7971 -1.8108 1.2264 -0.7295 0.5726 32.5891
#
#
#
# Elastic Compliance Matrix: (Units=1/GPa)
#
#
# Indices 1 2 3 4 5 6 
#
# 1 0.015762 -0.015636 -0.007285 -0.003994 0.001758 -0.003035
# 2 -0.015636 0.045133 -0.000705 -0.001921 0.000645 0.004782
# 3 -0.007285 -0.000705 0.015124 0.004647 -0.006039 0.000674
# 4 -0.003994 -0.001921 0.004647 0.126088 0.016105 0.002846
# 5 0.001758 0.000645 -0.006039 0.016105 0.032618 -0.000208
# 6 -0.003035 0.004782 0.000674 0.002846 -0.000208 0.031440
#
#
# Mechanical properties :
#
#
# Convention : Reuss Voigt Hill
#
# Bulk Modulus (GPa) = 34.76216 69.62467 52.19341
# Shear Modulus (GPa) = 15.47959 25.47822 20.47890
#
# Velocity S-wave (km/s) = 2.85101 3.65766 3.27924
# Velocity P-wave (km/s) = 5.39362 7.37547 6.46099
#
# Compressibility (1/GPa) = 0.02876692
#
# Stress axis : x y z
#
# Youngs Moduli (GPa) = 63.44382 22.15686 66.11789
#
# Poissons Ratio (x) = 0.34645 0.48166
# Poissons Ratio (y) = 0.99202 0.04662
# Poissons Ratio (z) = 0.46218 0.01562
#
# Static dielectric constant tensor:
#      x y z
#    x 3.287720 -0.210320 0.054020 
#    y -0.210320 3.183110 0.006150 
#    z 0.054020 0.006150 3.827750 
# 
# 
# High freq. dielectric constant tensor:
#      x y z
#    x 1.730950 -0.019070 0.012440 
#    y -0.019070 1.706010 -0.002170 
#    z 0.012440 -0.002170 1.762830 
# 
# From -- ./inp_files/585218.got.cif
#   From: 2010.06.25/outbox.cif.g09.slc.cpg/sg2_293_cif.got.tgz:585218.got - 2010.06.27 13:26:56.
