data_PCOD8042752
_publ_section_title
;
Structure prediction by ZEFSAII (Michael W. Deem and Ramdas Pophale) SiO2 
 PCOD8042752
Probable space group: P -1
;
_chemical_formula_sum "Si O2"
_cell_formula_units_Z 16
_cell_length_a 10.744132
_cell_length_b 10.884677
_cell_length_c 12.029634
_cell_angle_alpha 87.324787
_cell_angle_beta 140.289706
_cell_angle_gamma 72.680527
_cell_volume 765.419054
_symmetry_space_group_name_H-M "P -1"
_symmetry_group_IT_number 2
_symmetry_cell_setting 'triclinic'
loop_
_space_group_symop_operation_xyz
x,y,z
-x,-y,-z
loop_
_atom_site_type_symbol
_atom_site_label
_atom_site_fract_x
_atom_site_fract_y
_atom_site_fract_z
Si Si1 0.392402 0.237547 0.921118
Si Si2 0.715360 0.125778 0.673286
Si Si3 0.718765 0.291870 0.023005
Si Si4 0.214427 0.065876 0.717567
Si Si5 0.226102 0.449280 0.000848
Si Si6 0.982638 0.836783 0.974699
Si Si7 0.246498 0.337597 0.247236
Si Si8 0.097429 0.030110 0.414913
O O1 0.196436 0.215287 0.734356
O O2 0.307414 0.320114 0.975562
O O3 0.471482 0.315454 0.883272
O O4 0.596874 0.074174 0.082548
O O5 0.447812 0.248419 0.478736
O O6 0.756064 0.043954 0.589337
O O7 0.779559 0.004967 0.817845
O O8 0.881535 0.188417 0.812884
O O9 0.690328 0.447762 0.992750
O O10 0.819465 0.207833 0.980033
O O11 0.891203 0.193334 0.243181
O O12 0.975308 0.079251 0.582439
O O13 0.256988 0.043983 0.615011
O O14 0.950974 0.532514 0.821426
O O15 0.334034 0.391184 0.201025
O O16 0.865623 0.744106 0.885869
#
# Coordination Sequence:
#
# PCOD8042752 Si02
#       8
#     2   2   2   2   2   2   2   2
#     4  10  19  35  61  84 110 153 189 238 296 342
#     4  10  19  36  62  90 115 154 187 243 305 342
#     4   9  19  38  55  79 119 153 188 236 287 340
#     4   9  19  34  57  90 110 140 193 247 296 339
#     4  10  21  37  58  82 120 163 194 231 280 350
#     4   9  20  37  59  91 118 145 194 246 296 346
#     4  10  21  38  59  85 120 156 196 239 282 348
#     4   9  18  35  57  83 118 142 185 248 294 343
#
# _framework density 20.903582
#
# number of rings (size 3 to 8) (size 9 to 14) (size 15 to 20)
#    0.000    2.500    0.000    1.500    1.750    0.000 
#   15.750    6.250   16.500    0.000    0.000    0.000 
#    0.000    0.000    0.000    0.000    0.000    0.000 
#
# Total GULP energy -198261.989658 kJ/mol
# GULP energy per Si atom -12391.374354 kJ/mol
# Density = 2.085600 g / cm^3
# Si number density = 20.903582 Si / 1000 Ang^3
#
#
#
# Elastic Constant Matrix: (Units=GPa)
#
#
# Indices 1 2 3 4 5 6 
#
# 1 83.8154 35.5571 18.1669 1.5909 -5.9294 11.9918
# 2 35.5571 83.4129 23.0993 9.0081 1.3629 8.3593
# 3 18.1669 23.0993 75.7196 5.1651 -0.4610 6.6974
# 4 1.5909 9.0081 5.1651 27.0429 -4.9906 3.2401
# 5 -5.9294 1.3629 -0.4610 -4.9906 22.1094 -0.3526
# 6 11.9918 8.3593 6.6974 3.2401 -0.3526 30.0649
#
#
#
# Elastic Compliance Matrix: (Units=1/GPa)
#
#
# Indices 1 2 3 4 5 6 
#
# 1 0.015911 -0.006275 -0.001678 0.002975 0.005219 -0.004488
# 2 -0.006275 0.016199 -0.003042 -0.005067 -0.003902 -0.000823
# 3 -0.001678 -0.003042 0.014785 -0.001581 -0.000337 -0.001612
# 4 0.002975 -0.005067 -0.001581 0.041143 0.010305 -0.003739
# 5 0.005219 -0.003902 -0.000337 0.010305 0.049166 -0.001456
# 6 -0.004488 -0.000823 -0.001612 -0.003739 -0.001456 0.036025
#
#
# Mechanical properties :
#
#
# Convention : Reuss Voigt Hill
#
# Bulk Modulus (GPa) = 40.14790 44.06604 42.10697
# Shear Modulus (GPa) = 24.56754 26.91841 25.74298
#
# Velocity S-wave (km/s) = 3.43195 3.59240 3.51310
# Velocity P-wave (km/s) = 5.91205 6.19141 6.05334
#
# Compressibility (1/GPa) = 0.02490790
#
# Stress axis : x y z
#
# Youngs Moduli (GPa) = 62.84784 61.73116 67.63436
#
# Poissons Ratio (x) = 0.38737 0.11346
# Poissons Ratio (y) = 0.39437 0.20571
# Poissons Ratio (z) = 0.10543 0.18776
#
# Static dielectric constant tensor:
#      x y z
#    x 3.761700 0.137260 -0.050340 
#    y 0.137260 3.858440 0.075770 
#    z -0.050340 0.075770 3.849330 
# 
# 
# High freq. dielectric constant tensor:
#      x y z
#    x 1.808140 0.002990 -0.008180 
#    y 0.002990 1.817180 0.006610 
#    z -0.008180 0.006610 1.799400 
# 
# From -- ./inp_files/423709.got.cif
#   From: 2010.06.25/outbox.cif.g09.slc.cpg/sg2_212_cif.got.tgz:423709.got - 2010.06.27 13:26:56.
