data_PCOD8042266
_publ_section_title
;
Structure prediction by ZEFSAII (Michael W. Deem and Ramdas Pophale) SiO2 
 PCOD8042266
Probable space group: P -1
;
_chemical_formula_sum "Si O2"
_cell_formula_units_Z 16
_cell_length_a 20.974653
_cell_length_b 12.505948
_cell_length_c 17.622014
_cell_angle_alpha 135.497859
_cell_angle_beta 161.631258
_cell_angle_gamma 42.718567
_cell_volume 985.436816
_symmetry_space_group_name_H-M "P -1"
_symmetry_group_IT_number 2
_symmetry_cell_setting 'triclinic'
loop_
_space_group_symop_operation_xyz
x,y,z
-x,-y,-z
loop_
_atom_site_type_symbol
_atom_site_label
_atom_site_fract_x
_atom_site_fract_y
_atom_site_fract_z
Si Si1 0.059650 0.344324 0.042002
Si Si2 0.374559 0.654562 0.480328
Si Si3 0.222177 0.627641 0.850171
Si Si4 0.624554 0.182324 0.998783
Si Si5 0.651224 0.434676 0.280436
Si Si6 0.163254 0.598177 0.365617
Si Si7 0.272311 0.180951 0.065123
Si Si8 0.804633 0.625813 0.432801
O O1 0.238476 0.211807 0.133529
O O2 0.849708 0.283579 0.786094
O O3 0.144715 0.414166 0.248601
O O4 0.000000 0.500000 0.000000
O O5 0.500000 0.500000 0.500000
O O6 0.323159 0.625140 0.494910
O O7 0.513356 0.779788 0.699378
O O8 0.209069 0.486837 0.709110
O O9 0.018984 0.679824 0.700661
O O10 0.233540 0.777818 0.888543
O O11 0.424558 0.559356 0.096779
O O12 0.388926 0.220358 0.718441
O O13 0.639893 0.282868 0.141822
O O14 0.704910 0.000640 0.019912
O O15 0.741435 0.371681 0.431653
O O16 0.799283 0.530938 0.456397
O O17 0.932250 0.718322 0.159348
#
# Coordination Sequence:
#
# PCOD8042266 Si02
#       8
#     2   2   2   2   2   2   2   2
#     4   8  16  29  46  66  84 115 163 198 217 259
#     4  10  15  31  49  64  87 122 167 194 219 262
#     4   8  15  31  50  66  88 123 165 194 217 264
#     4   9  18  30  48  70  99 123 152 189 230 280
#     4   9  18  31  45  73  99 123 150 187 236 277
#     4  10  19  29  47  71  98 120 155 193 229 278
#     4  10  18  30  47  71  95 124 155 192 230 269
#     4   8  15  30  51  66  86 125 165 192 218 269
#
# _framework density 16.236453999999998
#
# number of rings (size 3 to 8) (size 9 to 14) (size 15 to 20)
#    0.000    3.250    3.750    1.500    0.000    3.500 
#    0.000    0.625    0.000    3.000    0.000    5.250 
#    0.000    0.000    0.000    0.000    0.000    0.000 
#
# Total GULP energy -198215.271915 kJ/mol
# GULP energy per Si atom -12388.454495 kJ/mol
# Density = 1.619950 g / cm^3
# Si number density = 16.236454 Si / 1000 Ang^3
#
#
#
# Elastic Constant Matrix: (Units=GPa)
#
#
# Indices 1 2 3 4 5 6 
#
# 1 72.4940 44.4464 55.4353 1.5356 15.3200 -3.2985
# 2 44.4464 60.1619 44.8002 4.5091 -5.5112 1.2953
# 3 55.4353 44.8002 103.8965 4.2717 24.1019 3.1824
# 4 1.5356 4.5091 4.2717 13.4746 -3.5518 2.1622
# 5 15.3200 -5.5112 24.1019 -3.5518 31.9300 -0.6548
# 6 -3.2985 1.2953 3.1824 2.1622 -0.6548 13.0319
#
#
#
# Elastic Compliance Matrix: (Units=1/GPa)
#
#
# Indices 1 2 3 4 5 6 
#
# 1 0.038822 -0.026997 -0.004921 -0.001020 -0.019421 0.012905
# 2 -0.026997 0.050851 -0.014991 0.000573 0.032973 -0.006665
# 3 -0.004921 -0.014991 0.023465 -0.005919 -0.018708 -0.005444
# 4 -0.001020 0.000573 -0.005919 0.081554 0.013888 -0.011703
# 5 -0.019421 0.032973 -0.018708 0.013888 0.061937 -0.002816
# 6 0.012905 -0.006665 -0.005444 -0.011703 -0.002816 0.083793
#
#
# Mechanical properties :
#
#
# Convention : Reuss Voigt Hill
#
# Bulk Modulus (GPa) = 51.75938 58.43512 55.09725
# Shear Modulus (GPa) = 11.34612 17.81199 14.57906
#
# Velocity S-wave (km/s) = 2.64636 3.31575 2.99978
# Velocity P-wave (km/s) = 6.42537 7.12230 6.78279
#
# Compressibility (1/GPa) = 0.01932017
#
# Stress axis : x y z
#
# Youngs Moduli (GPa) = 25.75831 19.66536 42.61732
#
# Poissons Ratio (x) = 0.53091 0.20972
# Poissons Ratio (y) = 0.69540 0.63886
# Poissons Ratio (z) = 0.12676 0.29480
#
# Static dielectric constant tensor:
#      x y z
#    x 3.116320 -0.215130 0.347030 
#    y -0.215130 2.831870 -0.002070 
#    z 0.347030 -0.002070 3.580330 
# 
# 
# High freq. dielectric constant tensor:
#      x y z
#    x 1.604670 -0.012870 0.021870 
#    y -0.012870 1.595860 -0.000270 
#    z 0.021870 -0.000270 1.627660 
# 
# From -- ./inp_files/472285.got.cif
#   From: 2010.06.25/outbox.cif.g09.slc.cpg/sg2_237_cif.got.tgz:472285.got - 2010.06.27 13:26:56.
