data_PCOD8042156
_publ_section_title
;
Structure prediction by ZEFSAII (Michael W. Deem and Ramdas Pophale) SiO2 
 PCOD8042156
Probable space group: P -1
;
_chemical_formula_sum "Si O2"
_cell_formula_units_Z 16
_cell_length_a 11.140138
_cell_length_b 15.266626
_cell_length_c 9.595714
_cell_angle_alpha 58.225850
_cell_angle_beta 108.401410
_cell_angle_gamma 59.977269
_cell_volume 741.405210
_symmetry_space_group_name_H-M "P -1"
_symmetry_group_IT_number 2
_symmetry_cell_setting 'triclinic'
loop_
_space_group_symop_operation_xyz
x,y,z
-x,-y,-z
loop_
_atom_site_type_symbol
_atom_site_label
_atom_site_fract_x
_atom_site_fract_y
_atom_site_fract_z
Si Si1 0.420402 0.296870 0.618494
Si Si2 0.977051 0.284136 0.313861
Si Si3 0.106936 0.132709 0.908957
Si Si4 0.747036 0.798590 0.291047
Si Si5 0.350745 0.718138 0.070749
Si Si6 0.489297 0.628777 0.892637
Si Si7 0.920196 0.128515 0.613794
Si Si8 0.145386 0.648100 0.088450
O O1 0.255420 0.323797 0.607973
O O2 0.466087 0.355398 0.699012
O O3 0.274985 0.452043 0.316945
O O4 0.647949 0.088493 0.819194
O O5 0.973047 0.172769 0.471481
O O6 0.174720 0.216686 0.513872
O O7 0.738547 0.504707 0.062525
O O8 0.016538 0.248802 0.192499
O O9 0.102988 0.246955 0.734269
O O10 0.923897 0.185156 0.716169
O O11 0.022405 0.208582 0.969035
O O12 0.500000 0.000000 0.000000
O O13 0.344465 0.598312 0.178865
O O14 0.402933 0.724798 0.930188
O O15 0.105423 0.916629 0.862518
O O16 0.313071 0.775531 0.581526
O O17 0.500000 0.500000 0.000000
#
# Coordination Sequence:
#
# PCOD8042156 Si02
#       8
#     2   2   2   2   2   2   2   2
#     4  10  24  41  63  91 127 167 208 251 313 365
#     4  10  22  39  63  94 121 161 208 260 305 364
#     4   9  22  42  65  93 120 167 211 257 304 367
#     4   9  20  47  72  81 118 165 217 259 292 370
#     4  11  22  38  60  95 126 167 205 252 301 379
#     4  10  19  34  58  91 124 158 205 253 302 359
#     4   9  19  38  62  84 126 167 211 243 301 370
#     4  12  24  37  61  97 137 155 198 259 324 368
#
# _framework density 21.580641
#
# number of rings (size 3 to 8) (size 9 to 14) (size 15 to 20)
#    0.000    2.000    2.500    1.500    5.250    5.000 
#    0.000    2.500    0.000    0.000    0.000    0.000 
#    0.000    0.000    0.000    0.000    0.000    0.000 
#
# Total GULP energy -198283.683428 kJ/mol
# GULP energy per Si atom -12392.730214 kJ/mol
# Density = 2.153152 g / cm^3
# Si number density = 21.580641 Si / 1000 Ang^3
#
#
#
# Elastic Constant Matrix: (Units=GPa)
#
#
# Indices 1 2 3 4 5 6 
#
# 1 88.1220 29.3587 41.7122 9.5613 1.5062 9.5872
# 2 29.3587 105.5617 36.1889 26.5764 2.4833 -14.5641
# 3 41.7122 36.1889 110.6458 22.5196 9.1572 6.8443
# 4 9.5613 26.5764 22.5196 32.9825 6.9736 -3.4459
# 5 1.5062 2.4833 9.1572 6.9736 35.6189 -0.1257
# 6 9.5872 -14.5641 6.8443 -3.4459 -0.1257 21.7973
#
#
#
# Elastic Compliance Matrix: (Units=1/GPa)
#
#
# Indices 1 2 3 4 5 6 
#
# 1 0.015531 -0.004237 -0.004163 0.000783 0.000527 -0.008228
# 2 -0.004237 0.015164 -0.002480 -0.008407 0.001446 0.011454
# 3 -0.004163 -0.002480 0.013060 -0.005821 -0.001886 -0.004857
# 4 0.000783 -0.008407 -0.005821 0.042426 -0.006248 0.002537
# 5 0.000527 0.001446 -0.001886 -0.006248 0.029662 0.000510
# 6 -0.008228 0.011454 -0.004857 0.002537 0.000510 0.059079
#
#
# Mechanical properties :
#
#
# Convention : Reuss Voigt Hill
#
# Bulk Modulus (GPa) = 45.46453 57.64991 51.55722
# Shear Modulus (GPa) = 24.50810 31.21771 27.86290
#
# Velocity S-wave (km/s) = 3.37360 3.80749 3.59710
# Velocity P-wave (km/s) = 6.02395 6.78978 6.41829
#
# Compressibility (1/GPa) = 0.02199517
#
# Stress axis : x y z
#
# Youngs Moduli (GPa) = 64.38547 65.94407 76.57190
#
# Poissons Ratio (x) = 0.27941 0.31880
# Poissons Ratio (y) = 0.27281 0.18987
# Poissons Ratio (z) = 0.26806 0.16352
#
# Static dielectric constant tensor:
#      x y z
#    x 4.207480 0.007660 0.206780 
#    y 0.007660 3.725610 0.051350 
#    z 0.206780 0.051350 4.655590 
# 
# 
# High freq. dielectric constant tensor:
#      x y z
#    x 1.820860 0.001920 0.000780 
#    y 0.001920 1.833310 0.006190 
#    z 0.000780 0.006190 1.860590 
# 
# From -- ./inp_files/277593.got.cif
#   From: 2010.06.25/outbox.cif.g09.slc.cpg/sg2_139_cif.got.tgz:277593.got - 2010.06.27 13:26:56.
