data_PCOD8042994
_publ_section_title
;
Structure prediction by ZEFSAII (Michael W. Deem and Ramdas Pophale) SiO2 
 PCOD8042994
Probable space group: P -1
;
_chemical_formula_sum "Si O2"
_cell_formula_units_Z 16
_cell_length_a 10.316523
_cell_length_b 12.012593
_cell_length_c 15.748922
_cell_angle_alpha 54.655166
_cell_angle_beta 87.308837
_cell_angle_gamma 44.786909
_cell_volume 868.409978
_symmetry_space_group_name_H-M "P -1"
_symmetry_group_IT_number 2
_symmetry_cell_setting 'triclinic'
loop_
_space_group_symop_operation_xyz
x,y,z
-x,-y,-z
loop_
_atom_site_type_symbol
_atom_site_label
_atom_site_fract_x
_atom_site_fract_y
_atom_site_fract_z
Si Si1 0.701064 0.313245 0.508793
Si Si2 0.213728 0.235327 0.997717
Si Si3 0.748178 0.161661 0.408405
Si Si4 0.972313 0.724063 0.518445
Si Si5 0.178732 0.804376 0.783938
Si Si6 0.804394 0.498211 0.004614
Si Si7 0.759430 0.763717 0.199007
Si Si8 0.289713 0.991508 0.762425
O O1 0.500000 0.500000 0.500000
O O2 0.583668 0.347078 0.412022
O O3 0.805204 0.371588 0.461917
O O4 0.903698 0.035769 0.663102
O O5 0.162705 0.271448 0.883454
O O6 0.035919 0.289961 0.028801
O O7 0.156103 0.438708 0.943117
O O8 0.487000 0.950981 0.131012
O O9 0.665831 0.303849 0.259140
O O10 0.781477 0.969488 0.477500
O O11 0.000000 0.000000 0.500000
O O12 0.061286 0.507613 0.652434
O O13 0.837926 0.811144 0.395708
O O14 0.212124 0.901514 0.804354
O O15 0.258967 0.596101 0.918260
O O16 0.575080 0.752605 0.847249
O O17 0.789418 0.874316 0.204524
#
# Coordination Sequence:
#
# PCOD8042994 Si02
#       8
#     2   2   2   2   2   2   2   2
#     4   9  18  30  47  83 110 126 171 222 250 315
#     4   9  22  34  52  82 101 136 177 227 254 305
#     4   7  15  30  45  76 102 128 174 201 251 318
#     4   9  18  32  56  73 102 145 172 203 269 310
#     4   9  18  32  56  73 102 145 172 204 269 309
#     4  10  19  36  55  74 108 132 182 220 256 308
#     4  10  19  36  55  74 110 137 176 213 267 311
#     4   9  19  36  50  79 104 140 178 212 250 323
#
# _framework density 18.424478000000001
#
# number of rings (size 3 to 8) (size 9 to 14) (size 15 to 20)
#    0.000    3.500    0.000    0.750    7.000    0.000 
#    0.000    6.250    0.000    0.000    0.000    0.000 
#    0.000    0.000    0.000    0.000    0.000    0.000 
#
# Total GULP energy -198249.316666 kJ/mol
# GULP energy per Si atom -12390.582292 kJ/mol
# Density = 1.838254 g / cm^3
# Si number density = 18.424478 Si / 1000 Ang^3
#
#
#
# Elastic Constant Matrix: (Units=GPa)
#
#
# Indices 1 2 3 4 5 6 
#
# 1 58.3493 46.1439 35.3601 9.9668 -5.5513 14.0800
# 2 46.1439 159.2834 51.7371 21.7811 2.3700 5.1946
# 3 35.3601 51.7371 98.4723 13.2714 -7.4743 10.5256
# 4 9.9668 21.7811 13.2714 20.5475 5.7057 8.4914
# 5 -5.5513 2.3700 -7.4743 5.7057 22.4949 1.1582
# 6 14.0800 5.1946 10.5256 8.4914 1.1582 25.0958
#
#
#
# Elastic Compliance Matrix: (Units=1/GPa)
#
#
# Indices 1 2 3 4 5 6 
#
# 1 0.029218 -0.006391 -0.005120 -0.000658 0.007020 -0.013024
# 2 -0.006391 0.009820 -0.002585 -0.007254 -0.001897 0.005179
# 3 -0.005120 -0.002585 0.014569 -0.005136 0.005214 -0.001205
# 4 -0.000658 -0.007254 -0.005136 0.073436 -0.018703 -0.019960
# 5 0.007020 -0.001897 0.005214 -0.018703 0.052958 -0.001848
# 6 -0.013024 0.005179 -0.001205 -0.019960 -0.001848 0.053427
#
#
# Mechanical properties :
#
#
# Convention : Reuss Voigt Hill
#
# Bulk Modulus (GPa) = 39.34690 64.73190 52.03940
# Shear Modulus (GPa) = 18.51220 25.81856 22.16538
#
# Velocity S-wave (km/s) = 3.17324 3.74748 3.47225
# Velocity P-wave (km/s) = 5.90153 7.34403 6.66193
#
# Compressibility (1/GPa) = 0.02541496
#
# Stress axis : x y z
#
# Youngs Moduli (GPa) = 34.22515 101.82935 68.64088
#
# Poissons Ratio (x) = 0.65079 0.35148
# Poissons Ratio (y) = 0.21873 0.17741
# Poissons Ratio (z) = 0.17525 0.26319
#
# Static dielectric constant tensor:
#      x y z
#    x 3.121910 0.309880 0.158910 
#    y 0.309880 4.069360 0.251460 
#    z 0.158910 0.251460 3.345260 
# 
# 
# High freq. dielectric constant tensor:
#      x y z
#    x 1.683470 0.023700 0.006400 
#    y 0.023700 1.718940 0.008850 
#    z 0.006400 0.008850 1.707140 
# 
# From -- ./inp_files/519601.got.cif
#   From: 2010.06.25/outbox.cif.g09.slc.cpg/sg2_260_cif.got.tgz:519601.got - 2010.06.27 13:26:56.
