data_PCOD8042512
_publ_section_title
;
Structure prediction by ZEFSAII (Michael W. Deem and Ramdas Pophale) SiO2 
 PCOD8042512
Probable space group: P -1
;
_chemical_formula_sum "Si O2"
_cell_formula_units_Z 16
_cell_length_a 11.130605
_cell_length_b 17.975567
_cell_length_c 9.439146
_cell_angle_alpha 64.183003
_cell_angle_beta 54.555914
_cell_angle_gamma 28.938232
_cell_volume 731.945938
_symmetry_space_group_name_H-M "P -1"
_symmetry_group_IT_number 2
_symmetry_cell_setting 'triclinic'
loop_
_space_group_symop_operation_xyz
x,y,z
-x,-y,-z
loop_
_atom_site_type_symbol
_atom_site_label
_atom_site_fract_x
_atom_site_fract_y
_atom_site_fract_z
Si Si1 0.176021 0.629359 0.956719
Si Si2 0.460200 0.826521 0.760414
Si Si3 0.729634 0.941220 0.475351
Si Si4 0.423048 0.246801 0.946418
Si Si5 0.488035 0.384810 0.167867
Si Si6 0.202569 0.513833 0.778038
Si Si7 0.455476 0.092816 0.839629
Si Si8 0.947784 0.368225 0.509266
O O1 0.247218 0.690979 0.888421
O O2 0.209714 0.595262 0.795100
O O3 0.403636 0.459496 0.010433
O O4 0.864949 0.756617 0.118398
O O5 0.432663 0.748319 0.780806
O O6 0.765970 0.716894 0.613121
O O7 0.234537 0.989196 0.692275
O O8 0.396486 0.856072 0.948536
O O9 0.005931 0.753161 0.434420
O O10 0.500000 0.000000 0.500000
O O11 0.649363 0.991981 0.652975
O O12 0.433849 0.337845 0.818307
O O13 0.535291 0.139745 0.826328
O O14 0.106021 0.375894 0.089545
O O15 0.210475 0.533491 0.323043
O O16 0.254310 0.509765 0.582505
O O17 0.500000 0.000000 0.000000
#
# Coordination Sequence:
#
# PCOD8042512 Si02
#       8
#     2   2   2   2   2   2   2   2
#     4  10  21  37  57  83 119 154 194 232 291 353
#     4  10  19  35  57  86 118 147 195 243 288 338
#     4  10  20  35  56  86 116 148 187 241 291 340
#     4   9  18  31  55  83 108 142 189 242 284 326
#     4  11  22  35  58  88 120 156 186 237 294 350
#     4   9  17  33  53  78 112 142 187 238 280 336
#     4  11  21  36  62  85 114 153 198 243 287 343
#     4  10  21  34  58  85 115 151 191 240 293 336
#
# _framework density 21.859537
#
# number of rings (size 3 to 8) (size 9 to 14) (size 15 to 20)
#    0.000    2.000    1.250    4.875    3.500    0.500 
#    0.000    0.000    2.750    8.250    0.000    0.000 
#    0.000    0.000    0.000    0.000    0.000    0.000 
#
# Total GULP energy -198336.539591 kJ/mol
# GULP energy per Si atom -12396.033724 kJ/mol
# Density = 2.180978 g / cm^3
# Si number density = 21.859537 Si / 1000 Ang^3
#
#
#
# Elastic Constant Matrix: (Units=GPa)
#
#
# Indices 1 2 3 4 5 6 
#
# 1 105.6541 51.5536 39.9334 -11.5479 11.5375 32.8526
# 2 51.5536 73.1101 30.5553 -34.6145 2.2949 30.2882
# 3 39.9334 30.5553 65.9106 -24.1353 21.3806 9.9465
# 4 -11.5479 -34.6145 -24.1353 40.5108 3.4841 0.6060
# 5 11.5375 2.2949 21.3806 3.4841 31.3560 -0.7535
# 6 32.8526 30.2882 9.9465 0.6060 -0.7535 36.6251
#
#
#
# Elastic Compliance Matrix: (Units=1/GPa)
#
#
# Indices 1 2 3 4 5 6 
#
# 1 0.019753 -0.015711 -0.010503 -0.014250 0.002589 -0.001585
# 2 -0.015711 0.074516 0.015008 0.070564 -0.019024 -0.053165
# 3 -0.010503 0.015008 0.039022 0.035721 -0.028165 -0.014758
# 4 -0.014250 0.070564 0.035721 0.106286 -0.037477 -0.057804
# 5 0.002589 -0.019024 -0.028165 -0.037477 0.056250 0.022837
# 6 -0.001585 -0.053165 -0.014758 -0.057804 0.022837 0.078126
#
#
# Mechanical properties :
#
#
# Convention : Reuss Voigt Hill
#
# Bulk Modulus (GPa) = 9.01883 54.30661 31.66272
# Shear Modulus (GPa) = 11.53872 29.87390 20.70631
#
# Velocity S-wave (km/s) = 2.30001 3.70081 3.08107
# Velocity P-wave (km/s) = 3.34487 6.56953 5.21281
#
# Compressibility (1/GPa) = 0.11087909
#
# Stress axis : x y z
#
# Youngs Moduli (GPa) = 50.62463 13.41999 25.62654
#
# Poissons Ratio (x) = 0.21084 0.26916
# Poissons Ratio (y) = 0.79534 -0.38460
# Poissons Ratio (z) = 0.53172 -0.20140
#
# Static dielectric constant tensor:
#      x y z
#    x 3.974730 0.171460 0.241010 
#    y 0.171460 4.212680 -0.448770 
#    z 0.241010 -0.448770 3.870660 
# 
# 
# High freq. dielectric constant tensor:
#      x y z
#    x 1.854310 0.017820 0.027710 
#    y 0.017820 1.850610 -0.023900 
#    z 0.027710 -0.023900 1.842250 
# 
# From -- ./inp_files/263328.got.cif
#   From: 2010.06.25/outbox.cif.g09.slc.cpg/sg2_132_cif.got.tgz:263328.got - 2010.06.27 13:26:56.
