data_PCOD8042447
_publ_section_title
;
Structure prediction by ZEFSAII (Michael W. Deem and Ramdas Pophale) SiO2 
 PCOD8042447
Probable space group: P -1
;
_chemical_formula_sum "Si O2"
_cell_formula_units_Z 16
_cell_length_a 12.492617
_cell_length_b 6.267485
_cell_length_c 13.315297
_cell_angle_alpha 73.617266
_cell_angle_beta 128.246710
_cell_angle_gamma 100.574746
_cell_volume 785.472671
_symmetry_space_group_name_H-M "P -1"
_symmetry_group_IT_number 2
_symmetry_cell_setting 'triclinic'
loop_
_space_group_symop_operation_xyz
x,y,z
-x,-y,-z
loop_
_atom_site_type_symbol
_atom_site_label
_atom_site_fract_x
_atom_site_fract_y
_atom_site_fract_z
Si Si1 0.663073 0.123883 0.462679
Si Si2 0.940107 0.571700 0.105226
Si Si3 0.565660 0.717726 0.552035
Si Si4 0.603297 0.817072 0.046956
Si Si5 0.185182 0.850728 0.823193
Si Si6 0.384229 0.655567 0.802848
Si Si7 0.054196 0.894723 0.288275
Si Si8 0.165222 0.290723 0.175730
O O1 0.568216 0.169777 0.496301
O O2 0.615387 0.255255 0.320779
O O3 0.819404 0.199349 0.562471
O O4 0.641191 0.853853 0.485318
O O5 0.835655 0.371053 0.095583
O O6 0.970964 0.698461 0.210372
O O7 0.081879 0.490932 0.151283
O O8 0.857877 0.716011 0.956881
O O9 0.500000 0.500000 0.500000
O O10 0.676310 0.671167 0.710017
O O11 0.636500 0.612750 0.170177
O O12 0.739294 0.962151 0.088332
O O13 0.537590 0.706621 0.924587
O O14 0.500000 0.000000 0.000000
O O15 0.267448 0.790180 0.777979
O O16 0.039060 0.967805 0.704419
O O17 0.111898 0.053582 0.213958
#
# Coordination Sequence:
#
# PCOD8042447 Si02
#       8
#     2   2   2   2   2   2   2   2
#     4  10  23  38  57  83 111 151 193 228 280 339
#     4  10  19  35  56  82 114 147 186 236 282 329
#     4  10  21  38  57  82 115 147 186 236 282 333
#     4   9  20  38  58  83 112 142 184 234 282 333
#     4  10  21  35  56  84 113 147 187 232 281 330
#     4  10  21  39  59  82 114 148 186 233 280 338
#     4  10  20  37  55  80 117 150 187 232 275 332
#     4   9  20  34  56  84 109 147 191 229 283 337
#
# _framework density 20.369902
#
# number of rings (size 3 to 8) (size 9 to 14) (size 15 to 20)
#    0.000    2.250    0.000    1.875    0.000    7.500 
#    0.000    5.000    0.000    0.000    0.000    0.000 
#    0.000    0.000    0.000    0.000    0.000    0.000 
#
# Total GULP energy -198240.106725 kJ/mol
# GULP energy per Si atom -12390.006670 kJ/mol
# Density = 2.032354 g / cm^3
# Si number density = 20.369902 Si / 1000 Ang^3
#
#
#
# Elastic Constant Matrix: (Units=GPa)
#
#
# Indices 1 2 3 4 5 6 
#
# 1 80.7538 28.7023 26.0207 -2.1087 12.2862 4.2003
# 2 28.7023 122.2290 52.1125 4.2484 4.5176 21.8410
# 3 26.0207 52.1125 108.3518 -15.9581 7.8697 17.2279
# 4 -2.1087 4.2484 -15.9581 26.7177 3.1425 5.7775
# 5 12.2862 4.5176 7.8697 3.1425 30.6601 1.3637
# 6 4.2003 21.8410 17.2279 5.7775 1.3637 33.3819
#
#
#
# Elastic Compliance Matrix: (Units=1/GPa)
#
#
# Indices 1 2 3 4 5 6 
#
# 1 0.014692 -0.002642 -0.001908 0.000843 -0.005136 0.000929
# 2 -0.002642 0.011830 -0.005164 -0.004454 0.001277 -0.004024
# 3 -0.001908 -0.005164 0.015018 0.011308 -0.003223 -0.005957
# 4 0.000843 -0.004454 0.011308 0.048180 -0.007029 -0.011079
# 5 -0.005136 0.001277 -0.003223 -0.007029 0.035979 0.001221
# 6 0.000929 -0.004024 -0.005957 -0.011079 0.001221 0.037414
#
#
# Mechanical properties :
#
#
# Convention : Reuss Voigt Hill
#
# Bulk Modulus (GPa) = 45.22480 58.33395 51.77937
# Shear Modulus (GPa) = 26.32785 31.78521 29.05653
#
# Velocity S-wave (km/s) = 3.59902 3.95448 3.78093
# Velocity P-wave (km/s) = 6.28654 7.03918 6.67348
#
# Compressibility (1/GPa) = 0.02211176
#
# Stress axis : x y z
#
# Youngs Moduli (GPa) = 68.06263 84.52925 66.58715
#
# Poissons Ratio (x) = 0.22333 0.12705
# Poissons Ratio (y) = 0.17982 0.34388
# Poissons Ratio (z) = 0.12987 0.43654
#
# Static dielectric constant tensor:
#      x y z
#    x 3.851350 0.224540 0.362770 
#    y 0.224540 3.527960 0.394410 
#    z 0.362770 0.394410 3.327190 
# 
# 
# High freq. dielectric constant tensor:
#      x y z
#    x 1.796530 0.004150 0.026340 
#    y 0.004150 1.806920 -0.006410 
#    z 0.026340 -0.006410 1.773720 
# 
# From -- ./inp_files/71251.got.cif
#   From: 2010.06.25/outbox.cif.g09.slc.cpg/sg2_36_cif.got.tgz:71251.got - 2010.06.27 13:26:56.
