data_PCOD8042576
_publ_section_title
;
Structure prediction by ZEFSAII (Michael W. Deem and Ramdas Pophale) SiO2 
 PCOD8042576
Probable space group: P -1
;
_chemical_formula_sum "Si O2"
_cell_formula_units_Z 16
_cell_length_a 14.892220
_cell_length_b 21.110389
_cell_length_c 24.141392
_cell_angle_alpha 160.704495
_cell_angle_beta 160.526228
_cell_angle_gamma 29.768648
_cell_volume 819.543341
_symmetry_space_group_name_H-M "P -1"
_symmetry_group_IT_number 2
_symmetry_cell_setting 'triclinic'
loop_
_space_group_symop_operation_xyz
x,y,z
-x,-y,-z
loop_
_atom_site_type_symbol
_atom_site_label
_atom_site_fract_x
_atom_site_fract_y
_atom_site_fract_z
Si Si1 0.135376 0.577943 0.308277
Si Si2 0.312721 0.690197 0.382533
Si Si3 0.569664 0.760321 0.794191
Si Si4 0.952035 0.667517 0.568420
Si Si5 0.733588 0.692400 0.020558
Si Si6 0.223092 0.934962 0.037677
Si Si7 0.338870 0.807431 0.812180
Si Si8 0.446663 0.384312 0.025065
O O1 0.185573 0.597561 0.288789
O O2 0.343605 0.737878 0.595759
O O3 0.196463 0.365805 0.185627
O O4 0.820158 0.602135 0.156360
O O5 0.061227 0.750512 0.251962
O O6 0.548841 0.873533 0.683310
O O7 0.408144 0.522652 0.263202
O O8 0.403766 0.696461 0.702406
O O9 0.730764 0.984756 0.074313
O O10 0.000000 0.500000 0.500000
O O11 0.098956 0.675289 0.600155
O O12 0.625588 0.607071 0.315702
O O13 0.064355 0.868861 0.832724
O O14 0.641501 0.705748 0.040708
O O15 0.612967 0.849930 0.044721
O O16 0.363707 0.768056 0.011726
O O17 0.000000 0.000000 0.000000
#
# Coordination Sequence:
#
# PCOD8042576 Si02
#       8
#     2   2   2   2   2   2   2   2
#     4  10  21  39  57  84 118 150 198 241 279 339
#     4  10  21  33  58  89 117 149 186 244 300 337
#     4  10  23  37  58  86 115 160 195 232 279 336
#     4  10  20  38  59  85 117 150 188 233 301 349
#     4  10  19  35  58  88 118 147 183 245 300 343
#     4  11  22  33  53  90 121 146 184 234 301 354
#     4  11  20  38  60  84 116 154 195 233 282 353
#     4  10  22  37  59  86 119 151 187 245 297 342
#
# _framework density 19.523067999999999
#
# number of rings (size 3 to 8) (size 9 to 14) (size 15 to 20)
#    0.000    1.750    3.750    1.500    3.500    1.000 
#    0.000    1.250    0.000    0.000    0.000    0.000 
#    0.000    0.000    0.000    0.000    0.000    0.000 
#
# Total GULP energy -198251.685779 kJ/mol
# GULP energy per Si atom -12390.730361 kJ/mol
# Density = 1.947863 g / cm^3
# Si number density = 19.523068 Si / 1000 Ang^3
#
#
#
# Elastic Constant Matrix: (Units=GPa)
#
#
# Indices 1 2 3 4 5 6 
#
# 1 64.2724 19.6902 1.3449 -1.2575 1.2270 -6.2559
# 2 19.6902 101.5336 35.4486 -15.8336 1.3047 -14.7157
# 3 1.3449 35.4486 93.5597 -4.3652 3.5956 -9.1423
# 4 -1.2575 -15.8336 -4.3652 30.6007 1.6842 -1.6233
# 5 1.2270 1.3047 3.5956 1.6842 26.2861 0.2489
# 6 -6.2559 -14.7157 -9.1423 -1.6233 0.2489 28.4871
#
#
#
# Elastic Compliance Matrix: (Units=1/GPa)
#
#
# Indices 1 2 3 4 5 6 
#
# 1 0.016823 -0.003498 0.001298 -0.000771 -0.000761 0.002267
# 2 -0.003498 0.013883 -0.004353 0.006728 -0.000413 0.005394
# 3 0.001298 -0.004353 0.012572 -0.000209 -0.001570 0.002073
# 4 -0.000771 0.006728 -0.000209 0.036528 -0.002660 0.005344
# 5 -0.000761 -0.000413 -0.001570 -0.002660 0.038497 -0.001372
# 6 0.002267 0.005394 0.002073 0.005344 -0.001372 0.039369
#
#
# Mechanical properties :
#
#
# Convention : Reuss Voigt Hill
#
# Bulk Modulus (GPa) = 33.14166 41.37034 37.25600
# Shear Modulus (GPa) = 27.64925 30.60023 29.12474
#
# Velocity S-wave (km/s) = 3.76737 3.96332 3.86659
# Velocity P-wave (km/s) = 5.99472 6.49464 6.24968
#
# Compressibility (1/GPa) = 0.03017351
#
# Stress axis : x y z
#
# Youngs Moduli (GPa) = 59.44161 72.02942 79.54059
#
# Poissons Ratio (x) = 0.25193 -0.10326
# Poissons Ratio (y) = 0.20790 0.34625
# Poissons Ratio (z) = -0.07717 0.31355
#
# Static dielectric constant tensor:
#      x y z
#    x 3.482430 -0.140070 -0.089500 
#    y -0.140070 3.723950 -0.245380 
#    z -0.089500 -0.245380 3.848300 
# 
# 
# High freq. dielectric constant tensor:
#      x y z
#    x 1.746110 -0.011300 -0.009430 
#    y -0.011300 1.754710 -0.003310 
#    z -0.009430 -0.003310 1.754530 
# 
# From -- ./inp_files/319865.got.cif
#   From: 2010.06.25/outbox.cif.g09.slc.cpg/sg2_160_cif.got.tgz:319865.got - 2010.06.27 13:26:56.
