data_PCOD8042995
_publ_section_title
;
Structure prediction by ZEFSAII (Michael W. Deem and Ramdas Pophale) SiO2 
 PCOD8042995
Probable space group: P -1
;
_chemical_formula_sum "Si O2"
_cell_formula_units_Z 16
_cell_length_a 18.771362
_cell_length_b 6.358180
_cell_length_c 21.266025
_cell_angle_alpha 103.192134
_cell_angle_beta 19.087604
_cell_angle_gamma 101.585787
_cell_volume 807.223378
_symmetry_space_group_name_H-M "P -1"
_symmetry_group_IT_number 2
_symmetry_cell_setting 'triclinic'
loop_
_space_group_symop_operation_xyz
x,y,z
-x,-y,-z
loop_
_atom_site_type_symbol
_atom_site_label
_atom_site_fract_x
_atom_site_fract_y
_atom_site_fract_z
Si Si1 0.167828 0.685647 0.131115
Si Si2 0.143589 0.033980 0.674385
Si Si3 0.539191 0.359430 0.646416
Si Si4 0.131238 0.705043 0.422571
Si Si5 0.344391 0.458526 0.569601
Si Si6 0.083543 0.304493 0.087676
Si Si7 0.942981 0.146320 0.633919
Si Si8 0.359737 0.402881 0.301363
O O1 0.107572 0.448095 0.140945
O O2 0.162822 0.713017 0.212051
O O3 0.998868 0.863231 0.255849
O O4 0.412762 0.726911 0.909306
O O5 0.288920 0.207813 0.599186
O O6 0.311081 0.857227 0.493670
O O7 0.975187 0.935202 0.858023
O O8 0.532243 0.474332 0.592374
O O9 0.648359 0.522668 0.614411
O O10 0.297494 0.301037 0.865943
O O11 0.207802 0.811635 0.299864
O O12 0.329223 0.616787 0.296320
O O13 0.000000 0.500000 0.500000
O O14 0.978706 0.888273 0.599143
O O15 0.500000 0.500000 0.500000
O O16 0.118758 0.597545 0.777428
O O17 0.180508 0.231607 0.426597
#
# Coordination Sequence:
#
# PCOD8042995 Si02
#       8
#     2   2   2   2   2   2   2   2
#     4  10  21  34  56  84 109 140 183 229 274 325
#     4  10  20  36  57  81 111 147 183 227 274 324
#     4  10  21  37  59  84 111 144 183 228 277 328
#     4   9  20  36  53  75 108 144 181 224 270 323
#     4  10  22  39  57  82 116 148 182 226 273 326
#     4   9  21  38  56  86 114 141 186 229 272 329
#     4  10  19  36  55  75 108 146 179 222 277 323
#     4  10  20  35  55  81 106 137 182 226 271 326
#
# _framework density 19.821034000000001
#
# number of rings (size 3 to 8) (size 9 to 14) (size 15 to 20)
#    0.000    2.250    0.000    3.000    0.000   10.000 
#    0.000    6.875    0.000    0.000    0.000    0.000 
#    0.000    0.000    0.000    0.000    0.000    0.000 
#
# Total GULP energy -198339.047932 kJ/mol
# GULP energy per Si atom -12396.190496 kJ/mol
# Density = 1.977592 g / cm^3
# Si number density = 19.821034 Si / 1000 Ang^3
#
#
#
# Elastic Constant Matrix: (Units=GPa)
#
#
# Indices 1 2 3 4 5 6 
#
# 1 126.6946 34.4789 42.4092 5.2872 5.9890 2.4021
# 2 34.4789 103.8304 45.0525 -2.9851 14.2959 0.1134
# 3 42.4092 45.0525 95.3168 -2.9741 8.2322 -0.6346
# 4 5.2872 -2.9851 -2.9741 23.3923 -2.9314 -1.1985
# 5 5.9890 14.2959 8.2322 -2.9314 19.0602 -2.7421
# 6 2.4021 0.1134 -0.6346 -1.1985 -2.7421 16.7116
#
#
#
# Elastic Compliance Matrix: (Units=1/GPa)
#
#
# Indices 1 2 3 4 5 6 
#
# 1 0.009752 -0.001623 -0.003591 -0.003098 -0.001049 -0.001921
# 2 -0.001623 0.013358 -0.004940 0.000442 -0.007486 -0.001242
# 3 -0.003591 -0.004940 0.014579 0.001964 -0.001006 0.001079
# 4 -0.003098 0.000442 0.001964 0.044939 0.007418 0.004957
# 5 -0.001049 -0.007486 -0.001006 0.007418 0.061538 0.010793
# 6 -0.001921 -0.001242 0.001079 0.004957 0.010793 0.062291
#
#
# Mechanical properties :
#
#
# Convention : Reuss Voigt Hill
#
# Bulk Modulus (GPa) = 57.52862 63.30254 60.41558
# Shear Modulus (GPa) = 21.50007 25.42625 23.46316
#
# Velocity S-wave (km/s) = 3.29707 3.58549 3.44430
# Velocity P-wave (km/s) = 6.60161 7.01052 6.80913
#
# Compressibility (1/GPa) = 0.01738265
#
# Stress axis : x y z
#
# Youngs Moduli (GPa) = 102.54469 74.86046 68.59115
#
# Poissons Ratio (x) = 0.12148 0.24629
# Poissons Ratio (y) = 0.16641 0.33882
# Poissons Ratio (z) = 0.36821 0.36979
#
# Static dielectric constant tensor:
#      x y z
#    x 3.676170 -0.119620 -0.100870 
#    y -0.119620 3.783000 0.054970 
#    z -0.100870 0.054970 3.580210 
# 
# 
# High freq. dielectric constant tensor:
#      x y z
#    x 1.769820 0.000070 -0.005160 
#    y 0.000070 1.779480 0.003630 
#    z -0.005160 0.003630 1.761730 
# 
# From -- ./inp_files/44780.got.cif
#   From: 2010.06.25/outbox.cif.g09.slc.cpg/sg2_23_cif.got.tgz:44780.got - 2010.06.27 13:26:56.
