data_PCOD8042176
_publ_section_title
;
Structure prediction by ZEFSAII (Michael W. Deem and Ramdas Pophale) SiO2 
 PCOD8042176
Probable space group: P -1
;
_chemical_formula_sum "Si O2"
_cell_formula_units_Z 12
_cell_length_a 6.693671
_cell_length_b 9.552401
_cell_length_c 11.522076
_cell_angle_alpha 53.264180
_cell_angle_beta 122.339427
_cell_angle_gamma 130.008738
_cell_volume 438.443045
_symmetry_space_group_name_H-M "P -1"
_symmetry_group_IT_number 2
_symmetry_cell_setting 'triclinic'
loop_
_space_group_symop_operation_xyz
x,y,z
-x,-y,-z
loop_
_atom_site_type_symbol
_atom_site_label
_atom_site_fract_x
_atom_site_fract_y
_atom_site_fract_z
Si Si1 0.960586 0.223021 0.174497
Si Si2 0.899528 0.281914 0.526173
Si Si3 0.376909 0.213798 0.726309
Si Si4 0.745359 0.787964 0.045882
Si Si5 0.044527 0.579600 0.161074
Si Si6 0.426638 0.147809 0.272968
O O1 0.962594 0.354055 0.218016
O O2 0.241571 0.217668 0.253238
O O3 0.715635 0.008644 0.234244
O O4 0.892950 0.292666 0.999094
O O5 0.721295 0.249229 0.372034
O O6 0.000000 0.500000 0.500000
O O7 0.175745 0.283618 0.573597
O O8 0.726165 0.095785 0.651821
O O9 0.381562 0.228062 0.861063
O O10 0.683452 0.342053 0.715977
O O11 0.822034 0.608750 0.150694
O O12 0.534214 0.766910 0.889348
O O13 0.000000 0.000000 0.000000
#
# Coordination Sequence:
#
# PCOD8042176 Si02
#       6
#     2   2   2   2   2   2
#     4   9  18  34  54  85 116 153 192 235 296 347
#     4  10  19  34  59  86 112 160 204 229 292 363
#     4  11  21  38  64  87 118 159 196 245 301 347
#     4  11  20  39  62  94 121 151 197 254 303 342
#     4  10  20  35  58  87 123 152 192 245 298 359
#     4   9  19  36  57  83 123 153 190 251 291 344
#
# _framework density 27.369575999999999
#
# number of rings (size 3 to 8) (size 9 to 14) (size 15 to 20)
#    0.000    2.000    5.000    1.500    0.000    0.000 
#    0.000   16.667    0.000    9.000    0.000    0.000 
#    0.000    0.000    0.000    0.000    0.000    0.000 
#
# Total GULP energy -148786.405811 kJ/mol
# GULP energy per Si atom -12398.867151 kJ/mol
# Density = 2.730728 g / cm^3
# Si number density = 27.369576 Si / 1000 Ang^3
#
#
#
# Elastic Constant Matrix: (Units=GPa)
#
#
# Indices 1 2 3 4 5 6 
#
# 1 54.5463 47.2282 50.0972 7.3759 29.6260 7.9352
# 2 47.2282 202.9461 67.3742 -23.9528 46.7576 -5.0499
# 3 50.0972 67.3742 152.6841 11.3946 30.6681 5.1467
# 4 7.3759 -23.9528 11.3946 44.8420 8.0818 25.3897
# 5 29.6260 46.7576 30.6681 8.0818 40.7080 5.2279
# 6 7.9352 -5.0499 5.1467 25.3897 5.2279 26.9759
#
#
#
# Elastic Compliance Matrix: (Units=1/GPa)
#
#
# Indices 1 2 3 4 5 6 
#
# 1 0.038772 -0.001508 -0.008017 0.004311 -0.019971 -0.010345
# 2 -0.001508 0.009300 -0.002368 0.010647 -0.009195 -0.005602
# 3 -0.008017 -0.002368 0.010206 -0.005600 0.001338 0.004979
# 4 0.004311 0.010647 -0.005600 0.061777 -0.016588 -0.053137
# 5 -0.019971 -0.009195 0.001338 -0.016588 0.050703 0.009685
# 6 -0.010345 -0.005602 0.004979 -0.053137 0.009685 0.086250
#
#
# Mechanical properties :
#
#
# Convention : Reuss Voigt Hill
#
# Bulk Modulus (GPa) = 28.99299 82.17509 55.58404
# Shear Modulus (GPa) = 17.10621 38.87030 27.98825
#
# Velocity S-wave (km/s) = 2.50273 3.77264 3.20129
# Velocity P-wave (km/s) = 4.35519 7.00475 5.83242
#
# Compressibility (1/GPa) = 0.03449110
#
# Stress axis : x y z
#
# Youngs Moduli (GPa) = 25.79208 107.52574 97.97955
#
# Poissons Ratio (x) = 0.16219 0.78553
# Poissons Ratio (y) = 0.03890 0.23199
# Poissons Ratio (z) = 0.20678 0.25459
#
# Static dielectric constant tensor:
#      x y z
#    x 5.026660 -0.164060 0.376480 
#    y -0.164060 5.463600 -0.086280 
#    z 0.376480 -0.086280 5.286530 
# 
# 
# High freq. dielectric constant tensor:
#      x y z
#    x 2.098160 0.006790 0.024830 
#    y 0.006790 2.118370 -0.007610 
#    z 0.024830 -0.007610 2.105950 
# 
# From -- ./inp_files/489018.got.cif
#   From: 2010.06.25/outbox.cif.g09.slc.cpg/sg2_245_cif.got.tgz:489018.got - 2010.06.27 13:26:56.
