data_PCOD8042369
_publ_section_title
;
Structure prediction by ZEFSAII (Michael W. Deem and Ramdas Pophale) SiO2 
 PCOD8042369
Probable space group: P -1
;
_chemical_formula_sum "Si O2"
_cell_formula_units_Z 14
_cell_length_a 9.195800
_cell_length_b 11.772618
_cell_length_c 10.952067
_cell_angle_alpha 81.447716
_cell_angle_beta 41.717858
_cell_angle_gamma 101.112685
_cell_volume 692.151061
_symmetry_space_group_name_H-M "P -1"
_symmetry_group_IT_number 2
_symmetry_cell_setting 'triclinic'
loop_
_space_group_symop_operation_xyz
x,y,z
-x,-y,-z
loop_
_atom_site_type_symbol
_atom_site_label
_atom_site_fract_x
_atom_site_fract_y
_atom_site_fract_z
Si Si1 0.655097 0.963231 0.002651
Si Si2 0.873888 0.062402 0.331500
Si Si3 0.352100 0.902614 0.775492
Si Si4 0.966513 0.517434 0.325922
Si Si5 0.186877 0.350607 0.090192
Si Si6 0.644068 0.334786 0.753714
Si Si7 0.986971 0.620119 0.048571
O O1 0.488376 0.815714 0.172122
O O2 0.728292 0.057753 0.055916
O O3 0.914239 0.982361 0.782390
O O4 0.500000 0.000000 0.000000
O O5 0.768854 0.050009 0.262552
O O6 0.983115 0.210096 0.287348
O O7 0.648407 0.969177 0.573156
O O8 0.253231 0.747586 0.863539
O O9 0.134684 0.457822 0.171410
O O10 0.122578 0.627553 0.309670
O O11 0.882713 0.582597 0.258324
O O12 0.727609 0.409243 0.560218
O O13 0.463287 0.374676 0.937957
O O14 0.183782 0.350290 0.942469
O O15 0.000000 0.500000 0.000000
#
# Coordination Sequence:
#
# PCOD8042369 Si02
#       7
#     2   2   2   2   2   2   2
#     4  11  22  36  54  81 111 138 176 222 265 314
#     4   9  20  36  58  81 103 140 180 217 266 315
#     4  10  19  37  58  78 108 140 175 219 265 314
#     4  10  19  35  53  75 107 139 173 212 256 308
#     4   9  18  35  55  77 104 135 174 217 260 306
#     4  10  21  34  53  77 104 142 176 208 259 315
#     4   9  19  35  55  79 105 134 172 218 260 307
#
# _framework density 20.226797000000001
#
# number of rings (size 3 to 8) (size 9 to 14) (size 15 to 20)
#    0.000    2.286    0.000    2.571    0.000    2.286 
#    0.000   10.000    0.000    0.000    0.000    0.000 
#    0.000    0.000    0.000    0.000    0.000    0.000 
#
# Total GULP energy -173526.927351 kJ/mol
# GULP energy per Si atom -12394.780525 kJ/mol
# Density = 2.018076 g / cm^3
# Si number density = 20.226797 Si / 1000 Ang^3
#
#
#
# Elastic Constant Matrix: (Units=GPa)
#
#
# Indices 1 2 3 4 5 6 
#
# 1 48.4194 12.1883 22.8598 -5.7561 -3.6147 -0.5685
# 2 12.1883 85.3678 28.6455 -9.7707 -2.9687 0.3205
# 3 22.8598 28.6455 89.4075 -16.6057 -2.7183 -7.3743
# 4 -5.7561 -9.7707 -16.6057 28.3823 -1.5851 0.2856
# 5 -3.6147 -2.9687 -2.7183 -1.5851 30.3367 4.5098
# 6 -0.5685 0.3205 -7.3743 0.2856 4.5098 25.3015
#
#
#
# Elastic Compliance Matrix: (Units=1/GPa)
#
#
# Indices 1 2 3 4 5 6 
#
# 1 0.023907 -0.001326 -0.005487 0.001338 0.002522 -0.001510
# 2 -0.001326 0.013430 -0.003621 0.002317 0.001174 -0.001491
# 3 -0.005487 -0.003621 0.015325 0.006567 0.000068 0.004303
# 4 0.001338 0.002317 0.006567 0.040299 0.002941 0.000936
# 5 0.002522 0.001174 0.000068 0.002941 0.034447 -0.006111
# 6 -0.001510 -0.001491 0.004303 0.000936 -0.006111 0.041841
#
#
# Mechanical properties :
#
#
# Convention : Reuss Voigt Hill
#
# Bulk Modulus (GPa) = 31.45270 38.95354 35.20312
# Shear Modulus (GPa) = 24.91112 27.43750 26.17431
#
# Velocity S-wave (km/s) = 3.51321 3.68706 3.60118
# Velocity P-wave (km/s) = 5.66044 6.11768 5.89350
#
# Compressibility (1/GPa) = 0.03179377
#
# Stress axis : x y z
#
# Youngs Moduli (GPa) = 41.82923 74.46095 65.25497
#
# Poissons Ratio (x) = 0.09870 0.35807
# Poissons Ratio (y) = 0.05545 0.23628
# Poissons Ratio (z) = 0.22953 0.26962
#
# Static dielectric constant tensor:
#      x y z
#    x 3.893640 0.012520 0.133560 
#    y 0.012520 3.582060 -0.218850 
#    z 0.133560 -0.218850 3.633910 
# 
# 
# High freq. dielectric constant tensor:
#      x y z
#    x 1.787140 0.011090 0.002210 
#    y 0.011090 1.787020 -0.016980 
#    z 0.002210 -0.016980 1.781620 
# 
# From -- ./inp_files/66981.got.cif
#   From: 2010.06.25/outbox.cif.g09.slc.cpg/sg2_34_cif.got.tgz:66981.got - 2010.06.27 13:26:56.
