data_PCOD8042618
_publ_section_title
;
Structure prediction by ZEFSAII (Michael W. Deem and Ramdas Pophale) SiO2 
 PCOD8042618
Probable space group: P -1
;
_chemical_formula_sum "Si O2"
_cell_formula_units_Z 16
_cell_length_a 8.698760
_cell_length_b 14.860913
_cell_length_c 11.944405
_cell_angle_alpha 38.793734
_cell_angle_beta 76.921829
_cell_angle_gamma 59.544220
_cell_volume 792.141674
_symmetry_space_group_name_H-M "P -1"
_symmetry_group_IT_number 2
_symmetry_cell_setting 'triclinic'
loop_
_space_group_symop_operation_xyz
x,y,z
-x,-y,-z
loop_
_atom_site_type_symbol
_atom_site_label
_atom_site_fract_x
_atom_site_fract_y
_atom_site_fract_z
Si Si1 0.803752 0.051858 0.030642
Si Si2 0.716391 0.410807 0.083448
Si Si3 0.209760 0.887000 0.773008
Si Si4 0.617591 0.764297 0.731952
Si Si5 0.611983 0.022958 0.625330
Si Si6 0.566367 0.313795 0.629184
Si Si7 0.586305 0.894209 0.199132
Si Si8 0.179307 0.805525 0.512869
O O1 0.779294 0.134869 0.074806
O O2 0.778922 0.888491 0.197062
O O3 0.646638 0.195708 0.838313
O O4 0.000000 0.000000 0.000000
O O5 0.837049 0.248042 0.140013
O O6 0.759541 0.355070 0.260558
O O7 0.500000 0.500000 0.000000
O O8 0.757810 0.559328 0.913125
O O9 0.407256 0.844198 0.736560
O O10 0.044372 0.079707 0.580498
O O11 0.583123 0.830344 0.545432
O O12 0.709272 0.844586 0.714100
O O13 0.560071 0.997542 0.782568
O O14 0.761087 0.077874 0.547535
O O15 0.500000 0.500000 0.500000
O O16 0.399134 0.288525 0.635714
O O17 0.720346 0.260885 0.558743
O O18 0.500000 0.000000 0.000000
#
# Coordination Sequence:
#
# PCOD8042618 Si02
#       8
#     2   2   2   2   2   2   2   2
#     4  11  21  40  61  86 114 154 203 238 297 351
#     4  10  21  35  57  87 114 151 195 239 284 342
#     4  11  21  36  61  83 117 155 189 242 293 347
#     4  10  21  36  60  86 113 153 195 236 288 345
#     4  10  19  35  59  84 114 150 196 234 285 355
#     4  10  23  37  61  88 116 153 200 246 290 343
#     4   9  20  36  58  85 113 154 194 238 283 351
#     4  11  21  37  59  84 117 150 198 239 293 352
#
# _framework density 20.198407
#
# number of rings (size 3 to 8) (size 9 to 14) (size 15 to 20)
#    0.000    1.750    5.000    0.375    3.500    0.000 
#    0.000    1.250    0.000    0.000    0.000    0.000 
#    0.000    0.000    0.000    0.000    0.000    0.000 
#
# Total GULP energy -198266.776851 kJ/mol
# GULP energy per Si atom -12391.673553 kJ/mol
# Density = 2.015243 g / cm^3
# Si number density = 20.198407 Si / 1000 Ang^3
#
#
#
# Elastic Constant Matrix: (Units=GPa)
#
#
# Indices 1 2 3 4 5 6 
#
# 1 58.9672 21.3175 9.8696 -11.6229 -12.5664 8.9762
# 2 21.3175 97.4134 45.1795 3.2473 -2.1783 19.8957
# 3 9.8696 45.1795 111.2243 2.9620 -0.5415 14.4789
# 4 -11.6229 3.2473 2.9620 42.5756 10.9879 -1.0658
# 5 -12.5664 -2.1783 -0.5415 10.9879 30.9913 -3.5408
# 6 8.9762 19.8957 14.4789 -1.0658 -3.5408 30.4844
#
#
#
# Elastic Compliance Matrix: (Units=1/GPa)
#
#
# Indices 1 2 3 4 5 6 
#
# 1 0.021053 -0.004091 0.000056 0.004335 0.006409 -0.002660
# 2 -0.004091 0.014687 -0.004739 -0.001867 -0.000765 -0.006284
# 3 0.000056 -0.004739 0.011219 -0.000401 -0.000234 -0.002293
# 4 0.004335 -0.001867 -0.000401 0.026882 -0.007894 0.000156
# 5 0.006409 -0.000765 -0.000234 -0.007894 0.037933 0.002854
# 6 -0.002660 -0.006284 -0.002293 0.000156 0.002854 0.039114
#
#
# Mechanical properties :
#
#
# Convention : Reuss Voigt Hill
#
# Bulk Modulus (GPa) = 34.00088 46.70423 40.35256
# Shear Modulus (GPa) = 28.05179 33.55948 30.80563
#
# Velocity S-wave (km/s) = 3.73072 4.08056 3.90956
# Velocity P-wave (km/s) = 5.95212 6.73604 6.35618
#
# Compressibility (1/GPa) = 0.02941100
#
# Stress axis : x y z
#
# Youngs Moduli (GPa) = 47.49819 68.08605 89.13507
#
# Poissons Ratio (x) = 0.27854 -0.00495
# Poissons Ratio (y) = 0.19431 0.42240
# Poissons Ratio (z) = -0.00264 0.32265
#
# Static dielectric constant tensor:
#      x y z
#    x 3.958570 0.597370 -0.247340 
#    y 0.597370 4.025780 0.051330 
#    z -0.247340 0.051330 3.886470 
# 
# 
# High freq. dielectric constant tensor:
#      x y z
#    x 1.779850 0.029700 -0.012190 
#    y 0.029700 1.782520 0.024460 
#    z -0.012190 0.024460 1.786450 
# 
# From -- ./inp_files/186114.got.cif
#   From: 2010.06.25/outbox.cif.g09.slc.cpg/sg2_94_cif.got.tgz:186114.got - 2010.06.27 13:26:56.
