data_PCOD8042281
_publ_section_title
;
Structure prediction by ZEFSAII (Michael W. Deem and Ramdas Pophale) SiO2 
 PCOD8042281
Probable space group: P -1
;
_chemical_formula_sum "Si O2"
_cell_formula_units_Z 14
_cell_length_a 7.901481
_cell_length_b 9.602894
_cell_length_c 18.316736
_cell_angle_alpha 48.507306
_cell_angle_beta 39.134531
_cell_angle_gamma 64.985732
_cell_volume 644.738072
_symmetry_space_group_name_H-M "P -1"
_symmetry_group_IT_number 2
_symmetry_cell_setting 'triclinic'
loop_
_space_group_symop_operation_xyz
x,y,z
-x,-y,-z
loop_
_atom_site_type_symbol
_atom_site_label
_atom_site_fract_x
_atom_site_fract_y
_atom_site_fract_z
Si Si1 0.406638 0.636902 0.093860
Si Si2 0.881174 0.967922 0.836491
Si Si3 0.223737 0.626427 0.007584
Si Si4 0.828401 0.979579 0.137672
Si Si5 0.727492 0.231834 0.668289
Si Si6 0.754477 0.567306 0.646522
Si Si7 0.175944 0.645512 0.830286
O O1 0.269990 0.715488 0.042393
O O2 0.191641 0.552063 0.258103
O O3 0.541209 0.469270 0.072724
O O4 0.615826 0.809389 0.001873
O O5 0.113174 0.855608 0.770818
O O6 0.000336 0.088703 0.827638
O O7 0.798335 0.095659 0.755590
O O8 0.941943 0.471677 0.162193
O O9 0.208391 0.808726 0.898177
O O10 0.534359 0.850030 0.265418
O O11 0.000000 0.000000 0.000000
O O12 0.683301 0.428938 0.649074
O O13 0.983706 0.270997 0.513559
O O14 0.499067 0.663703 0.718922
O O15 0.000000 0.500000 0.000000
#
# Coordination Sequence:
#
# PCOD8042281 Si02
#       7
#     2   2   2   2   2   2   2
#     4  10  19  37  67  87 120 165 205 258 304 369
#     4  11  22  41  67  96 124 162 220 256 309 373
#     4  10  19  34  61  98 118 152 219 252 305 364
#     4  12  23  37  64  95 126 160 211 265 305 373
#     4  11  27  43  61  95 132 168 207 257 324 375
#     4  11  23  46  62  86 134 172 202 261 322 372
#     4  11  19  40  67  91 124 166 213 258 307 371
#
# _framework density 21.714244000000001
#
# number of rings (size 3 to 8) (size 9 to 14) (size 15 to 20)
#    0.000    1.143    5.714    1.714    2.000    1.714 
#    2.571    4.286    0.000    0.000    0.000    0.000 
#    0.000    0.000    0.000    0.000    0.000    0.000 
#
# Total GULP energy -173461.783720 kJ/mol
# GULP energy per Si atom -12390.127409 kJ/mol
# Density = 2.166482 g / cm^3
# Si number density = 21.714244 Si / 1000 Ang^3
#
#
#
# Elastic Constant Matrix: (Units=GPa)
#
#
# Indices 1 2 3 4 5 6 
#
# 1 128.6672 6.3401 47.7118 -3.9390 -4.6488 31.0503
# 2 6.3401 37.2977 19.9188 -9.6189 -4.1052 16.6318
# 3 47.7118 19.9188 138.7623 7.6697 -11.5461 13.5669
# 4 -3.9390 -9.6189 7.6697 24.7036 0.8957 -1.6372
# 5 -4.6488 -4.1052 -11.5461 0.8957 30.0583 -6.3759
# 6 31.0503 16.6318 13.5669 -1.6372 -6.3759 36.3051
#
#
#
# Elastic Compliance Matrix: (Units=1/GPa)
#
#
# Indices 1 2 3 4 5 6 
#
# 1 0.011983 0.006661 -0.004343 0.005132 -0.001543 -0.011717
# 2 0.006661 0.044759 -0.007671 0.019413 -0.001190 -0.022669
# 3 -0.004343 -0.007671 0.010067 -0.006672 0.003135 0.003716
# 4 0.005132 0.019413 -0.006672 0.050426 -0.002521 -0.008958
# 5 -0.001543 -0.001190 0.003135 -0.002521 0.035596 0.006832
# 6 -0.011717 -0.022669 0.003716 -0.008958 0.006832 0.047357
#
#
# Mechanical properties :
#
#
# Convention : Reuss Voigt Hill
#
# Bulk Modulus (GPa) = 17.82419 50.29651 34.06035
# Shear Modulus (GPa) = 21.77736 33.59717 27.68726
#
# Velocity S-wave (km/s) = 3.17031 3.93777 3.57469
# Velocity P-wave (km/s) = 4.65053 6.62479 5.72343
#
# Compressibility (1/GPa) = 0.05610354
#
# Stress axis : x y z
#
# Youngs Moduli (GPa) = 83.45123 22.34163 99.33187
#
# Poissons Ratio (x) = -0.14881 0.43139
# Poissons Ratio (y) = -0.55584 0.76197
# Poissons Ratio (z) = 0.36242 0.17138
#
# Static dielectric constant tensor:
#      x y z
#    x 4.947250 0.195050 -0.033150 
#    y 0.195050 4.302250 -0.081900 
#    z -0.033150 -0.081900 3.715110 
# 
# 
# High freq. dielectric constant tensor:
#      x y z
#    x 1.872190 0.003430 -0.000580 
#    y 0.003430 1.870570 0.002170 
#    z -0.000580 0.002170 1.808510 
# 
# From -- ./inp_files/296496.got.cif
#   From: 2010.06.25/outbox.cif.g09.slc.cpg/sg2_149_cif.got.tgz:296496.got - 2010.06.27 13:26:56.
