data_PCOD8042548
_publ_section_title
;
Structure prediction by ZEFSAII (Michael W. Deem and Ramdas Pophale) SiO2 
 PCOD8042548
Probable space group: P -1
;
_chemical_formula_sum "Si O2"
_cell_formula_units_Z 14
_cell_length_a 11.928415
_cell_length_b 9.141877
_cell_length_c 19.384345
_cell_angle_alpha 138.380378
_cell_angle_beta 35.944977
_cell_angle_gamma 112.359526
_cell_volume 673.348286
_symmetry_space_group_name_H-M "P -1"
_symmetry_group_IT_number 2
_symmetry_cell_setting 'triclinic'
loop_
_space_group_symop_operation_xyz
x,y,z
-x,-y,-z
loop_
_atom_site_type_symbol
_atom_site_label
_atom_site_fract_x
_atom_site_fract_y
_atom_site_fract_z
Si Si1 0.849020 0.385066 0.770901
Si Si2 0.633193 0.323754 0.520206
Si Si3 0.456453 0.759679 0.194074
Si Si4 0.152684 0.583796 0.798690
Si Si5 0.743819 0.670931 0.521593
Si Si6 0.751958 0.992740 0.480784
Si Si7 0.724507 0.114162 0.251771
O O1 0.671411 0.389664 0.807633
O O2 0.998862 0.484085 0.696442
O O3 0.025362 0.084145 0.609906
O O4 0.715495 0.582069 0.971728
O O5 0.351375 0.529300 0.735505
O O6 0.747039 0.492458 0.519050
O O7 0.709997 0.129839 0.347303
O O8 0.733197 0.141416 0.473424
O O9 0.316558 0.042751 0.321302
O O10 0.467704 0.812826 0.289580
O O11 0.202837 0.294587 0.657340
O O12 0.175725 0.716918 0.764763
O O13 0.897430 0.799397 0.034232
O O14 0.536556 0.742205 0.596593
#
# Coordination Sequence:
#
# PCOD8042548 Si02
#       7
#     2   2   2   2   2   2   2
#     4  10  21  39  61  79 100 138 186 230 271 321
#     4  11  22  33  53  85 117 145 175 216 271 320
#     4  10  21  39  61  79  99 138 188 229 269 322
#     4  10  21  36  54  78 113 153 187 214 249 315
#     4  10  19  35  58  82 108 142 183 223 263 316
#     4  11  21  35  56  83 113 142 176 223 273 320
#     4  10  20  35  55  80 110 149 189 217 252 311
#
# _framework density 20.791616000000001
#
# number of rings (size 3 to 8) (size 9 to 14) (size 15 to 20)
#    0.000    1.714    0.000    8.143    0.000    4.000 
#    0.000    2.857    0.000    6.857    0.000    0.000 
#    0.000    0.000    0.000    0.000    0.000    0.000 
#
# Total GULP energy -173440.976282 kJ/mol
# GULP energy per Si atom -12388.641163 kJ/mol
# Density = 2.074429 g / cm^3
# Si number density = 20.791616 Si / 1000 Ang^3
#
#
#
# Elastic Constant Matrix: (Units=GPa)
#
#
# Indices 1 2 3 4 5 6 
#
# 1 27.2563 26.7169 4.4931 6.5055 11.1792 4.9857
# 2 26.7169 130.8455 35.4845 5.7117 11.8326 -7.0001
# 3 4.4931 35.4845 123.8511 -13.2859 13.7829 3.7204
# 4 6.5055 5.7117 -13.2859 20.8478 3.4675 -5.0713
# 5 11.1792 11.8326 13.7829 3.4675 27.0247 -1.8538
# 6 4.9857 -7.0001 3.7204 -5.0713 -1.8538 36.7823
#
#
#
# Elastic Compliance Matrix: (Units=1/GPa)
#
#
# Indices 1 2 3 4 5 6 
#
# 1 0.062273 -0.011523 0.002200 -0.014791 -0.020896 -0.013949
# 2 -0.011523 0.010910 -0.003124 -0.000748 0.001950 0.003949
# 3 0.002200 -0.003124 0.010381 0.007468 -0.005878 -0.001209
# 4 -0.014791 -0.000748 0.007468 0.060539 -0.004498 0.009227
# 5 -0.020896 0.001950 -0.005878 -0.004498 0.048755 0.005635
# 6 -0.013949 0.003949 -0.001209 0.009227 0.005635 0.031508
#
#
# Mechanical properties :
#
#
# Convention : Reuss Voigt Hill
#
# Bulk Modulus (GPa) = 17.04402 46.14909 31.59656
# Shear Modulus (GPa) = 18.60004 31.28153 24.94079
#
# Velocity S-wave (km/s) = 2.99422 3.88303 3.46722
# Velocity P-wave (km/s) = 4.49101 6.50754 5.59094
#
# Compressibility (1/GPa) = 0.05867160
#
# Stress axis : x y z
#
# Youngs Moduli (GPa) = 16.05823 91.65781 96.33011
#
# Poissons Ratio (x) = 1.05617 -0.21194
# Poissons Ratio (y) = 0.18504 0.30090
# Poissons Ratio (z) = -0.03533 0.28630
#
# Static dielectric constant tensor:
#      x y z
#    x 3.593560 0.283280 -0.050990 
#    y 0.283280 3.849300 -0.061560 
#    z -0.050990 -0.061560 4.133950 
# 
# 
# High freq. dielectric constant tensor:
#      x y z
#    x 1.787520 0.032410 0.004860 
#    y 0.032410 1.797650 -0.012050 
#    z 0.004860 -0.012050 1.833170 
# 
# From -- ./inp_files/566916.got.cif
#   From: 2010.06.25/outbox.cif.g09.slc.cpg/sg2_284_cif.got.tgz:566916.got - 2010.06.27 13:26:56.
