data_PCOD8042701
_publ_section_title
;
Structure prediction by ZEFSAII (Michael W. Deem and Ramdas Pophale) SiO2 
 PCOD8042701
Probable space group: P -1
;
_chemical_formula_sum "Si O2"
_cell_formula_units_Z 14
_cell_length_a 13.081311
_cell_length_b 11.717526
_cell_length_c 9.095794
_cell_angle_alpha 85.382368
_cell_angle_beta 146.554734
_cell_angle_gamma 107.659168
_cell_volume 691.513754
_symmetry_space_group_name_H-M "P -1"
_symmetry_group_IT_number 2
_symmetry_cell_setting 'triclinic'
loop_
_space_group_symop_operation_xyz
x,y,z
-x,-y,-z
loop_
_atom_site_type_symbol
_atom_site_label
_atom_site_fract_x
_atom_site_fract_y
_atom_site_fract_z
Si Si1 0.925364 0.672170 0.839217
Si Si2 0.635918 0.009687 0.438240
Si Si3 0.783475 0.069760 0.924331
Si Si4 0.723250 0.668072 0.158516
Si Si5 0.785223 0.836461 0.486971
Si Si6 0.054481 0.716162 0.312146
Si Si7 0.742123 0.465054 0.417586
O O1 0.757158 0.723593 0.581089
O O2 0.865895 0.537419 0.704238
O O3 0.149023 0.779109 0.040652
O O4 0.927139 0.656779 0.017189
O O5 0.722119 0.995596 0.703219
O O6 0.765174 0.145123 0.508103
O O7 0.400621 0.987045 0.174554
O O8 0.634333 0.899359 0.341282
O O9 0.978376 0.054284 0.228800
O O10 0.737686 0.780349 0.272579
O O11 0.767811 0.561161 0.306317
O O12 0.894544 0.726019 0.233966
O O13 0.497987 0.610629 0.821590
O O14 0.160317 0.628649 0.507427
#
# Coordination Sequence:
#
# PCOD8042701 Si02
#       7
#     2   2   2   2   2   2   2
#     4   8  19  39  60  87 113 145 195 232 282 328
#     4  10  19  35  60  88 116 146 189 227 292 330
#     4   8  18  35  57  88 109 151 184 228 279 335
#     4  10  23  40  58  82 113 157 192 223 294 334
#     4   9  19  38  58  81 118 152 184 229 273 350
#     4  11  22  36  59  91 114 146 187 244 280 329
#     4  10  21  43  58  78 118 151 192 236 278 345
#
# _framework density 20.245439999999999
#
# number of rings (size 3 to 8) (size 9 to 14) (size 15 to 20)
#    0.857    1.714    0.000    1.286    0.000    3.429 
#   12.857    1.429    0.000    0.000    0.000    0.000 
#    0.000    0.000    0.000    0.000    0.000    0.000 
#
# Total GULP energy -173534.154019 kJ/mol
# GULP energy per Si atom -12395.296716 kJ/mol
# Density = 2.019936 g / cm^3
# Si number density = 20.245440 Si / 1000 Ang^3
#
#
#
# Elastic Constant Matrix: (Units=GPa)
#
#
# Indices 1 2 3 4 5 6 
#
# 1 137.8228 45.2746 43.9530 14.2395 7.2292 -4.2570
# 2 45.2746 61.6834 11.5986 12.3534 -6.4966 -15.3828
# 3 43.9530 11.5986 65.3794 11.4029 -5.3732 1.8693
# 4 14.2395 12.3534 11.4029 20.0073 1.2837 -2.3598
# 5 7.2292 -6.4966 -5.3732 1.2837 24.3609 4.5175
# 6 -4.2570 -15.3828 1.8693 -2.3598 4.5175 25.4157
#
#
#
# Elastic Compliance Matrix: (Units=1/GPa)
#
#
# Indices 1 2 3 4 5 6 
#
# 1 0.013252 -0.009744 -0.008071 0.001528 -0.008113 -0.001500
# 2 -0.009744 0.029408 0.003970 -0.012592 0.009872 0.012951
# 3 -0.008071 0.003970 0.022772 -0.010699 0.009658 -0.003334
# 4 0.001528 -0.012592 -0.010699 0.063513 -0.009712 0.001045
# 5 -0.008113 0.009872 0.009658 -0.009712 0.049817 -0.005851
# 6 -0.001500 0.012951 -0.003334 0.001045 -0.005851 0.048316
#
#
# Mechanical properties :
#
#
# Convention : Reuss Voigt Hill
#
# Bulk Modulus (GPa) = 26.49427 51.83756 39.16592
# Shear Modulus (GPa) = 18.70238 24.89408 21.79823
#
# Velocity S-wave (km/s) = 3.04268 3.51039 3.28487
# Velocity P-wave (km/s) = 5.04567 6.48773 5.81160
#
# Compressibility (1/GPa) = 0.03774400
#
# Stress axis : x y z
#
# Youngs Moduli (GPa) = 75.46276 34.00410 43.91412
#
# Poissons Ratio (x) = 0.33132 0.35441
# Poissons Ratio (y) = 0.73527 -0.17436
# Poissons Ratio (z) = 0.60903 -0.13501
#
# Static dielectric constant tensor:
#      x y z
#    x 3.395830 -0.021060 -0.025420 
#    y -0.021060 3.416320 0.142850 
#    z -0.025420 0.142850 3.672130 
# 
# 
# High freq. dielectric constant tensor:
#      x y z
#    x 1.773240 -0.005320 -0.004540 
#    y -0.005320 1.776320 0.010510 
#    z -0.004540 0.010510 1.790970 
# 
# From -- ./inp_files/253578.got.cif
#   From: 2010.06.25/outbox.cif.g09.slc.cpg/sg2_127_cif.got.tgz:253578.got - 2010.06.27 13:26:56.
