data_PCOD8042775
_publ_section_title
;
Structure prediction by ZEFSAII (Michael W. Deem and Ramdas Pophale) SiO2 
 PCOD8042775
Probable space group: P -1
;
_chemical_formula_sum "Si O2"
_cell_formula_units_Z 16
_cell_length_a 18.378993
_cell_length_b 12.556138
_cell_length_c 11.930690
_cell_angle_alpha 54.853476
_cell_angle_beta 19.962101
_cell_angle_gamma 55.998860
_cell_volume 766.958976
_symmetry_space_group_name_H-M "P -1"
_symmetry_group_IT_number 2
_symmetry_cell_setting 'triclinic'
loop_
_space_group_symop_operation_xyz
x,y,z
-x,-y,-z
loop_
_atom_site_type_symbol
_atom_site_label
_atom_site_fract_x
_atom_site_fract_y
_atom_site_fract_z
Si Si1 0.865871 0.636066 0.368384
Si Si2 0.245307 0.463744 0.191125
Si Si3 0.294617 0.549853 0.694445
Si Si4 0.566687 0.084044 0.454861
Si Si5 0.505869 0.226846 0.851475
Si Si6 0.386546 0.355589 0.499403
Si Si7 0.476014 0.013336 0.178013
Si Si8 0.966672 0.891061 0.201928
O O1 0.729503 0.551988 0.701489
O O2 0.731870 0.662768 0.434519
O O3 0.907751 0.765827 0.295070
O O4 0.093602 0.560645 0.060657
O O5 0.000000 0.500000 0.500000
O O6 0.313778 0.328948 0.107736
O O7 0.388202 0.579631 0.878662
O O8 0.500000 0.500000 0.500000
O O9 0.317848 0.689735 0.515093
O O10 0.242315 0.446196 0.737173
O O11 0.418612 0.216343 0.596786
O O12 0.527089 0.000246 0.675179
O O13 0.500000 0.000000 0.500000
O O14 0.805528 0.127177 0.055068
O O15 0.433822 0.121795 0.927078
O O16 0.600459 0.138124 0.874734
O O17 0.231068 0.056242 0.464733
O O18 0.000000 0.000000 0.000000
#
# Coordination Sequence:
#
# PCOD8042775 Si02
#       8
#     2   2   2   2   2   2   2   2
#     4  12  22  40  63  92 130 165 217 269 320 388
#     4  11  23  40  65  95 126 171 216 269 322 387
#     4  11  22  40  64  92 127 171 220 263 322 385
#     4  11  23  39  63  94 129 164 215 267 323 392
#     4  10  21  37  64  94 126 163 219 256 325 380
#     4  11  24  39  61  94 128 167 213 268 332 380
#     4  10  20  38  63  90 126 170 211 266 320 385
#     4  10  19  35  61  88 117 165 212 256 318 374
#
# _framework density 20.861611
#
# number of rings (size 3 to 8) (size 9 to 14) (size 15 to 20)
#    0.000    1.250    1.250    7.500    0.000    0.000 
#    0.000    0.000    0.000    5.250    0.000    0.000 
#    0.000    0.000    0.000    0.000    0.000    0.000 
#
# Total GULP energy -198253.419013 kJ/mol
# GULP energy per Si atom -12390.838688 kJ/mol
# Density = 2.081413 g / cm^3
# Si number density = 20.861611 Si / 1000 Ang^3
#
#
#
# Elastic Constant Matrix: (Units=GPa)
#
#
# Indices 1 2 3 4 5 6 
#
# 1 112.8010 37.6992 29.4956 -3.0651 5.6126 6.4718
# 2 37.6992 129.2816 32.8677 -5.1662 7.5946 5.9674
# 3 29.4956 32.8677 67.2290 12.0675 9.2162 12.3506
# 4 -3.0651 -5.1662 12.0675 32.7125 -1.8021 6.3474
# 5 5.6126 7.5946 9.2162 -1.8021 41.0872 -2.6818
# 6 6.4718 5.9674 12.3506 6.3474 -2.6818 34.7533
#
#
#
# Elastic Compliance Matrix: (Units=1/GPa)
#
#
# Indices 1 2 3 4 5 6 
#
# 1 0.010673 -0.001968 -0.003989 0.002281 -0.000142 -0.000660
# 2 -0.001968 0.009534 -0.004195 0.002911 -0.000447 -0.000346
# 3 -0.003989 -0.004195 0.021671 -0.008284 -0.004234 -0.005052
# 4 0.002281 0.002911 -0.008284 0.035247 0.002277 -0.004243
# 5 -0.000142 -0.000447 -0.004234 0.002277 0.025697 0.003175
# 6 -0.000660 -0.000346 -0.005052 -0.004243 0.003175 0.031772
#
#
# Mechanical properties :
#
#
# Convention : Reuss Voigt Hill
#
# Bulk Modulus (GPa) = 46.35438 56.60405 51.47922
# Shear Modulus (GPa) = 30.84685 35.66054 33.25370
#
# Velocity S-wave (km/s) = 3.84948 4.13896 3.99684
# Velocity P-wave (km/s) = 6.48276 7.07342 6.78452
#
# Compressibility (1/GPa) = 0.02157293
#
# Stress axis : x y z
#
# Youngs Moduli (GPa) = 93.69494 104.88587 46.14424
#
# Poissons Ratio (x) = 0.20643 0.18407
# Poissons Ratio (y) = 0.18441 0.19359
# Poissons Ratio (z) = 0.37376 0.44004
#
# Static dielectric constant tensor:
#      x y z
#    x 3.772330 -0.119540 0.792000 
#    y -0.119540 4.085770 0.202400 
#    z 0.792000 0.202400 2.551670 
# 
# 
# High freq. dielectric constant tensor:
#      x y z
#    x 1.808580 -0.005890 0.029760 
#    y -0.005890 1.838810 0.004950 
#    z 0.029760 0.004950 1.806650 
# 
# From -- ./inp_files/189191.got.cif
#   From: 2010.06.25/outbox.cif.g09.slc.cpg/sg2_95_cif.got.tgz:189191.got - 2010.06.27 13:26:56.
