data_PCOD8042536
_publ_section_title
;
Structure prediction by ZEFSAII (Michael W. Deem and Ramdas Pophale) SiO2 
 PCOD8042536
Probable space group: P -1
;
_chemical_formula_sum "Si O2"
_cell_formula_units_Z 16
_cell_length_a 15.842753
_cell_length_b 9.635159
_cell_length_c 15.242797
_cell_angle_alpha 143.909606
_cell_angle_beta 44.484683
_cell_angle_gamma 144.659713
_cell_volume 782.689642
_symmetry_space_group_name_H-M "P -1"
_symmetry_group_IT_number 2
_symmetry_cell_setting 'triclinic'
loop_
_space_group_symop_operation_xyz
x,y,z
-x,-y,-z
loop_
_atom_site_type_symbol
_atom_site_label
_atom_site_fract_x
_atom_site_fract_y
_atom_site_fract_z
Si Si1 0.502952 0.135968 0.336246
Si Si2 0.058418 0.648295 0.126041
Si Si3 0.789076 0.713659 0.632959
Si Si4 0.345613 0.687271 0.970020
Si Si5 0.323021 0.303067 0.932170
Si Si6 0.191829 0.673175 0.715335
Si Si7 0.506438 0.580529 0.674902
Si Si8 0.358311 0.516289 0.196086
O O1 0.674171 0.263498 0.289902
O O2 0.455257 0.302375 0.514679
O O3 0.470605 0.162239 0.272373
O O4 0.395126 0.808395 0.276716
O O5 0.950877 0.447247 0.180717
O O6 0.077210 0.952553 0.277943
O O7 0.217912 0.712924 0.047426
O O8 0.000000 0.500000 0.000000
O O9 0.841395 0.552871 0.452559
O O10 0.656195 0.701870 0.678619
O O11 0.744107 0.563003 0.684332
O O12 0.296081 0.522024 0.016005
O O13 0.366619 0.476145 0.787521
O O14 0.500000 0.000000 0.000000
O O15 0.496527 0.456559 0.867384
O O16 0.232182 0.972949 0.795375
O O17 0.280557 0.278995 0.054740
#
# Coordination Sequence:
#
# PCOD8042536 Si02
#       8
#     2   2   2   2   2   2   2   2
#     4   9  20  34  61  90 130 157 200 263 309 368
#     4  12  25  42  64  90 128 167 207 255 316 376
#     4  11  22  39  66  89 121 165 216 255 305 373
#     4  12  22  38  66  93 123 159 213 260 305 368
#     4  10  21  36  61  92 130 160 208 257 314 367
#     4  10  23  40  61  89 124 169 209 247 313 380
#     4  10  19  35  57  97 120 157 206 260 311 352
#     4  10  19  35  60  95 126 161 202 262 314 355
#
# _framework density 20.442330999999999
#
# number of rings (size 3 to 8) (size 9 to 14) (size 15 to 20)
#    0.000    1.500    2.500    2.625    1.750    4.000 
#    0.000    0.000    0.000    1.500    0.000    0.000 
#    0.000    0.000    0.000    0.000    0.000    0.000 
#
# Total GULP energy -198330.176837 kJ/mol
# GULP energy per Si atom -12395.636052 kJ/mol
# Density = 2.039580 g / cm^3
# Si number density = 20.442331 Si / 1000 Ang^3
#
#
#
# Elastic Constant Matrix: (Units=GPa)
#
#
# Indices 1 2 3 4 5 6 
#
# 1 62.1927 44.4446 33.7039 6.6050 0.5454 -11.2033
# 2 44.4446 89.7490 48.4835 0.9458 7.8663 -2.8447
# 3 33.7039 48.4835 116.1207 3.2190 13.5501 4.1602
# 4 6.6050 0.9458 3.2190 44.4070 -1.9769 -3.0099
# 5 0.5454 7.8663 13.5501 -1.9769 28.0005 -3.0402
# 6 -11.2033 -2.8447 4.1602 -3.0099 -3.0402 24.7001
#
#
#
# Elastic Compliance Matrix: (Units=1/GPa)
#
#
# Indices 1 2 3 4 5 6 
#
# 1 0.030279 -0.012560 -0.004714 -0.002686 0.006502 0.013554
# 2 -0.012560 0.019799 -0.004140 0.001387 -0.003541 -0.002986
# 3 -0.004714 -0.004140 0.012564 -0.000738 -0.005474 -0.005495
# 4 -0.002686 0.001387 -0.000738 0.023170 0.001886 0.002121
# 5 0.006502 -0.003541 -0.005474 0.001886 0.040304 0.008654
# 6 0.013554 -0.002986 -0.005495 0.002121 0.008654 0.048539
#
#
# Mechanical properties :
#
#
# Convention : Reuss Voigt Hill
#
# Bulk Modulus (GPa) = 50.46499 57.92515 54.19507
# Shear Modulus (GPa) = 22.31263 28.85023 25.58143
#
# Velocity S-wave (km/s) = 3.30736 3.76080 3.54134
# Velocity P-wave (km/s) = 6.27096 6.87427 6.57953
#
# Compressibility (1/GPa) = 0.01981572
#
# Stress axis : x y z
#
# Youngs Moduli (GPa) = 33.02572 50.50692 79.58935
#
# Poissons Ratio (x) = 0.63436 0.37521
# Poissons Ratio (y) = 0.41480 0.32946
# Poissons Ratio (z) = 0.15569 0.20907
#
# Static dielectric constant tensor:
#      x y z
#    x 3.610380 -0.126680 0.100010 
#    y -0.126680 3.609420 0.034810 
#    z 0.100010 0.034810 4.145300 
# 
# 
# High freq. dielectric constant tensor:
#      x y z
#    x 1.777200 -0.023120 0.007270 
#    y -0.023120 1.788750 0.007160 
#    z 0.007270 0.007160 1.823180 
# 
# From -- ./inp_files/389277.got.cif
#   From: 2010.06.25/outbox.cif.g09.slc.cpg/sg2_195_cif.got.tgz:389277.got - 2010.06.27 13:26:56.
