data_PCOD8042063
_publ_section_title
;
Structure prediction by ZEFSAII (Michael W. Deem and Ramdas Pophale) SiO2 
 PCOD8042063
Probable space group: P -1
;
_chemical_formula_sum "Si O2"
_cell_formula_units_Z 12
_cell_length_a 7.218913
_cell_length_b 14.229162
_cell_length_c 6.822687
_cell_angle_alpha 81.720555
_cell_angle_beta 130.310783
_cell_angle_gamma 120.327430
_cell_volume 443.157451
_symmetry_space_group_name_H-M "P -1"
_symmetry_group_IT_number 2
_symmetry_cell_setting 'triclinic'
loop_
_space_group_symop_operation_xyz
x,y,z
-x,-y,-z
loop_
_atom_site_type_symbol
_atom_site_label
_atom_site_fract_x
_atom_site_fract_y
_atom_site_fract_z
Si Si1 0.270223 0.731152 0.376776
Si Si2 0.817602 0.949719 0.194292
Si Si3 0.383831 0.339634 0.115411
Si Si4 0.150334 0.889637 0.138495
Si Si5 0.335831 0.703057 0.003091
Si Si6 0.856343 0.569583 0.429112
O O1 0.448802 0.720458 0.673242
O O2 0.302899 0.675597 0.220022
O O3 0.394236 0.869261 0.404280
O O4 0.928184 0.651539 0.258811
O O5 0.008821 0.925633 0.190583
O O6 0.504023 0.839532 0.056333
O O7 0.000000 0.000000 0.500000
O O8 0.761319 0.039022 0.021248
O O9 0.515824 0.468437 0.247758
O O10 0.063535 0.248014 0.014136
O O11 0.464557 0.339688 0.937045
O O12 0.011800 0.644767 0.705701
O O13 0.000000 0.500000 0.500000
#
# Coordination Sequence:
#
# PCOD8042063 Si02
#       6
#     2   2   2   2   2   2
#     4  10  19  34  57  82 108 141 180 221 267 317
#     4  10  21  38  56  77 110 145 178 224 272 317
#     4   9  20  38  55  79 114 143 176 221 266 318
#     4  10  22  38  56  81 109 141 182 222 268 321
#     4   9  18  34  55  79 106 141 181 217 265 319
#     4   8  18  34  54  80 110 141 177 219 266 317
#
# _framework density 27.078415
#
# number of rings (size 3 to 8) (size 9 to 14) (size 15 to 20)
#    0.000    3.000    0.000    1.000    0.000   11.333 
#    0.000   18.333    0.000    0.000    0.000    2.333 
#    0.000    0.000    0.000    0.000    0.000    0.000 
#
# Total GULP energy -148660.173520 kJ/mol
# GULP energy per Si atom -12388.347793 kJ/mol
# Density = 2.701678 g / cm^3
# Si number density = 27.078415 Si / 1000 Ang^3
#
#
#
# Elastic Constant Matrix: (Units=GPa)
#
#
# Indices 1 2 3 4 5 6 
#
# 1 47.7146 -10.2992 10.4147 -4.1625 -8.6261 4.3272
# 2 -10.2992 135.7898 28.7021 -13.9102 8.5606 0.5741
# 3 10.4147 28.7021 85.6985 0.2025 -12.3287 3.2182
# 4 -4.1625 -13.9102 0.2025 50.8019 3.2989 11.3441
# 5 -8.6261 8.5606 -12.3287 3.2989 35.0326 0.3692
# 6 4.3272 0.5741 3.2182 11.3441 0.3692 39.5093
#
#
#
# Elastic Compliance Matrix: (Units=1/GPa)
#
#
# Indices 1 2 3 4 5 6 
#
# 1 0.023418 0.002503 -0.003017 0.003100 0.003836 -0.003281
# 2 0.002503 0.008848 -0.003688 0.003058 -0.003121 -0.000951
# 3 -0.003017 -0.003688 0.014043 -0.001574 0.005253 -0.000357
# 4 0.003100 0.003058 -0.001574 0.022440 -0.002581 -0.006675
# 5 0.003836 -0.003121 0.005253 -0.002581 0.032347 -0.000364
# 6 -0.003281 -0.000951 -0.000357 -0.006675 -0.000364 0.027633
#
#
# Mechanical properties :
#
#
# Convention : Reuss Voigt Hill
#
# Bulk Modulus (GPa) = 26.38055 36.31535 31.34795
# Shear Modulus (GPa) = 33.38509 41.09445 37.23977
#
# Velocity S-wave (km/s) = 3.51508 3.89988 3.71247
# Velocity P-wave (km/s) = 5.12229 5.80681 5.47526
#
# Compressibility (1/GPa) = 0.03790672
#
# Stress axis : x y z
#
# Youngs Moduli (GPa) = 42.70177 113.02271 71.20773
#
# Poissons Ratio (x) = -0.28295 0.21481
# Poissons Ratio (y) = -0.10690 0.26262
# Poissons Ratio (z) = 0.12882 0.41684
#
# Static dielectric constant tensor:
#      x y z
#    x 5.378980 0.641060 0.954670 
#    y 0.641060 6.180600 0.330210 
#    z 0.954670 0.330210 5.538100 
# 
# 
# High freq. dielectric constant tensor:
#      x y z
#    x 2.082330 0.001940 0.020190 
#    y 0.001940 2.118110 -0.019200 
#    z 0.020190 -0.019200 2.097750 
# 
# From -- ./inp_files/38269.got.cif
#   From: 2010.06.25/outbox.cif.g09.slc.cpg/sg2_20_cif.got.tgz:38269.got - 2010.06.27 13:26:56.
