data_PCOD8042599
_publ_section_title
;
Structure prediction by ZEFSAII (Michael W. Deem and Ramdas Pophale) SiO2 
 PCOD8042599
Probable space group: P -1
;
_chemical_formula_sum "Si O2"
_cell_formula_units_Z 12
_cell_length_a 9.603550
_cell_length_b 10.075819
_cell_length_c 8.439413
_cell_angle_alpha 62.994543
_cell_angle_beta 55.321542
_cell_angle_gamma 61.538909
_cell_volume 571.185644
_symmetry_space_group_name_H-M "P -1"
_symmetry_group_IT_number 2
_symmetry_cell_setting 'triclinic'
loop_
_space_group_symop_operation_xyz
x,y,z
-x,-y,-z
loop_
_atom_site_type_symbol
_atom_site_label
_atom_site_fract_x
_atom_site_fract_y
_atom_site_fract_z
Si Si1 0.680258 0.932405 0.513098
Si Si2 0.874238 0.432406 0.013098
Si Si3 0.953462 0.097078 0.246960
Si Si4 0.510957 0.397906 0.827286
Si Si5 0.736149 0.102093 0.672716
Si Si6 0.297500 0.402923 0.253041
O O1 0.834320 0.996025 0.300972
O O2 0.651206 0.989516 0.685061
O O3 0.500000 0.000000 0.500000
O O4 0.745860 0.745018 0.562657
O O5 0.946464 0.245019 0.062658
O O6 0.674216 0.489518 0.185060
O O7 0.868684 0.496025 0.800971
O O8 0.000000 0.500000 0.000000
O O9 0.874828 0.156866 0.441166
O O10 0.157247 0.991374 0.194139
O O11 0.579839 0.249999 0.750002
O O12 0.657241 0.491371 0.694140
O O13 0.472860 0.343134 0.058836
#
# Coordination Sequence:
#
# PCOD8042599 Si02
#       6
#     2   2   2   2   2   2
#     4  10  19  35  59  79 112 145 179 224 281 317
#     4  10  19  35  59  79 112 145 179 224 281 317
#     4   9  20  37  57  78 114 146 177 228 272 323
#     4   9  20  36  58  80 112 145 183 226 268 325
#     4   9  20  36  58  80 112 145 183 226 268 325
#     4   9  20  37  57  78 114 146 177 228 272 323
#
# _framework density 21.008928999999998
#
# number of rings (size 3 to 8) (size 9 to 14) (size 15 to 20)
#    2.000    0.667    0.000    2.000    0.000    1.333 
#    0.000    3.333    0.000    0.000    0.000    0.000 
#    0.000    0.000    0.000    0.000    0.000    0.000 
#
# Total GULP energy -148690.499273 kJ/mol
# GULP energy per Si atom -12390.874939 kJ/mol
# Density = 2.096111 g / cm^3
# Si number density = 21.008929 Si / 1000 Ang^3
#
#
#
# Elastic Constant Matrix: (Units=GPa)
#
#
# Indices 1 2 3 4 5 6 
#
# 1 178.5892 47.6545 15.5622 -30.5263 14.7092 10.8163
# 2 47.6545 95.1517 21.3611 -32.8262 2.3395 3.4865
# 3 15.5622 21.3611 26.9164 -30.7631 4.5596 -0.3468
# 4 -30.5263 -32.8262 -30.7631 49.0840 -3.7479 -2.5578
# 5 14.7092 2.3395 4.5596 -3.7479 19.4063 -13.2760
# 6 10.8163 3.4865 -0.3468 -2.5578 -13.2760 30.3577
#
#
#
# Elastic Compliance Matrix: (Units=1/GPa)
#
#
# Indices 1 2 3 4 5 6 
#
# 1 0.008095 -0.002934 0.005452 0.005333 -0.010596 -0.006670
# 2 -0.002934 0.014767 -0.003534 0.006160 0.003347 0.001291
# 3 0.005452 -0.003534 0.139483 0.086754 -0.020953 -0.001797
# 4 0.005333 0.006160 0.086754 0.081635 -0.008279 0.001641
# 5 -0.010596 0.003347 -0.020953 -0.008279 0.091550 0.042491
# 6 -0.006670 0.001291 -0.001797 0.001641 0.042491 0.053869
#
#
# Mechanical properties :
#
#
# Convention : Reuss Voigt Hill
#
# Bulk Modulus (GPa) = 6.23773 52.20144 29.21959
# Shear Modulus (GPa) = 11.23928 34.17490 22.70709
#
# Velocity S-wave (km/s) = 2.31547 4.03759 3.29117
# Velocity P-wave (km/s) = 3.18183 6.82916 5.32736
#
# Compressibility (1/GPa) = 0.16031464
#
# Stress axis : x y z
#
# Youngs Moduli (GPa) = 123.52635 67.71632 7.16935
#
# Poissons Ratio (x) = 0.19865 -0.03909
# Poissons Ratio (y) = 0.36237 0.02534
# Poissons Ratio (z) = -0.67346 0.23930
#
# Static dielectric constant tensor:
#      x y z
#    x 3.735850 0.033500 0.058300 
#    y 0.033500 3.601970 -0.285860 
#    z 0.058300 -0.285860 3.292100 
# 
# 
# High freq. dielectric constant tensor:
#      x y z
#    x 1.831670 0.003560 0.006700 
#    y 0.003560 1.812170 -0.024250 
#    z 0.006700 -0.024250 1.770780 
# 
# From -- ./inp_files/157092.got.cif
#   From: 2010.06.25/outbox.cif.g09.slc.cpg/sg2_79_cif.got.tgz:157092.got - 2010.06.27 13:26:56.
