data_PCOD8042868
_publ_section_title
;
Structure prediction by ZEFSAII (Michael W. Deem and Ramdas Pophale) SiO2 
 PCOD8042868
Probable space group: P -1
;
_chemical_formula_sum "Si O2"
_cell_formula_units_Z 16
_cell_length_a 11.288271
_cell_length_b 8.915996
_cell_length_c 9.733220
_cell_angle_alpha 55.859138
_cell_angle_beta 52.117049
_cell_angle_gamma 67.372495
_cell_volume 638.718319
_symmetry_space_group_name_H-M "P -1"
_symmetry_group_IT_number 2
_symmetry_cell_setting 'triclinic'
loop_
_space_group_symop_operation_xyz
x,y,z
-x,-y,-z
loop_
_atom_site_type_symbol
_atom_site_label
_atom_site_fract_x
_atom_site_fract_y
_atom_site_fract_z
Si Si1 0.254619 0.778319 0.340703
Si Si2 0.933440 0.514874 0.260309
Si Si3 0.180889 0.658840 0.177202
Si Si4 0.108679 0.231676 0.086581
Si Si5 0.587295 0.722714 0.054904
Si Si6 0.356930 0.696897 0.768244
Si Si7 0.826236 0.042461 0.429336
Si Si8 0.353260 0.286819 0.290893
O O1 0.211080 0.584399 0.533807
O O2 0.178629 0.802208 0.230972
O O3 0.434499 0.787216 0.206744
O O4 0.183612 0.937377 0.408226
O O5 0.016871 0.589509 0.296886
O O6 0.050874 0.378147 0.166731
O O7 0.879897 0.681166 0.116384
O O8 0.296171 0.495672 0.231200
O O9 0.244123 0.746629 0.949086
O O10 0.994605 0.070442 0.243253
O O11 0.277775 0.156685 0.047475
O O12 0.641077 0.515674 0.159550
O O13 0.565197 0.751562 0.893334
O O14 0.294164 0.806670 0.624819
O O15 0.524127 0.753049 0.656834
O O16 0.784403 0.841369 0.520765
#
# Coordination Sequence:
#
# PCOD8042868 Si02
#       8
#     2   2   2   2   2   2   2   2
#     4  11  23  37  62  98 122 150 206 264 304 339
#     4  10  19  35  63  91 118 157 205 257 290 355
#     4  11  19  41  66  88 117 162 212 250 290 358
#     4  10  19  37  60  91 123 159 205 243 300 363
#     4  11  20  38  65  89 123 157 206 251 295 358
#     4  11  19  40  67  86 117 165 211 241 294 368
#     4  11  25  39  62  93 127 159 199 250 311 360
#     4  11  22  39  65  90 122 164 206 242 302 373
#
# _framework density 25.050166999999998
#
# number of rings (size 3 to 8) (size 9 to 14) (size 15 to 20)
#    0.000    1.250    6.250    3.000    0.000    3.000 
#    0.000    0.000    0.000    0.750    0.000    0.000 
#    0.000    0.000    0.000    0.000    0.000    0.000 
#
# Total GULP energy -198472.653660 kJ/mol
# GULP energy per Si atom -12404.540854 kJ/mol
# Density = 2.499315 g / cm^3
# Si number density = 25.050167 Si / 1000 Ang^3
#
#
#
# Elastic Constant Matrix: (Units=GPa)
#
#
# Indices 1 2 3 4 5 6 
#
# 1 149.2328 14.6954 28.1803 5.9909 -26.9869 18.3122
# 2 14.6954 24.0531 5.5794 -0.1091 -1.5075 11.5492
# 3 28.1803 5.5794 79.7294 5.5023 -20.9448 4.1114
# 4 5.9909 -0.1091 5.5023 25.4345 8.2723 -4.9153
# 5 -26.9869 -1.5075 -20.9448 8.2723 48.9308 -5.6867
# 6 18.3122 11.5492 4.1114 -4.9153 -5.6867 36.1691
#
#
#
# Elastic Compliance Matrix: (Units=1/GPa)
#
#
# Indices 1 2 3 4 5 6 
#
# 1 0.008564 -0.003259 -0.001233 -0.003766 0.004386 -0.002978
# 2 -0.003259 0.051094 -0.002388 -0.000433 -0.002905 -0.014909
# 3 -0.001233 -0.002388 0.015250 -0.005183 0.006650 -0.000005
# 4 -0.003766 -0.000433 -0.005183 0.046388 -0.011319 0.007159
# 5 0.004386 -0.002905 0.006650 -0.011319 0.027614 0.000755
# 6 -0.002978 -0.014909 -0.000005 0.007159 0.000755 0.035008
#
#
# Mechanical properties :
#
#
# Convention : Reuss Voigt Hill
#
# Bulk Modulus (GPa) = 16.35375 38.88062 27.61719
# Shear Modulus (GPa) = 22.92915 35.74423 29.33669
#
# Velocity S-wave (km/s) = 3.02872 3.78154 3.42587
# Velocity P-wave (km/s) = 4.33283 5.88400 5.16696
#
# Compressibility (1/GPa) = 0.06114806
#
# Stress axis : x y z
#
# Youngs Moduli (GPa) = 116.76142 19.57169 65.57263
#
# Poissons Ratio (x) = 0.06378 0.08088
# Poissons Ratio (y) = 0.38051 0.15660
# Poissons Ratio (z) = 0.14401 0.04674
#
# Static dielectric constant tensor:
#      x y z
#    x 4.583950 0.357890 -0.080980 
#    y 0.357890 4.051470 -0.062630 
#    z -0.080980 -0.062630 4.628890 
# 
# 
# High freq. dielectric constant tensor:
#      x y z
#    x 2.011640 0.018700 -0.007270 
#    y 0.018700 1.966210 -0.008280 
#    z -0.007270 -0.008280 2.001750 
# 
# From -- ./inp_files/242460.got.cif
#   From: 2010.06.25/outbox.cif.g09.slc.cpg/sg2_122_cif.got.tgz:242460.got - 2010.06.27 13:26:56.
