data_PCOD8042445
_publ_section_title
;
Structure prediction by ZEFSAII (Michael W. Deem and Ramdas Pophale) SiO2 
 PCOD8042445
Probable space group: P -1
;
_chemical_formula_sum "Si O2"
_cell_formula_units_Z 14
_cell_length_a 25.930937
_cell_length_b 15.901806
_cell_length_c 6.749008
_cell_angle_alpha 125.427835
_cell_angle_beta 124.109783
_cell_angle_gamma 17.540070
_cell_volume 683.046841
_symmetry_space_group_name_H-M "P -1"
_symmetry_group_IT_number 2
_symmetry_cell_setting 'triclinic'
loop_
_space_group_symop_operation_xyz
x,y,z
-x,-y,-z
loop_
_atom_site_type_symbol
_atom_site_label
_atom_site_fract_x
_atom_site_fract_y
_atom_site_fract_z
Si Si1 0.449486 0.926363 0.158303
Si Si2 0.396508 0.516461 0.960461
Si Si3 0.332242 0.741397 0.764708
Si Si4 0.123650 0.026013 0.318669
Si Si5 0.857321 0.828228 0.744463
Si Si6 0.241563 0.212503 0.718519
Si Si7 0.263356 0.351464 0.645330
O O1 0.519182 0.725227 0.166767
O O2 0.606812 0.755015 0.201716
O O3 0.308133 0.209777 0.361034
O O4 0.367449 0.005949 0.892643
O O5 0.387957 0.555955 0.761685
O O6 0.503325 0.444429 0.200069
O O7 0.207825 0.811182 0.058334
O O8 0.227261 0.860971 0.519252
O O9 0.215518 0.995890 0.991586
O O10 0.134902 0.121302 0.375557
O O11 0.925062 0.308213 0.321150
O O12 0.735366 0.917435 0.564561
O O13 0.047453 0.502519 0.775800
O O14 0.277027 0.266283 0.761694
#
# Coordination Sequence:
#
# PCOD8042445 Si02
#       7
#     2   2   2   2   2   2   2
#     4  11  22  38  56  79 109 144 182 225 263 310
#     4  10  22  34  55  83 108 140 182 216 267 328
#     4  10  19  36  56  80 113 141 170 224 272 318
#     4  10  20  37  56  80 111 143 175 220 269 317
#     4   9  19  32  56  87 109 137 179 214 270 333
#     4  10  19  35  56  82 112 141 174 224 271 315
#     4  10  23  38  56  79 106 144 189 219 260 319
#
# _framework density 20.496397000000002
#
# number of rings (size 3 to 8) (size 9 to 14) (size 15 to 20)
#    0.000    2.000    0.000    3.429    0.000    4.000 
#    0.000    6.429    0.000    0.000    0.000    0.000 
#    0.000    0.000    0.000    0.000    0.000    0.000 
#
# Total GULP energy -173614.749564 kJ/mol
# GULP energy per Si atom -12401.053540 kJ/mol
# Density = 2.044975 g / cm^3
# Si number density = 20.496397 Si / 1000 Ang^3
#
#
#
# Elastic Constant Matrix: (Units=GPa)
#
#
# Indices 1 2 3 4 5 6 
#
# 1 89.7151 41.6897 26.8243 -3.2865 6.8092 2.7034
# 2 41.6897 98.1243 20.1074 -5.3260 -2.0025 -9.7480
# 3 26.8243 20.1074 48.6930 -7.6527 3.8131 -4.2362
# 4 -3.2865 -5.3260 -7.6527 27.2528 -2.3105 -6.9552
# 5 6.8092 -2.0025 3.8131 -2.3105 19.0149 1.5008
# 6 2.7034 -9.7480 -4.2362 -6.9552 1.5008 33.5510
#
#
#
# Elastic Compliance Matrix: (Units=1/GPa)
#
#
# Indices 1 2 3 4 5 6 
#
# 1 0.016579 -0.006314 -0.006930 -0.002739 -0.005199 -0.004381
# 2 -0.006314 0.013948 -0.001702 0.003055 0.004064 0.004798
# 3 -0.006930 -0.001702 0.026879 0.007467 -0.002585 0.005121
# 4 -0.002739 0.003055 0.007467 0.042108 0.004085 0.010598
# 5 -0.005199 0.004064 -0.002585 0.004085 0.055925 -0.000382
# 6 -0.004381 0.004798 0.005121 0.010598 -0.000382 0.034413
#
#
# Mechanical properties :
#
#
# Convention : Reuss Voigt Hill
#
# Bulk Modulus (GPa) = 36.34598 45.97501 41.16050
# Shear Modulus (GPa) = 21.84222 25.82447 23.83335
#
# Velocity S-wave (km/s) = 3.26799 3.55343 3.41369
# Velocity P-wave (km/s) = 5.65783 6.27019 5.97186
#
# Compressibility (1/GPa) = 0.02751336
#
# Stress axis : x y z
#
# Youngs Moduli (GPa) = 60.31883 71.69603 37.20375
#
# Poissons Ratio (x) = 0.45265 0.25783
# Poissons Ratio (y) = 0.38082 0.06333
# Poissons Ratio (z) = 0.41803 0.12204
#
# Static dielectric constant tensor:
#      x y z
#    x 3.699260 -0.056860 -0.109810 
#    y -0.056860 3.954140 0.127900 
#    z -0.109810 0.127900 3.362370 
# 
# 
# High freq. dielectric constant tensor:
#      x y z
#    x 1.794760 0.000950 -0.012750 
#    y 0.000950 1.817200 0.010010 
#    z -0.012750 0.010010 1.782330 
# 
# From -- ./inp_files/72006.got.cif
#   From: 2010.06.25/outbox.cif.g09.slc.cpg/sg2_37_cif.got.tgz:72006.got - 2010.06.27 13:26:56.
