data_PCOD8042360
_publ_section_title
;
Structure prediction by ZEFSAII (Michael W. Deem and Ramdas Pophale) SiO2 
 PCOD8042360
Probable space group: P -1
;
_chemical_formula_sum "Si O2"
_cell_formula_units_Z 14
_cell_length_a 14.492535
_cell_length_b 28.720126
_cell_length_c 14.492535
_cell_angle_alpha 21.648579
_cell_angle_beta 20.796423
_cell_angle_gamma 21.648558
_cell_volume 700.595655
_symmetry_space_group_name_H-M "P -1"
_symmetry_group_IT_number 2
_symmetry_cell_setting 'triclinic'
loop_
_space_group_symop_operation_xyz
x,y,z
-x,-y,-z
loop_
_atom_site_type_symbol
_atom_site_label
_atom_site_fract_x
_atom_site_fract_y
_atom_site_fract_z
Si Si1 0.327873 0.444173 0.827872
Si Si2 0.357269 0.856821 0.857269
Si Si3 0.330104 0.647358 0.830103
Si Si4 0.261827 0.048543 0.761827
Si Si5 0.352931 0.167792 0.852930
Si Si6 0.574771 0.793946 0.074772
Si Si7 0.244252 0.622198 0.744251
O O1 0.500000 0.500000 0.500000
O O2 0.352985 0.476647 0.852985
O O3 0.481604 0.275936 0.981603
O O4 0.000000 0.500000 0.000000
O O5 0.570542 0.855658 0.577707
O O6 0.260585 0.993572 0.760585
O O7 0.077706 0.855659 0.070542
O O8 0.497170 0.745385 0.498829
O O9 0.325114 0.595728 0.825108
O O10 0.500000 0.500000 0.000000
O O11 0.998828 0.745385 0.997170
O O12 0.411003 0.934173 0.911000
O O13 0.414768 0.160923 0.914757
O O14 0.500000 0.000000 0.000000
O O15 0.394799 0.705872 0.398989
O O16 0.898989 0.705871 0.894801
#
# Coordination Sequence:
#
# PCOD8042360 Si02
#       7
#     2   2   2   2   2   2   2
#     4  12  23  37  56  81 113 148 191 235 280 323
#     4  10  21  33  51  75 107 135 182 227 266 329
#     4  10  21  40  63  88 122 163 193 245 312 357
#     4  10  19  35  51  74 105 142 175 222 280 321
#     4  10  21  39  61  92 119 150 206 247 291 364
#     4  10  20  37  60  80 110 151 188 227 287 340
#     4  10  21  37  58  84 112 149 196 227 276 361
#
# _framework density 19.982997000000001
#
# number of rings (size 3 to 8) (size 9 to 14) (size 15 to 20)
#    0.000    1.714    0.000    5.143    0.000    2.286 
#    5.143    0.000    0.000    0.000    0.000    0.000 
#    0.000    0.000    0.000    0.000    0.000    0.000 
#
# Total GULP energy -173521.434672 kJ/mol
# GULP energy per Si atom -12394.388191 kJ/mol
# Density = 1.993751 g / cm^3
# Si number density = 19.982997 Si / 1000 Ang^3
#
#
#
# Elastic Constant Matrix: (Units=GPa)
#
#
# Indices 1 2 3 4 5 6 
#
# 1 57.6325 36.6323 36.4457 0.5205 -0.2100 -15.5227
# 2 36.6323 117.8158 78.1550 10.2992 -4.3978 -23.2988
# 3 36.4457 78.1550 185.2255 24.3703 2.4141 -26.0238
# 4 0.5205 10.2992 24.3703 40.1445 -8.6349 -3.9018
# 5 -0.2100 -4.3978 2.4141 -8.6349 34.2223 -3.9743
# 6 -15.5227 -23.2988 -26.0238 -3.9018 -3.9743 46.2667
#
#
#
# Elastic Compliance Matrix: (Units=1/GPa)
#
#
# Indices 1 2 3 4 5 6 
#
# 1 0.023114 -0.005115 -0.002189 0.002945 0.000878 0.004272
# 2 -0.005115 0.013640 -0.004375 0.000014 0.002370 0.002897
# 3 -0.002189 -0.004375 0.008448 -0.004309 -0.002111 0.001270
# 4 0.002945 0.000014 -0.004309 0.029358 0.007932 0.001729
# 5 0.000878 0.002370 -0.002111 0.007932 0.032114 0.003728
# 6 0.004272 0.002897 0.001270 0.001729 0.003728 0.025686
#
#
# Mechanical properties :
#
#
# Convention : Reuss Voigt Hill
#
# Bulk Modulus (GPa) = 45.77515 73.68221 59.72868
# Shear Modulus (GPa) = 30.67515 38.08943 34.38229
#
# Velocity S-wave (km/s) = 3.92224 4.37062 4.15248
# Velocity P-wave (km/s) = 6.59308 7.90077 7.27636
#
# Compressibility (1/GPa) = 0.02184591
#
# Stress axis : x y z
#
# Youngs Moduli (GPa) = 43.26474 73.31168 118.36867
#
# Poissons Ratio (x) = 0.37497 0.25905
# Poissons Ratio (y) = 0.22129 0.51784
# Poissons Ratio (z) = 0.09469 0.32072
#
# Static dielectric constant tensor:
#      x y z
#    x 3.504840 -0.013350 -0.133750 
#    y -0.013350 3.727800 0.261640 
#    z -0.133750 0.261640 4.033310 
# 
# 
# High freq. dielectric constant tensor:
#      x y z
#    x 1.765250 -0.012410 -0.002650 
#    y -0.012410 1.779530 0.015760 
#    z -0.002650 0.015760 1.803250 
# 
# From -- ./inp_files/43367.got.cif
#   From: 2010.06.25/outbox.cif.g09.slc.cpg/sg2_22_cif.got.tgz:43367.got - 2010.06.27 13:26:56.
