data_PCOD8042280
_publ_section_title
;
Structure prediction by ZEFSAII (Michael W. Deem and Ramdas Pophale) SiO2 
 PCOD8042280
Probable space group: P -1
;
_chemical_formula_sum "Si O2"
_cell_formula_units_Z 16
_cell_length_a 14.847123
_cell_length_b 10.386643
_cell_length_c 13.735458
_cell_angle_alpha 104.842010
_cell_angle_beta 138.072277
_cell_angle_gamma 43.283506
_cell_volume 758.981624
_symmetry_space_group_name_H-M "P -1"
_symmetry_group_IT_number 2
_symmetry_cell_setting 'triclinic'
loop_
_space_group_symop_operation_xyz
x,y,z
-x,-y,-z
loop_
_atom_site_type_symbol
_atom_site_label
_atom_site_fract_x
_atom_site_fract_y
_atom_site_fract_z
Si Si1 0.292328 0.759966 0.199584
Si Si2 0.217669 0.303229 0.368480
Si Si3 0.833530 0.656139 0.988665
Si Si4 0.364339 0.914006 0.448919
Si Si5 0.525091 0.867533 0.125157
Si Si6 0.774361 0.928200 0.264192
Si Si7 0.485734 0.712519 0.714042
Si Si8 0.686440 0.581398 0.369470
O O1 0.352986 0.793756 0.350439
O O2 0.411893 0.518459 0.263794
O O3 0.438901 0.702342 0.215251
O O4 0.000000 0.000000 0.000000
O O5 0.398307 0.189196 0.401290
O O6 0.316851 0.280870 0.543820
O O7 0.157660 0.194374 0.313904
O O8 0.969567 0.574622 0.184869
O O9 0.717749 0.609086 0.903449
O O10 0.643069 0.933626 0.884078
O O11 0.000000 0.500000 0.000000
O O12 0.350682 0.874880 0.540167
O O13 0.682042 0.624122 0.259238
O O14 0.701720 0.839348 0.224270
O O15 0.359549 0.937753 0.921104
O O16 0.695637 0.114524 0.307812
O O17 0.068269 0.698621 0.455743
#
# Coordination Sequence:
#
# PCOD8042280 Si02
#       8
#     2   2   2   2   2   2   2   2
#     4  11  26  44  62  92 128 169 218 265 318 384
#     4  10  19  34  61  97 122 156 207 264 328 377
#     4  11  20  33  63  94 130 160 203 268 326 378
#     4  10  21  37  60  89 124 162 206 265 326 373
#     4  10  22  39  64 100 129 167 207 268 329 371
#     4  10  22  43  64  96 128 168 217 263 312 387
#     4  11  23  41  62  90 128 172 211 259 317 382
#     4  11  23  42  67  93 133 169 212 265 317 382
#
# _framework density 21.080878999999999
#
# number of rings (size 3 to 8) (size 9 to 14) (size 15 to 20)
#    0.000    1.500    2.500    3.000    5.250    0.500 
#    4.500    0.625    0.000    0.000    0.000    0.000 
#    0.000    0.000    0.000    0.000    0.000    0.000 
#
# Total GULP energy -198221.286770 kJ/mol
# GULP energy per Si atom -12388.830423 kJ/mol
# Density = 2.103290 g / cm^3
# Si number density = 21.080879 Si / 1000 Ang^3
#
#
#
# Elastic Constant Matrix: (Units=GPa)
#
#
# Indices 1 2 3 4 5 6 
#
# 1 73.4769 27.3528 43.3344 1.9059 -4.8633 -10.6030
# 2 27.3528 111.7411 26.6798 0.0307 -1.9243 -0.0999
# 3 43.3344 26.6798 113.0852 -5.1824 -7.9799 1.1460
# 4 1.9059 0.0307 -5.1824 24.3142 -4.4409 0.3710
# 5 -4.8633 -1.9243 -7.9799 -4.4409 37.1909 -3.5863
# 6 -10.6030 -0.0999 1.1460 0.3710 -3.5863 30.9789
#
#
#
# Elastic Compliance Matrix: (Units=1/GPa)
#
#
# Indices 1 2 3 4 5 6 
#
# 1 0.020229 -0.003224 -0.007110 -0.002970 0.001308 0.007363
# 2 -0.003224 0.010004 -0.001133 -0.000031 -0.000253 -0.001058
# 3 -0.007110 -0.001133 0.012149 0.003514 0.001775 -0.002723
# 4 -0.002970 -0.000031 0.003514 0.043114 0.005412 -0.001036
# 5 0.001308 -0.000253 0.001775 0.005412 0.028421 0.003607
# 6 0.007363 -0.001058 -0.002723 -0.001036 0.003607 0.035328
#
#
# Mechanical properties :
#
#
# Convention : Reuss Voigt Hill
#
# Bulk Modulus (GPa) = 51.42086 54.78192 53.10139
# Shear Modulus (GPa) = 27.98588 31.89255 29.93922
#
# Velocity S-wave (km/s) = 3.64751 3.89378 3.77265
# Velocity P-wave (km/s) = 6.49494 6.80135 6.64991
#
# Compressibility (1/GPa) = 0.01944736
#
# Stress axis : x y z
#
# Youngs Moduli (GPa) = 49.43336 99.96188 82.31455
#
# Poissons Ratio (x) = 0.32232 0.58522
# Poissons Ratio (y) = 0.15939 0.09327
# Poissons Ratio (z) = 0.35145 0.11327
#
# Static dielectric constant tensor:
#      x y z
#    x 3.706030 -0.098260 0.029420 
#    y -0.098260 3.714380 -0.050980 
#    z 0.029420 -0.050980 3.923950 
# 
# 
# High freq. dielectric constant tensor:
#      x y z
#    x 1.810260 -0.015180 -0.008790 
#    y -0.015180 1.820980 -0.005850 
#    z -0.008790 -0.005850 1.832920 
# 
# From -- ./inp_files/529916.got.cif
#   From: 2010.06.25/outbox.cif.g09.slc.cpg/sg2_265_cif.got.tgz:529916.got - 2010.06.27 13:26:56.
