data_PCOD8042810
_publ_section_title
;
Structure prediction by ZEFSAII (Michael W. Deem and Ramdas Pophale) SiO2 
 PCOD8042810
Probable space group: P -1
;
_chemical_formula_sum "Si O2"
_cell_formula_units_Z 16
_cell_length_a 5.287079
_cell_length_b 8.490129
_cell_length_c 21.159949
_cell_angle_alpha 91.164933
_cell_angle_beta 128.588267
_cell_angle_gamma 101.568207
_cell_volume 714.116628
_symmetry_space_group_name_H-M "P -1"
_symmetry_group_IT_number 2
_symmetry_cell_setting 'triclinic'
loop_
_space_group_symop_operation_xyz
x,y,z
-x,-y,-z
loop_
_atom_site_type_symbol
_atom_site_label
_atom_site_fract_x
_atom_site_fract_y
_atom_site_fract_z
Si Si1 0.999750 0.842499 0.811765
Si Si2 0.104394 0.634278 0.933274
Si Si3 0.441714 0.430658 0.895173
Si Si4 0.634836 0.031857 0.251022
Si Si5 0.792816 0.707198 0.268667
Si Si6 0.561687 0.348084 0.588825
Si Si7 0.075533 0.300599 0.405094
Si Si8 0.487188 0.547996 0.684559
O O1 0.709395 0.932902 0.780118
O O2 0.856905 0.670453 0.750020
O O3 0.134251 0.802236 0.900501
O O4 0.296521 0.946012 0.813846
O O5 0.189116 0.502957 0.897542
O O6 0.735408 0.568327 0.906517
O O7 0.382434 0.674647 0.032470
O O8 0.207694 0.306544 0.807729
O O9 0.957865 0.146875 0.338781
O O10 0.613119 0.844614 0.262898
O O11 0.609378 0.521289 0.260447
O O12 0.164778 0.752248 0.358854
O O13 0.280979 0.251207 0.495247
O O14 0.697467 0.540802 0.593506
O O15 0.421515 0.375219 0.635838
O O16 0.750776 0.348790 0.381384
#
# Coordination Sequence:
#
# PCOD8042810 Si02
#       8
#     2   2   2   2   2   2   2   2
#     4  11  21  40  62  84 118 160 200 237 293 353
#     4  10  20  37  64  91 117 149 200 244 290 339
#     4  10  21  36  61  95 119 146 194 253 288 344
#     4  11  25  39  58  88 125 159 193 244 295 358
#     4  11  24  37  57  89 120 156 194 243 304 346
#     4  10  19  36  62  80 116 151 206 247 289 346
#     4   9  20  36  55  89 111 154 201 247 293 343
#     4  10  19  35  62  84 111 154 205 247 287 351
#
# _framework density 22.405301000000001
#
# number of rings (size 3 to 8) (size 9 to 14) (size 15 to 20)
#    0.000    1.750    2.500    1.875    3.500    0.500 
#    0.000    1.875    0.000    0.000    0.000    0.000 
#    0.000    0.000    0.000    0.000    0.000    0.000 
#
# Total GULP energy -198254.858982 kJ/mol
# GULP energy per Si atom -12390.928686 kJ/mol
# Density = 2.235431 g / cm^3
# Si number density = 22.405301 Si / 1000 Ang^3
#
#
#
# Elastic Constant Matrix: (Units=GPa)
#
#
# Indices 1 2 3 4 5 6 
#
# 1 75.2592 6.4847 1.2130 -6.9577 -9.4693 -7.0012
# 2 6.4847 60.2964 26.2538 -14.5027 -0.1422 -18.0997
# 3 1.2130 26.2538 108.5878 -26.2767 -5.1910 -12.0603
# 4 -6.9577 -14.5027 -26.2767 23.1534 -4.7656 3.0311
# 5 -9.4693 -0.1422 -5.1910 -4.7656 24.7146 1.6076
# 6 -7.0012 -18.0997 -12.0603 3.0311 1.6076 24.2423
#
#
#
# Elastic Compliance Matrix: (Units=1/GPa)
#
#
# Indices 1 2 3 4 5 6 
#
# 1 0.015496 0.000821 0.002817 0.009396 0.008034 0.004782
# 2 0.000821 0.025078 -0.000993 0.012979 0.001665 0.016733
# 3 0.002817 -0.000993 0.014536 0.017602 0.007220 0.004624
# 4 0.009396 0.012979 0.017602 0.077250 0.021612 0.010069
# 5 0.008034 0.001665 0.007220 0.021612 0.049156 0.001193
# 6 0.004782 0.016733 0.004624 0.010069 0.001193 0.056087
#
#
# Mechanical properties :
#
#
# Convention : Reuss Voigt Hill
#
# Bulk Modulus (GPa) = 16.55655 34.67182 25.61418
# Shear Modulus (GPa) = 19.80627 28.43486 24.12057
#
# Velocity S-wave (km/s) = 2.97644 3.56633 3.28465
# Velocity P-wave (km/s) = 4.38382 5.69795 5.08353
#
# Compressibility (1/GPa) = 0.06039906
#
# Stress axis : x y z
#
# Youngs Moduli (GPa) = 64.53435 39.87613 68.79497
#
# Poissons Ratio (x) = -0.03275 -0.19381
# Poissons Ratio (y) = -0.05300 0.06835
# Poissons Ratio (z) = -0.18180 0.03962
#
# Static dielectric constant tensor:
#      x y z
#    x 3.956050 -0.030920 -0.108590 
#    y -0.030920 3.600170 -0.275410 
#    z -0.108590 -0.275410 4.273610 
# 
# 
# High freq. dielectric constant tensor:
#      x y z
#    x 1.883370 -0.009640 -0.008760 
#    y -0.009640 1.844290 -0.023410 
#    z -0.008760 -0.023410 1.889830 
# 
# From -- ./inp_files/46673.got.cif
#   From: 2010.06.25/outbox.cif.g09.slc.cpg/sg2_24_cif.got.tgz:46673.got - 2010.06.27 13:26:56.
