data_PCOD8042944
_publ_section_title
;
Structure prediction by ZEFSAII (Michael W. Deem and Ramdas Pophale) SiO2 
 PCOD8042944
Probable space group: P -1
;
_chemical_formula_sum "Si O2"
_cell_formula_units_Z 16
_cell_length_a 13.876355
_cell_length_b 11.941757
_cell_length_c 8.822260
_cell_angle_alpha 115.579138
_cell_angle_beta 137.068376
_cell_angle_gamma 53.171487
_cell_volume 796.963448
_symmetry_space_group_name_H-M "P -1"
_symmetry_group_IT_number 2
_symmetry_cell_setting 'triclinic'
loop_
_space_group_symop_operation_xyz
x,y,z
-x,-y,-z
loop_
_atom_site_type_symbol
_atom_site_label
_atom_site_fract_x
_atom_site_fract_y
_atom_site_fract_z
Si Si1 0.709439 0.732327 0.669466
Si Si2 0.190985 0.041205 0.988372
Si Si3 0.042660 0.553798 0.235617
Si Si4 0.152305 0.769187 0.374760
Si Si5 0.399644 0.825182 0.887956
Si Si6 0.584742 0.234271 0.805267
Si Si7 0.634576 0.420252 0.732288
Si Si8 0.302068 0.331466 0.038998
O O1 0.826247 0.591862 0.626265
O O2 0.549311 0.808662 0.432294
O O3 0.663868 0.692588 0.756778
O O4 0.795888 0.828910 0.846432
O O5 0.010599 0.088437 0.755038
O O6 0.307644 0.984725 0.940740
O O7 0.247074 0.910962 0.095395
O O8 0.120210 0.656584 0.364658
O O9 0.000000 0.500000 0.000000
O O10 0.878531 0.640084 0.191818
O O11 0.281865 0.798104 0.627392
O O12 0.217794 0.709820 0.249758
O O13 0.561213 0.799810 0.971188
O O14 0.445458 0.720846 0.025804
O O15 0.576641 0.362062 0.773015
O O16 0.500000 0.500000 0.500000
O O17 0.687715 0.530560 0.923555
#
# Coordination Sequence:
#
# PCOD8042944 Si02
#       8
#     2   2   2   2   2   2   2   2
#     4  11  18  41  67  88 118 162 214 249 295 363
#     4  10  23  39  62  87 129 167 200 244 306 371
#     4  10  19  35  66  94 109 153 216 260 288 337
#     4  12  19  41  67  89 123 159 212 251 298 366
#     4  10  25  38  58  94 129 166 193 247 317 366
#     4  10  24  39  57  95 127 162 198 253 315 352
#     4  12  20  37  66  90 112 159 216 255 290 358
#     4  11  20  38  63  94 113 160 213 250 295 362
#
# _framework density 20.076201999999999
#
# number of rings (size 3 to 8) (size 9 to 14) (size 15 to 20)
#    0.750    0.500    7.500    0.750    0.000    1.500 
#    0.000    0.625    2.750    0.000    0.000    0.000 
#    0.000    0.000    0.000    0.000    0.000    0.000 
#
# Total GULP energy -198243.826796 kJ/mol
# GULP energy per Si atom -12390.239175 kJ/mol
# Density = 2.003051 g / cm^3
# Si number density = 20.076202 Si / 1000 Ang^3
#
#
#
# Elastic Constant Matrix: (Units=GPa)
#
#
# Indices 1 2 3 4 5 6 
#
# 1 74.1230 6.3836 31.2915 -21.8634 15.4674 -16.4141
# 2 6.3836 55.9383 19.6088 -24.2145 5.0648 -11.0059
# 3 31.2915 19.6088 63.2118 -15.8049 2.5952 -2.4384
# 4 -21.8634 -24.2145 -15.8049 29.1394 3.4084 8.1588
# 5 15.4674 5.0648 2.5952 3.4084 21.6241 -6.3879
# 6 -16.4141 -11.0059 -2.4384 8.1588 -6.3879 42.2491
#
#
#
# Elastic Compliance Matrix: (Units=1/GPa)
#
#
# Indices 1 2 3 4 5 6 
#
# 1 0.040633 0.025297 -0.014563 0.046215 -0.038521 0.006787
# 2 0.025297 0.046654 -0.011940 0.053687 -0.034358 0.005730
# 3 -0.014563 -0.011940 0.024221 -0.007695 0.010238 -0.004336
# 4 0.046215 0.053687 -0.007695 0.117035 -0.063357 -0.000684
# 5 -0.038521 -0.034358 0.010238 -0.063357 0.091410 0.002730
# 6 0.006787 0.005730 -0.004336 -0.000684 0.002730 0.028093
#
#
# Mechanical properties :
#
#
# Convention : Reuss Voigt Hill
#
# Bulk Modulus (GPa) = 9.16627 34.20453 21.68540
# Shear Modulus (GPa) = 12.92577 27.66848 20.29712
#
# Velocity S-wave (km/s) = 2.54014 3.71640 3.18308
# Velocity P-wave (km/s) = 3.63026 5.95734 4.93298
#
# Compressibility (1/GPa) = 0.10909564
#
# Stress axis : x y z
#
# Youngs Moduli (GPa) = 24.61038 21.43446 41.28593
#
# Poissons Ratio (x) = -0.54222 0.60126
# Poissons Ratio (y) = -0.62256 0.49295
# Poissons Ratio (z) = 0.35841 0.25592
#
# Static dielectric constant tensor:
#      x y z
#    x 3.620790 -0.252750 0.294560 
#    y -0.252750 3.727050 -0.268990 
#    z 0.294560 -0.268990 3.625670 
# 
# 
# High freq. dielectric constant tensor:
#      x y z
#    x 1.762240 -0.010490 0.024520 
#    y -0.010490 1.782890 -0.012550 
#    z 0.024520 -0.012550 1.773670 
# 
# From -- ./inp_files/262736.got.cif
#   From: 2010.06.25/outbox.cif.g09.slc.cpg/sg2_132_cif.got.tgz:262736.got - 2010.06.27 13:26:56.
