data_PCOD8042312
_publ_section_title
;
Structure prediction by ZEFSAII (Michael W. Deem and Ramdas Pophale) SiO2 
 PCOD8042312
Probable space group: P -1
;
_chemical_formula_sum "Si O2"
_cell_formula_units_Z 16
_cell_length_a 11.420802
_cell_length_b 12.060384
_cell_length_c 9.993534
_cell_angle_alpha 35.763486
_cell_angle_beta 83.088870
_cell_angle_gamma 61.981350
_cell_volume 612.740734
_symmetry_space_group_name_H-M "P -1"
_symmetry_group_IT_number 2
_symmetry_cell_setting 'triclinic'
loop_
_space_group_symop_operation_xyz
x,y,z
-x,-y,-z
loop_
_atom_site_type_symbol
_atom_site_label
_atom_site_fract_x
_atom_site_fract_y
_atom_site_fract_z
Si Si1 0.179837 0.116386 0.467357
Si Si2 0.630095 0.980912 0.924705
Si Si3 0.603476 0.518537 0.660597
Si Si4 0.619421 0.840199 0.758843
Si Si5 0.372866 0.940323 0.871726
Si Si6 0.335700 0.574430 0.969726
Si Si7 0.926518 0.281241 0.753238
Si Si8 0.947700 0.534723 0.260609
O O1 0.251194 0.130921 0.306704
O O2 0.012809 0.379474 0.263257
O O3 0.265119 0.096616 0.610266
O O4 0.195161 0.872170 0.692033
O O5 0.559087 0.235886 0.609824
O O6 0.719839 0.942859 0.090155
O O7 0.500000 0.000000 0.000000
O O8 0.764853 0.747214 0.044803
O O9 0.655186 0.543658 0.773797
O O10 0.741855 0.437871 0.623262
O O11 0.566981 0.335104 0.867508
O O12 0.523009 0.933805 0.826021
O O13 0.693511 0.554919 0.011356
O O14 0.500000 0.000000 0.500000
O O15 0.500000 0.500000 0.000000
O O16 0.974886 0.350315 0.550460
O O17 0.980002 0.336979 0.827410
O O18 0.000000 0.000000 0.000000
#
# Coordination Sequence:
#
# PCOD8042312 Si02
#       8
#     2   2   2   2   2   2   2   2
#     4  10  21  36  64  92 124 159 208 269 319 357
#     4  12  25  39  59  89 131 174 206 246 321 389
#     4  11  22  38  63  92 127 160 208 257 317 378
#     4  10  19  34  62  97 123 154 203 270 316 357
#     4  10  21  38  60  95 125 159 213 260 309 379
#     4  11  19  36  61  99 119 154 210 267 310 365
#     4  11  21  37  64  91 123 166 208 264 317 359
#     4  11  23  41  57  93 132 163 213 262 311 382
#
# _framework density 26.112186000000001
#
# number of rings (size 3 to 8) (size 9 to 14) (size 15 to 20)
#    0.000    1.250    5.000    4.875    3.500    0.000 
#    0.000    0.000    0.000    3.750    0.000    0.000 
#    0.000    0.000    0.000    0.000    0.000    0.000 
#
# Total GULP energy -198243.760611 kJ/mol
# GULP energy per Si atom -12390.235038 kJ/mol
# Density = 2.605275 g / cm^3
# Si number density = 26.112186 Si / 1000 Ang^3
#
#
#
# Elastic Constant Matrix: (Units=GPa)
#
#
# Indices 1 2 3 4 5 6 
#
# 1 54.1313 9.5761 30.5704 -2.4067 -2.9009 -16.0041
# 2 9.5761 179.9872 52.2499 -6.2867 -3.6243 -16.1433
# 3 30.5704 52.2499 109.8758 -21.1047 -5.3356 -12.7742
# 4 -2.4067 -6.2867 -21.1047 49.4685 -9.6598 -1.8773
# 5 -2.9009 -3.6243 -5.3356 -9.6598 33.8661 -6.8257
# 6 -16.0041 -16.1433 -12.7742 -1.8773 -6.8257 31.8202
#
#
#
# Elastic Compliance Matrix: (Units=1/GPa)
#
#
# Indices 1 2 3 4 5 6 
#
# 1 0.025459 0.001614 -0.006298 -0.000061 0.003741 0.011894
# 2 0.001614 0.006708 -0.003267 -0.000167 0.000917 0.003090
# 3 -0.006298 -0.003267 0.013928 0.005949 0.003373 0.001840
# 4 -0.000061 -0.000167 0.005949 0.024724 0.009112 0.005686
# 5 0.003741 0.000917 0.003373 0.009112 0.035465 0.011846
# 6 0.011894 0.003090 0.001840 0.005686 0.011846 0.042592
#
#
# Mechanical properties :
#
#
# Convention : Reuss Voigt Hill
#
# Bulk Modulus (GPa) = 33.12160 58.75414 45.93787
# Shear Modulus (GPa) = 28.59715 39.80415 34.20065
#
# Velocity S-wave (km/s) = 3.31292 3.90853 3.62298
# Velocity P-wave (km/s) = 5.22932 6.55121 5.92723
#
# Compressibility (1/GPa) = 0.03019177
#
# Stress axis : x y z
#
# Youngs Moduli (GPa) = 39.27860 149.06734 71.79985
#
# Poissons Ratio (x) = -0.24056 0.45221
# Poissons Ratio (y) = -0.06339 0.23459
# Poissons Ratio (z) = 0.24738 0.48705
#
# Static dielectric constant tensor:
#      x y z
#    x 4.654890 -0.857400 -0.189060 
#    y -0.857400 3.769180 -0.295580 
#    z -0.189060 -0.295580 4.767050 
# 
# 
# High freq. dielectric constant tensor:
#      x y z
#    x 2.028830 -0.003280 -0.009070 
#    y -0.003280 2.074310 -0.002070 
#    z -0.009070 -0.002070 2.050110 
# 
# From -- ./inp_files/455396.got.cif
#   From: 2010.06.25/outbox.cif.g09.slc.cpg/sg2_228_cif.got.tgz:455396.got - 2010.06.27 13:26:56.
