data_PCOD8042341
_publ_section_title
;
Structure prediction by ZEFSAII (Michael W. Deem and Ramdas Pophale) SiO2 
 PCOD8042341
Probable space group: P -1
;
_chemical_formula_sum "Si O2"
_cell_formula_units_Z 16
_cell_length_a 19.760094
_cell_length_b 10.957151
_cell_length_c 8.146511
_cell_angle_alpha 122.794376
_cell_angle_beta 132.376055
_cell_angle_gamma 35.113251
_cell_volume 749.289092
_symmetry_space_group_name_H-M "P -1"
_symmetry_group_IT_number 2
_symmetry_cell_setting 'triclinic'
loop_
_space_group_symop_operation_xyz
x,y,z
-x,-y,-z
loop_
_atom_site_type_symbol
_atom_site_label
_atom_site_fract_x
_atom_site_fract_y
_atom_site_fract_z
Si Si1 0.947174 0.149768 0.765356
Si Si2 0.111425 0.513583 0.304543
Si Si3 0.621091 0.272546 0.461072
Si Si4 0.742907 0.206609 0.279756
Si Si5 0.182583 0.199538 0.941407
Si Si6 0.427197 0.955812 0.941956
Si Si7 0.676225 0.546299 0.199259
Si Si8 0.186168 0.774115 0.067124
O O1 0.930846 0.328052 0.795021
O O2 0.883022 0.105560 0.506564
O O3 0.891787 0.217974 0.910129
O O4 0.100917 0.922106 0.874560
O O5 0.215599 0.463422 0.564503
O O6 0.972823 0.625444 0.250119
O O7 0.185023 0.290793 0.178867
O O8 0.500000 0.500000 0.500000
O O9 0.640654 0.307154 0.334586
O O10 0.597014 0.129334 0.307963
O O11 0.748300 0.156887 0.700151
O O12 0.670515 0.404952 0.189479
O O13 0.770004 0.020175 0.102524
O O14 0.283366 0.155351 0.938965
O O15 0.527396 0.785051 0.125499
O O16 0.500000 0.000000 0.000000
O O17 0.709833 0.464709 0.006360
#
# Coordination Sequence:
#
# PCOD8042341 Si02
#       8
#     2   2   2   2   2   2   2   2
#     4   9  19  36  63  93 124 158 201 255 312 367
#     4  10  22  41  64  93 126 165 204 262 306 370
#     4  10  20  40  61  89 122 161 209 252 306 363
#     4   9  20  38  65  91 125 157 201 264 301 366
#     4  10  22  41  63  89 130 160 207 253 313 358
#     4  11  26  44  62  89 131 169 203 259 314 376
#     4  11  22  40  66  95 120 166 208 251 318 367
#     4  10  19  34  64  94 121 157 209 252 310 366
#
# _framework density 21.353573999999998
#
# number of rings (size 3 to 8) (size 9 to 14) (size 15 to 20)
#    0.000    2.000    1.250    1.500    1.750    6.500 
#    9.000    0.625    0.000    0.000    0.000    0.000 
#    0.000    0.000    0.000    0.000    0.000    0.000 
#
# Total GULP energy -198330.334791 kJ/mol
# GULP energy per Si atom -12395.645924 kJ/mol
# Density = 2.130497 g / cm^3
# Si number density = 21.353574 Si / 1000 Ang^3
#
#
#
# Elastic Constant Matrix: (Units=GPa)
#
#
# Indices 1 2 3 4 5 6 
#
# 1 110.4123 60.3481 49.5077 7.0475 21.1228 -6.5214
# 2 60.3481 101.5373 45.3632 11.4514 2.6925 -13.1563
# 3 49.5077 45.3632 115.9203 11.1048 12.6512 0.2329
# 4 7.0475 11.4514 11.1048 38.7285 3.7064 -3.2630
# 5 21.1228 2.6925 12.6512 3.7064 27.6391 -1.8680
# 6 -6.5214 -13.1563 0.2329 -3.2630 -1.8680 32.7128
#
#
#
# Elastic Compliance Matrix: (Units=1/GPa)
#
#
# Indices 1 2 3 4 5 6 
#
# 1 0.017196 -0.008927 -0.002749 0.001319 -0.011234 -0.000653
# 2 -0.008927 0.017607 -0.003641 -0.002796 0.007519 0.005478
# 3 -0.002749 -0.003641 0.011704 -0.001712 -0.002836 -0.002429
# 4 0.001319 -0.002796 -0.001712 0.027376 -0.003509 0.001681
# 5 -0.011234 0.007519 -0.002836 -0.003509 0.046011 0.003082
# 6 -0.000653 0.005478 -0.002429 0.001681 0.003082 0.033003
#
#
# Mechanical properties :
#
#
# Convention : Reuss Voigt Hill
#
# Bulk Modulus (GPa) = 63.00842 70.92307 66.96575
# Shear Modulus (GPa) = 26.47991 31.32614 28.90303
#
# Velocity S-wave (km/s) = 3.52528 3.83433 3.68305
# Velocity P-wave (km/s) = 6.79275 7.27245 7.03669
#
# Compressibility (1/GPa) = 0.01587090
#
# Stress axis : x y z
#
# Youngs Moduli (GPa) = 58.15446 56.79603 85.43928
#
# Poissons Ratio (x) = 0.50703 0.23491
# Poissons Ratio (y) = 0.51915 0.31111
# Poissons Ratio (z) = 0.15989 0.20681
#
# Static dielectric constant tensor:
#      x y z
#    x 3.956230 -0.251550 0.264190 
#    y -0.251550 3.915780 0.019670 
#    z 0.264190 0.019670 4.149670 
# 
# 
# High freq. dielectric constant tensor:
#      x y z
#    x 1.839810 -0.021050 0.015000 
#    y -0.021050 1.827900 0.009490 
#    z 0.015000 0.009490 1.842390 
# 
# From -- ./inp_files/353691.got.cif
#   From: 2010.06.25/outbox.cif.g09.slc.cpg/sg2_177_cif.got.tgz:353691.got - 2010.06.27 13:26:56.
