data_PCOD8042642
_publ_section_title
;
Structure prediction by ZEFSAII (Michael W. Deem and Ramdas Pophale) SiO2 
 PCOD8042642
Probable space group: P -1
;
_chemical_formula_sum "Si O2"
_cell_formula_units_Z 16
_cell_length_a 16.577765
_cell_length_b 11.124212
_cell_length_c 9.197275
_cell_angle_alpha 59.223078
_cell_angle_beta 64.248654
_cell_angle_gamma 31.663507
_cell_volume 764.947132
_symmetry_space_group_name_H-M "P -1"
_symmetry_group_IT_number 2
_symmetry_cell_setting 'triclinic'
loop_
_space_group_symop_operation_xyz
x,y,z
-x,-y,-z
loop_
_atom_site_type_symbol
_atom_site_label
_atom_site_fract_x
_atom_site_fract_y
_atom_site_fract_z
Si Si1 0.619557 0.842286 0.134011
Si Si2 0.794419 0.854695 0.850139
Si Si3 0.368095 0.586947 0.134194
Si Si4 0.253456 0.558991 0.851581
Si Si5 0.064303 0.131138 0.031549
Si Si6 0.478400 0.596343 0.305904
Si Si7 0.360877 0.286927 0.222785
Si Si8 0.918139 0.534594 0.680807
O O1 0.693509 0.592040 0.243417
O O2 0.530115 0.999686 0.255380
O O3 0.761854 0.765473 0.037152
O O4 0.500000 0.000000 0.000000
O O5 0.900040 0.825575 0.877752
O O6 0.876370 0.705220 0.728663
O O7 0.628932 0.131156 0.769254
O O8 0.395967 0.583931 0.282272
O O9 0.375256 0.411319 0.224353
O O10 0.205278 0.854695 0.042443
O O11 0.500000 0.500000 0.000000
O O12 0.350960 0.578044 0.779773
O O13 0.069953 0.808925 0.853438
O O14 0.298756 0.395664 0.044132
O O15 0.022456 0.283524 0.833220
O O16 0.500000 0.500000 0.500000
O O17 0.235121 0.338488 0.351492
O O18 0.000000 0.500000 0.500000
#
# Coordination Sequence:
#
# PCOD8042642 Si02
#       8
#     2   2   2   2   2   2   2   2
#     4  10  15  32  67  87 105 153 210 251 274 349
#     4  11  19  40  63  89 116 158 211 244 288 371
#     4  11  22  41  63  88 121 159 210 244 292 370
#     4  10  18  36  62  89 113 154 209 247 291 352
#     4  10  23  38  65  89 115 163 210 244 289 364
#     4  11  23  40  61  88 120 160 201 249 306 357
#     4  10  18  37  62  87 119 160 207 241 297 362
#     4  11  23  38  58  93 131 154 188 258 323 346
#
# _framework density 20.916477
#
# number of rings (size 3 to 8) (size 9 to 14) (size 15 to 20)
#    0.000    1.500    7.500    1.125    0.000    3.000 
#    4.500    1.250    0.000    3.000    0.000    0.000 
#    0.000    0.000    0.000    0.000    0.000    0.000 
#
# Total GULP energy -198264.464177 kJ/mol
# GULP energy per Si atom -12391.529011 kJ/mol
# Density = 2.086887 g / cm^3
# Si number density = 20.916477 Si / 1000 Ang^3
#
#
#
# Elastic Constant Matrix: (Units=GPa)
#
#
# Indices 1 2 3 4 5 6 
#
# 1 92.6773 45.6668 24.1707 13.0844 -11.4966 -2.2301
# 2 45.6668 122.8562 35.4447 24.0333 0.4864 -4.4269
# 3 24.1707 35.4447 75.5205 15.7230 -7.0492 -11.9898
# 4 13.0844 24.0333 15.7230 28.0146 -8.0197 -2.2484
# 5 -11.4966 0.4864 -7.0492 -8.0197 23.4591 8.0218
# 6 -2.2301 -4.4269 -11.9898 -2.2484 8.0218 39.9330
#
#
#
# Elastic Compliance Matrix: (Units=1/GPa)
#
#
# Indices 1 2 3 4 5 6 
#
# 1 0.014611 -0.005073 -0.002023 0.000667 0.007510 -0.001825
# 2 -0.005073 0.012663 -0.002972 -0.008744 -0.007023 0.001146
# 3 -0.002023 -0.002972 0.017196 -0.005563 0.000890 0.004229
# 4 0.000667 -0.008744 -0.005563 0.050692 0.017266 -0.003216
# 5 0.007510 -0.007023 0.000890 0.017266 0.056181 -0.010406
# 6 -0.001825 0.001146 0.004229 -0.003216 -0.010406 0.028246
#
#
# Mechanical properties :
#
#
# Convention : Reuss Voigt Hill
#
# Bulk Modulus (GPa) = 41.09658 55.73538 48.41598
# Shear Modulus (GPa) = 24.05727 30.66613 27.36170
#
# Velocity S-wave (km/s) = 3.39508 3.83315 3.62075
# Velocity P-wave (km/s) = 5.92109 6.80406 6.37787
#
# Compressibility (1/GPa) = 0.02433292
#
# Stress axis : x y z
#
# Youngs Moduli (GPa) = 68.44085 78.97293 58.15160
#
# Poissons Ratio (x) = 0.40067 0.11763
# Poissons Ratio (y) = 0.34723 0.17285
# Poissons Ratio (z) = 0.13844 0.23474
#
# Static dielectric constant tensor:
#      x y z
#    x 2.738210 -0.582070 0.349730 
#    y -0.582070 3.965340 0.357300 
#    z 0.349730 0.357300 3.215830 
# 
# 
# High freq. dielectric constant tensor:
#      x y z
#    x 1.834210 -0.002040 -0.007530 
#    y -0.002040 1.828230 0.019780 
#    z -0.007530 0.019780 1.766210 
# 
# From -- ./inp_files/331691.got.cif
#   From: 2010.06.25/outbox.cif.g09.slc.cpg/sg2_166_cif.got.tgz:331691.got - 2010.06.27 13:26:56.
