data_PCOD8042342
_publ_section_title
;
Structure prediction by ZEFSAII (Michael W. Deem and Ramdas Pophale) SiO2 
 PCOD8042342
Probable space group: P -1
;
_chemical_formula_sum "Si O2"
_cell_formula_units_Z 16
_cell_length_a 16.451664
_cell_length_b 21.070949
_cell_length_c 7.496709
_cell_angle_alpha 55.490713
_cell_angle_beta 139.738126
_cell_angle_gamma 152.884524
_cell_volume 707.274980
_symmetry_space_group_name_H-M "P -1"
_symmetry_group_IT_number 2
_symmetry_cell_setting 'triclinic'
loop_
_space_group_symop_operation_xyz
x,y,z
-x,-y,-z
loop_
_atom_site_type_symbol
_atom_site_label
_atom_site_fract_x
_atom_site_fract_y
_atom_site_fract_z
Si Si1 0.522273 0.452564 0.274528
Si Si2 0.820090 0.266806 0.329759
Si Si3 0.738088 0.040489 0.014759
Si Si4 0.008223 0.804752 0.156352
Si Si5 0.032211 0.691878 0.884874
Si Si6 0.410656 0.233483 0.287334
Si Si7 0.922188 0.448363 0.748207
Si Si8 0.943679 0.059493 0.644713
O O1 0.770074 0.597702 0.570634
O O2 0.551520 0.381156 0.367578
O O3 0.500000 0.500000 0.000000
O O4 0.272614 0.329530 0.167620
O O5 0.956717 0.268142 0.651953
O O6 0.944253 0.413733 0.360842
O O7 0.833943 0.260501 0.151040
O O8 0.542597 0.126005 0.154567
O O9 0.909353 0.077591 0.365389
O O10 0.786946 0.156097 0.950193
O O11 0.807581 0.060875 0.893151
O O12 0.052856 0.870992 0.312719
O O13 0.998294 0.596813 0.100578
O O14 0.627255 0.297346 0.461224
O O15 0.278747 0.116285 0.410272
O O16 0.202421 0.149759 0.930393
O O17 0.000000 0.500000 0.000000
#
# Coordination Sequence:
#
# PCOD8042342 Si02
#       8
#     2   2   2   2   2   2   2   2
#     4  11  19  39  66  89 127 162 210 256 314 368
#     4  11  21  40  63  90 129 169 205 258 316 366
#     4  12  25  40  65  94 129 164 214 254 310 378
#     4  11  24  41  64  94 126 167 208 261 309 372
#     4  11  21  37  66  97 118 169 211 255 314 372
#     4  10  19  37  64  94 123 163 212 256 312 377
#     4  10  19  34  64  95 122 164 211 257 314 368
#     4  10  22  40  66  93 123 169 207 258 319 363
#
# _framework density 22.622036000000001
#
# number of rings (size 3 to 8) (size 9 to 14) (size 15 to 20)
#    0.000    1.250    5.000    3.000    1.750    0.500 
#    0.000    6.250    2.750    0.000    0.000    0.000 
#    0.000    0.000    0.000    0.000    0.000    0.000 
#
# Total GULP energy -198394.307962 kJ/mol
# GULP energy per Si atom -12399.644248 kJ/mol
# Density = 2.257055 g / cm^3
# Si number density = 22.622036 Si / 1000 Ang^3
#
#
#
# Elastic Constant Matrix: (Units=GPa)
#
#
# Indices 1 2 3 4 5 6 
#
# 1 23.1163 15.1106 30.4318 -1.5974 8.3589 12.4959
# 2 15.1106 124.5994 52.8590 1.4595 12.3544 -0.5681
# 3 30.4318 52.8590 124.9443 -6.8472 31.0518 7.8845
# 4 -1.5974 1.4595 -6.8472 48.5597 4.5321 13.6512
# 5 8.3589 12.3544 31.0518 4.5321 22.7430 -0.8925
# 6 12.4959 -0.5681 7.8845 13.6512 -0.8925 33.5301
#
#
#
# Elastic Compliance Matrix: (Units=1/GPa)
#
#
# Indices 1 2 3 4 5 6 
#
# 1 0.089395 -0.004021 -0.012803 0.013019 -0.017203 -0.036132
# 2 -0.004021 0.010125 -0.004254 -0.002290 0.002386 0.003666
# 3 -0.012803 -0.004254 0.017813 0.004421 -0.018254 -0.001775
# 4 0.013019 -0.002290 0.004421 0.028213 -0.015900 -0.017840
# 5 -0.017203 0.002386 -0.018254 -0.015900 0.077845 0.019290
# 6 -0.036132 0.003666 -0.001775 -0.017840 0.019290 0.051546
#
#
# Mechanical properties :
#
#
# Convention : Reuss Voigt Hill
#
# Bulk Modulus (GPa) = 13.30212 52.16254 32.73233
# Shear Modulus (GPa) = 14.61343 32.58381 23.59862
#
# Velocity S-wave (km/s) = 2.54438 3.79932 3.23332
# Velocity P-wave (km/s) = 3.81113 6.50806 5.33289
#
# Compressibility (1/GPa) = 0.07517600
#
# Stress axis : x y z
#
# Youngs Moduli (GPa) = 11.18633 98.76569 56.14025
#
# Poissons Ratio (x) = 0.39717 0.71876
# Poissons Ratio (y) = 0.04498 0.23881
# Poissons Ratio (z) = 0.14322 0.42014
#
# Static dielectric constant tensor:
#      x y z
#    x 3.683710 -0.125440 0.382860 
#    y -0.125440 4.534450 -0.169190 
#    z 0.382860 -0.169190 4.239510 
# 
# 
# High freq. dielectric constant tensor:
#      x y z
#    x 1.844260 -0.008370 0.027050 
#    y -0.008370 1.916000 -0.003990 
#    z 0.027050 -0.003990 1.900490 
# 
# From -- ./inp_files/350249.got.cif
#   From: 2010.06.25/outbox.cif.g09.slc.cpg/sg2_176_cif.got.tgz:350249.got - 2010.06.27 13:26:56.
