data_PCOD8042654
_publ_section_title
;
Structure prediction by ZEFSAII (Michael W. Deem and Ramdas Pophale) SiO2 
 PCOD8042654
Probable space group: P -1
;
_chemical_formula_sum "Si O2"
_cell_formula_units_Z 16
_cell_length_a 11.616354
_cell_length_b 11.547686
_cell_length_c 8.385190
_cell_angle_alpha 124.047087
_cell_angle_beta 52.675711
_cell_angle_gamma 105.518802
_cell_volume 736.706223
_symmetry_space_group_name_H-M "P -1"
_symmetry_group_IT_number 2
_symmetry_cell_setting 'triclinic'
loop_
_space_group_symop_operation_xyz
x,y,z
-x,-y,-z
loop_
_atom_site_type_symbol
_atom_site_label
_atom_site_fract_x
_atom_site_fract_y
_atom_site_fract_z
Si Si1 0.781918 0.030976 0.087548
Si Si2 0.366140 0.404519 0.767592
Si Si3 0.688452 0.309791 0.778441
Si Si4 0.910670 0.636634 0.614320
Si Si5 0.136219 0.451150 0.741746
Si Si6 0.313497 0.658576 0.570570
Si Si7 0.622405 0.764765 0.066340
Si Si8 0.935804 0.111632 0.326419
O O1 0.699584 0.181769 0.228371
O O2 0.845608 0.032237 0.213926
O O3 0.663973 0.918500 0.103801
O O4 0.920354 0.992380 0.818667
O O5 0.262252 0.371473 0.684202
O O6 0.527725 0.417927 0.576068
O O7 0.380689 0.268932 0.768121
O O8 0.301032 0.551190 0.018375
O O9 0.709947 0.347505 0.604287
O O10 0.534006 0.251094 0.892648
O O11 0.821828 0.186641 0.612306
O O12 0.917884 0.650871 0.426711
O O13 0.000000 0.500000 0.500000
O O14 0.983659 0.764803 0.731651
O O15 0.740084 0.642922 0.804776
O O16 0.191746 0.582209 0.703160
O O17 0.000000 0.500000 0.000000
#
# Coordination Sequence:
#
# PCOD8042654 Si02
#       8
#     2   2   2   2   2   2   2   2
#     4   9  19  35  57  86 112 152 195 230 279 330
#     4  11  22  36  58  89 119 147 184 241 298 335
#     4  10  19  35  59  89 115 146 189 238 289 331
#     4  11  20  36  58  83 111 147 192 239 287 333
#     4  12  24  36  57  86 116 149 191 240 290 341
#     4  10  21  38  58  81 119 155 189 234 282 343
#     4  10  20  35  61  87 113 147 196 237 275 347
#     4   9  18  31  53  78 112 142 179 235 276 321
#
# _framework density 21.718291000000001
#
# number of rings (size 3 to 8) (size 9 to 14) (size 15 to 20)
#    0.000    1.750    0.000    7.125    0.000    7.500 
#    0.000    0.000    0.000   23.250    0.000    0.000 
#    0.000    0.000    0.000    0.000    0.000    0.000 
#
# Total GULP energy -198234.409109 kJ/mol
# GULP energy per Si atom -12389.650569 kJ/mol
# Density = 2.166886 g / cm^3
# Si number density = 21.718291 Si / 1000 Ang^3
#
#
#
# Elastic Constant Matrix: (Units=GPa)
#
#
# Indices 1 2 3 4 5 6 
#
# 1 75.2104 10.1670 32.5076 -4.0479 -4.4520 6.3167
# 2 10.1670 60.3332 30.7819 2.9665 -4.1177 12.4471
# 3 32.5076 30.7819 123.0865 6.0236 -34.5558 1.3432
# 4 -4.0479 2.9665 6.0236 38.1166 2.7271 -9.0816
# 5 -4.4520 -4.1177 -34.5558 2.7271 38.3000 -5.1180
# 6 6.3167 12.4471 1.3432 -9.0816 -5.1180 24.3227
#
#
#
# Elastic Compliance Matrix: (Units=1/GPa)
#
#
# Indices 1 2 3 4 5 6 
#
# 1 0.015772 0.000632 -0.005386 0.001727 -0.003648 -0.004245
# 2 0.000632 0.022729 -0.007061 -0.003498 -0.005456 -0.013860
# 3 -0.005386 -0.007061 0.015022 -0.001845 0.013136 0.006257
# 4 0.001727 -0.003498 -0.001845 0.030050 -0.002354 0.012168
# 5 -0.003648 -0.005456 0.013136 -0.002354 0.038486 0.010234
# 6 -0.004245 -0.013860 0.006257 0.012168 0.010234 0.055661
#
#
# Mechanical properties :
#
#
# Convention : Reuss Voigt Hill
#
# Bulk Modulus (GPa) = 33.45041 45.06036 39.25539
# Shear Modulus (GPa) = 23.66137 32.49274 28.07705
#
# Velocity S-wave (km/s) = 3.30429 3.87214 3.59943
# Velocity P-wave (km/s) = 5.47660 6.38624 5.94883
#
# Compressibility (1/GPa) = 0.02989500
#
# Stress axis : x y z
#
# Youngs Moduli (GPa) = 63.40347 43.99588 66.56682
#
# Poissons Ratio (x) = -0.02780 0.35852
# Poissons Ratio (y) = -0.04007 0.47000
# Poissons Ratio (z) = 0.34148 0.31063
#
# Static dielectric constant tensor:
#      x y z
#    x 4.048800 0.210700 -0.355560 
#    y 0.210700 3.687430 0.166510 
#    z -0.355560 0.166510 4.417700 
# 
# 
# High freq. dielectric constant tensor:
#      x y z
#    x 1.841720 0.030740 -0.034490 
#    y 0.030740 1.827240 0.013320 
#    z -0.034490 0.013320 1.863460 
# 
# From -- ./inp_files/205929.got.cif
#   From: 2010.06.25/outbox.cif.g09.slc.cpg/sg2_103_cif.got.tgz:205929.got - 2010.06.27 13:26:56.
