data_PCOD8042329
_publ_section_title
;
Structure prediction by ZEFSAII (Michael W. Deem and Ramdas Pophale) SiO2 
 PCOD8042329
Probable space group: P -1
;
_chemical_formula_sum "Si O2"
_cell_formula_units_Z 14
_cell_length_a 11.653426
_cell_length_b 8.206345
_cell_length_c 17.165065
_cell_angle_alpha 112.004180
_cell_angle_beta 158.005321
_cell_angle_gamma 71.030391
_cell_volume 568.822738
_symmetry_space_group_name_H-M "P -1"
_symmetry_group_IT_number 2
_symmetry_cell_setting 'triclinic'
loop_
_space_group_symop_operation_xyz
x,y,z
-x,-y,-z
loop_
_atom_site_type_symbol
_atom_site_label
_atom_site_fract_x
_atom_site_fract_y
_atom_site_fract_z
Si Si1 0.028631 0.761399 0.270936
Si Si2 0.045826 0.850926 0.754448
Si Si3 0.662458 0.591380 0.879907
Si Si4 0.919871 0.227791 0.410016
Si Si5 0.284785 0.140938 0.299116
Si Si6 0.897608 0.234733 0.930624
Si Si7 0.305339 0.169240 0.780023
O O1 0.394478 0.756937 0.500989
O O2 0.921300 0.735348 0.287399
O O3 0.901651 0.941228 0.190627
O O4 0.877219 0.605854 0.094646
O O5 0.978513 0.751535 0.612404
O O6 0.775631 0.815589 0.640708
O O7 0.347419 0.776396 0.969097
O O8 0.309990 0.622921 0.684525
O O9 0.677389 0.395643 0.819988
O O10 0.802054 0.729877 0.928312
O O11 0.230735 0.242307 0.660026
O O12 0.742630 0.041261 0.283336
O O13 0.308909 0.931440 0.263435
O O14 0.010638 0.200231 0.083053
#
# Coordination Sequence:
#
# PCOD8042329 Si02
#       7
#     2   2   2   2   2   2   2
#     4  11  20  36  68  94 128 162 222 270 313 371
#     4  11  20  37  62  97 128 166 212 271 312 388
#     4  11  20  41  64  97 127 170 215 274 311 381
#     4  10  19  34  63  94 124 162 220 261 313 373
#     4  11  23  41  62  98 128 168 213 266 327 387
#     4  10  24  39  63  91 136 169 214 263 328 379
#     4  10  19  35  63  98 122 170 219 262 307 391
#
# _framework density 24.612238999999999
#
# number of rings (size 3 to 8) (size 9 to 14) (size 15 to 20)
#    0.000    1.429    4.286    2.143    0.000    6.286 
#    0.000    0.714    0.000    6.000    3.714    0.000 
#    0.000    0.000    0.000    0.000    0.000    0.000 
#
# Total GULP energy -173661.121166 kJ/mol
# GULP energy per Si atom -12404.365798 kJ/mol
# Density = 2.455622 g / cm^3
# Si number density = 24.612239 Si / 1000 Ang^3
#
#
#
# Elastic Constant Matrix: (Units=GPa)
#
#
# Indices 1 2 3 4 5 6 
#
# 1 147.1499 19.7505 47.0464 -13.8762 -27.3943 -29.1825
# 2 19.7505 45.5338 0.4113 -9.4932 1.3983 -14.0329
# 3 47.0464 0.4113 109.9514 -16.4193 -13.0616 -6.1132
# 4 -13.8762 -9.4932 -16.4193 18.0967 0.7636 4.3887
# 5 -27.3943 1.3983 -13.0616 0.7636 34.5778 -11.4915
# 6 -29.1825 -14.0329 -6.1132 4.3887 -11.4915 23.3502
#
#
#
# Elastic Compliance Matrix: (Units=1/GPa)
#
#
# Indices 1 2 3 4 5 6 
#
# 1 0.021497 0.003754 -0.002640 0.004552 0.029823 0.042253
# 2 0.003754 0.031665 0.003531 0.015509 0.011844 0.027560
# 3 -0.002640 0.003531 0.012144 0.010423 0.002554 0.001299
# 4 0.004552 0.015509 0.010423 0.074156 0.007820 0.007649
# 5 0.029823 0.011844 0.002554 0.007820 0.080516 0.083214
# 6 0.042253 0.027560 0.001299 0.007649 0.083214 0.152051
#
#
# Mechanical properties :
#
#
# Convention : Reuss Voigt Hill
#
# Bulk Modulus (GPa) = 13.40583 48.56128 30.98355
# Shear Modulus (GPa) = 12.89975 30.90007 21.89991
#
# Velocity S-wave (km/s) = 2.29185 3.54711 2.98618
# Velocity P-wave (km/s) = 3.53017 6.04561 4.95033
#
# Compressibility (1/GPa) = 0.07459443
#
# Stress axis : x y z
#
# Youngs Moduli (GPa) = 46.51841 31.58078 82.34806
#
# Poissons Ratio (x) = -0.11857 0.21743
# Poissons Ratio (y) = -0.17465 -0.29073
# Poissons Ratio (z) = 0.12283 -0.11150
#
# Static dielectric constant tensor:
#      x y z
#    x 4.676620 -0.179220 -0.200560 
#    y -0.179220 4.008910 -0.087770 
#    z -0.200560 -0.087770 4.128090 
# 
# 
# High freq. dielectric constant tensor:
#      x y z
#    x 1.993250 -0.015470 -0.008760 
#    y -0.015470 1.946990 -0.011000 
#    z -0.008760 -0.011000 1.974350 
# 
# From -- ./inp_files/257264.got.cif
#   From: 2010.06.25/outbox.cif.g09.slc.cpg/sg2_129_cif.got.tgz:257264.got - 2010.06.27 13:26:56.
