data_PCOD8042978
_publ_section_title
;
Structure prediction by ZEFSAII (Michael W. Deem and Ramdas Pophale) SiO2 
 PCOD8042978
Probable space group: P -1
;
_chemical_formula_sum "Si O2"
_cell_formula_units_Z 16
_cell_length_a 20.879058
_cell_length_b 9.264230
_cell_length_c 21.318366
_cell_angle_alpha 41.717433
_cell_angle_beta 19.082276
_cell_angle_gamma 49.816448
_cell_volume 862.098756
_symmetry_space_group_name_H-M "P -1"
_symmetry_group_IT_number 2
_symmetry_cell_setting 'triclinic'
loop_
_space_group_symop_operation_xyz
x,y,z
-x,-y,-z
loop_
_atom_site_type_symbol
_atom_site_label
_atom_site_fract_x
_atom_site_fract_y
_atom_site_fract_z
Si Si1 0.442448 0.751584 0.104502
Si Si2 0.050368 0.982221 0.174538
Si Si3 0.398772 0.591722 0.406057
Si Si4 0.834490 0.325259 0.287581
Si Si5 0.129728 0.200078 0.272746
Si Si6 0.867596 0.538440 0.417880
Si Si7 0.731309 0.535330 0.198862
Si Si8 0.275443 0.991338 0.086066
O O1 0.272924 0.571310 0.358283
O O2 0.348638 0.779428 0.113952
O O3 0.653998 0.682471 0.930652
O O4 0.500000 0.000000 0.000000
O O5 0.004184 0.784332 0.231101
O O6 0.849301 0.069981 0.344808
O O7 0.123155 0.898083 0.199922
O O8 0.230560 0.194013 0.911961
O O9 0.247148 0.658042 0.573546
O O10 0.268464 0.430730 0.525526
O O11 0.540862 0.456600 0.353099
O O12 0.525764 0.818423 0.181410
O O13 0.686419 0.393637 0.350935
O O14 0.063113 0.498937 0.012865
O O15 0.159075 0.100988 0.209776
O O16 0.014164 0.389776 0.309171
O O17 0.000000 0.000000 0.500000
#
# Coordination Sequence:
#
# PCOD8042978 Si02
#       8
#     2   2   2   2   2   2   2   2
#     4  10  19  36  53  78 109 148 187 226 252 337
#     4   9  21  37  55  85 115 140 176 241 272 319
#     4  11  19  33  62  86 102 148 189 222 261 338
#     4   9  18  39  65  77 110 147 181 217 282 334
#     4  11  19  36  59  75 103 158 187 223 269 319
#     4  12  22  35  55  85 118 138 185 236 277 299
#     4   8  19  39  61  81 109 143 187 215 270 352
#     4  10  19  38  56  80 111 145 200 215 261 341
#
# _framework density 18.559359000000001
#
# number of rings (size 3 to 8) (size 9 to 14) (size 15 to 20)
#    0.750    1.250    5.000    1.125    0.000    0.500 
#    4.500    1.875    0.000    0.000    0.000    0.000 
#    0.000    0.000    0.000    0.000    0.000    0.000 
#
# Total GULP energy -198294.065396 kJ/mol
# GULP energy per Si atom -12393.379087 kJ/mol
# Density = 1.851712 g / cm^3
# Si number density = 18.559359 Si / 1000 Ang^3
#
#
#
# Elastic Constant Matrix: (Units=GPa)
#
#
# Indices 1 2 3 4 5 6 
#
# 1 154.6744 49.2262 37.7011 -1.7852 -20.6583 -6.1698
# 2 49.2262 48.1338 22.4804 2.2238 -15.4030 4.3532
# 3 37.7011 22.4804 61.6441 7.3621 -1.1405 7.4207
# 4 -1.7852 2.2238 7.3621 20.0038 0.0566 -1.9822
# 5 -20.6583 -15.4030 -1.1405 0.0566 36.5256 9.6334
# 6 -6.1698 4.3532 7.4207 -1.9822 9.6334 28.5539
#
#
#
# Elastic Compliance Matrix: (Units=1/GPa)
#
#
# Indices 1 2 3 4 5 6 
#
# 1 0.010878 -0.009571 -0.004236 0.004085 0.000667 0.004969
# 2 -0.009571 0.039190 -0.006328 -0.004049 0.013923 -0.011377
# 3 -0.004236 -0.006328 0.022752 -0.008583 -0.002895 -0.005483
# 4 0.004085 -0.004049 -0.008583 0.054780 -0.001907 0.008177
# 5 0.000667 0.013923 -0.002895 -0.001907 0.037208 -0.013912
# 6 0.004969 -0.011377 -0.005483 0.008177 -0.013912 0.044516
#
#
# Mechanical properties :
#
#
# Convention : Reuss Voigt Hill
#
# Bulk Modulus (GPa) = 30.72139 53.69641 42.20890
# Shear Modulus (GPa) = 19.19788 27.35296 23.27542
#
# Velocity S-wave (km/s) = 3.21970 3.84319 3.54518
# Velocity P-wave (km/s) = 5.51461 6.97772 6.28886
#
# Compressibility (1/GPa) = 0.03255062
#
# Stress axis : x y z
#
# Youngs Moduli (GPa) = 91.92529 25.51640 43.95186
#
# Poissons Ratio (x) = 0.24423 0.18619
# Poissons Ratio (y) = 0.87985 0.27811
# Poissons Ratio (z) = 0.38942 0.16146
#
# Static dielectric constant tensor:
#      x y z
#    x 4.635050 0.010850 0.346920 
#    y 0.010850 3.229070 0.453270 
#    z 0.346920 0.453270 3.638100 
# 
# 
# High freq. dielectric constant tensor:
#      x y z
#    x 1.736320 -0.023140 -0.000270 
#    y -0.023140 1.677580 0.023770 
#    z -0.000270 0.023770 1.712180 
# 
# From -- ./inp_files/212144.got.cif
#   From: 2010.06.25/outbox.cif.g09.slc.cpg/sg2_107_cif.got.tgz:212144.got - 2010.06.27 13:26:56.
