data_PCOD8042375
_publ_section_title
;
Structure prediction by ZEFSAII (Michael W. Deem and Ramdas Pophale) SiO2 
 PCOD8042375
Probable space group: P -1
;
_chemical_formula_sum "Si O2"
_cell_formula_units_Z 16
_cell_length_a 15.467423
_cell_length_b 14.027944
_cell_length_c 11.433489
_cell_angle_alpha 148.044647
_cell_angle_beta 50.884608
_cell_angle_gamma 140.083420
_cell_volume 841.059636
_symmetry_space_group_name_H-M "P -1"
_symmetry_group_IT_number 2
_symmetry_cell_setting 'triclinic'
loop_
_space_group_symop_operation_xyz
x,y,z
-x,-y,-z
loop_
_atom_site_type_symbol
_atom_site_label
_atom_site_fract_x
_atom_site_fract_y
_atom_site_fract_z
Si Si1 0.902692 0.878712 0.349145
Si Si2 0.360053 0.259497 0.460286
Si Si3 0.845670 0.161712 0.204033
Si Si4 0.270770 0.874067 0.964309
Si Si5 0.350541 0.541595 0.578686
Si Si6 0.055391 0.638799 0.450327
Si Si7 0.905818 0.839745 0.729261
Si Si8 0.029165 0.443082 0.041498
O O1 0.762778 0.861796 0.468484
O O2 0.870013 0.634727 0.125918
O O3 0.000000 0.000000 0.500000
O O4 0.973315 0.005965 0.302963
O O5 0.361130 0.460618 0.613303
O O6 0.503325 0.351926 0.498495
O O7 0.350975 0.100909 0.200217
O O8 0.721145 0.097882 0.156019
O O9 0.817842 0.198451 0.401813
O O10 0.984800 0.389358 0.288829
O O11 0.876882 0.977855 0.984277
O O12 0.319105 0.723729 0.809409
O O13 0.113081 0.762134 0.005192
O O14 0.233949 0.330889 0.392377
O O15 0.092625 0.650190 0.292109
O O16 0.948701 0.704659 0.625484
O O17 0.000000 0.500000 0.000000
#
# Coordination Sequence:
#
# PCOD8042375 Si02
#       8
#     2   2   2   2   2   2   2   2
#     4  12  19  33  51  79 113 146 171 222 276 326
#     4  11  23  35  51  79 121 144 183 221 270 336
#     4  10  19  35  53  82 111 137 186 234 270 316
#     4  11  19  35  54  79 110 145 178 228 274 315
#     4  11  21  35  53  80 112 150 184 221 273 326
#     4  10  21  33  53  84 110 142 181 229 276 320
#     4  12  19  35  56  80 113 142 182 225 280 317
#     4  11  19  31  54  80 115 140 173 219 285 324
#
# _framework density 19.023620999999999
#
# number of rings (size 3 to 8) (size 9 to 14) (size 15 to 20)
#    0.000    1.000    8.750    2.250    0.000    0.000 
#    0.000    0.000    0.000    0.000    0.000    9.625 
#    0.000    0.000    0.000    0.000    0.000    0.000 
#
# Total GULP energy -198250.946245 kJ/mol
# GULP energy per Si atom -12390.684140 kJ/mol
# Density = 1.898032 g / cm^3
# Si number density = 19.023621 Si / 1000 Ang^3
#
#
#
# Elastic Constant Matrix: (Units=GPa)
#
#
# Indices 1 2 3 4 5 6 
#
# 1 71.5299 21.5339 52.0731 -0.9185 1.6307 0.0572
# 2 21.5339 61.2273 23.9757 -2.5447 8.4175 15.3205
# 3 52.0731 23.9757 127.5512 0.4114 -6.4169 -6.8171
# 4 -0.9185 -2.5447 0.4114 17.5033 -9.3260 0.4515
# 5 1.6307 8.4175 -6.4169 -9.3260 35.9573 -4.3576
# 6 0.0572 15.3205 -6.8171 0.4515 -4.3576 27.2509
#
#
#
# Elastic Compliance Matrix: (Units=1/GPa)
#
#
# Indices 1 2 3 4 5 6 
#
# 1 0.020970 -0.004139 -0.007847 -0.000058 -0.001385 0.000099
# 2 -0.004139 0.024654 -0.004238 -0.000629 -0.008473 -0.016256
# 3 -0.007847 -0.004238 0.012399 0.000950 0.004560 0.006214
# 4 -0.000058 -0.000629 0.000950 0.066461 0.017841 0.002343
# 5 -0.001385 -0.008473 0.004560 0.017841 0.036689 0.011479
# 6 0.000099 -0.016256 0.006214 0.002343 0.011479 0.049186
#
#
# Mechanical properties :
#
#
# Convention : Reuss Voigt Hill
#
# Bulk Modulus (GPa) = 39.10077 50.60822 44.85449
# Shear Modulus (GPa) = 19.89408 26.99069 23.44239
#
# Velocity S-wave (km/s) = 3.23732 3.77078 3.51419
# Velocity P-wave (km/s) = 5.87981 6.75418 6.33210
#
# Compressibility (1/GPa) = 0.02557495
#
# Stress axis : x y z
#
# Youngs Moduli (GPa) = 47.68812 40.56110 80.65467
#
# Poissons Ratio (x) = 0.16789 0.63290
# Poissons Ratio (y) = 0.19739 0.34177
# Poissons Ratio (z) = 0.37421 0.17188
#
# Static dielectric constant tensor:
#      x y z
#    x 4.087420 -0.359180 0.219530 
#    y -0.359180 3.528130 -0.187700 
#    z 0.219530 -0.187700 4.009930 
# 
# 
# High freq. dielectric constant tensor:
#      x y z
#    x 1.735220 -0.013440 -0.012590 
#    y -0.013440 1.686770 0.014350 
#    z -0.012590 0.014350 1.758030 
# 
# From -- ./inp_files/424506.got.cif
#   From: 2010.06.25/outbox.cif.g09.slc.cpg/sg2_213_cif.got.tgz:424506.got - 2010.06.27 13:26:56.
