data_PCOD8042302
_publ_section_title
;
Structure prediction by ZEFSAII (Michael W. Deem and Ramdas Pophale) SiO2 
 PCOD8042302
Probable space group: P -1
;
_chemical_formula_sum "Si O2"
_cell_formula_units_Z 12
_cell_length_a 11.286217
_cell_length_b 8.835192
_cell_length_c 8.614607
_cell_angle_alpha 125.687165
_cell_angle_beta 57.847402
_cell_angle_gamma 86.846544
_cell_volume 500.369533
_symmetry_space_group_name_H-M "P -1"
_symmetry_group_IT_number 2
_symmetry_cell_setting 'triclinic'
loop_
_space_group_symop_operation_xyz
x,y,z
-x,-y,-z
loop_
_atom_site_type_symbol
_atom_site_label
_atom_site_fract_x
_atom_site_fract_y
_atom_site_fract_z
Si Si1 0.020255 0.787757 0.277550
Si Si2 0.905904 0.397490 0.578035
Si Si3 0.883251 0.068795 0.975645
Si Si4 0.461683 0.411433 0.124401
Si Si5 0.346293 0.031208 0.427645
Si Si6 0.557154 0.225968 0.470505
O O1 0.120185 0.576863 0.199598
O O2 0.845651 0.814986 0.380092
O O3 0.000000 0.000000 0.500000
O O4 0.118676 0.742525 0.017832
O O5 0.732273 0.497685 0.672460
O O6 0.000000 0.500000 0.500000
O O7 0.031441 0.140761 0.318798
O O8 0.701302 0.134036 0.188165
O O9 0.000000 0.000000 0.000000
O O10 0.508407 0.514765 0.298391
O O11 0.500000 0.500000 0.000000
O O12 0.567425 0.146275 0.880561
O O13 0.372888 0.907860 0.498203
O O14 0.417377 0.190731 0.476921
#
# Coordination Sequence:
#
# PCOD8042302 Si02
#       6
#     2   2   2   2   2   2
#     4  10  21  40  66  91 122 168 213 252 314 381
#     4  11  23  40  65  91 122 166 212 259 314 372
#     4  11  18  37  65  89 124 164 205 256 316 370
#     4  10  19  37  62  89 123 166 205 254 318 370
#     4  10  20  36  64  91 125 165 208 256 314 375
#     4  10  19  34  62  93 123 166 206 253 319 372
#
# _framework density 23.982275000000001
#
# number of rings (size 3 to 8) (size 9 to 14) (size 15 to 20)
#    0.000    1.667    3.333    4.000    0.000    0.000 
#    0.000   10.000    7.333   17.000    0.000    0.000 
#    0.000    0.000    0.000    0.000    0.000    0.000 
#
# Total GULP energy -148698.331863 kJ/mol
# GULP energy per Si atom -12391.527655 kJ/mol
# Density = 2.392769 g / cm^3
# Si number density = 23.982275 Si / 1000 Ang^3
#
#
#
# Elastic Constant Matrix: (Units=GPa)
#
#
# Indices 1 2 3 4 5 6 
#
# 1 144.0121 48.3484 33.3475 -11.5839 -11.4636 37.0326
# 2 48.3484 103.7538 28.6161 -33.1825 1.7280 13.4888
# 3 33.3475 28.6161 100.9632 -19.5654 -8.2456 24.5123
# 4 -11.5839 -33.1825 -19.5654 40.3629 8.3444 -1.0295
# 5 -11.4636 1.7280 -8.2456 8.3444 33.4899 -10.9261
# 6 37.0326 13.4888 24.5123 -1.0295 -10.9261 37.1415
#
#
#
# Elastic Compliance Matrix: (Units=1/GPa)
#
#
# Indices 1 2 3 4 5 6 
#
# 1 0.010602 -0.004046 -0.000364 -0.000925 0.001194 -0.008536
# 2 -0.004046 0.016512 -0.000491 0.013494 -0.006784 -0.003260
# 3 -0.000364 -0.000491 0.013252 0.005916 -0.001033 -0.008344
# 4 -0.000925 0.013494 0.005916 0.040935 -0.013227 -0.010640
# 5 0.001194 -0.006784 -0.001033 -0.013227 0.037806 0.012710
# 6 -0.008536 -0.003260 -0.008344 -0.010640 0.012710 0.045570
#
#
# Mechanical properties :
#
#
# Convention : Reuss Voigt Hill
#
# Bulk Modulus (GPa) = 32.71922 63.26144 47.99033
# Shear Modulus (GPa) = 27.07579 38.09332 32.58456
#
# Velocity S-wave (km/s) = 3.36369 3.98979 3.69004
# Velocity P-wave (km/s) = 5.36271 6.90364 6.18138
#
# Compressibility (1/GPa) = 0.03056307
#
# Stress axis : x y z
#
# Youngs Moduli (GPa) = 94.32053 60.56375 75.45958
#
# Poissons Ratio (x) = 0.24503 0.02750
# Poissons Ratio (y) = 0.38161 0.03706
# Poissons Ratio (z) = 0.03437 0.02974
#
# Static dielectric constant tensor:
#      x y z
#    x 4.296970 0.235050 0.496490 
#    y 0.235050 4.573370 -0.674720 
#    z 0.496490 -0.674720 4.855650 
# 
# 
# High freq. dielectric constant tensor:
#      x y z
#    x 1.953140 0.010970 -0.001200 
#    y 0.010970 1.938580 -0.024690 
#    z -0.001200 -0.024690 1.948820 
# 
# From -- ./inp_files/151787.got.cif
#   From: 2010.06.25/outbox.cif.g09.slc.cpg/sg2_76_cif.got.tgz:151787.got - 2010.06.27 13:26:56.
