data_PCOD8042493
_publ_section_title
;
Structure prediction by ZEFSAII (Michael W. Deem and Ramdas Pophale) SiO2 
 PCOD8042493
Probable space group: P -1
;
_chemical_formula_sum "Si O2"
_cell_formula_units_Z 16
_cell_length_a 14.508158
_cell_length_b 19.234109
_cell_length_c 9.462332
_cell_angle_alpha 43.917708
_cell_angle_beta 142.118026
_cell_angle_gamma 144.015817
_cell_volume 927.915204
_symmetry_space_group_name_H-M "P -1"
_symmetry_group_IT_number 2
_symmetry_cell_setting 'triclinic'
loop_
_space_group_symop_operation_xyz
x,y,z
-x,-y,-z
loop_
_atom_site_type_symbol
_atom_site_label
_atom_site_fract_x
_atom_site_fract_y
_atom_site_fract_z
Si Si1 0.359180 0.321062 0.663473
Si Si2 0.084939 0.373285 0.331079
Si Si3 0.956274 0.851024 0.286994
Si Si4 0.288145 0.522226 0.961892
Si Si5 0.069853 0.568031 0.194592
Si Si6 0.671941 0.689770 0.678853
Si Si7 0.585492 0.332970 0.381944
Si Si8 0.798412 0.875645 0.780978
O O1 0.223511 0.194844 0.768255
O O2 0.368790 0.289523 0.559523
O O3 0.279815 0.405636 0.459471
O O4 0.558858 0.391419 0.866133
O O5 0.116152 0.476251 0.323449
O O6 0.985176 0.243506 0.482672
O O7 0.960428 0.361168 0.067234
O O8 0.910621 0.855254 0.062776
O O9 0.120843 0.983013 0.345689
O O10 0.105507 0.510744 0.802482
O O11 0.349546 0.575656 0.802711
O O12 0.242161 0.387634 0.103253
O O13 0.244670 0.667599 0.352605
O O14 0.486075 0.619891 0.648817
O O15 0.815255 0.821118 0.733066
O O16 0.416862 0.197151 0.331009
#
# Coordination Sequence:
#
# PCOD8042493 Si02
#       8
#     2   2   2   2   2   2   2   2
#     4  10  19  35  57  82 107 138 184 224 267 313
#     4   9  21  36  54  80 112 145 178 220 270 317
#     4   9  18  39  59  78 103 141 187 229 262 313
#     4  12  20  34  55  83 112 143 176 222 273 322
#     4  11  22  33  53  80 117 146 175 212 271 337
#     4  10  21  32  56  85 110 136 180 229 270 314
#     4  10  22  35  50  82 112 141 176 222 269 324
#     4   9  20  35  60  80 104 139 185 230 269 302
#
# _framework density 17.242954000000001
#
# number of rings (size 3 to 8) (size 9 to 14) (size 15 to 20)
#    1.500    0.500    2.500    1.875    5.250    0.500 
#    0.000    0.625    0.000    2.250    0.000    0.000 
#    0.000    0.000    0.000    0.000    0.000    0.000 
#
# Total GULP energy -198271.281513 kJ/mol
# GULP energy per Si atom -12391.955095 kJ/mol
# Density = 1.720371 g / cm^3
# Si number density = 17.242954 Si / 1000 Ang^3
#
#
#
# Elastic Constant Matrix: (Units=GPa)
#
#
# Indices 1 2 3 4 5 6 
#
# 1 84.2528 22.3466 28.6935 9.5528 -6.9768 -5.2099
# 2 22.3466 88.6048 42.8545 8.9890 3.8209 6.7381
# 3 28.6935 42.8545 84.0769 8.6471 -3.2142 -2.9507
# 4 9.5528 8.9890 8.6471 27.7830 5.0244 -3.4662
# 5 -6.9768 3.8209 -3.2142 5.0244 27.2950 7.4363
# 6 -5.2099 6.7381 -2.9507 -3.4662 7.4363 16.5041
#
#
#
# Elastic Compliance Matrix: (Units=1/GPa)
#
#
# Indices 1 2 3 4 5 6 
#
# 1 0.014376 -0.002003 -0.003292 -0.003620 0.003582 0.002393
# 2 -0.002003 0.016627 -0.007800 -0.003298 -0.000639 -0.009220
# 3 -0.003292 -0.007800 0.017347 -0.001455 0.001385 0.004317
# 4 -0.003620 -0.003298 -0.001455 0.042834 -0.012488 0.014566
# 5 0.003582 -0.000639 0.001385 -0.012488 0.046021 -0.021719
# 6 0.002393 -0.009220 0.004317 0.014566 -0.021719 0.078728
#
#
# Mechanical properties :
#
#
# Convention : Reuss Voigt Hill
#
# Bulk Modulus (GPa) = 45.12565 49.41374 47.26970
# Shear Modulus (GPa) = 20.03923 25.18575 22.61249
#
# Velocity S-wave (km/s) = 3.41276 3.82598 3.62526
# Velocity P-wave (km/s) = 6.46193 6.94529 6.70796
#
# Compressibility (1/GPa) = 0.02216035
#
# Stress axis : x y z
#
# Youngs Moduli (GPa) = 69.55808 60.14289 57.64532
#
# Poissons Ratio (x) = 0.12045 0.18979
# Poissons Ratio (y) = 0.13930 0.44965
# Poissons Ratio (z) = 0.22901 0.46913
#
# Static dielectric constant tensor:
#      x y z
#    x 3.142590 0.051260 -0.122160 
#    y 0.051260 3.017230 0.112750 
#    z -0.122160 0.112750 3.196560 
# 
# 
# High freq. dielectric constant tensor:
#      x y z
#    x 1.658110 0.005130 -0.018100 
#    y 0.005130 1.643940 0.014880 
#    z -0.018100 0.014880 1.667290 
# 
# From -- ./inp_files/317528.got.cif
#   From: 2010.06.25/outbox.cif.g09.slc.cpg/sg2_159_cif.got.tgz:317528.got - 2010.06.27 13:26:56.
