data_PCOD8042163
_publ_section_title
;
Structure prediction by ZEFSAII (Michael W. Deem and Ramdas Pophale) SiO2 
 PCOD8042163
Probable space group: P -1
;
_chemical_formula_sum "Si O2"
_cell_formula_units_Z 14
_cell_length_a 21.474716
_cell_length_b 8.376874
_cell_length_c 8.999094
_cell_angle_alpha 82.418349
_cell_angle_beta 139.629243
_cell_angle_gamma 128.420432
_cell_volume 607.681364
_symmetry_space_group_name_H-M "P -1"
_symmetry_group_IT_number 2
_symmetry_cell_setting 'triclinic'
loop_
_space_group_symop_operation_xyz
x,y,z
-x,-y,-z
loop_
_atom_site_type_symbol
_atom_site_label
_atom_site_fract_x
_atom_site_fract_y
_atom_site_fract_z
Si Si1 0.819871 0.864830 0.763589
Si Si2 0.173567 0.671341 0.847671
Si Si3 0.969206 0.762731 0.154878
Si Si4 0.577568 0.181926 0.899329
Si Si5 0.537746 0.657166 0.410660
Si Si6 0.701430 0.870490 0.132024
Si Si7 0.431195 0.681326 0.814429
O O1 0.723413 0.874542 0.670623
O O2 0.711196 0.626337 0.470022
O O3 0.880378 0.816426 0.002536
O O4 0.971008 0.159903 0.918167
O O5 0.153058 0.552723 0.984955
O O6 0.000000 0.500000 0.500000
O O7 0.286973 0.987213 0.005972
O O8 0.249251 0.642533 0.874785
O O9 0.122286 0.957731 0.521503
O O10 0.490544 0.192185 0.628771
O O11 0.445880 0.859847 0.715949
O O12 0.612009 0.319035 0.099910
O O13 0.500000 0.500000 0.500000
O O14 0.410659 0.432034 0.077985
O O15 0.609991 0.834926 0.109472
#
# Coordination Sequence:
#
# PCOD8042163 Si02
#       7
#     2   2   2   2   2   2   2
#     4  10  21  36  56  81 113 146 177 222 273 322
#     4   9  19  36  56  79 108 145 181 219 269 325
#     4  10  19  35  56  78 107 147 183 211 265 331
#     4  10  19  34  59  83 108 140 184 230 265 317
#     4  11  22  36  56  85 111 138 183 231 269 314
#     4   9  19  37  60  79 107 147 181 221 272 322
#     4   9  19  36  59  84 105 140 188 226 267 315
#
# _framework density 23.03839
#
# number of rings (size 3 to 8) (size 9 to 14) (size 15 to 20)
#    0.000    2.286    0.000    2.571    0.000    4.571 
#    0.000   20.000    0.000   26.571    0.000    0.000 
#    0.000    0.000    0.000    0.000    0.000    0.000 
#
# Total GULP energy -173440.039720 kJ/mol
# GULP energy per Si atom -12388.574266 kJ/mol
# Density = 2.298595 g / cm^3
# Si number density = 23.038390 Si / 1000 Ang^3
#
#
#
# Elastic Constant Matrix: (Units=GPa)
#
#
# Indices 1 2 3 4 5 6 
#
# 1 70.9303 31.0842 14.9469 2.8282 35.1127 0.6050
# 2 31.0842 160.3634 11.9652 -17.4323 25.5787 11.1456
# 3 14.9469 11.9652 56.7717 -15.6504 32.1119 -3.0940
# 4 2.8282 -17.4323 -15.6504 33.8418 -3.0293 4.9415
# 5 35.1127 25.5787 32.1119 -3.0293 35.6529 -3.8594
# 6 0.6050 11.1456 -3.0940 4.9415 -3.8594 30.9990
#
#
#
# Elastic Compliance Matrix: (Units=1/GPa)
#
#
# Indices 1 2 3 4 5 6 
#
# 1 0.039740 0.001810 0.027156 0.005453 -0.065267 -0.007711
# 2 0.001810 0.009003 0.008342 0.007760 -0.015705 -0.005632
# 3 0.027156 0.008342 0.068226 0.027079 -0.093247 -0.012645
# 4 0.005453 0.007760 0.027079 0.044335 -0.032788 -0.011343
# 5 -0.065267 -0.015705 -0.093247 -0.032788 0.187629 0.026200
# 6 -0.007711 -0.005632 -0.012645 -0.011343 0.026200 0.038242
#
#
# Mechanical properties :
#
#
# Convention : Reuss Voigt Hill
#
# Bulk Modulus (GPa) = 5.21967 44.89533 25.05750
# Shear Modulus (GPa) = 13.28294 35.43667 24.35981
#
# Velocity S-wave (km/s) = 2.40377 3.92619 3.25523
# Velocity P-wave (km/s) = 3.15827 6.33110 5.00287
#
# Compressibility (1/GPa) = 0.19158295
#
# Stress axis : x y z
#
# Youngs Moduli (GPa) = 25.16351 111.07890 14.65715
#
# Poissons Ratio (x) = -0.20103 -0.39803
# Poissons Ratio (y) = -0.04554 -0.12226
# Poissons Ratio (z) = -0.68333 -0.92657
#
# Static dielectric constant tensor:
#      x y z
#    x 4.191670 -0.060440 0.443790 
#    y -0.060440 5.029030 -0.098240 
#    z 0.443790 -0.098240 4.015750 
# 
# 
# High freq. dielectric constant tensor:
#      x y z
#    x 1.882170 0.009850 0.038470 
#    y 0.009850 1.946100 -0.018120 
#    z 0.038470 -0.018120 1.889020 
# 
# From -- ./inp_files/153879.got.cif
#   From: 2010.06.25/outbox.cif.g09.slc.cpg/sg2_77_cif.got.tgz:153879.got - 2010.06.27 13:26:56.
