data_PCOD8042587
_publ_section_title
;
Structure prediction by ZEFSAII (Michael W. Deem and Ramdas Pophale) SiO2 
 PCOD8042587
Probable space group: P -1
;
_chemical_formula_sum "Si O2"
_cell_formula_units_Z 10
_cell_length_a 9.308351
_cell_length_b 8.159635
_cell_length_c 13.995405
_cell_angle_alpha 111.926311
_cell_angle_beta 141.129288
_cell_angle_gamma 96.939743
_cell_volume 437.697490
_symmetry_space_group_name_H-M "P -1"
_symmetry_group_IT_number 2
_symmetry_cell_setting 'triclinic'
loop_
_space_group_symop_operation_xyz
x,y,z
-x,-y,-z
loop_
_atom_site_type_symbol
_atom_site_label
_atom_site_fract_x
_atom_site_fract_y
_atom_site_fract_z
Si Si1 0.262261 0.743178 0.377762
Si Si2 0.337454 0.039433 0.203193
Si Si3 0.473896 0.469618 0.609619
Si Si4 0.196369 0.330422 0.000973
Si Si5 0.764688 0.049853 0.085021
O O1 0.308907 0.804315 0.529230
O O2 0.367527 0.597953 0.385108
O O3 0.898704 0.587294 0.116963
O O4 0.500000 0.000000 0.500000
O O5 0.294798 0.230572 0.218896
O O6 0.082717 0.814011 0.094230
O O7 0.315594 0.945920 0.065843
O O8 0.112487 0.313816 0.354423
O O9 0.485394 0.432495 0.722602
O O10 0.245791 0.164396 0.945915
O O11 0.500000 0.000000 0.000000
#
# Coordination Sequence:
#
# PCOD8042587 Si02
#       5
#     2   2   2   2   2
#     4  10  19  35  58  90 115 138 182 240 284 327
#     4  10  22  35  60  91 110 142 193 229 279 337
#     4  11  20  35  62  83 114 149 183 235 282 320
#     4  10  22  37  59  91 112 141 189 232 283 336
#     4  11  23  38  56  81 116 154 191 226 271 337
#
# _framework density 22.846829
#
# number of rings (size 3 to 8) (size 9 to 14) (size 15 to 20)
#    0.000    1.600    4.000    3.600    2.800    3.200 
#    0.000    1.000    0.000    2.400    0.000    0.000 
#    0.000    0.000    0.000    0.000    0.000    0.000 
#
# Total GULP energy -123882.759411 kJ/mol
# GULP energy per Si atom -12388.275941 kJ/mol
# Density = 2.279483 g / cm^3
# Si number density = 22.846829 Si / 1000 Ang^3
#
#
#
# Elastic Constant Matrix: (Units=GPa)
#
#
# Indices 1 2 3 4 5 6 
#
# 1 118.0839 33.2465 55.7128 -17.5885 -12.4903 -10.7864
# 2 33.2465 45.3429 40.4516 -17.6060 -0.7508 6.2667
# 3 55.7128 40.4516 156.5700 -39.0882 -42.5081 9.3797
# 4 -17.5885 -17.6060 -39.0882 52.3456 10.8440 -15.1104
# 5 -12.4903 -0.7508 -42.5081 10.8440 31.8812 -11.9887
# 6 -10.7864 6.2667 9.3797 -15.1104 -11.9887 15.8311
#
#
#
# Elastic Compliance Matrix: (Units=1/GPa)
#
#
# Indices 1 2 3 4 5 6 
#
# 1 0.030926 -0.039815 0.015949 0.024162 0.060393 0.096179
# 2 -0.039815 0.095194 -0.041386 -0.034845 -0.117926 -0.162851
# 3 0.015949 -0.041386 0.032291 0.025846 0.072517 0.087703
# 4 0.024162 -0.034845 0.025846 0.055091 0.069573 0.120213
# 5 0.060393 -0.117926 0.072517 0.069573 0.233656 0.288214
# 6 0.096179 -0.162851 0.087703 0.120213 0.288214 0.474200
#
#
# Mechanical properties :
#
#
# Convention : Reuss Voigt Hill
#
# Bulk Modulus (GPa) = 35.83467 64.31316 50.07391
# Shear Modulus (GPa) = 4.71180 32.71732 18.71456
#
# Velocity S-wave (km/s) = 1.43764 3.78832 2.86515
# Velocity P-wave (km/s) = 4.29820 6.88084 5.73675
#
# Compressibility (1/GPa) = 0.02790593
#
# Stress axis : x y z
#
# Youngs Moduli (GPa) = 32.33511 10.50489 30.96832
#
# Poissons Ratio (x) = 0.41825 -0.49390
# Poissons Ratio (y) = 1.28741 1.28167
# Poissons Ratio (z) = -0.51570 0.43476
#
# Static dielectric constant tensor:
#      x y z
#    x 3.663380 0.271120 -0.865270 
#    y 0.271120 5.066980 -1.029370 
#    z -0.865270 -1.029370 5.552990 
# 
# 
# High freq. dielectric constant tensor:
#      x y z
#    x 1.836290 -0.007910 -0.057690 
#    y -0.007910 1.903250 -0.031370 
#    z -0.057690 -0.031370 1.929910 
# 
# From -- ./inp_files/149784.got.cif
#   From: 2010.06.25/outbox.cif.g09.slc.cpg/sg2_75_cif.got.tgz:149784.got - 2010.06.27 13:26:56.
