data_PCOD8042980
_publ_section_title
;
Structure prediction by ZEFSAII (Michael W. Deem and Ramdas Pophale) SiO2 
 PCOD8042980
Probable space group: P -1
;
_chemical_formula_sum "Si O2"
_cell_formula_units_Z 16
_cell_length_a 8.629885
_cell_length_b 13.193090
_cell_length_c 14.936085
_cell_angle_alpha 54.769477
_cell_angle_beta 45.454821
_cell_angle_gamma 82.424512
_cell_volume 874.542517
_symmetry_space_group_name_H-M "P -1"
_symmetry_group_IT_number 2
_symmetry_cell_setting 'triclinic'
loop_
_space_group_symop_operation_xyz
x,y,z
-x,-y,-z
loop_
_atom_site_type_symbol
_atom_site_label
_atom_site_fract_x
_atom_site_fract_y
_atom_site_fract_z
Si Si1 0.004832 0.961190 0.875717
Si Si2 0.399865 0.051442 0.816749
Si Si3 0.120668 0.678204 0.492737
Si Si4 0.599344 0.487629 0.561881
Si Si5 0.345626 0.302922 0.917435
Si Si6 0.948584 0.764504 0.344708
Si Si7 0.349305 0.784506 0.050268
Si Si8 0.382782 0.528958 0.118912
O O1 0.068893 0.092013 0.716883
O O2 0.766058 0.924954 0.053253
O O3 0.934980 0.823751 0.910736
O O4 0.244254 0.992922 0.819367
O O5 0.641009 0.197746 0.618767
O O6 0.487954 0.937349 0.869559
O O7 0.171340 0.546755 0.519619
O O8 0.089855 0.749617 0.379758
O O9 0.866374 0.614018 0.684563
O O10 0.500000 0.500000 0.500000
O O11 0.390670 0.368658 0.766886
O O12 0.681161 0.631331 0.510569
O O13 0.508046 0.222454 0.914184
O O14 0.413978 0.421732 0.906878
O O15 0.083234 0.763292 0.197933
O O16 0.322822 0.658781 0.058139
O O17 0.500000 0.500000 0.000000
#
# Coordination Sequence:
#
# PCOD8042980 Si02
#       8
#     2   2   2   2   2   2   2   2
#     4  10  20  31  51  85 124 142 170 207 280 358
#     4  10  20  31  52  87 116 148 170 213 280 346
#     4  12  19  35  55  80 114 143 185 227 272 326
#     4  12  21  30  51  88 118 144 173 215 288 342
#     4  10  19  36  53  80 109 148 176 224 274 328
#     4  11  18  32  53  85 114 143 171 222 279 344
#     4   9  18  33  55  79 108 140 181 221 276 325
#     4  10  22  39  59  79 101 144 204 244 262 297
#
# _framework density 18.295279000000001
#
# number of rings (size 3 to 8) (size 9 to 14) (size 15 to 20)
#    0.750    0.750    5.000    1.875    3.500    2.000 
#    0.000    0.625    0.000    3.750    0.000    0.000 
#    0.000    0.000    0.000    0.000    0.000    0.000 
#
# Total GULP energy -198225.306664 kJ/mol
# GULP energy per Si atom -12389.081667 kJ/mol
# Density = 1.825364 g / cm^3
# Si number density = 18.295279 Si / 1000 Ang^3
#
#
#
# Elastic Constant Matrix: (Units=GPa)
#
#
# Indices 1 2 3 4 5 6 
#
# 1 105.4882 25.3942 44.9719 -15.3330 6.7843 19.4664
# 2 25.3942 61.7359 52.2851 -6.4975 -1.3105 13.0267
# 3 44.9719 52.2851 109.9439 -25.0449 -3.9593 9.4110
# 4 -15.3330 -6.4975 -25.0449 29.5859 6.3277 -3.7385
# 5 6.7843 -1.3105 -3.9593 6.3277 34.2987 -12.2472
# 6 19.4664 13.0267 9.4110 -3.7385 -12.2472 19.4580
#
#
#
# Elastic Compliance Matrix: (Units=1/GPa)
#
#
# Indices 1 2 3 4 5 6 
#
# 1 0.017187 0.003279 -0.006021 0.004348 -0.013359 -0.024050
# 2 0.003279 0.033486 -0.016989 -0.006514 -0.008794 -0.024268
# 3 -0.006021 -0.016989 0.021419 0.011732 0.005376 0.012676
# 4 0.004348 -0.006514 0.011732 0.046195 -0.009197 -0.002576
# 5 -0.013359 -0.008794 0.005376 -0.009197 0.050428 0.046625
# 6 -0.024050 -0.024268 0.012676 -0.002576 0.046625 0.114421
#
#
# Mechanical properties :
#
#
# Convention : Reuss Voigt Hill
#
# Bulk Modulus (GPa) = 30.64812 58.05226 44.35019
# Shear Modulus (GPa) = 14.99358 26.96965 20.98162
#
# Velocity S-wave (km/s) = 2.86585 3.84361 3.39017
# Velocity P-wave (km/s) = 5.26679 7.17617 6.29430
#
# Compressibility (1/GPa) = 0.03262843
#
# Stress axis : x y z
#
# Youngs Moduli (GPa) = 58.18436 29.86298 46.68757
#
# Poissons Ratio (x) = -0.09791 0.28112
# Poissons Ratio (y) = -0.19077 0.79319
# Poissons Ratio (z) = 0.35035 0.50735
#
# Static dielectric constant tensor:
#      x y z
#    x 3.318750 0.095700 0.018430 
#    y 0.095700 3.018840 -0.499450 
#    z 0.018430 -0.499450 3.368240 
# 
# 
# High freq. dielectric constant tensor:
#      x y z
#    x 1.707870 0.014260 0.004580 
#    y 0.014260 1.657560 -0.053360 
#    z 0.004580 -0.053360 1.703890 
# 
# From -- ./inp_files/351458.got.cif
#   From: 2010.06.25/outbox.cif.g09.slc.cpg/sg2_176_cif.got.tgz:351458.got - 2010.06.27 13:26:56.
