data_PCOD8042916
_publ_section_title
;
Structure prediction by ZEFSAII (Michael W. Deem and Ramdas Pophale) SiO2 
 PCOD8042916
Probable space group: P -1
;
_chemical_formula_sum "Si O2"
_cell_formula_units_Z 16
_cell_length_a 9.975865
_cell_length_b 24.153833
_cell_length_c 10.150011
_cell_angle_alpha 135.554388
_cell_angle_beta 137.341215
_cell_angle_gamma 28.457008
_cell_volume 772.313974
_symmetry_space_group_name_H-M "P -1"
_symmetry_group_IT_number 2
_symmetry_cell_setting 'triclinic'
loop_
_space_group_symop_operation_xyz
x,y,z
-x,-y,-z
loop_
_atom_site_type_symbol
_atom_site_label
_atom_site_fract_x
_atom_site_fract_y
_atom_site_fract_z
Si Si1 0.768854 0.138124 0.597605
Si Si2 0.801781 0.863397 0.995622
Si Si3 0.821012 0.757421 0.568904
Si Si4 0.293965 0.226520 0.990071
Si Si5 0.203101 0.536646 0.851953
Si Si6 0.630568 0.252894 0.417591
Si Si7 0.076076 0.534807 0.473772
Si Si8 0.763526 0.859940 0.435441
O O1 0.512457 0.176300 0.565878
O O2 0.616271 0.221062 0.499038
O O3 0.922526 0.160118 0.830976
O O4 0.000000 0.000000 0.500000
O O5 0.870280 0.793860 0.796781
O O6 0.769607 0.821882 0.032321
O O7 0.500000 0.000000 0.000000
O O8 0.878607 0.793767 0.545418
O O9 0.054210 0.613869 0.489548
O O10 0.570774 0.199393 0.181988
O O11 0.994457 0.368129 0.012617
O O12 0.359349 0.173607 0.802738
O O13 0.031434 0.590788 0.679159
O O14 0.206947 0.440216 0.717646
O O15 0.500000 0.500000 0.000000
O O16 0.393338 0.395008 0.465247
O O17 0.961449 0.183823 0.515819
O O18 0.500000 0.000000 0.500000
#
# Coordination Sequence:
#
# PCOD8042916 Si02
#       8
#     2   2   2   2   2   2   2   2
#     4  12  22  39  68  97 127 171 220 279 326 383
#     4  12  22  39  65  96 126 167 223 269 322 384
#     4  12  25  41  63 103 134 166 224 282 323 389
#     4  11  22  41  65  94 124 176 218 258 329 396
#     4  10  19  35  64  96 127 166 215 267 321 386
#     4  11  23  44  68  93 134 177 217 270 336 398
#     4  10  22  38  62  97 132 168 218 276 325 390
#     4  12  27  44  65  93 134 178 221 272 340 395
#
# _framework density 20.716963
#
# number of rings (size 3 to 8) (size 9 to 14) (size 15 to 20)
#    0.000    0.750    5.000    3.750    1.750    2.000 
#    0.000    2.500    0.000    0.000    0.000    0.000 
#    0.000    0.000    0.000    0.000    0.000    0.000 
#
# Total GULP energy -198310.479553 kJ/mol
# GULP energy per Si atom -12394.404972 kJ/mol
# Density = 2.066981 g / cm^3
# Si number density = 20.716963 Si / 1000 Ang^3
#
#
#
# Elastic Constant Matrix: (Units=GPa)
#
#
# Indices 1 2 3 4 5 6 
#
# 1 56.6515 16.5829 24.1975 3.9856 -1.2948 14.7959
# 2 16.5829 86.8128 54.3906 7.7495 3.6050 4.9415
# 3 24.1975 54.3906 142.4432 6.4392 16.7818 3.9122
# 4 3.9856 7.7495 6.4392 28.9050 -7.5048 5.1462
# 5 -1.2948 3.6050 16.7818 -7.5048 35.0442 -4.2788
# 6 14.7959 4.9415 3.9122 5.1462 -4.2788 33.9480
#
#
#
# Elastic Compliance Matrix: (Units=1/GPa)
#
#
# Indices 1 2 3 4 5 6 
#
# 1 0.021744 -0.001911 -0.002884 0.000052 0.001329 -0.008707
# 2 -0.001911 0.015591 -0.005553 -0.002510 0.000402 -0.000366
# 3 -0.002884 -0.005553 0.010253 -0.001728 -0.004749 0.000547
# 4 0.000052 -0.002510 -0.001728 0.038697 0.008861 -0.004207
# 5 0.001329 0.000402 -0.004749 0.008861 0.033048 0.002732
# 6 -0.008707 -0.000366 0.000547 -0.004207 0.002732 0.034224
#
#
# Mechanical properties :
#
#
# Convention : Reuss Voigt Hill
#
# Bulk Modulus (GPa) = 37.18440 52.91662 45.05051
# Shear Modulus (GPa) = 27.29036 32.29521 29.79279
#
# Velocity S-wave (km/s) = 3.63339 3.95255 3.79633
# Velocity P-wave (km/s) = 5.96572 6.81383 6.40383
#
# Compressibility (1/GPa) = 0.02689300
#
# Stress axis : x y z
#
# Youngs Moduli (GPa) = 45.99068 64.13934 97.53277
#
# Poissons Ratio (x) = 0.12256 0.28127
# Poissons Ratio (y) = 0.08788 0.54156
# Poissons Ratio (z) = 0.13263 0.35614
#
# Static dielectric constant tensor:
#      x y z
#    x 3.653180 0.154300 0.273450 
#    y 0.154300 3.757480 0.080520 
#    z 0.273450 0.080520 4.076100 
# 
# 
# High freq. dielectric constant tensor:
#      x y z
#    x 1.790210 0.008200 0.025230 
#    y 0.008200 1.819480 0.005740 
#    z 0.025230 0.005740 1.823360 
# 
# From -- ./inp_files/226561.got.cif
#   From: 2010.06.25/outbox.cif.g09.slc.cpg/sg2_114_cif.got.tgz:226561.got - 2010.06.27 13:26:56.
