data_PCOD8042785
_publ_section_title
;
Structure prediction by ZEFSAII (Michael W. Deem and Ramdas Pophale) SiO2 
 PCOD8042785
Probable space group: P -1
;
_chemical_formula_sum "Si O2"
_cell_formula_units_Z 14
_cell_length_a 8.062035
_cell_length_b 9.274389
_cell_length_c 9.360774
_cell_angle_alpha 93.120056
_cell_angle_beta 108.913400
_cell_angle_gamma 94.495514
_cell_volume 657.714556
_symmetry_space_group_name_H-M "P -1"
_symmetry_group_IT_number 2
_symmetry_cell_setting 'triclinic'
loop_
_space_group_symop_operation_xyz
x,y,z
-x,-y,-z
loop_
_atom_site_type_symbol
_atom_site_label
_atom_site_fract_x
_atom_site_fract_y
_atom_site_fract_z
Si Si1 0.373556 0.119106 0.155854
Si Si2 0.812140 0.412686 0.967901
Si Si3 0.220510 0.848079 0.256808
Si Si4 0.334557 0.403960 0.282312
Si Si5 0.094771 0.007853 0.873722
Si Si6 0.716676 0.376161 0.506059
Si Si7 0.767890 0.262788 0.229644
O O1 0.264074 0.239291 0.211956
O O2 0.574173 0.180610 0.194017
O O3 0.359077 0.981500 0.251027
O O4 0.290583 0.083688 0.972144
O O5 0.812603 0.252837 0.895711
O O6 0.663981 0.499358 0.856309
O O7 0.767491 0.391854 0.121314
O O8 0.000000 0.500000 0.000000
O O9 0.302654 0.766256 0.406317
O O10 0.029167 0.898813 0.252832
O O11 0.530454 0.408063 0.394110
O O12 0.214350 0.480631 0.371757
O O13 0.103103 0.855221 0.787754
O O14 0.000000 0.000000 0.000000
O O15 0.836742 0.341417 0.401894
#
# Coordination Sequence:
#
# PCOD8042785 Si02
#       7
#     2   2   2   2   2   2   2
#     4  10  20  36  67  92 118 151 204 250 289 352
#     4  11  22  38  64  86 118 163 199 245 301 354
#     4  10  21  39  64  87 124 163 190 235 313 358
#     4   9  20  38  61  83 122 162 191 238 302 356
#     4  10  19  35  61  90 119 155 189 250 297 345
#     4   9  21  40  59  88 123 158 197 239 294 365
#     4  11  22  37  64  92 120 148 208 254 284 349
#
# _framework density 21.285829
#
# number of rings (size 3 to 8) (size 9 to 14) (size 15 to 20)
#    0.000    2.000    2.857    1.286    2.000    5.143 
#    0.000    2.857   12.571    0.000    0.000    0.000 
#    0.000    0.000    0.000    0.000    0.000    0.000 
#
# Total GULP energy -173435.497279 kJ/mol
# GULP energy per Si atom -12388.249806 kJ/mol
# Density = 2.123738 g / cm^3
# Si number density = 21.285829 Si / 1000 Ang^3
#
#
#
# Elastic Constant Matrix: (Units=GPa)
#
#
# Indices 1 2 3 4 5 6 
#
# 1 58.6980 27.1413 20.9551 -15.1196 -10.6905 -3.9148
# 2 27.1413 142.9437 60.8572 -2.4348 -21.7434 -12.4130
# 3 20.9551 60.8572 110.3686 -11.2112 -25.6236 -4.4629
# 4 -15.1196 -2.4348 -11.2112 46.7555 -14.9957 -4.0767
# 5 -10.6905 -21.7434 -25.6236 -14.9957 32.1011 -1.9557
# 6 -3.9148 -12.4130 -4.4629 -4.0767 -1.9557 31.7712
#
#
#
# Elastic Compliance Matrix: (Units=1/GPa)
#
#
# Indices 1 2 3 4 5 6 
#
# 1 0.023684 -0.002439 0.001482 0.012658 0.013614 0.004636
# 2 -0.002439 0.009959 -0.004327 -0.000212 0.002570 0.003114
# 3 0.001482 -0.004327 0.015434 0.008712 0.014113 0.002646
# 4 0.012658 -0.000212 0.008712 0.037748 0.029228 0.009343
# 5 0.013614 0.002570 0.014113 0.029228 0.063094 0.012298
# 6 0.004636 0.003114 0.002646 0.009343 0.012298 0.035590
#
#
# Mechanical properties :
#
#
# Convention : Reuss Voigt Hill
#
# Bulk Modulus (GPa) = 25.96874 58.87973 42.42423
# Shear Modulus (GPa) = 23.93341 35.66267 29.79804
#
# Velocity S-wave (km/s) = 3.35682 4.09763 3.74558
# Velocity P-wave (km/s) = 5.22023 7.07877 6.21931
#
# Compressibility (1/GPa) = 0.03850783
#
# Stress axis : x y z
#
# Youngs Moduli (GPa) = 42.22254 100.41363 64.79373
#
# Poissons Ratio (x) = 0.24490 -0.09601
# Poissons Ratio (y) = 0.10298 0.28038
# Poissons Ratio (z) = -0.06257 0.43451
#
# Static dielectric constant tensor:
#      x y z
#    x 3.825490 -0.466200 0.132310 
#    y -0.466200 4.398590 0.436870 
#    z 0.132310 0.436870 4.623460 
# 
# 
# High freq. dielectric constant tensor:
#      x y z
#    x 1.806330 -0.022980 0.010100 
#    y -0.022980 1.849770 0.010840 
#    z 0.010100 0.010840 1.835240 
# 
# From -- ./inp_files/154938.got.cif
#   From: 2010.06.25/outbox.cif.g09.slc.cpg/sg2_78_cif.got.tgz:154938.got - 2010.06.27 13:26:56.
