data_PCOD8042007
_publ_section_title
;
Structure prediction by ZEFSAII (Michael W. Deem and Ramdas Pophale) SiO2 
 PCOD8042007
Probable space group: P -1
;
_chemical_formula_sum "Si O2"
_cell_formula_units_Z 16
_cell_length_a 11.415021
_cell_length_b 10.102600
_cell_length_c 8.527714
_cell_angle_alpha 115.741807
_cell_angle_beta 85.860235
_cell_angle_gamma 89.614738
_cell_volume 882.727708
_symmetry_space_group_name_H-M "P -1"
_symmetry_group_IT_number 2
_symmetry_cell_setting 'triclinic'
loop_
_space_group_symop_operation_xyz
x,y,z
-x,-y,-z
loop_
_atom_site_type_symbol
_atom_site_label
_atom_site_fract_x
_atom_site_fract_y
_atom_site_fract_z
Si Si1 0.115078 0.168373 0.159195
Si Si2 0.249728 0.380882 0.054775
Si Si3 0.715509 0.402462 0.293994
Si Si4 0.440342 0.416078 0.824060
Si Si5 0.079444 0.391385 0.542367
Si Si6 0.331389 0.634602 0.366382
Si Si7 0.876489 0.166700 0.004671
Si Si8 0.110968 0.666293 0.220980
O O1 0.195746 0.233935 0.049502
O O2 0.129387 0.255514 0.364338
O O3 0.979237 0.180944 0.128715
O O4 0.158799 0.001107 0.096672
O O5 0.321890 0.461804 0.227960
O O6 0.145487 0.499595 0.071330
O O7 0.331420 0.334218 0.872732
O O8 0.604694 0.470268 0.246008
O O9 0.812867 0.523407 0.356366
O O10 0.673521 0.348531 0.438911
O O11 0.762604 0.259491 0.121707
O O12 0.542336 0.309644 0.679683
O O13 0.500000 0.500000 0.000000
O O14 0.000000 0.500000 0.500000
O O15 0.005145 0.330936 0.661413
O O16 0.221448 0.725302 0.342375
O O17 0.918293 0.225576 0.863548
#
# Coordination Sequence:
#
# PCOD8042007 Si02
#       8
#     2   2   2   2   2   2   2   2
#     4  11  22  37  50  83 119 150 176 232 271 340
#     4   9  17  34  55  77 106 145 181 229 268 312
#     4  12  19  34  60  85 108 153 178 234 281 326
#     4  10  20  33  56  89 110 135 194 243 266 316
#     4  12  19  35  58  82 115 140 192 224 273 327
#     4   9  18  34  57  84 106 141 190 236 271 311
#     4  11  23  33  54  82 118 149 184 214 291 332
#     4  10  19  34  56  81 107 150 179 233 264 335
#
# _framework density 18.125634999999999
#
# number of rings (size 3 to 8) (size 9 to 14) (size 15 to 20)
#    0.750    0.750    6.250    0.375    1.750    1.500 
#    0.000    0.000    0.000    7.500    0.000    0.000 
#    0.000    0.000    0.000    0.000    0.000    0.000 
#
# Total GULP energy -198327.541043 kJ/mol
# GULP energy per Si atom -12395.471315 kJ/mol
# Density = 1.808438 g / cm^3
# Si number density = 18.125635 Si / 1000 Ang^3
#
#
#
# Elastic Constant Matrix: (Units=GPa)
#
#
# Indices 1 2 3 4 5 6 
#
# 1 57.4349 16.6634 21.5967 3.0626 -13.5785 -2.1584
# 2 16.6634 93.0692 35.6609 -2.9127 -1.5607 11.2054
# 3 21.5967 35.6609 80.3895 -7.7476 -13.7716 5.4118
# 4 3.0626 -2.9127 -7.7476 27.5877 5.0698 1.7167
# 5 -13.5785 -1.5607 -13.7716 5.0698 34.3818 -14.8088
# 6 -2.1584 11.2054 5.4118 1.7167 -14.8088 24.6090
#
#
#
# Elastic Compliance Matrix: (Units=1/GPa)
#
#
# Indices 1 2 3 4 5 6 
#
# 1 0.025040 -0.004958 -0.003605 -0.008244 0.016122 0.015523
# 2 -0.004958 0.015262 -0.005931 0.002911 -0.009147 -0.011788
# 3 -0.003605 -0.005931 0.017189 0.003519 0.005354 0.001581
# 4 -0.008244 0.002911 0.003519 0.041913 -0.013997 -0.014169
# 5 0.016122 -0.009147 0.005354 -0.013997 0.056103 0.039139
# 6 0.015523 -0.011788 0.001581 -0.014169 0.039139 0.071558
#
#
# Mechanical properties :
#
#
# Convention : Reuss Voigt Hill
#
# Bulk Modulus (GPa) = 35.08641 42.08174 38.58407
# Shear Modulus (GPa) = 18.82856 27.78052 23.30454
#
# Velocity S-wave (km/s) = 3.22651 3.91917 3.58959
# Velocity P-wave (km/s) = 5.76887 6.61415 6.20592
#
# Compressibility (1/GPa) = 0.02850107
#
# Stress axis : x y z
#
# Youngs Moduli (GPa) = 39.93681 65.52225 58.17694
#
# Poissons Ratio (x) = 0.32489 0.20973
# Poissons Ratio (y) = 0.19803 0.34506
# Poissons Ratio (z) = 0.14398 0.38862
#
# Static dielectric constant tensor:
#      x y z
#    x 1.844270 0.056050 0.476420 
#    y 0.056050 3.099590 -0.212920 
#    z 0.476420 -0.212920 3.150940 
# 
# 
# High freq. dielectric constant tensor:
#      x y z
#    x 1.699980 -0.004000 -0.012690 
#    y -0.004000 1.665630 -0.030680 
#    z -0.012690 -0.030680 1.702310 
# 
# From -- ./inp_files/245015.got.cif
#   From: 2010.06.25/outbox.cif.g09.slc.cpg/sg2_123_cif.got.tgz:245015.got - 2010.06.27 13:26:56.
