data_PCOD8042825
_publ_section_title
;
Structure prediction by ZEFSAII (Michael W. Deem and Ramdas Pophale) SiO2 
 PCOD8042825
Probable space group: P -1
;
_chemical_formula_sum "Si O2"
_cell_formula_units_Z 14
_cell_length_a 13.158943
_cell_length_b 10.385414
_cell_length_c 9.162378
_cell_angle_alpha 120.900381
_cell_angle_beta 134.249587
_cell_angle_gamma 49.119926
_cell_volume 674.393930
_symmetry_space_group_name_H-M "P -1"
_symmetry_group_IT_number 2
_symmetry_cell_setting 'triclinic'
loop_
_space_group_symop_operation_xyz
x,y,z
-x,-y,-z
loop_
_atom_site_type_symbol
_atom_site_label
_atom_site_fract_x
_atom_site_fract_y
_atom_site_fract_z
Si Si1 0.701918 0.315461 0.991566
Si Si2 0.075789 0.869994 0.132478
Si Si3 0.107189 0.563646 0.558056
Si Si4 0.210015 0.016509 0.921501
Si Si5 0.838703 0.936735 0.427010
Si Si6 0.588445 0.711381 0.409861
Si Si7 0.476258 0.983012 0.689467
O O1 0.755245 0.440175 0.197209
O O2 0.761539 0.149535 0.056674
O O3 0.779111 0.292878 0.893181
O O4 0.511552 0.381775 0.808961
O O5 0.141715 0.945017 0.366543
O O6 0.941953 0.830711 0.053745
O O7 0.000000 0.000000 0.000000
O O8 0.220907 0.429930 0.468953
O O9 0.000000 0.500000 0.500000
O O10 0.986063 0.744502 0.472128
O O11 0.160802 0.996659 0.696612
O O12 0.358115 0.054883 0.087240
O O13 0.663055 0.954807 0.292571
O O14 0.510684 0.805747 0.540342
O O15 0.579549 0.861038 0.386230
#
# Coordination Sequence:
#
# PCOD8042825 Si02
#       7
#     2   2   2   2   2   2   2
#     4  10  21  39  62  88 116 155 203 236 292 347
#     4  10  19  35  62  90 109 150 203 242 279 343
#     4  12  24  35  60  89 124 150 195 246 297 343
#     4  10  22  35  63  91 118 151 196 248 290 344
#     4  12  21  39  60  92 120 152 195 246 295 342
#     4  10  21  38  60  89 115 158 194 249 283 346
#     4  10  21  37  63  85 118 153 205 235 291 347
#
# _framework density 20.75938
#
# number of rings (size 3 to 8) (size 9 to 14) (size 15 to 20)
#    0.000    1.429    5.714    1.286    4.000    0.000 
#    0.000    0.714    0.000    1.714    0.000    0.000 
#    0.000    0.000    0.000    0.000    0.000    0.000 
#
# Total GULP energy -173432.871300 kJ/mol
# GULP energy per Si atom -12388.062236 kJ/mol
# Density = 2.071213 g / cm^3
# Si number density = 20.759380 Si / 1000 Ang^3
#
#
#
# Elastic Constant Matrix: (Units=GPa)
#
#
# Indices 1 2 3 4 5 6 
#
# 1 107.0992 34.3745 40.8941 -11.8602 2.2870 -40.4364
# 2 34.3745 68.0599 19.5488 -2.4718 7.1158 -30.7621
# 3 40.8941 19.5488 104.1882 -3.0942 4.9838 -5.8375
# 4 -11.8602 -2.4718 -3.0942 20.3482 -0.6416 7.4626
# 5 2.2870 7.1158 4.9838 -0.6416 43.5106 -2.4481
# 6 -40.4364 -30.7621 -5.8375 7.4626 -2.4481 32.6993
#
#
#
# Elastic Compliance Matrix: (Units=1/GPa)
#
#
# Indices 1 2 3 4 5 6 
#
# 1 0.022638 0.004781 -0.008052 0.001271 0.000703 0.030818
# 2 0.004781 0.029127 -0.005535 -0.006966 -0.002586 0.033722
# 3 -0.008052 -0.005535 0.013143 0.001452 -0.000899 -0.013217
# 4 0.001271 -0.006966 0.001452 0.055653 0.000750 -0.017367
# 5 0.000703 -0.002586 -0.000899 0.000750 0.023475 -0.000138
# 6 0.030818 0.033722 -0.013217 -0.017367 -0.000138 0.102009
#
#
# Mechanical properties :
#
#
# Convention : Reuss Voigt Hill
#
# Bulk Modulus (GPa) = 21.14372 52.10913 36.62643
# Shear Modulus (GPa) = 17.89398 31.61361 24.75380
#
# Velocity S-wave (km/s) = 2.93912 3.90662 3.45688
# Velocity P-wave (km/s) = 4.66102 6.74573 5.79784
#
# Compressibility (1/GPa) = 0.04729537
#
# Stress axis : x y z
#
# Youngs Moduli (GPa) = 44.17257 34.33182 76.08846
#
# Poissons Ratio (x) = -0.16413 0.61265
# Poissons Ratio (y) = -0.21117 0.42118
# Poissons Ratio (z) = 0.35567 0.19004
#
# Static dielectric constant tensor:
#      x y z
#    x 4.000640 -0.583910 0.192750 
#    y -0.583910 3.596530 0.022190 
#    z 0.192750 0.022190 3.868880 
# 
# 
# High freq. dielectric constant tensor:
#      x y z
#    x 1.827120 -0.039510 0.016500 
#    y -0.039510 1.773970 0.002960 
#    z 0.016500 0.002960 1.814610 
# 
# From -- ./inp_files/263144.got.cif
#   From: 2010.06.25/outbox.cif.g09.slc.cpg/sg2_132_cif.got.tgz:263144.got - 2010.06.27 13:26:56.
