data_PCOD8042404
_publ_section_title
;
Structure prediction by ZEFSAII (Michael W. Deem and Ramdas Pophale) SiO2 
 PCOD8042404
Probable space group: P -1
;
_chemical_formula_sum "Si O2"
_cell_formula_units_Z 14
_cell_length_a 16.413371
_cell_length_b 30.816719
_cell_length_c 31.763429
_cell_angle_alpha 170.792465
_cell_angle_beta 16.980603
_cell_angle_gamma 162.764868
_cell_volume 729.625407
_symmetry_space_group_name_H-M "P -1"
_symmetry_group_IT_number 2
_symmetry_cell_setting 'triclinic'
loop_
_space_group_symop_operation_xyz
x,y,z
-x,-y,-z
loop_
_atom_site_type_symbol
_atom_site_label
_atom_site_fract_x
_atom_site_fract_y
_atom_site_fract_z
Si Si1 0.286286 0.231756 0.623810
Si Si2 0.345224 0.839054 0.145076
Si Si3 0.785575 0.338611 0.538036
Si Si4 0.056204 0.967001 0.989758
Si Si5 0.842281 0.586316 0.409915
Si Si6 0.255837 0.780207 0.460457
Si Si7 0.156570 0.176709 0.824095
O O1 0.454721 0.252011 0.603858
O O2 0.948774 0.153584 0.726285
O O3 0.364942 0.989385 0.324665
O O4 0.373530 0.523239 0.834920
O O5 0.601880 0.997418 0.139819
O O6 0.813024 0.213661 0.450592
O O7 0.975239 0.216181 0.294098
O O8 0.888922 0.671899 0.807869
O O9 0.000000 0.000000 0.000000
O O10 0.500000 0.500000 0.500000
O O11 0.993337 0.563632 0.359073
O O12 0.946490 0.903685 0.645372
O O13 0.960774 0.395966 0.135835
O O14 0.562539 0.698974 0.224135
O O15 0.274559 0.088856 0.726880
#
# Coordination Sequence:
#
# PCOD8042404 Si02
#       7
#     2   2   2   2   2   2   2
#     4  10  19  35  55  78 100 146 182 235 264 333
#     4  10  20  35  55  74 107 141 191 217 284 330
#     4  12  23  35  59  85 113 141 194 240 275 324
#     4  12  22  37  56  83 110 154 184 232 285 338
#     4  10  19  36  62  88 112 153 189 223 281 345
#     4   9  23  36  60  87 115 148 193 231 281 336
#     4   9  20  38  62  81 116 156 183 226 280 353
#
# _framework density 19.187929
#
# number of rings (size 3 to 8) (size 9 to 14) (size 15 to 20)
#    0.857    0.857    2.857    2.143    2.000    0.000 
#    0.000    2.857    0.000    0.000    0.000    0.000 
#    0.000    0.000    0.000    0.000    0.000    0.000 
#
# Total GULP energy -173540.133676 kJ/mol
# GULP energy per Si atom -12395.723834 kJ/mol
# Density = 1.914426 g / cm^3
# Si number density = 19.187929 Si / 1000 Ang^3
#
#
#
# Elastic Constant Matrix: (Units=GPa)
#
#
# Indices 1 2 3 4 5 6 
#
# 1 61.7255 36.7141 11.9762 -3.8904 6.9261 -2.8031
# 2 36.7141 138.4314 32.1490 -16.6560 7.3699 25.9997
# 3 11.9762 32.1490 107.2595 -7.1140 12.9020 6.0780
# 4 -3.8904 -16.6560 -7.1140 34.9769 -0.2942 0.4125
# 5 6.9261 7.3699 12.9020 -0.2942 13.6247 0.6601
# 6 -2.8031 25.9997 6.0780 0.4125 0.6601 28.1355
#
#
#
# Elastic Compliance Matrix: (Units=1/GPa)
#
#
# Indices 1 2 3 4 5 6 
#
# 1 0.021647 -0.007174 0.000068 -0.001165 -0.007647 0.008968
# 2 -0.007174 0.012395 -0.001845 0.004863 -0.000632 -0.011827
# 3 0.000068 -0.001845 0.011129 0.001318 -0.009523 -0.000488
# 4 -0.001165 0.004863 0.001318 0.031087 -0.002359 -0.005295
# 5 -0.007647 -0.000632 -0.009523 -0.002359 0.086598 -0.000117
# 6 0.008968 -0.011827 -0.000488 -0.005295 -0.000117 0.047550
#
#
# Mechanical properties :
#
#
# Convention : Reuss Voigt Hill
#
# Bulk Modulus (GPa) = 36.67352 52.12166 44.39759
# Shear Modulus (GPa) = 21.06149 30.45257 25.75703
#
# Velocity S-wave (km/s) = 3.31666 3.98813 3.66779
# Velocity P-wave (km/s) = 5.81561 6.95914 6.41291
#
# Compressibility (1/GPa) = 0.02726763
#
# Stress axis : x y z
#
# Youngs Moduli (GPa) = 46.19655 80.67679 89.85272
#
# Poissons Ratio (x) = 0.57878 -0.00609
# Poissons Ratio (y) = 0.33142 0.16581
# Poissons Ratio (z) = -0.00313 0.14888
#
# Static dielectric constant tensor:
#      x y z
#    x 3.079100 0.224330 0.063460 
#    y 0.224330 3.838400 -0.025670 
#    z 0.063460 -0.025670 3.508350 
# 
# 
# High freq. dielectric constant tensor:
#      x y z
#    x 1.696010 0.018600 0.009060 
#    y 0.018600 1.757550 -0.002800 
#    z 0.009060 -0.002800 1.757370 
# 
# From -- ./inp_files/623735.got.cif
#   From: 2010.06.25/outbox.cif.g09.slc.cpg/sg2_312_cif.got.tgz:623735.got - 2010.06.27 13:26:56.
