data_PCOD8042633
_publ_section_title
;
Structure prediction by ZEFSAII (Michael W. Deem and Ramdas Pophale) SiO2 
 PCOD8042633
Probable space group: P -1
;
_chemical_formula_sum "Si O2"
_cell_formula_units_Z 16
_cell_length_a 20.911794
_cell_length_b 10.351154
_cell_length_c 9.478418
_cell_angle_alpha 64.304245
_cell_angle_beta 152.765150
_cell_angle_gamma 115.966589
_cell_volume 839.251132
_symmetry_space_group_name_H-M "P -1"
_symmetry_group_IT_number 2
_symmetry_cell_setting 'triclinic'
loop_
_space_group_symop_operation_xyz
x,y,z
-x,-y,-z
loop_
_atom_site_type_symbol
_atom_site_label
_atom_site_fract_x
_atom_site_fract_y
_atom_site_fract_z
Si Si1 0.855451 0.840575 0.938857
Si Si2 0.541443 0.839313 0.283519
Si Si3 0.599669 0.617041 0.056956
Si Si4 0.931644 0.881904 0.761636
Si Si5 0.627425 0.922550 0.102142
Si Si6 0.076492 0.388853 0.293460
Si Si7 0.593525 0.476271 0.825930
Si Si8 0.092974 0.404743 0.644034
O O1 0.688956 0.822624 0.658589
O O2 0.887818 0.793427 0.863645
O O3 0.921061 0.749531 0.231729
O O4 0.928537 0.005280 0.007028
O O5 0.587959 0.907536 0.194140
O O6 0.444715 0.690369 0.126702
O O7 0.452985 0.939704 0.162291
O O8 0.575519 0.780171 0.974578
O O9 0.756095 0.582263 0.415321
O O10 0.500000 0.500000 0.000000
O O11 0.563508 0.590085 0.834518
O O12 0.797313 0.957152 0.407205
O O13 0.977905 0.770279 0.792477
O O14 0.039117 0.389928 0.384800
O O15 0.000000 0.500000 0.000000
O O16 0.500000 0.500000 0.500000
O O17 0.754515 0.506033 0.085680
O O18 0.000000 0.500000 0.500000
#
# Coordination Sequence:
#
# PCOD8042633 Si02
#       8
#     2   2   2   2   2   2   2   2
#     4  10  20  37  58  85 117 153 194 235 291 346
#     4  10  19  35  59  86 116 150 191 240 287 345
#     4  10  20  37  61  87 115 152 193 243 288 347
#     4   9  20  37  60  83 114 154 193 242 285 345
#     4   9  19  35  58  86 114 148 195 239 288 337
#     4  10  22  39  59  86 117 152 198 242 287 348
#     4  11  22  38  60  86 120 154 192 240 296 345
#     4  11  24  38  59  86 118 156 197 241 291 349
#
# _framework density 19.064613999999999
#
# number of rings (size 3 to 8) (size 9 to 14) (size 15 to 20)
#    0.000    2.000    2.500    0.750    1.750    2.500 
#    4.500    0.625    0.000    0.000    0.000    0.000 
#    0.000    0.000    0.000    0.000    0.000    0.000 
#
# Total GULP energy -198297.117027 kJ/mol
# GULP energy per Si atom -12393.569814 kJ/mol
# Density = 1.902122 g / cm^3
# Si number density = 19.064614 Si / 1000 Ang^3
#
#
#
# Elastic Constant Matrix: (Units=GPa)
#
#
# Indices 1 2 3 4 5 6 
#
# 1 96.4339 41.4007 48.4757 0.0084 -0.0131 -23.1613
# 2 41.4007 91.8723 36.7428 6.5490 3.7019 -23.2557
# 3 48.4757 36.7428 87.9207 -4.7534 -17.1334 -18.2272
# 4 0.0084 6.5490 -4.7534 35.1301 0.8204 2.2250
# 5 -0.0131 3.7019 -17.1334 0.8204 25.4195 0.7008
# 6 -23.1613 -23.2557 -18.2272 2.2250 0.7008 41.6199
#
#
#
# Elastic Compliance Matrix: (Units=1/GPa)
#
#
# Indices 1 2 3 4 5 6 
#
# 1 0.016762 -0.002957 -0.008176 -0.000706 -0.005165 0.004220
# 2 -0.002957 0.016291 -0.005461 -0.003974 -0.006075 0.005381
# 3 -0.008176 -0.005461 0.021611 0.003499 0.015205 0.001420
# 4 -0.000706 -0.003974 0.003499 0.029804 0.002050 -0.002709
# 5 -0.005165 -0.006075 0.015205 0.002050 0.050420 -0.000568
# 6 0.004220 0.005381 0.001420 -0.002709 -0.000568 0.030158
#
#
# Mechanical properties :
#
#
# Convention : Reuss Voigt Hill
#
# Bulk Modulus (GPa) = 46.56444 58.82946 52.69695
# Shear Modulus (GPa) = 24.34357 30.40776 27.37566
#
# Velocity S-wave (km/s) = 3.57725 3.99806 3.79349
# Velocity P-wave (km/s) = 6.44514 7.22755 6.84753
#
# Compressibility (1/GPa) = 0.02147562
#
# Stress axis : x y z
#
# Youngs Moduli (GPa) = 59.65826 61.38199 46.27353
#
# Poissons Ratio (x) = 0.18152 0.37833
# Poissons Ratio (y) = 0.17642 0.25271
# Poissons Ratio (z) = 0.48776 0.33522
#
# Static dielectric constant tensor:
#      x y z
#    x 3.605350 -0.121680 0.095960 
#    y -0.121680 4.016950 0.140530 
#    z 0.095960 0.140530 3.918540 
# 
# 
# High freq. dielectric constant tensor:
#      x y z
#    x 1.739120 -0.006710 0.006500 
#    y -0.006710 1.742080 0.010570 
#    z 0.006500 0.010570 1.737830 
# 
# From -- ./inp_files/343476.got.cif
#   From: 2010.06.25/outbox.cif.g09.slc.cpg/sg2_172_cif.got.tgz:343476.got - 2010.06.27 13:26:56.
