data_PCOD8042179
_publ_section_title
;
Structure prediction by ZEFSAII (Michael W. Deem and Ramdas Pophale) SiO2 
 PCOD8042179
Probable space group: P -1
;
_chemical_formula_sum "Si O2"
_cell_formula_units_Z 16
_cell_length_a 12.526307
_cell_length_b 8.766468
_cell_length_c 18.347525
_cell_angle_alpha 54.320106
_cell_angle_beta 151.027235
_cell_angle_gamma 127.663935
_cell_volume 766.307895
_symmetry_space_group_name_H-M "P -1"
_symmetry_group_IT_number 2
_symmetry_cell_setting 'triclinic'
loop_
_space_group_symop_operation_xyz
x,y,z
-x,-y,-z
loop_
_atom_site_type_symbol
_atom_site_label
_atom_site_fract_x
_atom_site_fract_y
_atom_site_fract_z
Si Si1 0.168605 0.302095 0.130724
Si Si2 0.596777 0.171518 0.566872
Si Si3 0.531722 0.750802 0.799456
Si Si4 0.069790 0.114580 0.887206
Si Si5 0.725455 0.534711 0.170991
Si Si6 0.133582 0.421117 0.379744
Si Si7 0.162004 0.527829 0.198797
Si Si8 0.585717 0.860844 0.385159
O O1 0.389163 0.257374 0.234770
O O2 0.250210 0.383039 0.237034
O O3 0.957941 0.113601 0.072912
O O4 0.077108 0.450272 0.983784
O O5 0.678961 0.393959 0.524386
O O6 0.402939 0.159191 0.514870
O O7 0.819928 0.138632 0.751446
O O8 0.500000 0.000000 0.500000
O O9 0.352993 0.546151 0.772272
O O10 0.395983 0.915809 0.686498
O O11 0.761845 0.792570 0.973133
O O12 0.150149 0.234081 0.825758
O O13 0.886121 0.406636 0.269355
O O14 0.500000 0.500000 0.000000
O O15 0.124614 0.442541 0.280985
O O16 0.207837 0.223407 0.498855
O O17 0.346614 0.732477 0.248404
#
# Coordination Sequence:
#
# PCOD8042179 Si02
#       8
#     2   2   2   2   2   2   2   2
#     4  11  20  33  62  89 113 143 195 240 283 327
#     4  10  20  33  57  87 113 149 191 234 282 331
#     4  11  20  36  61  85 113 151 194 232 281 337
#     4  10  19  34  59  87 109 145 195 238 270 335
#     4   9  20  38  61  79 109 152 193 232 280 337
#     4  10  22  37  54  84 120 151 185 230 287 344
#     4  10  21  35  55  89 121 145 180 246 289 324
#     4  11  21  33  54  83 122 149 182 235 286 338
#
# _framework density 20.879337
#
# number of rings (size 3 to 8) (size 9 to 14) (size 15 to 20)
#    0.000    1.750    2.500    4.875    3.500    0.500 
#    0.000    0.000    2.750    9.750    0.000    0.000 
#    0.000    0.000    0.000    0.000    0.000    0.000 
#
# Total GULP energy -198219.252914 kJ/mol
# GULP energy per Si atom -12388.703307 kJ/mol
# Density = 2.083181 g / cm^3
# Si number density = 20.879337 Si / 1000 Ang^3
#
#
#
# Elastic Constant Matrix: (Units=GPa)
#
#
# Indices 1 2 3 4 5 6 
#
# 1 103.6527 63.3694 22.2126 6.0675 7.4127 2.9923
# 2 63.3694 102.2920 11.1373 -8.4100 0.5663 -3.7886
# 3 22.2126 11.1373 76.2792 -9.6800 16.5187 -6.7197
# 4 6.0675 -8.4100 -9.6800 25.3229 -7.3865 -3.3599
# 5 7.4127 0.5663 16.5187 -7.3865 24.4906 1.2517
# 6 2.9923 -3.7886 -6.7197 -3.3599 1.2517 34.9363
#
#
#
# Elastic Compliance Matrix: (Units=1/GPa)
#
#
# Indices 1 2 3 4 5 6 
#
# 1 0.020169 -0.013254 -0.004720 -0.013605 -0.006454 -0.005150
# 2 -0.013254 0.018952 0.001798 0.012476 0.005892 0.004525
# 3 -0.004720 0.001798 0.017336 0.006493 -0.008596 0.004866
# 4 -0.013605 0.012476 0.006493 0.055060 0.015621 0.008503
# 5 -0.006454 0.005892 -0.008596 0.015621 0.053203 -0.000865
# 6 -0.005150 0.004525 0.004866 0.008503 -0.000865 0.031340
#
#
# Mechanical properties :
#
#
# Convention : Reuss Voigt Hill
#
# Bulk Modulus (GPa) = 41.48615 52.85139 47.16877
# Shear Modulus (GPa) = 21.14641 29.31693 25.23167
#
# Velocity S-wave (km/s) = 3.18589 3.75121 3.48005
# Velocity P-wave (km/s) = 5.78324 6.64303 6.22799
#
# Compressibility (1/GPa) = 0.02410443
#
# Stress axis : x y z
#
# Youngs Moduli (GPa) = 49.58142 52.76577 57.68353
#
# Poissons Ratio (x) = 0.69936 0.27229
# Poissons Ratio (y) = 0.65716 -0.10374
# Poissons Ratio (z) = 0.23404 -0.09490
#
# Static dielectric constant tensor:
#      x y z
#    x 3.828490 0.183550 0.135540 
#    y 0.183550 4.405840 -0.140650 
#    z 0.135540 -0.140650 3.729000 
# 
# 
# High freq. dielectric constant tensor:
#      x y z
#    x 1.788940 -0.005020 0.005840 
#    y -0.005020 1.808460 -0.023550 
#    z 0.005840 -0.023550 1.820710 
# 
# From -- ./inp_files/476329.got.cif
#   From: 2010.06.25/outbox.cif.g09.slc.cpg/sg2_239_cif.got.tgz:476329.got - 2010.06.27 13:26:56.
