data_PCOD8042904
_publ_section_title
;
Structure prediction by ZEFSAII (Michael W. Deem and Ramdas Pophale) SiO2 
 PCOD8042904
Probable space group: P -1
;
_chemical_formula_sum "Si O2"
_cell_formula_units_Z 14
_cell_length_a 14.059502
_cell_length_b 8.409892
_cell_length_c 9.065514
_cell_angle_alpha 49.797071
_cell_angle_beta 128.262787
_cell_angle_gamma 134.543148
_cell_volume 555.527587
_symmetry_space_group_name_H-M "P -1"
_symmetry_group_IT_number 2
_symmetry_cell_setting 'triclinic'
loop_
_space_group_symop_operation_xyz
x,y,z
-x,-y,-z
loop_
_atom_site_type_symbol
_atom_site_label
_atom_site_fract_x
_atom_site_fract_y
_atom_site_fract_z
Si Si1 0.773589 0.491781 0.868051
Si Si2 0.544711 0.232003 0.303809
Si Si3 0.954533 0.180900 0.907951
Si Si4 0.286060 0.016320 0.981224
Si Si5 0.775655 0.150652 0.499046
Si Si6 0.442484 0.405226 0.338596
Si Si7 0.847161 0.922540 0.459446
O O1 0.648664 0.468740 0.868465
O O2 0.793899 0.681641 0.646291
O O3 0.722380 0.237591 0.897756
O O4 0.916335 0.579877 0.042175
O O5 0.693651 0.302701 0.325250
O O6 0.557315 0.444966 0.298423
O O7 0.500000 0.000000 0.500000
O O8 0.434074 0.192906 0.093118
O O9 0.892886 0.272153 0.665628
O O10 0.841231 0.026056 0.013656
O O11 0.000000 0.000000 0.000000
O O12 0.268909 0.131270 0.745215
O O13 0.663386 0.879080 0.595348
O O14 0.851475 0.142937 0.425816
O O15 0.500000 0.500000 0.500000
O O16 0.000000 0.000000 0.500000
#
# Coordination Sequence:
#
# PCOD8042904 Si02
#       7
#     2   2   2   2   2   2   2
#     4  11  23  39  66  97 127 166 220 260 318 385
#     4  10  19  38  64  94 124 172 213 260 328 380
#     4  12  19  38  64  90 127 176 211 258 326 373
#     4  12  23  40  70  93 128 172 214 262 325 384
#     4  10  21  38  63  93 128 173 212 265 322 378
#     4  10  19  35  64  93 121 165 213 257 317 384
#     4  11  23  40  63  96 135 167 213 270 318 372
#
# _framework density 25.201267000000001
#
# number of rings (size 3 to 8) (size 9 to 14) (size 15 to 20)
#    0.000    1.143    7.143    2.143    0.000    0.571 
#    0.000    0.714    6.286    8.571    0.000    0.000 
#    0.000    0.000    0.000    0.000    0.000    0.000 
#
# Total GULP energy -173512.368758 kJ/mol
# GULP energy per Si atom -12393.740626 kJ/mol
# Density = 2.514391 g / cm^3
# Si number density = 25.201267 Si / 1000 Ang^3
#
#
#
# Elastic Constant Matrix: (Units=GPa)
#
#
# Indices 1 2 3 4 5 6 
#
# 1 181.1016 49.6203 42.3175 7.2551 35.4329 -59.2354
# 2 49.6203 87.9687 50.3899 22.6656 5.5891 -28.5280
# 3 42.3175 50.3899 156.5311 44.5534 16.5139 -18.9396
# 4 7.2551 22.6656 44.5534 47.6200 2.1457 -1.4974
# 5 35.4329 5.5891 16.5139 2.1457 39.1974 4.6601
# 6 -59.2354 -28.5280 -18.9396 -1.4974 4.6601 32.6001
#
#
#
# Elastic Compliance Matrix: (Units=1/GPa)
#
#
# Indices 1 2 3 4 5 6 
#
# 1 0.056072 0.013776 0.007510 -0.014950 -0.070172 0.127646
# 2 0.013776 0.023232 -0.000260 -0.010478 -0.020752 0.047695
# 3 0.007510 -0.000260 0.011451 -0.010446 -0.013563 0.021529
# 4 -0.014950 -0.010478 -0.010446 0.035631 0.022690 -0.044009
# 5 -0.070172 -0.020752 -0.013563 0.022690 0.116486 -0.169154
# 6 0.127646 0.047695 0.021529 -0.044009 -0.169154 0.339016
#
#
# Mechanical properties :
#
#
# Convention : Reuss Voigt Hill
#
# Bulk Modulus (GPa) = 7.52986 78.91739 43.22362
# Shear Modulus (GPa) = 8.56008 42.76841 25.66424
#
# Velocity S-wave (km/s) = 1.84501 4.12402 3.19465
# Velocity P-wave (km/s) = 2.74465 7.35252 5.54945
#
# Compressibility (1/GPa) = 0.13280463
#
# Stress axis : x y z
#
# Youngs Moduli (GPa) = 17.83422 43.04440 87.32734
#
# Poissons Ratio (x) = -0.59297 -0.65579
# Poissons Ratio (y) = -0.24568 0.02274
# Poissons Ratio (z) = -0.13393 0.01121
#
# Static dielectric constant tensor:
#      x y z
#    x 5.905380 -0.725810 0.382770 
#    y -0.725810 4.411370 0.286400 
#    z 0.382770 0.286400 4.710900 
# 
# 
# High freq. dielectric constant tensor:
#      x y z
#    x 2.025790 -0.022710 0.019020 
#    y -0.022710 1.990610 0.019000 
#    z 0.019020 0.019000 2.005930 
# 
# From -- ./inp_files/289823.got.cif
#   From: 2010.06.25/outbox.cif.g09.slc.cpg/sg2_145_cif.got.tgz:289823.got - 2010.06.27 13:26:56.
