data_PCOD8042939
_publ_section_title
;
Structure prediction by ZEFSAII (Michael W. Deem and Ramdas Pophale) SiO2 
 PCOD8042939
Probable space group: P -1
;
_chemical_formula_sum "Si O2"
_cell_formula_units_Z 16
_cell_length_a 10.321832
_cell_length_b 16.483032
_cell_length_c 16.313257
_cell_angle_alpha 34.631862
_cell_angle_beta 35.522132
_cell_angle_gamma 59.342705
_cell_volume 801.988859
_symmetry_space_group_name_H-M "P -1"
_symmetry_group_IT_number 2
_symmetry_cell_setting 'triclinic'
loop_
_space_group_symop_operation_xyz
x,y,z
-x,-y,-z
loop_
_atom_site_type_symbol
_atom_site_label
_atom_site_fract_x
_atom_site_fract_y
_atom_site_fract_z
Si Si1 0.668321 0.638644 0.681212
Si Si2 0.125522 0.990518 0.713419
Si Si3 0.250222 0.585900 0.055090
Si Si4 0.174211 0.272015 0.652274
Si Si5 0.493381 0.052604 0.337060
Si Si6 0.363437 0.034635 0.818076
Si Si7 0.721892 0.496354 0.440432
Si Si8 0.547658 0.867741 0.130274
O O1 0.827681 0.827169 0.465774
O O2 0.791108 0.546727 0.744276
O O3 0.689226 0.620067 0.588475
O O4 0.373032 0.564471 0.924997
O O5 0.242482 0.946459 0.609874
O O6 0.262326 0.964396 0.743918
O O7 0.823821 0.879123 0.967312
O O8 0.975428 0.571159 0.190666
O O9 0.442877 0.761181 0.847827
O O10 0.304629 0.166241 0.697495
O O11 0.209296 0.399806 0.598444
O O12 0.878642 0.144044 0.893340
O O13 0.441903 0.988309 0.323744
O O14 0.505900 0.112729 0.763774
O O15 0.500000 0.500000 0.500000
O O16 0.647595 0.310529 0.654626
O O17 0.500000 0.000000 0.000000
#
# Coordination Sequence:
#
# PCOD8042939 Si02
#       8
#     2   2   2   2   2   2   2   2
#     4  10  20  38  63  89 120 152 204 253 295 346
#     4  10  19  37  61  91 115 158 203 244 298 350
#     4  10  22  37  58  93 124 155 192 253 307 344
#     4  11  21  38  65  90 118 156 209 253 287 353
#     4  10  19  35  66  90 114 148 211 260 280 340
#     4  11  20  39  62  93 116 154 214 247 289 353
#     4  12  24  40  58  90 130 160 194 245 307 363
#     4  12  25  40  60  88 128 164 192 242 312 367
#
# _framework density 19.950403999999999
#
# number of rings (size 3 to 8) (size 9 to 14) (size 15 to 20)
#    0.000    1.250    5.000    2.250    0.000    1.500 
#    0.000    2.500    0.000    0.000    0.000    0.000 
#    0.000    0.000    0.000    0.000    0.000    0.000 
#
# Total GULP energy -198359.917522 kJ/mol
# GULP energy per Si atom -12397.494845 kJ/mol
# Density = 1.990500 g / cm^3
# Si number density = 19.950404 Si / 1000 Ang^3
#
#
#
# Elastic Constant Matrix: (Units=GPa)
#
#
# Indices 1 2 3 4 5 6 
#
# 1 57.8300 32.5919 28.2101 12.6292 11.8880 10.9317
# 2 32.5919 98.2279 35.5653 7.5481 2.3505 14.7183
# 3 28.2101 35.5653 78.6847 8.4996 9.7998 15.8983
# 4 12.6292 7.5481 8.4996 48.5997 -1.1504 0.0695
# 5 11.8880 2.3505 9.7998 -1.1504 33.0688 -0.2544
# 6 10.9317 14.7183 15.8983 0.0695 -0.2544 25.5669
#
#
#
# Elastic Compliance Matrix: (Units=1/GPa)
#
#
# Indices 1 2 3 4 5 6 
#
# 1 0.026507 -0.005863 -0.004157 -0.005435 -0.008111 -0.005439
# 2 -0.005863 0.013924 -0.003857 0.000093 0.002240 -0.003089
# 3 -0.004157 -0.003857 0.018034 -0.001552 -0.003686 -0.007249
# 4 -0.005435 0.000093 -0.001552 0.022317 0.003208 0.003206
# 5 -0.008111 0.002240 -0.003686 0.003208 0.034237 0.004802
# 6 -0.005439 -0.003089 -0.007249 0.003206 0.004802 0.047764
#
#
# Mechanical properties :
#
#
# Convention : Reuss Voigt Hill
#
# Bulk Modulus (GPa) = 32.56107 47.49746 40.02927
# Shear Modulus (GPa) = 24.90380 30.67209 27.78795
#
# Velocity S-wave (km/s) = 3.53694 3.92524 3.73614
# Velocity P-wave (km/s) = 5.74773 6.66355 6.22251
#
# Compressibility (1/GPa) = 0.03071152
#
# Stress axis : x y z
#
# Youngs Moduli (GPa) = 37.72647 71.81737 55.45177
#
# Poissons Ratio (x) = 0.42107 0.23050
# Poissons Ratio (y) = 0.22119 0.21386
# Poissons Ratio (z) = 0.15682 0.27697
#
# Static dielectric constant tensor:
#      x y z
#    x 2.932230 -0.028890 0.379510 
#    y -0.028890 3.900900 0.145950 
#    z 0.379510 0.145950 3.718290 
# 
# 
# High freq. dielectric constant tensor:
#      x y z
#    x 1.741340 -0.003270 0.020540 
#    y -0.003270 1.797660 0.002360 
#    z 0.020540 0.002360 1.782810 
# 
# From -- ./inp_files/570326.got.cif
#   From: 2010.06.25/outbox.cif.g09.slc.cpg/sg2_286_cif.got.tgz:570326.got - 2010.06.27 13:26:56.
