data_PCOD8042459
_publ_section_title
;
Structure prediction by ZEFSAII (Michael W. Deem and Ramdas Pophale) SiO2 
 PCOD8042459
Probable space group: P -1
;
_chemical_formula_sum "Si O2"
_cell_formula_units_Z 16
_cell_length_a 8.750626
_cell_length_b 8.518009
_cell_length_c 14.483310
_cell_angle_alpha 72.866428
_cell_angle_beta 103.170556
_cell_angle_gamma 126.921908
_cell_volume 822.923404
_symmetry_space_group_name_H-M "P -1"
_symmetry_group_IT_number 2
_symmetry_cell_setting 'triclinic'
loop_
_space_group_symop_operation_xyz
x,y,z
-x,-y,-z
loop_
_atom_site_type_symbol
_atom_site_label
_atom_site_fract_x
_atom_site_fract_y
_atom_site_fract_z
Si Si1 0.697949 0.773272 0.015903
Si Si2 0.800949 0.592484 0.668426
Si Si3 0.961848 0.208737 0.032510
Si Si4 0.466531 0.305157 0.349946
Si Si5 0.932651 0.000105 0.592268
Si Si6 0.590199 0.380642 0.151327
Si Si7 0.848193 0.553137 0.468999
Si Si8 0.991761 0.475530 0.149539
O O1 0.623769 0.597518 0.111313
O O2 0.786801 0.976590 0.049820
O O3 0.529622 0.745228 0.933608
O O4 0.844703 0.772896 0.966364
O O5 0.589399 0.534017 0.676492
O O6 0.789055 0.550206 0.565922
O O7 0.953375 0.833162 0.673648
O O8 0.863212 0.469586 0.754986
O O9 0.981360 0.304005 0.117693
O O10 0.918952 0.321117 0.930503
O O11 0.482665 0.270772 0.249946
O O12 0.665547 0.387857 0.413757
O O13 0.296205 0.093625 0.411005
O O14 0.059423 0.229109 0.605761
O O15 0.000000 0.000000 0.500000
O O16 0.786046 0.396970 0.175158
O O17 0.000000 0.500000 0.500000
#
# Coordination Sequence:
#
# PCOD8042459 Si02
#       8
#     2   2   2   2   2   2   2   2
#     4   9  19  37  56  80 114 154 190 231 288 345
#     4   9  20  38  56  79 116 151 189 231 284 345
#     4   9  19  35  59  79 111 154 191 230 290 345
#     4  10  21  38  62  83 117 155 193 232 287 346
#     4   8  20  38  60  82 110 155 189 236 283 351
#     4  10  20  35  56  84 117 148 192 241 284 340
#     4  11  21  38  62  87 114 149 190 243 290 338
#     4  10  19  35  56  85 115 148 188 245 285 328
#
# _framework density 19.442879999999999
#
# number of rings (size 3 to 8) (size 9 to 14) (size 15 to 20)
#    0.750    1.750    0.000    1.875    0.000    3.000 
#    6.750    1.250    0.000    0.000    0.000    0.000 
#    0.000    0.000    0.000    0.000    0.000    0.000 
#
# Total GULP energy -198220.355394 kJ/mol
# GULP energy per Si atom -12388.772212 kJ/mol
# Density = 1.939863 g / cm^3
# Si number density = 19.442880 Si / 1000 Ang^3
#
#
#
# Elastic Constant Matrix: (Units=GPa)
#
#
# Indices 1 2 3 4 5 6 
#
# 1 74.4714 -3.6246 24.7508 1.6302 -0.6699 7.1222
# 2 -3.6246 71.0630 9.3049 -2.8668 -8.3145 7.9352
# 3 24.7508 9.3049 77.3719 -1.5438 3.0845 9.8139
# 4 1.6302 -2.8668 -1.5438 17.2805 5.1490 -0.7579
# 5 -0.6699 -8.3145 3.0845 5.1490 36.9865 0.9201
# 6 7.1222 7.9352 9.8139 -0.7579 0.9201 30.3155
#
#
#
# Elastic Compliance Matrix: (Units=1/GPa)
#
#
# Indices 1 2 3 4 5 6 
#
# 1 0.015466 0.001811 -0.004936 -0.002150 0.001463 -0.002608
# 2 0.001811 0.015325 -0.002058 0.000942 0.003614 -0.003857
# 3 -0.004936 -0.002058 0.015268 0.001952 -0.002019 -0.003134
# 4 -0.002150 0.000942 0.001952 0.061002 -0.008517 0.001410
# 5 0.001463 0.003614 -0.002019 -0.008517 0.029273 -0.001738
# 6 -0.002608 -0.003857 -0.003134 0.001410 -0.001738 0.035711
#
#
# Mechanical properties :
#
#
# Convention : Reuss Voigt Hill
#
# Bulk Modulus (GPa) = 28.01683 31.52984 29.77334
# Shear Modulus (GPa) = 25.73203 29.74819 27.74011
#
# Velocity S-wave (km/s) = 3.64190 3.91580 3.78133
# Velocity P-wave (km/s) = 5.66795 6.05777 5.86610
#
# Compressibility (1/GPa) = 0.03569283
#
# Stress axis : x y z
#
# Youngs Moduli (GPa) = 64.65733 65.25094 65.49627
#
# Poissons Ratio (x) = -0.11816 0.32327
# Poissons Ratio (y) = -0.11708 0.13482
# Poissons Ratio (z) = 0.31913 0.13432
#
# Static dielectric constant tensor:
#      x y z
#    x 3.610940 -0.038560 -0.052550 
#    y -0.038560 3.629040 -0.213350 
#    z -0.052550 -0.213350 3.387450 
# 
# 
# High freq. dielectric constant tensor:
#      x y z
#    x 1.762150 0.000100 -0.005620 
#    y 0.000100 1.738030 -0.005760 
#    z -0.005620 -0.005760 1.747710 
# 
# From -- ./inp_files/492565.got.cif
#   From: 2010.06.25/outbox.cif.g09.slc.cpg/sg2_247_cif.got.tgz:492565.got - 2010.06.27 13:26:56.
