data_PCOD8042879
_publ_section_title
;
Structure prediction by ZEFSAII (Michael W. Deem and Ramdas Pophale) SiO2 
 PCOD8042879
Probable space group: P -1
;
_chemical_formula_sum "Si O2"
_cell_formula_units_Z 14
_cell_length_a 9.150705
_cell_length_b 8.588436
_cell_length_c 18.204541
_cell_angle_alpha 112.470239
_cell_angle_beta 30.230597
_cell_angle_gamma 107.808156
_cell_volume 664.726051
_symmetry_space_group_name_H-M "P -1"
_symmetry_group_IT_number 2
_symmetry_cell_setting 'triclinic'
loop_
_space_group_symop_operation_xyz
x,y,z
-x,-y,-z
loop_
_atom_site_type_symbol
_atom_site_label
_atom_site_fract_x
_atom_site_fract_y
_atom_site_fract_z
Si Si1 0.783411 0.844413 0.651922
Si Si2 0.239580 0.362347 0.515519
Si Si3 0.664918 0.529464 0.740224
Si Si4 0.433340 0.792982 0.357396
Si Si5 0.680748 0.649881 0.360769
Si Si6 0.289098 0.102568 0.891934
Si Si7 0.281464 0.469135 0.023432
O O1 0.682136 0.775782 0.605016
O O2 0.758383 0.707187 0.702033
O O3 0.118893 0.895489 0.512345
O O4 0.564279 0.002843 0.793073
O O5 0.433602 0.519172 0.450249
O O6 0.279869 0.271615 0.561016
O O7 0.908546 0.433897 0.667063
O O8 0.608012 0.407106 0.674248
O O9 0.387137 0.556869 0.918500
O O10 0.587043 0.800573 0.371777
O O11 0.638310 0.863033 0.218416
O O12 0.971432 0.553321 0.190389
O O13 0.242928 0.271227 0.990083
O O14 0.000000 0.000000 0.000000
O O15 0.500000 0.500000 0.000000
#
# Coordination Sequence:
#
# PCOD8042879 Si02
#       7
#     2   2   2   2   2   2   2
#     4  11  20  41  63  95 126 163 212 265 323 371
#     4  10  19  35  63  95 125 160 207 270 307 372
#     4  10  19  37  65  93 122 167 216 256 315 380
#     4  10  21  38  64  95 120 170 218 259 307 385
#     4  11  20  35  64  95 123 158 221 257 308 365
#     4  11  26  41  64  94 133 171 209 265 321 373
#     4  11  24  42  65  91 131 171 212 258 322 386
#
# _framework density 21.061309000000001
#
# number of rings (size 3 to 8) (size 9 to 14) (size 15 to 20)
#    0.000    1.429    4.286    2.143    2.000    1.143 
#    0.000    1.429    0.000    0.000    0.000    0.000 
#    0.000    0.000    0.000    0.000    0.000    0.000 
#
# Total GULP energy -173609.703822 kJ/mol
# GULP energy per Si atom -12400.693130 kJ/mol
# Density = 2.101337 g / cm^3
# Si number density = 21.061309 Si / 1000 Ang^3
#
#
#
# Elastic Constant Matrix: (Units=GPa)
#
#
# Indices 1 2 3 4 5 6 
#
# 1 247.0884 -99.7549 290.6378 -131.7274 -160.9714 60.2892
# 2 -99.7549 201.5513 -264.8720 124.3932 177.2871 -75.0411
# 3 290.6378 -264.8720 690.1400 -300.6017 -375.3379 163.8998
# 4 -131.7274 124.3932 -300.6017 169.4811 175.5892 -77.9444
# 5 -160.9714 177.2871 -375.3379 175.5892 254.2928 -99.0716
# 6 60.2892 -75.0411 163.8998 -77.9444 -99.0716 69.7450
#
#
#
# Elastic Compliance Matrix: (Units=1/GPa)
#
#
# Indices 1 2 3 4 5 6 
#
# 1 0.008424 -0.001311 -0.003234 0.001397 0.001548 0.002667
# 2 -0.001311 0.013224 0.000462 -0.000293 -0.008355 0.002081
# 3 -0.003234 0.000462 0.011500 0.007618 0.007648 -0.004355
# 4 0.001397 -0.000293 0.007618 0.028780 -0.005770 0.004542
# 5 0.001548 -0.008355 0.007648 -0.005770 0.027927 0.004922
# 6 0.002667 0.002081 -0.004355 0.004542 0.004922 0.036573
#
#
# Mechanical properties :
#
#
# Convention : Reuss Voigt Hill
#
# Bulk Modulus (GPa) = 40.02991 110.08904 75.05947
# Shear Modulus (GPa) = 34.98398 179.55503 107.26951
#
# Velocity S-wave (km/s) = 4.08002 9.24330 7.14441
# Velocity P-wave (km/s) = 6.42208 12.89583 10.18689
#
# Compressibility (1/GPa) = 0.02498132
#
# Stress axis : x y z
#
# Youngs Moduli (GPa) = 118.70707 75.61914 86.95689
#
# Poissons Ratio (x) = 0.09917 0.28123
# Poissons Ratio (y) = 0.15567 -0.04018
# Poissons Ratio (z) = 0.38391 -0.03494
#
# Static dielectric constant tensor:
#      x y z
#    x 4.194040 0.032760 -0.062280 
#    y 0.032760 3.629980 -0.179730 
#    z -0.062280 -0.179730 3.994140 
# 
# 
# High freq. dielectric constant tensor:
#      x y z
#    x 1.829640 -0.008900 -0.002760 
#    y -0.008900 1.807730 -0.017850 
#    z -0.002760 -0.017850 1.834520 
# 
# From -- ./inp_files/155247.got.cif
#   From: 2010.06.25/outbox.cif.g09.slc.cpg/sg2_78_cif.got.tgz:155247.got - 2010.06.27 13:26:56.
