data_PCOD8042564
_publ_section_title
;
Structure prediction by ZEFSAII (Michael W. Deem and Ramdas Pophale) SiO2 
 PCOD8042564
Probable space group: P -1
;
_chemical_formula_sum "Si O2"
_cell_formula_units_Z 16
_cell_length_a 14.502807
_cell_length_b 17.178960
_cell_length_c 10.355388
_cell_angle_alpha 54.083418
_cell_angle_beta 124.358252
_cell_angle_gamma 156.504060
_cell_volume 830.241606
_symmetry_space_group_name_H-M "P -1"
_symmetry_group_IT_number 2
_symmetry_cell_setting 'triclinic'
loop_
_space_group_symop_operation_xyz
x,y,z
-x,-y,-z
loop_
_atom_site_type_symbol
_atom_site_label
_atom_site_fract_x
_atom_site_fract_y
_atom_site_fract_z
Si Si1 0.845297 0.694073 0.123513
Si Si2 0.832631 0.935332 0.518575
Si Si3 0.342730 0.899457 0.688436
Si Si4 0.573891 0.901129 0.213119
Si Si5 0.879448 0.097953 0.621906
Si Si6 0.050404 0.541041 0.149609
Si Si7 0.334976 0.252043 0.172698
Si Si8 0.212235 0.850106 0.106983
O O1 0.900974 0.712633 0.299438
O O2 0.594535 0.461134 0.124180
O O3 0.038419 0.791611 0.093147
O O4 0.835550 0.799747 0.979183
O O5 0.667622 0.866975 0.355998
O O6 0.690033 0.759943 0.677534
O O7 0.000000 0.000000 0.500000
O O8 0.966590 0.117140 0.535505
O O9 0.292611 0.941811 0.498251
O O10 0.150864 0.672663 0.733444
O O11 0.319218 0.931863 0.778877
O O12 0.606199 0.057020 0.734439
O O13 0.300812 0.683399 0.233307
O O14 0.631555 0.971923 0.043244
O O15 0.734894 0.907862 0.772016
O O16 0.054561 0.650883 0.106155
O O17 0.000000 0.500000 0.000000
#
# Coordination Sequence:
#
# PCOD8042564 Si02
#       8
#     2   2   2   2   2   2   2   2
#     4  11  22  40  59  83 114 154 191 226 280 339
#     4   9  19  38  61  84 110 143 186 236 281 327
#     4  10  20  37  57  85 116 148 187 236 288 326
#     4  10  19  35  58  85 118 146 180 241 288 323
#     4   9  22  38  62  78 117 151 183 230 288 333
#     4  11  19  35  56  85 116 150 186 230 289 331
#     4   9  22  41  60  81 117 148 186 238 281 327
#     4  11  22  34  58  88 116 148 191 231 274 342
#
# _framework density 19.271498999999999
#
# number of rings (size 3 to 8) (size 9 to 14) (size 15 to 20)
#    0.750    1.250    2.500    1.875    1.750    1.500 
#    0.000    3.125    0.000    0.000    0.000    0.000 
#    0.000    0.000    0.000    0.000    0.000    0.000 
#
# Total GULP energy -198265.639572 kJ/mol
# GULP energy per Si atom -12391.602473 kJ/mol
# Density = 1.922764 g / cm^3
# Si number density = 19.271499 Si / 1000 Ang^3
#
#
#
# Elastic Constant Matrix: (Units=GPa)
#
#
# Indices 1 2 3 4 5 6 
#
# 1 59.5918 34.7398 28.6346 12.6831 9.9454 15.2496
# 2 34.7398 90.0423 30.2995 7.3052 13.0143 0.3258
# 3 28.6346 30.2995 110.4856 19.6304 21.9643 5.6856
# 4 12.6831 7.3052 19.6304 31.9296 4.9166 0.5314
# 5 9.9454 13.0143 21.9643 4.9166 24.8190 4.3525
# 6 15.2496 0.3258 5.6856 0.5314 4.3525 28.0274
#
#
#
# Elastic Compliance Matrix: (Units=1/GPa)
#
#
# Indices 1 2 3 4 5 6 
#
# 1 0.029200 -0.009656 -0.002824 -0.007398 -0.000032 -0.015057
# 2 -0.009656 0.015842 -0.001583 0.001769 -0.004447 0.006048
# 3 -0.002824 -0.001583 0.012770 -0.005080 -0.008397 0.000365
# 4 -0.007398 0.001769 -0.005080 0.037151 -0.001630 0.004584
# 5 -0.000032 -0.004447 -0.008397 -0.001630 0.051477 -0.006190
# 6 -0.015057 0.006048 0.000365 0.004584 -0.006190 0.044602
#
#
# Mechanical properties :
#
#
# Convention : Reuss Voigt Hill
#
# Bulk Modulus (GPa) = 33.68690 49.71860 41.70275
# Shear Modulus (GPa) = 21.82802 28.05159 24.93980
#
# Velocity S-wave (km/s) = 3.36915 3.81937 3.60130
# Velocity P-wave (km/s) = 5.71428 6.73091 6.24332
#
# Compressibility (1/GPa) = 0.02968513
#
# Stress axis : x y z
#
# Youngs Moduli (GPa) = 34.24644 63.12504 78.30730
#
# Poissons Ratio (x) = 0.60955 0.22114
# Poissons Ratio (y) = 0.33069 0.12397
# Poissons Ratio (z) = 0.09671 0.09994
#
# Static dielectric constant tensor:
#      x y z
#    x 3.267060 -0.120310 0.169680 
#    y -0.120310 3.574290 0.121420 
#    z 0.169680 0.121420 3.695580 
# 
# 
# High freq. dielectric constant tensor:
#      x y z
#    x 1.729990 -0.002630 0.014370 
#    y -0.002630 1.736860 0.011460 
#    z 0.014370 0.011460 1.762420 
# 
# From -- ./inp_files/436981.got.cif
#   From: 2010.06.25/outbox.cif.g09.slc.cpg/sg2_219_cif.got.tgz:436981.got - 2010.06.27 13:26:56.
