data_PCOD8042569
_publ_section_title
;
Structure prediction by ZEFSAII (Michael W. Deem and Ramdas Pophale) SiO2 
 PCOD8042569
Probable space group: P -1
;
_chemical_formula_sum "Si O2"
_cell_formula_units_Z 14
_cell_length_a 15.933704
_cell_length_b 13.259365
_cell_length_c 21.357058
_cell_angle_alpha 28.168228
_cell_angle_beta 161.699749
_cell_angle_gamma 151.434459
_cell_volume 642.338891
_symmetry_space_group_name_H-M "P -1"
_symmetry_group_IT_number 2
_symmetry_cell_setting 'triclinic'
loop_
_space_group_symop_operation_xyz
x,y,z
-x,-y,-z
loop_
_atom_site_type_symbol
_atom_site_label
_atom_site_fract_x
_atom_site_fract_y
_atom_site_fract_z
Si Si1 0.277581 0.994354 0.438047
Si Si2 0.067348 0.143912 0.548430
Si Si3 0.741496 0.673356 0.286217
Si Si4 0.796797 0.301871 0.824846
Si Si5 0.662719 0.784497 0.771539
Si Si6 0.269160 0.290384 0.384158
Si Si7 0.577330 0.066494 0.162789
O O1 0.573112 0.927660 0.685943
O O2 0.035223 0.774156 0.405210
O O3 0.240478 0.061200 0.304592
O O4 0.268516 0.203035 0.360586
O O5 0.213285 0.306395 0.618111
O O6 0.824325 0.222134 0.296482
O O7 0.307302 0.127874 0.679092
O O8 0.927307 0.898524 0.609493
O O9 0.619251 0.412606 0.331318
O O10 0.518879 0.795440 0.035371
O O11 0.587087 0.351950 0.598207
O O12 0.849425 0.494780 0.810278
O O13 0.683440 0.060764 0.909354
O O14 0.074301 0.309184 0.977162
#
# Coordination Sequence:
#
# PCOD8042569 Si02
#       7
#     2   2   2   2   2   2   2
#     4  10  23  42  59  85 122 156 199 248 292 354
#     4   9  20  35  55  87 123 155 198 242 302 355
#     4  11  21  39  62  84 116 162 199 247 296 354
#     4  10  20  36  61  91 118 154 200 243 303 357
#     4  11  23  39  62  87 117 160 199 241 302 355
#     4   9  20  38  60  86 121 155 194 251 299 351
#     4  10  19  35  58  86 127 154 192 254 295 353
#
# _framework density 21.795348000000001
#
# number of rings (size 3 to 8) (size 9 to 14) (size 15 to 20)
#    0.000    2.000    1.429    1.714    2.000    3.429 
#    0.000    0.000    0.000    3.429    0.000    0.000 
#    0.000    0.000    0.000    0.000    0.000    0.000 
#
# Total GULP energy -173499.365215 kJ/mol
# GULP energy per Si atom -12392.811801 kJ/mol
# Density = 2.174574 g / cm^3
# Si number density = 21.795348 Si / 1000 Ang^3
#
#
#
# Elastic Constant Matrix: (Units=GPa)
#
#
# Indices 1 2 3 4 5 6 
#
# 1 63.3657 2.3235 25.6951 8.5037 3.8523 -1.6876
# 2 2.3235 43.7652 10.7438 5.8600 6.0286 -0.5880
# 3 25.6951 10.7438 100.0743 6.9729 20.9223 -10.0726
# 4 8.5037 5.8600 6.9729 22.1692 -3.0702 2.0244
# 5 3.8523 6.0286 20.9223 -3.0702 34.3161 5.6199
# 6 -1.6876 -0.5880 -10.0726 2.0244 5.6199 22.5151
#
#
#
# Elastic Compliance Matrix: (Units=1/GPa)
#
#
# Indices 1 2 3 4 5 6 
#
# 1 0.018318 0.000901 -0.004375 -0.005897 -0.000073 -0.000012
# 2 0.000901 0.024754 -0.001188 -0.007353 -0.004715 0.002021
# 3 -0.004375 -0.001188 0.014625 -0.004849 -0.010150 0.009153
# 4 -0.005897 -0.007353 -0.004849 0.053371 0.011396 -0.010447
# 5 -0.000073 -0.004715 -0.010150 0.011396 0.039742 -0.015614
# 6 -0.000012 0.002021 0.009153 -0.010447 -0.015614 0.053398
#
#
# Mechanical properties :
#
#
# Convention : Reuss Voigt Hill
#
# Bulk Modulus (GPa) = 20.67262 31.63669 26.15465
# Shear Modulus (GPa) = 21.77183 27.02962 24.40073
#
# Velocity S-wave (km/s) = 3.16400 3.52540 3.34958
# Velocity P-wave (km/s) = 4.78052 5.57837 5.19478
#
# Compressibility (1/GPa) = 0.04837317
#
# Stress axis : x y z
#
# Youngs Moduli (GPa) = 54.59096 40.39756 68.37835
#
# Poissons Ratio (x) = -0.03640 0.29917
# Poissons Ratio (y) = -0.04919 0.08120
# Poissons Ratio (z) = 0.23885 0.04797
#
# Static dielectric constant tensor:
#      x y z
#    x 3.970790 -0.037710 0.213390 
#    y -0.037710 3.826400 0.123570 
#    z 0.213390 0.123570 4.075690 
# 
# 
# High freq. dielectric constant tensor:
#      x y z
#    x 1.850750 0.015730 0.014420 
#    y 0.015730 1.845030 0.010330 
#    z 0.014420 0.010330 1.850610 
# 
# From -- ./inp_files/154654.got.cif
#   From: 2010.06.25/outbox.cif.g09.slc.cpg/sg2_78_cif.got.tgz:154654.got - 2010.06.27 13:26:56.
