data_PCOD8042887
_publ_section_title
;
Structure prediction by ZEFSAII (Michael W. Deem and Ramdas Pophale) SiO2 
 PCOD8042887
Probable space group: P -1
;
_chemical_formula_sum "Si O2"
_cell_formula_units_Z 16
_cell_length_a 8.339960
_cell_length_b 10.764262
_cell_length_c 14.203667
_cell_angle_alpha 41.790402
_cell_angle_beta 91.987185
_cell_angle_gamma 114.414775
_cell_volume 690.706801
_symmetry_space_group_name_H-M "P -1"
_symmetry_group_IT_number 2
_symmetry_cell_setting 'triclinic'
loop_
_space_group_symop_operation_xyz
x,y,z
-x,-y,-z
loop_
_atom_site_type_symbol
_atom_site_label
_atom_site_fract_x
_atom_site_fract_y
_atom_site_fract_z
Si Si1 0.320843 0.744835 0.671408
Si Si2 0.577026 0.362719 0.739981
Si Si3 0.878671 0.506625 0.826909
Si Si4 0.375330 0.600610 0.955968
Si Si5 0.152361 0.918067 0.983541
Si Si6 0.630635 0.096510 0.734193
Si Si7 0.999873 0.819968 0.236883
Si Si8 0.390992 0.602609 0.569368
O O1 0.340309 0.667032 0.817189
O O2 0.327217 0.580089 0.689748
O O3 0.106379 0.702600 0.691248
O O4 0.500000 0.000000 0.500000
O O5 0.733501 0.488995 0.754704
O O6 0.642338 0.247211 0.735228
O O7 0.562502 0.563084 0.583402
O O8 0.357200 0.154589 0.884927
O O9 0.825262 0.569948 0.890694
O O10 0.832869 0.255390 0.981703
O O11 0.489678 0.824689 0.899179
O O12 0.500000 0.500000 0.000000
O O13 0.055861 0.786866 0.152657
O O14 0.018821 0.968165 0.889932
O O15 0.847514 0.149067 0.698449
O O16 0.552317 0.155691 0.607171
O O17 0.792214 0.587844 0.390924
#
# Coordination Sequence:
#
# PCOD8042887 Si02
#       8
#     2   2   2   2   2   2   2   2
#     4  12  26  50  71  95 141 195 242 287 345 414
#     4  11  22  40  69 106 137 174 227 292 369 414
#     4  12  23  45  74 101 140 182 236 300 352 412
#     4  12  28  46  71 102 141 191 242 289 341 420
#     4  10  19  35  64 102 131 172 211 284 355 418
#     4  12  22  41  67  99 142 180 228 288 356 417
#     4  10  21  35  64 102 132 168 227 276 360 415
#     4  11  23  42  67  95 142 185 227 292 348 422
#
# _framework density 23.164674999999999
#
# number of rings (size 3 to 8) (size 9 to 14) (size 15 to 20)
#    0.000    0.750    5.000    3.000    1.750    0.000 
#    0.000    2.500    0.000    0.000    0.000    0.000 
#    0.000    0.000    0.000    0.000    0.000    0.000 
#
# Total GULP energy -198279.565000 kJ/mol
# GULP energy per Si atom -12392.472813 kJ/mol
# Density = 2.311195 g / cm^3
# Si number density = 23.164675 Si / 1000 Ang^3
#
#
#
# Elastic Constant Matrix: (Units=GPa)
#
#
# Indices 1 2 3 4 5 6 
#
# 1 169.5491 43.3955 55.9029 -5.1757 17.8376 9.3674
# 2 43.3955 62.9006 32.6577 5.4597 1.7422 4.5303
# 3 55.9029 32.6577 86.3201 -1.5237 8.4802 8.8847
# 4 -5.1757 5.4597 -1.5237 28.5416 2.5758 -1.5481
# 5 17.8376 1.7422 8.4802 2.5758 40.6408 2.9469
# 6 9.3674 4.5303 8.8847 -1.5481 2.9469 39.3546
#
#
#
# Elastic Compliance Matrix: (Units=1/GPa)
#
#
# Indices 1 2 3 4 5 6 
#
# 1 0.008546 -0.004122 -0.003599 0.002388 -0.002943 -0.000433
# 2 -0.004122 0.022356 -0.006070 -0.005610 0.002519 -0.000631
# 3 -0.003599 -0.006070 0.016599 0.001427 -0.001568 -0.002018
# 4 0.002388 -0.005610 0.001427 0.037020 -0.003559 0.001478
# 5 -0.002943 0.002519 -0.001568 -0.003559 0.026441 -0.001355
# 6 -0.000433 -0.000631 -0.002018 0.001478 -0.001355 0.026201
#
#
# Mechanical properties :
#
#
# Convention : Reuss Voigt Hill
#
# Bulk Modulus (GPa) = 50.20391 64.74243 57.47317
# Shear Modulus (GPa) = 29.17397 34.16166 31.66781
#
# Velocity S-wave (km/s) = 3.55268 3.84439 3.70141
# Velocity P-wave (km/s) = 6.20873 6.90762 6.56748
#
# Compressibility (1/GPa) = 0.01991877
#
# Stress axis : x y z
#
# Youngs Moduli (GPa) = 117.01064 44.73078 60.24349
#
# Poissons Ratio (x) = 0.18438 0.21684
# Poissons Ratio (y) = 0.48230 0.36568
# Poissons Ratio (z) = 0.42117 0.27152
#
# Static dielectric constant tensor:
#      x y z
#    x 4.533810 0.011100 0.061050 
#    y 0.011100 4.094250 -0.046700 
#    z 0.061050 -0.046700 4.061050 
# 
# 
# High freq. dielectric constant tensor:
#      x y z
#    x 1.933150 0.000860 0.005200 
#    y 0.000860 1.900080 0.003530 
#    z 0.005200 0.003530 1.902260 
# 
# From -- ./inp_files/499901.got.cif
#   From: 2010.06.25/outbox.cif.g09.slc.cpg/sg2_250_cif.got.tgz:499901.got - 2010.06.27 13:26:56.
