data_PCOD8042146
_publ_section_title
;
Structure prediction by ZEFSAII (Michael W. Deem and Ramdas Pophale) SiO2 
 PCOD8042146
Probable space group: P -1
;
_chemical_formula_sum "Si O2"
_cell_formula_units_Z 16
_cell_length_a 25.704075
_cell_length_b 15.991864
_cell_length_c 8.495031
_cell_angle_alpha 37.745929
_cell_angle_beta 143.917140
_cell_angle_gamma 161.231627
_cell_volume 655.656355
_symmetry_space_group_name_H-M "P -1"
_symmetry_group_IT_number 2
_symmetry_cell_setting 'triclinic'
loop_
_space_group_symop_operation_xyz
x,y,z
-x,-y,-z
loop_
_atom_site_type_symbol
_atom_site_label
_atom_site_fract_x
_atom_site_fract_y
_atom_site_fract_z
Si Si1 0.351306 0.324840 0.616061
Si Si2 0.157330 0.781341 0.543761
Si Si3 0.258389 0.399708 0.023387
Si Si4 0.602878 0.823244 0.696329
Si Si5 0.544109 0.840140 0.850270
Si Si6 0.075220 0.908852 0.776325
Si Si7 0.022075 0.899385 0.001030
Si Si8 0.144921 0.619834 0.077433
O O1 0.365597 0.422672 0.340035
O O2 0.489480 0.555326 0.739697
O O3 0.376051 0.197318 0.836204
O O4 0.160552 0.105765 0.547041
O O5 0.188220 0.763495 0.815958
O O6 0.000000 0.500000 0.500000
O O7 0.127381 0.903617 0.294359
O O8 0.329102 0.983517 0.560108
O O9 0.380410 0.654450 0.835122
O O10 0.163333 0.362335 0.981822
O O11 0.120632 0.157794 0.927250
O O12 0.497963 0.764956 0.662956
O O13 0.771596 0.987469 0.948046
O O14 0.678276 0.142088 0.747848
O O15 0.011486 0.911238 0.768031
O O16 0.912813 0.609440 0.763101
O O17 0.000000 0.500000 0.000000
#
# Coordination Sequence:
#
# PCOD8042146 Si02
#       8
#     2   2   2   2   2   2   2   2
#     4  11  20  34  59  88 116 147 196 244 292 334
#     4  11  19  36  62  87 111 150 192 237 288 346
#     4  11  23  38  58  89 118 157 190 243 284 346
#     4  10  19  34  58  88 115 146 189 248 292 336
#     4  11  20  35  58  86 124 147 194 242 289 337
#     4  10  20  37  56  88 117 153 190 239 291 341
#     4  10  22  40  59  84 119 156 195 231 296 344
#     4  12  20  35  60  94 116 144 193 247 288 340
#
# _framework density 24.403029
#
# number of rings (size 3 to 8) (size 9 to 14) (size 15 to 20)
#    0.000    1.250    5.000    5.625    0.000    0.500 
#    0.000    0.625    0.000    1.500    0.000    0.000 
#    0.000    0.000    0.000    0.000    0.000    0.000 
#
# Total GULP energy -198362.209798 kJ/mol
# GULP energy per Si atom -12397.638112 kJ/mol
# Density = 2.434749 g / cm^3
# Si number density = 24.403029 Si / 1000 Ang^3
#
#
#
# Elastic Constant Matrix: (Units=GPa)
#
#
# Indices 1 2 3 4 5 6 
#
# 1 121.3951 46.3878 6.0090 -12.8254 -36.2207 22.6895
# 2 46.3878 152.2881 0.1046 -16.6455 -15.0038 0.0172
# 3 6.0090 0.1046 28.2139 -10.4503 -21.7399 9.9294
# 4 -12.8254 -16.6455 -10.4503 29.2047 9.0713 -14.4257
# 5 -36.2207 -15.0038 -21.7399 9.0713 28.6757 -10.0499
# 6 22.6895 0.0172 9.9294 -14.4257 -10.0499 54.3371
#
#
#
# Elastic Compliance Matrix: (Units=1/GPa)
#
#
# Indices 1 2 3 4 5 6 
#
# 1 0.032043 -0.001119 0.060907 0.006073 0.081395 -0.007843
# 2 -0.001119 0.008211 0.007118 0.005450 0.007239 0.001950
# 3 0.060907 0.007118 0.215241 0.029378 0.229452 -0.014530
# 4 0.006073 0.005450 0.029378 0.048478 0.020529 0.008761
# 5 0.081395 0.007239 0.229452 0.020529 0.303936 -0.014255
# 6 -0.007843 0.001950 -0.014530 0.008761 -0.014255 0.024023
#
#
# Mechanical properties :
#
#
# Convention : Reuss Voigt Hill
#
# Bulk Modulus (GPa) = 2.56865 45.21110 23.88987
# Shear Modulus (GPa) = 7.96319 39.06988 23.51654
#
# Velocity S-wave (km/s) = 1.80839 4.00562 3.10768
# Velocity P-wave (km/s) = 2.32707 6.32142 4.76318
#
# Compressibility (1/GPa) = 0.38930917
#
# Stress axis : x y z
#
# Youngs Moduli (GPa) = 31.20760 121.78655 4.64595
#
# Poissons Ratio (x) = 0.13623 -0.28297
# Poissons Ratio (y) = 0.03491 -0.03307
# Poissons Ratio (z) = -1.90075 -0.86694
#
# Static dielectric constant tensor:
#      x y z
#    x 4.887670 0.301300 -0.621660 
#    y 0.301300 4.567460 -0.217890 
#    z -0.621660 -0.217890 3.832560 
# 
# 
# High freq. dielectric constant tensor:
#      x y z
#    x 1.979890 0.008790 -0.037460 
#    y 0.008790 1.974530 -0.011060 
#    z -0.037460 -0.011060 1.938970 
# 
# From -- ./inp_files/354316.got.cif
#   From: 2010.06.25/outbox.cif.g09.slc.cpg/sg2_178_cif.got.tgz:354316.got - 2010.06.27 13:26:56.
