data_PCOD8042050
_publ_section_title
;
Structure prediction by ZEFSAII (Michael W. Deem and Ramdas Pophale) SiO2 
 PCOD8042050
Probable space group: P -1
;
_chemical_formula_sum "Si O2"
_cell_formula_units_Z 14
_cell_length_a 13.220550
_cell_length_b 27.238260
_cell_length_c 12.973410
_cell_angle_alpha 24.963160
_cell_angle_beta 157.144490
_cell_angle_gamma 156.754386
_cell_volume 659.228099
_symmetry_space_group_name_H-M "P -1"
_symmetry_group_IT_number 2
_symmetry_cell_setting 'triclinic'
loop_
_space_group_symop_operation_xyz
x,y,z
-x,-y,-z
loop_
_atom_site_type_symbol
_atom_site_label
_atom_site_fract_x
_atom_site_fract_y
_atom_site_fract_z
Si Si1 0.590105 0.024453 0.730808
Si Si2 0.074925 0.661508 0.564108
Si Si3 0.733547 0.752025 0.585889
Si Si4 0.370517 0.888096 0.004566
Si Si5 0.187323 0.378085 0.400470
Si Si6 0.947952 0.886486 0.310180
Si Si7 0.610648 0.494845 0.858162
O O1 0.755525 0.183158 0.601936
O O2 0.486908 0.956443 0.873934
O O3 0.311420 0.974827 0.484899
O O4 0.818391 0.982963 0.973293
O O5 0.070772 0.640093 0.725985
O O6 0.731559 0.594467 0.331141
O O7 0.259394 0.598925 0.801439
O O8 0.833229 0.824418 0.432526
O O9 0.614764 0.592591 0.765602
O O10 0.007168 0.812181 0.810159
O O11 0.472004 0.778112 0.332760
O O12 0.500000 0.000000 0.000000
O O13 0.500000 0.500000 0.500000
O O14 0.173849 0.234096 0.658610
O O15 0.145843 0.413867 0.176530
#
# Coordination Sequence:
#
# PCOD8042050 Si02
#       7
#     2   2   2   2   2   2   2
#     4  10  21  35  51  76 103 134 166 202 263 306
#     4  11  21  33  52  74 104 138 170 209 246 293
#     4   9  18  33  54  78 100 129 168 207 251 296
#     4  10  19  34  57  79 100 127 165 212 253 303
#     4   9  20  34  52  76 101 135 179 212 241 284
#     4   9  19  34  51  72 104 134 166 210 249 298
#     4  10  20  35  53  74 103 138 172 205 244 293
#
# _framework density 21.23696
#
# number of rings (size 3 to 8) (size 9 to 14) (size 15 to 20)
#    0.000    2.286    0.000    2.571    0.000   10.286 
#    0.000    0.000    0.000    5.143    0.000    0.000 
#    0.000    0.000    0.000    0.000    0.000    0.000 
#
# Total GULP energy -173539.599399 kJ/mol
# GULP energy per Si atom -12395.685671 kJ/mol
# Density = 2.118862 g / cm^3
# Si number density = 21.236960 Si / 1000 Ang^3
#
#
#
# Elastic Constant Matrix: (Units=GPa)
#
#
# Indices 1 2 3 4 5 6 
#
# 1 26.1705 18.5371 23.4636 1.0243 15.6960 -16.9143
# 2 18.5371 127.9035 71.1187 -7.6237 10.4355 -18.7163
# 3 23.4636 71.1187 166.0305 -5.9400 41.0505 -7.7864
# 4 1.0243 -7.6237 -5.9400 43.1828 -7.4121 8.3742
# 5 15.6960 10.4355 41.0505 -7.4121 25.3501 -6.1854
# 6 -16.9143 -18.7163 -7.7864 8.3742 -6.1854 27.6095
#
#
#
# Elastic Compliance Matrix: (Units=1/GPa)
#
#
# Indices 1 2 3 4 5 6 
#
# 1 0.133375 -0.008538 0.007635 -0.031349 -0.083808 0.068807
# 2 -0.008538 0.012720 -0.007362 0.003124 0.013726 0.003444
# 3 0.007635 -0.007362 0.014461 -0.003843 -0.026481 -0.001003
# 4 -0.031349 0.003124 -0.003843 0.033073 0.028705 -0.021772
# 5 -0.083808 0.013726 -0.026481 0.028705 0.129859 -0.029120
# 6 0.068807 0.003444 -0.001003 -0.021772 -0.029120 0.080504
#
#
# Mechanical properties :
#
#
# Convention : Reuss Voigt Hill
#
# Bulk Modulus (GPa) = 6.94319 60.70480 33.82400
# Shear Modulus (GPa) = 10.67168 33.02749 21.84959
#
# Velocity S-wave (km/s) = 2.24409 3.94787 3.21104
# Velocity P-wave (km/s) = 3.16087 7.03046 5.45062
#
# Compressibility (1/GPa) = 0.14402592
#
# Stress axis : x y z
#
# Youngs Moduli (GPa) = 7.49763 78.61856 69.15352
#
# Poissons Ratio (x) = 0.67121 -0.52798
# Poissons Ratio (y) = 0.06401 0.50913
# Poissons Ratio (z) = -0.05724 0.57881
#
# Static dielectric constant tensor:
#      x y z
#    x 3.658670 -0.118120 0.298810 
#    y -0.118120 3.882380 -0.046140 
#    z 0.298810 -0.046140 4.020190 
# 
# 
# High freq. dielectric constant tensor:
#      x y z
#    x 1.794070 -0.015420 0.023670 
#    y -0.015420 1.839990 -0.006140 
#    z 0.023670 -0.006140 1.836760 
# 
# From -- ./inp_files/27042.got.cif
#   From: 2010.06.25/outbox.cif.g09.slc.cpg/sg2_14_cif.got.tgz:27042.got - 2010.06.27 13:26:56.
