data_PCOD8042608
_publ_section_title
;
Structure prediction by ZEFSAII (Michael W. Deem and Ramdas Pophale) SiO2 
 PCOD8042608
Probable space group: P -1
;
_chemical_formula_sum "Si O2"
_cell_formula_units_Z 16
_cell_length_a 9.328265
_cell_length_b 14.052182
_cell_length_c 9.710694
_cell_angle_alpha 99.955048
_cell_angle_beta 87.126536
_cell_angle_gamma 38.562245
_cell_volume 745.089535
_symmetry_space_group_name_H-M "P -1"
_symmetry_group_IT_number 2
_symmetry_cell_setting 'triclinic'
loop_
_space_group_symop_operation_xyz
x,y,z
-x,-y,-z
loop_
_atom_site_type_symbol
_atom_site_label
_atom_site_fract_x
_atom_site_fract_y
_atom_site_fract_z
Si Si1 0.816097 0.380449 0.162116
Si Si2 0.481318 0.619032 0.676063
Si Si3 0.602503 0.199576 0.050704
Si Si4 0.013456 0.118696 0.907823
Si Si5 0.696675 0.716326 0.436892
Si Si6 0.065083 0.610341 0.567329
Si Si7 0.247758 0.376992 0.879109
Si Si8 0.182754 0.929227 0.594238
O O1 0.609705 0.424341 0.246268
O O2 0.997592 0.303266 0.263038
O O3 0.699372 0.543198 0.156995
O O4 0.947393 0.263732 0.992705
O O5 0.713404 0.455665 0.538778
O O6 0.270075 0.784899 0.635327
O O7 0.567254 0.653935 0.792232
O O8 0.457482 0.236170 0.938987
O O9 0.807465 0.163183 0.989690
O O10 0.727295 0.040611 0.075626
O O11 0.036482 0.084324 0.736141
O O12 0.826744 0.552555 0.448505
O O13 0.744302 0.701737 0.267948
O O14 0.410743 0.865460 0.510365
O O15 0.822003 0.738017 0.518130
O O16 0.000000 0.500000 0.000000
O O17 0.000000 0.000000 0.500000
#
# Coordination Sequence:
#
# PCOD8042608 Si02
#       8
#     2   2   2   2   2   2   2   2
#     4  10  21  35  56  87 114 144 188 236 285 330
#     4   9  18  33  57  85 110 145 185 228 281 330
#     4   9  18  35  57  79 111 148 184 224 273 338
#     4   9  19  35  57  84 110 144 185 228 279 330
#     4   9  19  33  54  79 105 147 190 223 271 331
#     4   9  17  34  54  78 111 141 181 231 277 329
#     4  11  22  37  57  82 112 148 189 235 284 332
#     4  10  19  35  59  83 112 150 189 225 268 333
#
# _framework density 21.473929999999999
#
# number of rings (size 3 to 8) (size 9 to 14) (size 15 to 20)
#    0.000    2.500    0.000    2.625    0.000    5.000 
#    0.000    5.000    0.000    2.250    0.000    0.000 
#    0.000    0.000    0.000    0.000    0.000    0.000 
#
# Total GULP energy -198273.805362 kJ/mol
# GULP energy per Si atom -12392.112835 kJ/mol
# Density = 2.142505 g / cm^3
# Si number density = 21.473930 Si / 1000 Ang^3
#
#
#
# Elastic Constant Matrix: (Units=GPa)
#
#
# Indices 1 2 3 4 5 6 
#
# 1 58.5895 24.2365 28.8502 -8.3136 9.0126 -17.8557
# 2 24.2365 48.3320 34.6096 -10.7703 12.8512 -24.3758
# 3 28.8502 34.6096 153.4674 -1.0007 23.9831 -16.4458
# 4 -8.3136 -10.7703 -1.0007 35.7960 -4.2053 8.5888
# 5 9.0126 12.8512 23.9831 -4.2053 42.0524 -8.3220
# 6 -17.8557 -24.3758 -16.4458 8.5888 -8.3220 24.9030
#
#
#
# Elastic Compliance Matrix: (Units=1/GPa)
#
#
# Indices 1 2 3 4 5 6 
#
# 1 0.023435 -0.004604 -0.002234 0.001518 -0.000162 0.010243
# 2 -0.004604 0.047039 -0.005335 0.003735 -0.002640 0.037047
# 3 -0.002234 -0.005335 0.008452 -0.001864 -0.003230 -0.001679
# 4 0.001518 0.003735 -0.001864 0.031146 0.001371 -0.006770
# 5 -0.000162 -0.002640 -0.003230 0.001371 0.027360 0.003836
# 6 0.010243 0.037047 -0.001679 -0.006770 0.003836 0.086271
#
#
# Mechanical properties :
#
#
# Convention : Reuss Voigt Hill
#
# Bulk Modulus (GPa) = 18.32270 48.42015 33.37143
# Shear Modulus (GPa) = 18.77988 32.06313 25.42151
#
# Velocity S-wave (km/s) = 2.96048 3.86828 3.44442
# Velocity P-wave (km/s) = 4.49855 6.52294 5.60293
#
# Compressibility (1/GPa) = 0.05457710
#
# Stress axis : x y z
#
# Youngs Moduli (GPa) = 42.67173 21.25917 118.31657
#
# Poissons Ratio (x) = 0.09789 0.26434
# Poissons Ratio (y) = 0.19648 0.63127
# Poissons Ratio (z) = 0.09534 0.11343
#
# Static dielectric constant tensor:
#      x y z
#    x 3.207600 0.381380 -0.220760 
#    y 0.381380 3.128780 0.368290 
#    z -0.220760 0.368290 4.119220 
# 
# 
# High freq. dielectric constant tensor:
#      x y z
#    x 1.822770 -0.016220 0.009200 
#    y -0.016220 1.805480 -0.002550 
#    z 0.009200 -0.002550 1.866550 
# 
# From -- ./inp_files/207785.got.cif
#   From: 2010.06.25/outbox.cif.g09.slc.cpg/sg2_104_cif.got.tgz:207785.got - 2010.06.27 13:26:56.
