data_PCOD8042506
_publ_section_title
;
Structure prediction by ZEFSAII (Michael W. Deem and Ramdas Pophale) SiO2 
 PCOD8042506
Probable space group: P -1
;
_chemical_formula_sum "Si O2"
_cell_formula_units_Z 16
_cell_length_a 16.912938
_cell_length_b 22.800410
_cell_length_c 7.930660
_cell_angle_alpha 47.265685
_cell_angle_beta 45.875946
_cell_angle_gamma 21.335657
_cell_volume 793.397938
_symmetry_space_group_name_H-M "P -1"
_symmetry_group_IT_number 2
_symmetry_cell_setting 'triclinic'
loop_
_space_group_symop_operation_xyz
x,y,z
-x,-y,-z
loop_
_atom_site_type_symbol
_atom_site_label
_atom_site_fract_x
_atom_site_fract_y
_atom_site_fract_z
Si Si1 0.145941 0.593942 0.488315
Si Si2 0.763574 0.163567 0.701724
Si Si3 0.381277 0.288914 0.587403
Si Si4 0.492001 0.537311 0.631210
Si Si5 0.156692 0.016854 0.326105
Si Si6 0.885208 0.328411 0.969568
Si Si7 0.999019 0.433045 0.996522
Si Si8 0.641324 0.626143 0.897262
O O1 0.304011 0.420028 0.535735
O O2 0.268168 0.593684 0.390271
O O3 0.021709 0.706867 0.285963
O O4 0.981598 0.664036 0.742364
O O5 0.637859 0.296710 0.490439
O O6 0.814572 0.045947 0.773232
O O7 0.600769 0.257783 0.920833
O O8 0.992227 0.067984 0.592026
O O9 0.614011 0.113965 0.662295
O O10 0.214070 0.318135 0.787559
O O11 0.409131 0.283758 0.357131
O O12 0.500000 0.500000 0.500000
O O13 0.357694 0.561138 0.903929
O O14 0.057632 0.166235 0.135976
O O15 0.834736 0.439720 0.932501
O O16 0.760743 0.594448 0.938789
O O17 0.000000 0.500000 0.000000
#
# Coordination Sequence:
#
# PCOD8042506 Si02
#       8
#     2   2   2   2   2   2   2   2
#     4  10  19  35  57  84 112 150 200 234 278 340
#     4  10  19  35  58  80 118 157 185 232 279 348
#     4  10  21  36  59  83 113 154 191 238 288 338
#     4  11  17  32  56  84 114 148 184 234 282 327
#     4  10  21  38  55  82 122 156 183 225 299 342
#     4  10  22  34  58  88 116 149 187 237 287 342
#     4  10  19  36  62  85 109 148 196 245 281 324
#     4  11  20  38  60  89 112 142 202 241 276 341
#
# _framework density 20.166423999999999
#
# number of rings (size 3 to 8) (size 9 to 14) (size 15 to 20)
#    0.000    1.750    3.750    1.500    0.000    0.500 
#    0.000    5.000    0.000    0.000    0.000    0.000 
#    0.000    0.000    0.000    0.000    0.000    0.000 
#
# Total GULP energy -198243.984253 kJ/mol
# GULP energy per Si atom -12390.249016 kJ/mol
# Density = 2.012052 g / cm^3
# Si number density = 20.166424 Si / 1000 Ang^3
#
#
#
# Elastic Constant Matrix: (Units=GPa)
#
#
# Indices 1 2 3 4 5 6 
#
# 1 65.1557 15.8112 31.6459 -1.8723 7.1220 -11.9059
# 2 15.8112 74.7547 38.6073 -1.1712 4.6380 -13.1193
# 3 31.6459 38.6073 142.8693 13.8203 13.9774 -21.1323
# 4 -1.8723 -1.1712 13.8203 31.0323 0.5291 -5.4421
# 5 7.1220 4.6380 13.9774 0.5291 24.6745 3.2172
# 6 -11.9059 -13.1193 -21.1323 -5.4421 3.2172 29.5036
#
#
#
# Elastic Compliance Matrix: (Units=1/GPa)
#
#
# Indices 1 2 3 4 5 6 
#
# 1 0.018706 -0.001073 -0.002844 0.003513 -0.004466 0.006170
# 2 -0.001073 0.016502 -0.003633 0.003083 -0.001456 0.005030
# 3 -0.002844 -0.003633 0.010079 -0.003976 -0.004672 0.004232
# 4 0.003513 0.003083 -0.003976 0.035496 -0.000962 0.006593
# 5 -0.004466 -0.001456 -0.004672 -0.000962 0.046193 -0.011011
# 6 0.006170 0.005030 0.004232 0.006593 -0.011011 0.044068
#
#
# Mechanical properties :
#
#
# Convention : Reuss Voigt Hill
#
# Bulk Modulus (GPa) = 33.12750 50.54539 41.83645
# Shear Modulus (GPa) = 25.48331 30.15642 27.81986
#
# Velocity S-wave (km/s) = 3.55864 3.87121 3.71821
# Velocity P-wave (km/s) = 5.77477 6.71567 6.26291
#
# Compressibility (1/GPa) = 0.03018640
#
# Stress axis : x y z
#
# Youngs Moduli (GPa) = 53.45888 60.59922 99.21825
#
# Poissons Ratio (x) = 0.06502 0.28215
# Poissons Ratio (y) = 0.05736 0.36051
# Poissons Ratio (z) = 0.15202 0.22018
#
# Static dielectric constant tensor:
#      x y z
#    x 3.726340 -0.208780 -0.417970 
#    y -0.208780 3.665260 0.565100 
#    z -0.417970 0.565100 4.654820 
# 
# 
# High freq. dielectric constant tensor:
#      x y z
#    x 1.779590 -0.001390 -0.004380 
#    y -0.001390 1.750400 0.012620 
#    z -0.004380 0.012620 1.797580 
# 
# From -- ./inp_files/272173.got.cif
#   From: 2010.06.25/outbox.cif.g09.slc.cpg/sg2_137_cif.got.tgz:272173.got - 2010.06.27 13:26:56.
