data_PCOD8042867
_publ_section_title
;
Structure prediction by ZEFSAII (Michael W. Deem and Ramdas Pophale) SiO2 
 PCOD8042867
Probable space group: P -1
;
_chemical_formula_sum "Si O2"
_cell_formula_units_Z 16
_cell_length_a 10.343011
_cell_length_b 10.148907
_cell_length_c 13.287178
_cell_angle_alpha 76.817332
_cell_angle_beta 103.970717
_cell_angle_gamma 135.792081
_cell_volume 940.624648
_symmetry_space_group_name_H-M "P -1"
_symmetry_group_IT_number 2
_symmetry_cell_setting 'triclinic'
loop_
_space_group_symop_operation_xyz
x,y,z
-x,-y,-z
loop_
_atom_site_type_symbol
_atom_site_label
_atom_site_fract_x
_atom_site_fract_y
_atom_site_fract_z
Si Si1 0.054333 0.285191 0.120644
Si Si2 0.431569 0.125736 0.378956
Si Si3 0.218012 0.106060 0.180875
Si Si4 0.220292 0.831771 0.756721
Si Si5 0.485424 0.858198 0.390763
Si Si6 0.987186 0.709422 0.119277
Si Si7 0.848835 0.444675 0.750879
Si Si8 0.619237 0.328603 0.191357
O O1 0.157100 0.216256 0.155544
O O2 0.184803 0.489546 0.165850
O O3 0.853898 0.133602 0.167855
O O4 0.020534 0.311907 0.997705
O O5 0.248721 0.069455 0.306755
O O6 0.456219 0.182117 0.490650
O O7 0.612427 0.303036 0.316960
O O8 0.404661 0.945826 0.392269
O O9 0.414745 0.235419 0.133512
O O10 0.060329 0.909115 0.127940
O O11 0.344198 0.794262 0.828469
O O12 0.039278 0.635596 0.700617
O O13 0.334346 0.006371 0.671167
O O14 0.324270 0.660352 0.338221
O O15 0.127121 0.695519 0.190716
O O16 0.778509 0.547509 0.152831
#
# Coordination Sequence:
#
# PCOD8042867 Si02
#       8
#     2   2   2   2   2   2   2   2
#     4  10  22  35  53  79 115 132 174 220 262 305
#     4   8  18  33  56  79 103 133 179 222 250 308
#     4  10  20  39  50  81 110 134 175 223 253 314
#     4   8  18  34  50  82 105 132 179 219 242 328
#     4  10  15  37  56  75 105 142 170 218 265 299
#     4  11  18  37  57  74 106 148 171 213 259 309
#     4   9  19  34  54  81 104 135 179 214 252 316
#     4   8  18  35  54  76 105 131 187 211 245 323
#
# _framework density 17.009974
#
# number of rings (size 3 to 8) (size 9 to 14) (size 15 to 20)
#    1.500    1.250    1.250    0.750    0.000    0.500 
#    6.750    5.000    0.000    0.000    0.000    0.000 
#    0.000    0.000    0.000    0.000    0.000    0.000 
#
# Total GULP energy -198210.686266 kJ/mol
# GULP energy per Si atom -12388.167892 kJ/mol
# Density = 1.697126 g / cm^3
# Si number density = 17.009974 Si / 1000 Ang^3
#
#
#
# Elastic Constant Matrix: (Units=GPa)
#
#
# Indices 1 2 3 4 5 6 
#
# 1 86.1497 34.7070 29.3536 0.0691 -13.9845 6.4131
# 2 34.7070 68.2135 24.1306 5.4804 -7.0066 10.9701
# 3 29.3536 24.1306 82.5831 4.3402 -4.4291 10.9454
# 4 0.0691 5.4804 4.3402 22.5774 6.1849 -2.9860
# 5 -13.9845 -7.0066 -4.4291 6.1849 18.6736 -1.8411
# 6 6.4131 10.9701 10.9454 -2.9860 -1.8411 22.9161
#
#
#
# Elastic Compliance Matrix: (Units=1/GPa)
#
#
# Indices 1 2 3 4 5 6 
#
# 1 0.016967 -0.006443 -0.003732 -0.000283 0.009581 0.000852
# 2 -0.006443 0.020915 -0.002234 -0.006732 0.003963 -0.007701
# 3 -0.003732 -0.002234 0.014998 -0.003167 0.000438 -0.005427
# 4 -0.000283 -0.006732 -0.003167 0.053406 -0.020176 0.010152
# 5 0.009581 0.003963 0.000438 -0.020176 0.068814 -0.001888
# 6 0.000852 -0.007701 -0.005427 0.010152 -0.001888 0.050849
#
#
# Mechanical properties :
#
#
# Convention : Reuss Voigt Hill
#
# Bulk Modulus (GPa) = 35.63693 45.92540 40.78116
# Shear Modulus (GPa) = 19.22191 22.75044 20.98618
#
# Velocity S-wave (km/s) = 3.36525 3.66112 3.51630
# Velocity P-wave (km/s) = 6.00799 6.70294 6.36496
#
# Compressibility (1/GPa) = 0.02806078
#
# Stress axis : x y z
#
# Youngs Moduli (GPa) = 58.93748 47.81369 66.67688
#
# Poissons Ratio (x) = 0.30804 0.24887
# Poissons Ratio (y) = 0.37971 0.14897
# Poissons Ratio (z) = 0.21998 0.10683
#
# Static dielectric constant tensor:
#      x y z
#    x 3.023120 0.072090 -0.031530 
#    y 0.072090 2.942410 -0.054070 
#    z -0.031530 -0.054070 3.102590 
# 
# 
# High freq. dielectric constant tensor:
#      x y z
#    x 1.643900 0.004840 -0.000950 
#    y 0.004840 1.639880 -0.004210 
#    z -0.000950 -0.004210 1.640790 
# 
# From -- ./inp_files/414963.got.cif
#   From: 2010.06.25/outbox.cif.g09.slc.cpg/sg2_208_cif.got.tgz:414963.got - 2010.06.27 13:26:56.
