data_PCOD8042508
_publ_section_title
;
Structure prediction by ZEFSAII (Michael W. Deem and Ramdas Pophale) SiO2 
 PCOD8042508
Probable space group: P -1
;
_chemical_formula_sum "Si O2"
_cell_formula_units_Z 16
_cell_length_a 17.121349
_cell_length_b 11.173683
_cell_length_c 18.016091
_cell_angle_alpha 27.452406
_cell_angle_beta 34.098857
_cell_angle_gamma 32.785409
_cell_volume 812.615310
_symmetry_space_group_name_H-M "P -1"
_symmetry_group_IT_number 2
_symmetry_cell_setting 'triclinic'
loop_
_space_group_symop_operation_xyz
x,y,z
-x,-y,-z
loop_
_atom_site_type_symbol
_atom_site_label
_atom_site_fract_x
_atom_site_fract_y
_atom_site_fract_z
Si Si1 0.800384 0.549660 0.807292
Si Si2 0.604699 0.777613 0.481520
Si Si3 0.297963 0.948790 0.878877
Si Si4 0.494956 0.910698 0.264252
Si Si5 0.427668 0.581506 0.624261
Si Si6 0.029239 0.795935 0.016917
Si Si7 0.886642 0.978534 0.322364
Si Si8 0.905219 0.476618 0.497621
O O1 0.950668 0.499740 0.669202
O O2 0.680449 0.871935 0.720500
O O3 0.722656 0.345289 0.950370
O O4 0.845968 0.500291 0.886491
O O5 0.512570 0.594407 0.626478
O O6 0.765123 0.541405 0.515994
O O7 0.500000 0.000000 0.500000
O O8 0.625234 0.986186 0.289529
O O9 0.396076 0.931286 0.885647
O O10 0.131527 0.211161 0.874893
O O11 0.513837 0.682018 0.438730
O O12 0.548848 0.740839 0.237255
O O13 0.247861 0.780906 0.659067
O O14 0.092002 0.889195 0.844144
O O15 0.000000 0.000000 0.000000
O O16 0.842674 0.715777 0.480042
O O17 0.036771 0.837202 0.335943
#
# Coordination Sequence:
#
# PCOD8042508 Si02
#       8
#     2   2   2   2   2   2   2   2
#     4  11  19  37  62  87 118 152 196 243 289 347
#     4  11  21  36  60  90 117 151 192 245 294 342
#     4  10  20  35  59  88 118 152 194 240 296 346
#     4  10  22  40  56  86 119 163 194 235 292 352
#     4  10  22  39  60  82 124 157 194 240 294 344
#     4  10  19  35  57  85 121 150 184 247 299 337
#     4  11  20  35  60  86 120 151 191 243 288 343
#     4  11  20  34  60  94 113 144 202 243 288 338
#
# _framework density 19.689513000000002
#
# number of rings (size 3 to 8) (size 9 to 14) (size 15 to 20)
#    0.000    1.500    6.250    1.125    0.000    0.000 
#    2.250    3.125    0.000    0.000    0.000    0.000 
#    0.000    0.000    0.000    0.000    0.000    0.000 
#
# Total GULP energy -198248.369381 kJ/mol
# GULP energy per Si atom -12390.523086 kJ/mol
# Density = 1.964470 g / cm^3
# Si number density = 19.689513 Si / 1000 Ang^3
#
#
#
# Elastic Constant Matrix: (Units=GPa)
#
#
# Indices 1 2 3 4 5 6 
#
# 1 109.9350 66.3105 28.3771 -0.4013 2.2507 -10.3752
# 2 66.3105 121.2056 16.1632 4.3529 -14.3087 -2.2060
# 3 28.3771 16.1632 54.0163 4.9521 6.0092 3.0743
# 4 -0.4013 4.3529 4.9521 21.1537 -7.3224 3.8441
# 5 2.2507 -14.3087 6.0092 -7.3224 20.1233 1.6594
# 6 -10.3752 -2.2060 3.0743 3.8441 1.6594 31.8647
#
#
#
# Elastic Compliance Matrix: (Units=1/GPa)
#
#
# Indices 1 2 3 4 5 6 
#
# 1 0.016756 -0.009169 -0.005581 -0.000027 -0.007210 0.005738
# 2 -0.009169 0.014799 -0.001059 0.001964 0.012807 -0.002763
# 3 -0.005581 -0.001059 0.023814 -0.008483 -0.010109 -0.002638
# 4 -0.000027 0.001964 -0.008483 0.059272 0.026124 -0.007566
# 5 -0.007210 0.012807 -0.010109 0.026124 0.072743 -0.007426
# 6 0.005738 -0.002763 -0.002638 -0.007566 -0.007426 0.034614
#
#
# Mechanical properties :
#
#
# Convention : Reuss Voigt Hill
#
# Bulk Modulus (GPa) = 42.10261 56.31761 49.21011
# Shear Modulus (GPa) = 19.11794 26.24874 22.68334
#
# Velocity S-wave (km/s) = 3.11942 3.65517 3.39787
# Velocity P-wave (km/s) = 5.86550 6.81752 6.35935
#
# Compressibility (1/GPa) = 0.02375150
#
# Stress axis : x y z
#
# Youngs Moduli (GPa) = 59.67858 67.57262 41.99137
#
# Poissons Ratio (x) = 0.61956 0.23437
# Poissons Ratio (y) = 0.54718 0.04447
# Poissons Ratio (z) = 0.33308 0.07156
#
# Static dielectric constant tensor:
#      x y z
#    x 4.087970 -0.350770 0.141730 
#    y -0.350770 3.690580 -0.039300 
#    z 0.141730 -0.039300 3.458790 
# 
# 
# High freq. dielectric constant tensor:
#      x y z
#    x 1.764860 -0.025240 0.014190 
#    y -0.025240 1.759250 0.014100 
#    z 0.014190 0.014100 1.743910 
# 
# From -- ./inp_files/419338.got.cif
#   From: 2010.06.25/outbox.cif.g09.slc.cpg/sg2_210_cif.got.tgz:419338.got - 2010.06.27 13:26:56.
