data_PCOD8042940
_publ_section_title
;
Structure prediction by ZEFSAII (Michael W. Deem and Ramdas Pophale) SiO2 
 PCOD8042940
Probable space group: P -1
;
_chemical_formula_sum "Si O2"
_cell_formula_units_Z 16
_cell_length_a 17.489101
_cell_length_b 11.181873
_cell_length_c 23.430301
_cell_angle_alpha 149.220772
_cell_angle_beta 159.450166
_cell_angle_gamma 31.633381
_cell_volume 794.462750
_symmetry_space_group_name_H-M "P -1"
_symmetry_group_IT_number 2
_symmetry_cell_setting 'triclinic'
loop_
_space_group_symop_operation_xyz
x,y,z
-x,-y,-z
loop_
_atom_site_type_symbol
_atom_site_label
_atom_site_fract_x
_atom_site_fract_y
_atom_site_fract_z
Si Si1 0.805792 0.045032 0.928202
Si Si2 0.860270 0.056116 0.178436
Si Si3 0.479606 0.470553 0.119581
Si Si4 0.024922 0.774445 0.074642
Si Si5 0.664315 0.586940 0.609288
Si Si6 0.714392 0.754183 0.479905
Si Si7 0.908420 0.658379 0.135542
Si Si8 0.477573 0.266417 0.549650
O O1 0.657700 0.321789 0.933658
O O2 0.653960 0.860787 0.733374
O O3 0.000000 0.000000 0.000000
O O4 0.932382 0.999154 0.058750
O O5 0.618203 0.250455 0.087114
O O6 0.055586 0.187559 0.354982
O O7 0.888882 0.926772 0.207600
O O8 0.868962 0.846990 0.051608
O O9 0.663229 0.561978 0.321745
O O10 0.326314 0.372660 0.017189
O O11 0.286614 0.728061 0.254368
O O12 0.992317 0.531321 0.923781
O O13 0.500000 0.500000 0.500000
O O14 0.588659 0.560737 0.480454
O O15 0.912779 0.403738 0.713459
O O16 0.722319 0.657011 0.511310
O O17 0.504216 0.994749 0.432678
#
# Coordination Sequence:
#
# PCOD8042940 Si02
#       8
#     2   2   2   2   2   2   2   2
#     4  11  21  39  63  89 120 154 203 246 304 358
#     4  11  25  37  61  92 125 157 207 249 304 357
#     4  12  22  41  62  88 124 167 194 251 308 366
#     4  10  21  40  62  92 117 157 206 253 294 352
#     4  11  22  36  61  95 120 152 201 260 296 349
#     4  10  20  36  60  90 118 156 203 252 294 357
#     4  11  23  41  61  88 125 164 200 248 303 360
#     4  10  19  35  66  90 116 154 209 247 299 353
#
# _framework density 20.139396999999999
#
# number of rings (size 3 to 8) (size 9 to 14) (size 15 to 20)
#    0.000    1.250    5.000    2.625    3.500    1.500 
#    0.000    0.000    0.000    0.750    0.000    0.000 
#    0.000    0.000    0.000    0.000    0.000    0.000 
#
# Total GULP energy -198332.811380 kJ/mol
# GULP energy per Si atom -12395.800711 kJ/mol
# Density = 2.009356 g / cm^3
# Si number density = 20.139397 Si / 1000 Ang^3
#
#
#
# Elastic Constant Matrix: (Units=GPa)
#
#
# Indices 1 2 3 4 5 6 
#
# 1 113.5896 53.7303 46.0278 -13.2162 6.1943 24.7917
# 2 53.7303 108.4218 31.0356 -23.1579 7.7402 9.6339
# 3 46.0278 31.0356 81.2544 -11.1951 1.6429 10.7369
# 4 -13.2162 -23.1579 -11.1951 23.0401 9.5351 -3.8258
# 5 6.1943 7.7402 1.6429 9.5351 31.2693 -6.0866
# 6 24.7917 9.6339 10.7369 -3.8258 -6.0866 42.5375
#
#
#
# Elastic Compliance Matrix: (Units=1/GPa)
#
#
# Indices 1 2 3 4 5 6 
#
# 1 0.015124 -0.004769 -0.005608 0.001393 -0.003241 -0.006657
# 2 -0.004769 0.015845 -0.000965 0.015920 -0.007831 -0.000254
# 3 -0.005608 -0.000965 0.016493 0.004108 -0.000853 -0.000428
# 4 0.001393 0.015920 0.004108 0.073008 -0.027237 -0.002785
# 5 -0.003241 -0.007831 -0.000853 -0.027237 0.044426 0.007785
# 6 -0.006657 -0.000254 -0.000428 -0.002785 0.007785 0.028418
#
#
# Mechanical properties :
#
#
# Convention : Reuss Voigt Hill
#
# Bulk Modulus (GPa) = 40.36213 62.76146 51.56180
# Shear Modulus (GPa) = 22.29576 30.86753 26.58165
#
# Velocity S-wave (km/s) = 3.33088 3.91921 3.63696
# Velocity P-wave (km/s) = 5.90575 7.19107 6.57987
#
# Compressibility (1/GPa) = 0.02477570
#
# Stress axis : x y z
#
# Youngs Moduli (GPa) = 66.12042 63.11196 60.63354
#
# Poissons Ratio (x) = 0.30099 0.34006
# Poissons Ratio (y) = 0.31533 0.05852
# Poissons Ratio (z) = 0.37084 0.06092
#
# Static dielectric constant tensor:
#      x y z
#    x 4.215300 0.676480 -0.051780 
#    y 0.676480 4.245340 -0.036400 
#    z -0.051780 -0.036400 3.682570 
# 
# 
# High freq. dielectric constant tensor:
#      x y z
#    x 1.793960 0.020330 0.007280 
#    y 0.020330 1.763520 -0.004590 
#    z 0.007280 -0.004590 1.780050 
# 
# From -- ./inp_files/613201.got.cif
#   From: 2010.06.25/outbox.cif.g09.slc.cpg/sg2_307_cif.got.tgz:613201.got - 2010.06.27 13:26:56.
