data_PCOD8042520
_publ_section_title
;
Structure prediction by ZEFSAII (Michael W. Deem and Ramdas Pophale) SiO2 
 PCOD8042520
Probable space group: P -1
;
_chemical_formula_sum "Si O2"
_cell_formula_units_Z 16
_cell_length_a 9.118144
_cell_length_b 15.663030
_cell_length_c 10.841361
_cell_angle_alpha 44.207229
_cell_angle_beta 69.130062
_cell_angle_gamma 52.214938
_cell_volume 843.492184
_symmetry_space_group_name_H-M "P -1"
_symmetry_group_IT_number 2
_symmetry_cell_setting 'triclinic'
loop_
_space_group_symop_operation_xyz
x,y,z
-x,-y,-z
loop_
_atom_site_type_symbol
_atom_site_label
_atom_site_fract_x
_atom_site_fract_y
_atom_site_fract_z
Si Si1 0.321533 0.863088 0.831441
Si Si2 0.037859 0.356154 0.571694
Si Si3 0.134670 0.042336 0.473848
Si Si4 0.006322 0.344595 0.305967
Si Si5 0.754764 0.850693 0.892947
Si Si6 0.652477 0.953998 0.165809
Si Si7 0.729102 0.631229 0.971191
Si Si8 0.002031 0.168755 0.950086
O O1 0.278350 0.908523 0.655768
O O2 0.362676 0.973465 0.772192
O O3 0.508298 0.699763 0.947187
O O4 0.148523 0.871586 0.942238
O O5 0.975184 0.382943 0.420523
O O6 0.258398 0.220672 0.659620
O O7 0.918919 0.304692 0.737736
O O8 0.000000 0.500000 0.500000
O O9 0.026262 0.191050 0.433820
O O10 0.252726 0.055493 0.317871
O O11 0.000000 0.000000 0.500000
O O12 0.826292 0.462927 0.156288
O O13 0.184515 0.347592 0.201826
O O14 0.560114 0.958580 0.915431
O O15 0.766493 0.706108 0.996537
O O16 0.941148 0.792275 0.977982
O O17 0.798377 0.969207 0.020363
#
# Coordination Sequence:
#
# PCOD8042520 Si02
#       8
#     2   2   2   2   2   2   2   2
#     4  11  20  38  57  89 113 150 190 235 292 337
#     4  10  21  35  59  81 114 153 193 232 279 338
#     4  11  21  35  61  85 119 148 185 243 286 341
#     4  10  20  41  58  85 114 153 192 233 289 332
#     4  10  19  35  57  88 110 148 197 234 283 334
#     4   9  21  33  58  82 110 153 191 234 274 339
#     4   9  22  36  64  80 116 149 189 240 285 341
#     4  10  20  34  57  80 119 146 185 238 282 332
#
# _framework density 18.968758999999999
#
# number of rings (size 3 to 8) (size 9 to 14) (size 15 to 20)
#    0.750    1.250    2.500    1.500    1.750    1.500 
#    0.000    2.500    0.000    0.000    0.000    0.000 
#    0.000    0.000    0.000    0.000    0.000    0.000 
#
# Total GULP energy -198267.077073 kJ/mol
# GULP energy per Si atom -12391.692317 kJ/mol
# Density = 1.892559 g / cm^3
# Si number density = 18.968759 Si / 1000 Ang^3
#
#
#
# Elastic Constant Matrix: (Units=GPa)
#
#
# Indices 1 2 3 4 5 6 
#
# 1 77.4816 36.5475 23.0107 -2.8700 1.4475 -4.2407
# 2 36.5475 87.3962 33.6647 0.7039 2.2629 -5.4973
# 3 23.0107 33.6647 87.6610 7.3753 3.9034 -1.0768
# 4 -2.8700 0.7039 7.3753 32.2153 1.2885 4.2685
# 5 1.4475 2.2629 3.9034 1.2885 22.8292 2.6666
# 6 -4.2407 -5.4973 -1.0768 4.2685 2.6666 34.0182
#
#
#
# Elastic Compliance Matrix: (Units=1/GPa)
#
#
# Indices 1 2 3 4 5 6 
#
# 1 0.016518 -0.006033 -0.002166 0.002006 -0.000284 0.000786
# 2 -0.006033 0.015795 -0.004427 -0.000072 -0.000623 0.001718
# 3 -0.002166 -0.004427 0.014022 -0.003240 -0.001638 -0.000007
# 4 0.002006 -0.000072 -0.003240 0.032514 -0.000949 -0.003869
# 5 -0.000284 -0.000623 -0.001638 -0.000949 0.044634 -0.003568
# 6 0.000786 0.001718 -0.000007 -0.003869 -0.003568 0.030537
#
#
# Mechanical properties :
#
#
# Convention : Reuss Voigt Hill
#
# Bulk Modulus (GPa) = 47.43101 48.77607 48.10354
# Shear Modulus (GPa) = 26.83879 28.43358 27.63618
#
# Velocity S-wave (km/s) = 3.76559 3.87585 3.82112
# Velocity P-wave (km/s) = 6.63063 6.76752 6.69943
#
# Compressibility (1/GPa) = 0.02108325
#
# Stress axis : x y z
#
# Youngs Moduli (GPa) = 60.54153 63.31099 71.31767
#
# Poissons Ratio (x) = 0.38192 0.15445
# Poissons Ratio (y) = 0.36522 0.31575
# Poissons Ratio (z) = 0.13111 0.28031
#
# Static dielectric constant tensor:
#      x y z
#    x 3.301070 -0.026890 0.111330 
#    y -0.026890 3.520160 0.068160 
#    z 0.111330 0.068160 3.458600 
# 
# 
# High freq. dielectric constant tensor:
#      x y z
#    x 1.718680 0.005700 0.014860 
#    y 0.005700 1.736570 0.009320 
#    z 0.014860 0.009320 1.734560 
# 
# From -- ./inp_files/401783.got.cif
#   From: 2010.06.25/outbox.cif.g09.slc.cpg/sg2_201_cif.got.tgz:401783.got - 2010.06.27 13:26:56.
