data_PCOD8042582
_publ_section_title
;
Structure prediction by ZEFSAII (Michael W. Deem and Ramdas Pophale) SiO2 
 PCOD8042582
Probable space group: P -1
;
_chemical_formula_sum "Si O2"
_cell_formula_units_Z 16
_cell_length_a 11.751910
_cell_length_b 8.268805
_cell_length_c 14.645691
_cell_angle_alpha 116.073992
_cell_angle_beta 35.808603
_cell_angle_gamma 101.362864
_cell_volume 712.685802
_symmetry_space_group_name_H-M "P -1"
_symmetry_group_IT_number 2
_symmetry_cell_setting 'triclinic'
loop_
_space_group_symop_operation_xyz
x,y,z
-x,-y,-z
loop_
_atom_site_type_symbol
_atom_site_label
_atom_site_fract_x
_atom_site_fract_y
_atom_site_fract_z
Si Si1 0.335701 0.808791 0.352226
Si Si2 0.626665 0.818332 0.001717
Si Si3 0.377594 0.834437 0.004424
Si Si4 0.915815 0.879071 0.595137
Si Si5 0.350211 0.646262 0.698069
Si Si6 0.713171 0.777781 0.537466
Si Si7 0.002049 0.390550 0.174996
Si Si8 0.307440 0.483975 0.872140
O O1 0.472867 0.675781 0.306362
O O2 0.128836 0.744995 0.466236
O O3 0.279229 0.030944 0.470922
O O4 0.458770 0.780696 0.169119
O O5 0.855971 0.709072 0.857527
O O6 0.591253 0.045224 0.074589
O O7 0.584697 0.751250 0.910089
O O8 0.215376 0.985790 0.209587
O O9 0.299147 0.663193 0.984856
O O10 0.785533 0.768998 0.594841
O O11 0.000000 0.000000 0.500000
O O12 0.500000 0.500000 0.500000
O O13 0.473919 0.783146 0.689753
O O14 0.272093 0.540547 0.804477
O O15 0.144297 0.735666 0.793346
O O16 0.864228 0.599565 0.343757
O O17 0.136832 0.399251 0.000840
#
# Coordination Sequence:
#
# PCOD8042582 Si02
#       8
#     2   2   2   2   2   2   2   2
#     4  10  21  38  61  93 127 156 201 241 306 371
#     4  10  22  38  59  92 127 157 201 243 303 360
#     4  11  22  38  62  91 134 154 196 248 305 367
#     4  10  19  35  58  88 126 158 192 238 302 361
#     4  10  23  44  63  84 121 162 207 257 297 350
#     4  10  20  40  62  85 124 164 198 248 299 350
#     4  10  23  41  64  87 122 160 212 246 297 357
#     4  11  23  38  66  93 120 158 203 252 306 353
#
# _framework density 22.450285999999998
#
# number of rings (size 3 to 8) (size 9 to 14) (size 15 to 20)
#    0.000    1.750    2.500    2.625    3.500    3.000 
#    0.000   10.625    0.000    0.000    0.000    0.000 
#    0.000    0.000    0.000    0.000    0.000    0.000 
#
# Total GULP energy -198215.508234 kJ/mol
# GULP energy per Si atom -12388.469265 kJ/mol
# Density = 2.239919 g / cm^3
# Si number density = 22.450286 Si / 1000 Ang^3
#
#
#
# Elastic Constant Matrix: (Units=GPa)
#
#
# Indices 1 2 3 4 5 6 
#
# 1 145.3452 26.6053 60.9254 -0.0340 -24.3223 20.8441
# 2 26.6053 37.8904 6.7251 -0.3232 -0.9575 11.0650
# 3 60.9254 6.7251 82.9859 6.3997 -14.2003 5.9625
# 4 -0.0340 -0.3232 6.3997 23.6892 -1.2366 -2.7945
# 5 -24.3223 -0.9575 -14.2003 -1.2366 34.4271 -9.8563
# 6 20.8441 11.0650 5.9625 -2.7945 -9.8563 39.6554
#
#
#
# Elastic Compliance Matrix: (Units=1/GPa)
#
#
# Indices 1 2 3 4 5 6 
#
# 1 0.012488 -0.006602 -0.007799 0.002030 0.004866 -0.002197
# 2 -0.006602 0.032672 0.001947 -0.001215 -0.005083 -0.007288
# 3 -0.007799 0.001947 0.018284 -0.004688 0.002212 0.001026
# 4 0.002030 -0.001215 -0.004688 0.043998 0.002076 0.003593
# 5 0.004866 -0.005083 0.002212 0.002076 0.035475 0.007492
# 6 -0.002197 -0.007288 0.001026 0.003593 0.007492 0.030366
#
#
# Mechanical properties :
#
#
# Convention : Reuss Voigt Hill
#
# Bulk Modulus (GPa) = 25.95032 50.52589 38.23811
# Shear Modulus (GPa) = 23.69257 31.01874 27.35565
#
# Velocity S-wave (km/s) = 3.25212 3.72111 3.49449
# Velocity P-wave (km/s) = 5.06811 6.40443 5.77505
#
# Compressibility (1/GPa) = 0.03853517
#
# Stress axis : x y z
#
# Youngs Moduli (GPa) = 80.07910 30.60752 54.69137
#
# Poissons Ratio (x) = 0.20208 0.42654
# Poissons Ratio (y) = 0.52872 -0.10649
# Poissons Ratio (z) = 0.62454 -0.05960
#
# Static dielectric constant tensor:
#      x y z
#    x 4.959100 0.274790 -0.584710 
#    y 0.274790 4.336190 -0.383130 
#    z -0.584710 -0.383130 4.250650 
# 
# 
# High freq. dielectric constant tensor:
#      x y z
#    x 1.894570 0.007840 -0.015140 
#    y 0.007840 1.856810 -0.016350 
#    z -0.015140 -0.016350 1.889220 
# 
# From -- ./inp_files/516060.got.cif
#   From: 2010.06.25/outbox.cif.g09.slc.cpg/sg2_259_cif.got.tgz:516060.got - 2010.06.27 13:26:56.
