data_PCOD8042624
_publ_section_title
;
Structure prediction by ZEFSAII (Michael W. Deem and Ramdas Pophale) SiO2 
 PCOD8042624
Probable space group: P -1
;
_chemical_formula_sum "Si O2"
_cell_formula_units_Z 16
_cell_length_a 20.204630
_cell_length_b 5.171443
_cell_length_c 8.876412
_cell_angle_alpha 97.632373
_cell_angle_beta 68.625973
_cell_angle_gamma 65.389004
_cell_volume 739.526176
_symmetry_space_group_name_H-M "P -1"
_symmetry_group_IT_number 2
_symmetry_cell_setting 'triclinic'
loop_
_space_group_symop_operation_xyz
x,y,z
-x,-y,-z
loop_
_atom_site_type_symbol
_atom_site_label
_atom_site_fract_x
_atom_site_fract_y
_atom_site_fract_z
Si Si1 0.914343 0.101052 0.652738
Si Si2 0.584577 0.916446 0.852035
Si Si3 0.090950 0.832552 0.979183
Si Si4 0.527016 0.781730 0.597715
Si Si5 0.345309 0.684967 0.089955
Si Si6 0.815277 0.835729 0.101729
Si Si7 0.627759 0.250377 0.258419
Si Si8 0.828259 0.762121 0.735908
O O1 0.849644 0.422940 0.653372
O O2 0.890313 0.849946 0.610447
O O3 0.916192 0.128278 0.832656
O O4 0.000000 0.000000 0.500000
O O5 0.579011 0.860963 0.675846
O O6 0.651715 0.601758 0.852333
O O7 0.592310 0.213549 0.888902
O O8 0.500000 0.000000 0.000000
O O9 0.137781 0.477581 0.869551
O O10 0.147332 0.953383 0.864205
O O11 0.000000 0.000000 0.000000
O O12 0.589944 0.453578 0.453453
O O13 0.441393 0.831486 0.744128
O O14 0.500000 0.000000 0.500000
O O15 0.261404 0.987694 0.222420
O O16 0.357084 0.605657 0.894773
O O17 0.716687 0.980183 0.217718
O O18 0.838011 0.769456 0.905171
#
# Coordination Sequence:
#
# PCOD8042624 Si02
#       8
#     2   2   2   2   2   2   2   2
#     4  10  19  35  59  85 114 150 189 232 290 355
#     4  12  24  40  62  90 120 158 203 251 305 352
#     4  10  20  37  59  87 115 148 192 241 290 353
#     4  11  25  40  62  87 126 164 209 249 305 362
#     4  11  23  41  65  89 119 158 208 254 299 350
#     4   9  20  36  61  85 113 153 200 238 288 354
#     4  10  23  40  63  89 118 165 208 254 299 360
#     4   9  19  36  58  86 113 150 195 238 285 352
#
# _framework density 21.635476000000001
#
# number of rings (size 3 to 8) (size 9 to 14) (size 15 to 20)
#    0.000    1.750    1.250    2.625    5.250    2.000 
#    0.000    3.750    0.000    0.000    0.000    0.000 
#    0.000    0.000    0.000    0.000    0.000    0.000 
#
# Total GULP energy -198241.849733 kJ/mol
# GULP energy per Si atom -12390.115608 kJ/mol
# Density = 2.158623 g / cm^3
# Si number density = 21.635476 Si / 1000 Ang^3
#
#
#
# Elastic Constant Matrix: (Units=GPa)
#
#
# Indices 1 2 3 4 5 6 
#
# 1 83.0775 24.6057 19.9437 6.7448 -12.9287 -2.8383
# 2 24.6057 133.6085 16.3625 10.1080 -8.2690 -8.6340
# 3 19.9437 16.3625 61.1160 3.5292 -15.2231 -6.1566
# 4 6.7448 10.1080 3.5292 24.3541 -6.0634 -2.2270
# 5 -12.9287 -8.2690 -15.2231 -6.0634 34.9313 2.9972
# 6 -2.8383 -8.6340 -6.1566 -2.2270 2.9972 39.9073
#
#
#
# Elastic Compliance Matrix: (Units=1/GPa)
#
#
# Indices 1 2 3 4 5 6 
#
# 1 0.013979 -0.001864 -0.003225 -0.001901 0.003018 -0.000239
# 2 -0.001864 0.008274 -0.001290 -0.002575 0.000148 0.001304
# 3 -0.003225 -0.001290 0.019677 0.000503 0.006989 0.002030
# 4 -0.001901 -0.002575 0.000503 0.044322 0.006482 0.001372
# 5 0.003018 0.000148 0.006989 0.006482 0.034025 -0.000869
# 6 -0.000239 0.001304 0.002030 0.001372 -0.000869 0.025778
#
#
# Mechanical properties :
#
#
# Convention : Reuss Voigt Hill
#
# Bulk Modulus (GPa) = 34.28137 44.40287 39.34212
# Shear Modulus (GPa) = 29.66689 34.29788 31.98239
#
# Velocity S-wave (km/s) = 3.70701 3.98585 3.84896
# Velocity P-wave (km/s) = 5.84824 6.46146 6.16248
#
# Compressibility (1/GPa) = 0.02917036
#
# Stress axis : x y z
#
# Youngs Moduli (GPa) = 71.53509 120.85957 50.82192
#
# Poissons Ratio (x) = 0.22532 0.16392
# Poissons Ratio (y) = 0.13337 0.06556
# Poissons Ratio (z) = 0.23072 0.15591
#
# Static dielectric constant tensor:
#      x y z
#    x 4.701780 2.320280 -0.693730 
#    y 2.320280 7.521230 -1.801970 
#    z -0.693730 -1.801970 3.587940 
# 
# 
# High freq. dielectric constant tensor:
#      x y z
#    x 1.847610 0.003200 -0.015880 
#    y 0.003200 1.861590 0.008270 
#    z -0.015880 0.008270 1.825300 
# 
# From -- ./inp_files/55523.got.cif
#   From: 2010.06.25/outbox.cif.g09.slc.cpg/sg2_28_cif.got.tgz:55523.got - 2010.06.27 13:26:56.
