data_PCOD8042836
_publ_section_title
;
Structure prediction by ZEFSAII (Michael W. Deem and Ramdas Pophale) SiO2 
 PCOD8042836
Probable space group: P -1
;
_chemical_formula_sum "Si O2"
_cell_formula_units_Z 14
_cell_length_a 5.126111
_cell_length_b 10.034893
_cell_length_c 12.959541
_cell_angle_alpha 89.908811
_cell_angle_beta 91.471770
_cell_angle_gamma 111.461605
_cell_volume 620.189226
_symmetry_space_group_name_H-M "P -1"
_symmetry_group_IT_number 2
_symmetry_cell_setting 'triclinic'
loop_
_space_group_symop_operation_xyz
x,y,z
-x,-y,-z
loop_
_atom_site_type_symbol
_atom_site_label
_atom_site_fract_x
_atom_site_fract_y
_atom_site_fract_z
Si Si1 0.063295 0.913655 0.344846
Si Si2 0.441935 0.760433 0.417222
Si Si3 0.182169 0.891529 0.110506
Si Si4 0.666698 0.757764 0.637301
Si Si5 0.383634 0.190508 0.002289
Si Si6 0.639187 0.395917 0.182283
Si Si7 0.221019 0.490128 0.276824
O O1 0.264285 0.864131 0.421046
O O2 0.131533 0.880198 0.230733
O O3 0.739268 0.833555 0.365270
O O4 0.122199 0.079437 0.366181
O O5 0.480542 0.713074 0.532735
O O6 0.258993 0.621447 0.351618
O O7 0.416303 0.825298 0.086639
O O8 0.895959 0.798930 0.049071
O O9 0.294047 0.056541 0.078771
O O10 0.460731 0.733403 0.734139
O O11 0.842602 0.652991 0.653093
O O12 0.549217 0.333646 0.067576
O O13 0.494979 0.511275 0.208661
O O14 0.971919 0.473887 0.194053
#
# Coordination Sequence:
#
# PCOD8042836 Si02
#       7
#     2   2   2   2   2   2   2
#     4  12  25  41  62  94 133 160 201 256 318 370
#     4  12  26  41  62  91 133 169 200 248 317 369
#     4  10  20  35  59  89 125 154 198 253 317 357
#     4  10  25  40  67  92 123 165 215 254 296 366
#     4  10  19  35  62  92 115 154 205 262 300 354
#     4  10  21  37  67  91 121 149 216 261 300 344
#     4  10  23  40  65  88 127 165 214 251 293 366
#
# _framework density 22.573754999999998
#
# number of rings (size 3 to 8) (size 9 to 14) (size 15 to 20)
#    0.857    0.571    1.429    3.857    4.000    1.714 
#    0.000    0.000    0.000   17.143    0.000    0.000 
#    0.000    0.000    0.000    0.000    0.000    0.000 
#
# Total GULP energy -173603.461576 kJ/mol
# GULP energy per Si atom -12400.247255 kJ/mol
# Density = 2.252238 g / cm^3
# Si number density = 22.573755 Si / 1000 Ang^3
#
#
#
# Elastic Constant Matrix: (Units=GPa)
#
#
# Indices 1 2 3 4 5 6 
#
# 1 116.0268 30.9273 -1.7146 3.7884 18.7075 9.2224
# 2 30.9273 55.4367 9.0948 18.3410 -2.9191 3.3782
# 3 -1.7146 9.0948 53.9738 28.1131 7.5743 8.7053
# 4 3.7884 18.3410 28.1131 27.8881 5.9776 6.6293
# 5 18.7075 -2.9191 7.5743 5.9776 24.5481 9.0302
# 6 9.2224 3.3782 8.7053 6.6293 9.0302 23.3918
#
#
#
# Elastic Compliance Matrix: (Units=1/GPa)
#
#
# Indices 1 2 3 4 5 6 
#
# 1 0.013484 -0.011011 -0.000245 0.008737 -0.013274 -0.000986
# 2 -0.011011 0.035266 0.009543 -0.034948 0.018753 -0.001638
# 3 -0.000245 0.009543 0.042679 -0.048640 0.001446 -0.003938
# 4 0.008737 -0.034948 -0.048640 0.112233 -0.021775 -0.003697
# 5 -0.013274 0.018753 0.001446 -0.021775 0.064030 -0.016560
# 6 -0.000986 -0.001638 -0.003938 -0.003697 -0.016560 0.052282
#
#
# Mechanical properties :
#
#
# Convention : Reuss Voigt Hill
#
# Bulk Modulus (GPa) = 11.36345 33.56135 22.46240
# Shear Modulus (GPa) = 14.17505 27.64091 20.90798
#
# Velocity S-wave (km/s) = 2.50860 3.50304 3.04667
# Velocity P-wave (km/s) = 3.66546 5.59119 4.72742
#
# Compressibility (1/GPa) = 0.08800145
#
# Stress axis : x y z
#
# Youngs Moduli (GPa) = 74.16433 28.35620 23.43093
#
# Poissons Ratio (x) = 0.31224 0.00574
# Poissons Ratio (y) = 0.81666 -0.22361
# Poissons Ratio (z) = 0.01817 -0.27061
#
# Static dielectric constant tensor:
#      x y z
#    x 4.020660 -0.033040 0.053740 
#    y -0.033040 3.827260 0.032390 
#    z 0.053740 0.032390 3.979220 
# 
# 
# High freq. dielectric constant tensor:
#      x y z
#    x 1.893680 0.000780 0.004570 
#    y 0.000780 1.877830 0.010110 
#    z 0.004570 0.010110 1.893190 
# 
# From -- ./inp_files/105398.got.cif
#   From: 2010.06.25/outbox.cif.g09.slc.cpg/sg2_53_cif.got.tgz:105398.got - 2010.06.27 13:26:56.
