data_PCOD8042101
_publ_section_title
;
Structure prediction by ZEFSAII (Michael W. Deem and Ramdas Pophale) SiO2 
 PCOD8042101
Probable space group: P -1
;
_chemical_formula_sum "Si O2"
_cell_formula_units_Z 16
_cell_length_a 14.449317
_cell_length_b 11.513189
_cell_length_c 14.661364
_cell_angle_alpha 30.350544
_cell_angle_beta 47.902240
_cell_angle_gamma 39.675399
_cell_volume 786.674631
_symmetry_space_group_name_H-M "P -1"
_symmetry_group_IT_number 2
_symmetry_cell_setting 'triclinic'
loop_
_space_group_symop_operation_xyz
x,y,z
-x,-y,-z
loop_
_atom_site_type_symbol
_atom_site_label
_atom_site_fract_x
_atom_site_fract_y
_atom_site_fract_z
Si Si1 0.835677 0.375327 0.920653
Si Si2 0.342971 0.734998 0.174119
Si Si3 0.341467 0.629670 0.620736
Si Si4 0.171060 0.068616 0.891299
Si Si5 0.330527 0.383779 0.957690
Si Si6 0.344884 0.079087 0.433326
Si Si7 0.338004 0.844383 0.299915
Si Si8 0.333457 0.201051 0.554832
O O1 0.760420 0.657597 0.730217
O O2 0.005018 0.268059 0.889861
O O3 0.771494 0.403246 0.044703
O O4 0.803474 0.176590 0.021253
O O5 0.508633 0.661718 0.110235
O O6 0.267721 0.869297 0.230425
O O7 0.329334 0.474903 0.347439
O O8 0.257448 0.954885 0.004877
O O9 0.265107 0.504101 0.817961
O O10 0.260111 0.772857 0.482608
O O11 0.497828 0.390292 0.652927
O O12 0.354362 0.829610 0.545763
O O13 0.226454 0.238534 0.683141
O O14 0.333209 0.110597 0.154467
O O15 0.287007 0.109545 0.555197
O O16 0.506846 0.032323 0.362120
#
# Coordination Sequence:
#
# PCOD8042101 Si02
#       8
#     2   2   2   2   2   2   2   2
#     4  11  24  43  60  90 120 170 203 238 302 369
#     4  11  22  40  61  97 120 155 201 253 306 353
#     4  10  19  34  57  94 121 149 189 255 298 357
#     4  11  26  42  60  85 131 163 199 245 301 366
#     4  11  21  38  66  91 118 157 203 251 298 352
#     4  11  20  38  64  93 124 146 203 252 304 355
#     4  10  21  35  60  94 123 152 196 251 309 351
#     4  11  23  38  63  97 120 155 194 260 309 353
#
# _framework density 20.338775999999999
#
# number of rings (size 3 to 8) (size 9 to 14) (size 15 to 20)
#    0.000    1.250    5.000    3.000    1.750    2.500 
#    2.250    0.625    0.000    1.500    0.000    0.000 
#    0.000    0.000    0.000    0.000    0.000    0.000 
#
# Total GULP energy -198302.558924 kJ/mol
# GULP energy per Si atom -12393.909933 kJ/mol
# Density = 2.029248 g / cm^3
# Si number density = 20.338776 Si / 1000 Ang^3
#
#
#
# Elastic Constant Matrix: (Units=GPa)
#
#
# Indices 1 2 3 4 5 6 
#
# 1 55.0509 40.6109 26.3453 11.0457 14.1881 13.7930
# 2 40.6109 77.2861 34.4019 11.4632 18.4937 17.1027
# 3 26.3453 34.4019 109.5295 13.6530 24.8294 2.0212
# 4 11.0457 11.4632 13.6530 43.3401 18.8315 4.1564
# 5 14.1881 18.4937 24.8294 18.8315 28.6367 5.6134
# 6 13.7930 17.1027 2.0212 4.1564 5.6134 27.5561
#
#
#
# Elastic Compliance Matrix: (Units=1/GPa)
#
#
# Indices 1 2 3 4 5 6 
#
# 1 0.031890 -0.013241 -0.002611 -0.002190 -0.002218 -0.006771
# 2 -0.013241 0.024018 -0.003095 0.001114 -0.005613 -0.007077
# 3 -0.002611 -0.003095 0.012589 0.001103 -0.009132 0.003998
# 4 -0.002190 0.001114 0.001103 0.032547 -0.021972 -0.000110
# 5 -0.002218 -0.005613 -0.009132 -0.021972 0.062838 -0.004223
# 6 -0.006771 -0.007077 0.003998 -0.000110 -0.004223 0.044654
#
#
# Mechanical properties :
#
#
# Convention : Reuss Voigt Hill
#
# Bulk Modulus (GPa) = 32.67645 49.39810 41.03728
# Shear Modulus (GPa) = 19.48330 29.27379 24.37854
#
# Velocity S-wave (km/s) = 3.09842 3.79794 3.46587
# Velocity P-wave (km/s) = 5.37598 6.60097 6.01972
#
# Compressibility (1/GPa) = 0.03060308
#
# Stress axis : x y z
#
# Youngs Moduli (GPa) = 31.35823 41.63563 79.43504
#
# Poissons Ratio (x) = 0.55129 0.20741
# Poissons Ratio (y) = 0.41521 0.24584
# Poissons Ratio (z) = 0.08188 0.12886
#
# Static dielectric constant tensor:
#      x y z
#    x 3.637680 0.435530 0.332240 
#    y 0.435530 3.813810 0.177960 
#    z 0.332240 0.177960 4.166520 
# 
# 
# High freq. dielectric constant tensor:
#      x y z
#    x 1.767170 0.038330 0.016700 
#    y 0.038330 1.788270 0.001470 
#    z 0.016700 0.001470 1.816010 
# 
# From -- ./inp_files/306335.got.cif
#   From: 2010.06.25/outbox.cif.g09.slc.cpg/sg2_154_cif.got.tgz:306335.got - 2010.06.27 13:26:56.
