data_PCOD8042295
_publ_section_title
;
Structure prediction by ZEFSAII (Michael W. Deem and Ramdas Pophale) SiO2 
 PCOD8042295
Probable space group: P -1
;
_chemical_formula_sum "Si O2"
_cell_formula_units_Z 16
_cell_length_a 5.230332
_cell_length_b 23.099478
_cell_length_c 16.791839
_cell_angle_alpha 23.307379
_cell_angle_beta 91.343856
_cell_angle_gamma 81.228800
_cell_volume 720.645345
_symmetry_space_group_name_H-M "P -1"
_symmetry_group_IT_number 2
_symmetry_cell_setting 'triclinic'
loop_
_space_group_symop_operation_xyz
x,y,z
-x,-y,-z
loop_
_atom_site_type_symbol
_atom_site_label
_atom_site_fract_x
_atom_site_fract_y
_atom_site_fract_z
Si Si1 0.661717 0.445925 0.786731
Si Si2 0.313867 0.412823 0.078329
Si Si3 0.803485 0.434562 0.625879
Si Si4 0.376218 0.963519 0.430202
Si Si5 0.170341 0.093198 0.669588
Si Si6 0.890857 0.459815 0.247289
Si Si7 0.795200 0.935652 0.877763
Si Si8 0.210724 0.920413 0.721652
O O1 0.728849 0.497360 0.636274
O O2 0.327298 0.551058 0.674448
O O3 0.886787 0.470882 0.813180
O O4 0.696441 0.262573 0.019214
O O5 0.447060 0.227250 0.342180
O O6 0.500000 0.500000 0.000000
O O7 0.309804 0.418563 0.975345
O O8 0.000000 0.500000 0.000000
O O9 0.500000 0.500000 0.500000
O O10 0.000000 0.500000 0.500000
O O11 0.984499 0.241400 0.868598
O O12 0.233412 0.055642 0.229277
O O13 0.544306 0.056555 0.356675
O O14 0.085574 0.003005 0.427137
O O15 0.078072 0.284011 0.432896
O O16 0.480448 0.996289 0.836757
O O17 0.199755 0.037299 0.648574
O O18 0.934494 0.052203 0.762737
#
# Coordination Sequence:
#
# PCOD8042295 Si02
#       8
#     2   2   2   2   2   2   2   2
#     4  12  25  46  66 101 146 172 223 288 362 410
#     4  12  23  41  64 100 142 183 242 280 315 398
#     4  12  25  42  74 105 129 171 231 289 338 418
#     4  10  19  34  62  89 123 171 226 277 307 369
#     4  10  19  37  65  94 121 181 230 255 314 417
#     4  12  26  41  68 104 144 184 220 287 355 382
#     4  10  19  37  66  95 123 167 236 266 318 401
#     4  10  20  38  66  88 124 183 231 264 316 415
#
# _framework density 22.202321999999999
#
# number of rings (size 3 to 8) (size 9 to 14) (size 15 to 20)
#    0.000    1.000    2.500    7.500    3.500    0.000 
#    0.000    3.750    0.000   15.000    0.000    0.000 
#    0.000    0.000    0.000    0.000    0.000    0.000 
#
# Total GULP energy -198280.706195 kJ/mol
# GULP energy per Si atom -12392.544137 kJ/mol
# Density = 2.215179 g / cm^3
# Si number density = 22.202322 Si / 1000 Ang^3
#
#
#
# Elastic Constant Matrix: (Units=GPa)
#
#
# Indices 1 2 3 4 5 6 
#
# 1 229.0378 30.4279 48.5870 -1.3980 -2.4187 21.9173
# 2 30.4279 54.3608 14.4168 -8.9249 -10.7876 2.9985
# 3 48.5870 14.4168 99.8261 -6.1840 0.6664 11.7752
# 4 -1.3980 -8.9249 -6.1840 22.3242 1.2485 -3.0930
# 5 -2.4187 -10.7876 0.6664 1.2485 47.0889 -3.6952
# 6 21.9173 2.9985 11.7752 -3.0930 -3.6952 39.6099
#
#
#
# Elastic Compliance Matrix: (Units=1/GPa)
#
#
# Indices 1 2 3 4 5 6 
#
# 1 0.005364 -0.002684 -0.002045 -0.001601 -0.000450 -0.002324
# 2 -0.002684 0.022607 -0.001637 0.008329 0.004951 0.001373
# 3 -0.002045 -0.001637 0.011641 0.002198 -0.000869 -0.002114
# 4 -0.001601 0.008329 0.002198 0.049076 0.000769 0.003506
# 5 -0.000450 0.004951 -0.000869 0.000769 0.022519 0.002294
# 6 -0.002324 0.001373 -0.002114 0.003506 0.002294 0.027544
#
#
# Mechanical properties :
#
#
# Convention : Reuss Voigt Hill
#
# Bulk Modulus (GPa) = 37.20521 63.34313 50.27417
# Shear Modulus (GPa) = 31.16343 41.12415 36.14379
#
# Velocity S-wave (km/s) = 3.75054 4.30844 4.03914
# Velocity P-wave (km/s) = 5.96231 7.30357 6.66676
#
# Compressibility (1/GPa) = 0.02687796
#
# Stress axis : x y z
#
# Youngs Moduli (GPa) = 186.41250 44.23479 85.90540
#
# Poissons Ratio (x) = 0.11874 0.17570
# Poissons Ratio (y) = 0.50037 0.14066
# Poissons Ratio (z) = 0.38127 0.07243
#
# Static dielectric constant tensor:
#      x y z
#    x 5.347670 -0.070470 -0.050310 
#    y -0.070470 3.744160 -0.010030 
#    z -0.050310 -0.010030 3.944240 
# 
# 
# High freq. dielectric constant tensor:
#      x y z
#    x 1.923820 0.001690 0.001130 
#    y 0.001690 1.836180 -0.015580 
#    z 0.001130 -0.015580 1.869570 
# 
# From -- ./inp_files/551222.got.cif
#   From: 2010.06.25/outbox.cif.g09.slc.cpg/sg2_276_cif.got.tgz:551222.got - 2010.06.27 13:26:56.
