data_PCOD8042075
_publ_section_title
;
Structure prediction by ZEFSAII (Michael W. Deem and Ramdas Pophale) SiO2 
 PCOD8042075
Probable space group: P -1
;
_chemical_formula_sum "Si O2"
_cell_formula_units_Z 16
_cell_length_a 15.149780
_cell_length_b 11.969530
_cell_length_c 15.578265
_cell_angle_alpha 27.236998
_cell_angle_beta 142.233433
_cell_angle_gamma 133.203888
_cell_volume 790.134001
_symmetry_space_group_name_H-M "P -1"
_symmetry_group_IT_number 2
_symmetry_cell_setting 'triclinic'
loop_
_space_group_symop_operation_xyz
x,y,z
-x,-y,-z
loop_
_atom_site_type_symbol
_atom_site_label
_atom_site_fract_x
_atom_site_fract_y
_atom_site_fract_z
Si Si1 0.607695 0.356585 0.460277
Si Si2 0.683750 0.372807 0.319253
Si Si3 0.721261 0.486138 0.921439
Si Si4 0.569239 0.832712 0.833747
Si Si5 0.326739 0.938209 0.706925
Si Si6 0.646769 0.580207 0.515322
Si Si7 0.131547 0.053032 0.320653
Si Si8 0.875059 0.337153 0.980800
O O1 0.683767 0.436783 0.376375
O O2 0.436157 0.389791 0.300800
O O3 0.660576 0.521099 0.465738
O O4 0.650557 0.069389 0.706241
O O5 0.536615 0.241663 0.273523
O O6 0.825418 0.196626 0.526527
O O7 0.688435 0.613941 0.098338
O O8 0.824118 0.709712 0.861681
O O9 0.766741 0.310613 0.995448
O O10 0.727799 0.316309 0.126435
O O11 0.480575 0.885107 0.816909
O O12 0.347953 0.127742 0.670638
O O13 0.213072 0.060289 0.469354
O O14 0.500000 0.500000 0.500000
O O15 0.786789 0.448686 0.756686
O O16 0.958836 0.081929 0.187230
O O17 0.000000 0.500000 0.000000
#
# Coordination Sequence:
#
# PCOD8042075 Si02
#       8
#     2   2   2   2   2   2   2   2
#     4  12  21  35  57  89 122 150 191 247 299 343
#     4  10  21  34  57  86 114 159 199 239 288 343
#     4  11  20  34  60  91 117 150 194 240 301 347
#     4  10  19  34  57  84 121 152 195 249 286 339
#     4  11  20  35  59  92 117 149 197 240 299 347
#     4  12  21  39  62  88 123 155 190 245 303 350
#     4  10  21  40  59  81 121 156 195 246 284 348
#     4  10  20  42  62  82 121 161 191 239 302 347
#
# _framework density 20.249728999999999
#
# number of rings (size 3 to 8) (size 9 to 14) (size 15 to 20)
#    0.000    1.250    8.750    0.375    0.000    1.000 
#    2.250    0.625    0.000    0.750    0.000    0.000 
#    0.000    0.000    0.000    0.000    0.000    0.000 
#
# Total GULP energy -198362.617833 kJ/mol
# GULP energy per Si atom -12397.663615 kJ/mol
# Density = 2.020364 g / cm^3
# Si number density = 20.249729 Si / 1000 Ang^3
#
#
#
# Elastic Constant Matrix: (Units=GPa)
#
#
# Indices 1 2 3 4 5 6 
#
# 1 78.7560 17.8736 44.1131 4.2605 10.8093 -25.1708
# 2 17.8736 59.8973 25.2146 -2.4460 -3.6272 -23.6335
# 3 44.1131 25.2146 105.1169 -15.3148 10.9239 -0.9974
# 4 4.2605 -2.4460 -15.3148 19.8936 2.2875 -6.1420
# 5 10.8093 -3.6272 10.9239 2.2875 43.8537 -3.1648
# 6 -25.1708 -23.6335 -0.9974 -6.1420 -3.1648 32.7753
#
#
#
# Elastic Compliance Matrix: (Units=1/GPa)
#
#
# Indices 1 2 3 4 5 6 
#
# 1 0.026978 0.006693 -0.013861 -0.008305 -0.000513 0.023517
# 2 0.006693 0.030191 -0.009959 0.002531 0.005187 0.027582
# 3 -0.013861 -0.009959 0.019870 0.012817 -0.004124 -0.015218
# 4 -0.008305 0.002531 0.012817 0.065022 -0.003775 0.007657
# 5 -0.000513 0.005187 -0.004124 -0.003775 0.024938 0.004921
# 6 0.023517 0.027582 -0.015218 0.007657 0.004921 0.069908
#
#
# Mechanical properties :
#
#
# Convention : Reuss Voigt Hill
#
# Bulk Modulus (GPa) = 23.37213 46.46363 34.91788
# Shear Modulus (GPa) = 17.51789 29.74244 23.63017
#
# Velocity S-wave (km/s) = 2.94444 3.83663 3.41975
# Velocity P-wave (km/s) = 4.80901 6.52851 5.73359
#
# Compressibility (1/GPa) = 0.04278600
#
# Stress axis : x y z
#
# Youngs Moduli (GPa) = 37.06729 33.12239 50.32628
#
# Poissons Ratio (x) = -0.22170 0.69755
# Poissons Ratio (y) = -0.24811 0.50122
# Poissons Ratio (z) = 0.51378 0.32988
#
# Static dielectric constant tensor:
#      x y z
#    x 3.840040 -0.295790 0.244950 
#    y -0.295790 3.384650 -0.154990 
#    z 0.244950 -0.154990 3.932170 
# 
# 
# High freq. dielectric constant tensor:
#      x y z
#    x 1.782700 -0.028960 0.005180 
#    y -0.028960 1.747090 -0.015550 
#    z 0.005180 -0.015550 1.800930 
# 
# From -- ./inp_files/455522.got.cif
#   From: 2010.06.25/outbox.cif.g09.slc.cpg/sg2_228_cif.got.tgz:455522.got - 2010.06.27 13:26:56.
