data_PCOD8042760
_publ_section_title
;
Structure prediction by ZEFSAII (Michael W. Deem and Ramdas Pophale) SiO2 
 PCOD8042760
Probable space group: P -1
;
_chemical_formula_sum "Si O2"
_cell_formula_units_Z 16
_cell_length_a 14.621445
_cell_length_b 11.960304
_cell_length_c 15.606793
_cell_angle_alpha 47.480023
_cell_angle_beta 152.514749
_cell_angle_gamma 115.211201
_cell_volume 798.369897
_symmetry_space_group_name_H-M "P -1"
_symmetry_group_IT_number 2
_symmetry_cell_setting 'triclinic'
loop_
_space_group_symop_operation_xyz
x,y,z
-x,-y,-z
loop_
_atom_site_type_symbol
_atom_site_label
_atom_site_fract_x
_atom_site_fract_y
_atom_site_fract_z
Si Si1 0.124115 0.553611 0.145593
Si Si2 0.354987 0.585872 0.561976
Si Si3 0.860718 0.715042 0.010107
Si Si4 0.365101 0.326331 0.999249
Si Si5 0.577753 0.305043 0.751319
Si Si6 0.736614 0.072124 0.759872
Si Si7 0.240997 0.641155 0.625589
Si Si8 0.741693 0.952668 0.008584
O O1 0.358221 0.390431 0.461288
O O2 0.199547 0.690249 0.102974
O O3 0.926571 0.637096 0.010744
O O4 0.000000 0.500000 0.000000
O O5 0.512931 0.403412 0.737973
O O6 0.424063 0.732031 0.515290
O O7 0.388052 0.549045 0.709525
O O8 0.088269 0.670298 0.274854
O O9 0.736567 0.639388 0.006229
O O10 0.686804 0.927570 0.750385
O O11 0.619120 0.298386 0.228637
O O12 0.200474 0.499795 0.715879
O O13 0.389446 0.154497 0.060873
O O14 0.644215 0.100406 0.926660
O O15 0.700036 0.079378 0.827411
O O16 0.000000 0.000000 0.000000
O O17 0.006237 0.814176 0.316859
#
# Coordination Sequence:
#
# PCOD8042760 Si02
#       8
#     2   2   2   2   2   2   2   2
#     4  10  21  36  57  85 125 165 183 230 290 352
#     4  10  19  35  61  85 119 158 177 237 290 343
#     4   9  18  34  57  86 116 144 197 239 279 344
#     4  10  23  39  59  89 107 146 209 247 279 346
#     4  10  22  37  55  89 124 150 195 224 286 362
#     4   9  14  29  54  83 110 140 181 225 279 337
#     4  11  22  38  65  81 113 152 197 247 295 327
#     4  11  20  38  60  82 119 154 186 245 288 342
#
# _framework density 20.040835000000001
#
# number of rings (size 3 to 8) (size 9 to 14) (size 15 to 20)
#    0.000    2.000    3.750    3.375    1.750    1.000 
#    0.000    1.875    0.000    1.500    0.000    0.000 
#    0.000    0.000    0.000    0.000    0.000    0.000 
#
# Total GULP energy -198258.610496 kJ/mol
# GULP energy per Si atom -12391.163156 kJ/mol
# Density = 1.999522 g / cm^3
# Si number density = 20.040835 Si / 1000 Ang^3
#
#
#
# Elastic Constant Matrix: (Units=GPa)
#
#
# Indices 1 2 3 4 5 6 
#
# 1 73.9948 59.6343 29.2727 -15.5091 -9.1183 -6.9920
# 2 59.6343 144.6677 51.2531 -17.8470 2.4907 -10.6384
# 3 29.2727 51.2531 37.9051 -5.3308 -2.4737 -16.6671
# 4 -15.5091 -17.8470 -5.3308 32.4829 -2.5705 5.2994
# 5 -9.1183 2.4907 -2.4737 -2.5705 19.0568 -1.5949
# 6 -6.9920 -10.6384 -16.6671 5.2994 -1.5949 27.3605
#
#
#
# Elastic Compliance Matrix: (Units=1/GPa)
#
#
# Indices 1 2 3 4 5 6 
#
# 1 0.025961 -0.006074 -0.011367 0.008781 0.012622 -0.003617
# 2 -0.006074 0.017778 -0.023986 0.003961 -0.008690 -0.010525
# 3 -0.011367 -0.023986 0.085524 -0.010650 0.010923 0.042567
# 4 0.008781 0.003961 -0.010650 0.037488 0.006556 -0.009583
# 5 0.012622 -0.008690 0.010923 0.006556 0.062696 0.008886
# 6 -0.003617 -0.010525 0.042567 -0.009583 0.008886 0.059837
#
#
# Mechanical properties :
#
#
# Convention : Reuss Voigt Hill
#
# Bulk Modulus (GPa) = 21.54750 59.65419 40.60084
# Shear Modulus (GPa) = 12.89968 23.54055 18.22011
#
# Velocity S-wave (km/s) = 2.53982 3.43100 3.01848
# Velocity P-wave (km/s) = 4.40182 6.74734 5.69661
#
# Compressibility (1/GPa) = 0.04640910
#
# Stress axis : x y z
#
# Youngs Moduli (GPa) = 38.51948 56.24846 11.69269
#
# Poissons Ratio (x) = 0.34168 0.13291
# Poissons Ratio (y) = 0.23398 0.28046
# Poissons Ratio (z) = 0.43785 1.34915
#
# Static dielectric constant tensor:
#      x y z
#    x 3.682180 0.035230 -0.051970 
#    y 0.035230 3.949810 -0.196960 
#    z -0.051970 -0.196960 3.465850 
# 
# 
# High freq. dielectric constant tensor:
#      x y z
#    x 1.766050 -0.001030 0.001100 
#    y -0.001030 1.793030 0.003280 
#    z 0.001100 0.003280 1.760250 
# 
# From -- ./inp_files/532434.got.cif
#   From: 2010.06.25/outbox.cif.g09.slc.cpg/sg2_267_cif.got.tgz:532434.got - 2010.06.27 13:26:56.
