data_PCOD8042714
_publ_section_title
;
Structure prediction by ZEFSAII (Michael W. Deem and Ramdas Pophale) SiO2 
 PCOD8042714
Probable space group: P -1
;
_chemical_formula_sum "Si O2"
_cell_formula_units_Z 16
_cell_length_a 17.926650
_cell_length_b 10.769637
_cell_length_c 17.056310
_cell_angle_alpha 29.166832
_cell_angle_beta 30.537617
_cell_angle_gamma 33.210759
_cell_volume 766.388898
_symmetry_space_group_name_H-M "P -1"
_symmetry_group_IT_number 2
_symmetry_cell_setting 'triclinic'
loop_
_space_group_symop_operation_xyz
x,y,z
-x,-y,-z
loop_
_atom_site_type_symbol
_atom_site_label
_atom_site_fract_x
_atom_site_fract_y
_atom_site_fract_z
Si Si1 0.306020 0.663760 0.637230
Si Si2 0.620531 0.479541 0.099843
Si Si3 0.779905 0.693832 0.215368
Si Si4 0.641437 0.283608 0.029497
Si Si5 0.271770 0.100412 0.306184
Si Si6 0.396590 0.593203 0.383319
Si Si7 0.060110 0.572482 0.323478
Si Si8 0.907674 0.179768 0.110248
O O1 0.227078 0.499214 0.743465
O O2 0.469587 0.480936 0.628816
O O3 0.173154 0.796688 0.746415
O O4 0.336342 0.910335 0.428214
O O5 0.614839 0.261033 0.160175
O O6 0.473077 0.557219 0.248321
O O7 0.786776 0.364191 0.055746
O O8 0.611193 0.744828 0.911536
O O9 0.707533 0.599503 0.409986
O O10 0.668652 0.992687 0.127618
O O11 0.950336 0.703523 0.077014
O O12 0.500000 0.500000 0.000000
O O13 0.779445 0.388249 0.822804
O O14 0.099852 0.322145 0.362117
O O15 0.277148 0.900498 0.337564
O O16 0.000000 0.500000 0.500000
O O17 0.954208 0.860014 0.221719
#
# Coordination Sequence:
#
# PCOD8042714 Si02
#       8
#     2   2   2   2   2   2   2   2
#     4  10  20  36  65  87 120 162 203 244 293 361
#     4  10  23  40  62  86 121 161 201 247 304 361
#     4  10  21  36  60  89 124 154 202 246 297 352
#     4  10  24  38  60  90 120 156 199 255 301 352
#     4  10  19  35  60  89 117 151 205 242 288 355
#     4  10  22  38  62  90 119 165 199 247 300 353
#     4  10  20  36  63  88 120 156 203 243 290 361
#     4  10  21  40  60  92 120 162 199 246 304 350
#
# _framework density 20.877130999999999
#
# number of rings (size 3 to 8) (size 9 to 14) (size 15 to 20)
#    0.000    2.000    1.250    2.250    7.000    5.000 
#    0.000    5.000    0.000    0.000    0.000    0.000 
#    0.000    0.000    0.000    0.000    0.000    0.000 
#
# Total GULP energy -198209.415316 kJ/mol
# GULP energy per Si atom -12388.088457 kJ/mol
# Density = 2.082961 g / cm^3
# Si number density = 20.877131 Si / 1000 Ang^3
#
#
#
# Elastic Constant Matrix: (Units=GPa)
#
#
# Indices 1 2 3 4 5 6 
#
# 1 66.0625 36.3137 33.8098 2.5464 10.6724 7.4693
# 2 36.3137 143.3645 59.5600 2.8750 -1.2894 17.3158
# 3 33.8098 59.5600 122.0275 9.3362 18.0224 4.9732
# 4 2.5464 2.8750 9.3362 33.0382 8.1859 5.4447
# 5 10.6724 -1.2894 18.0224 8.1859 27.8654 4.8027
# 6 7.4693 17.3158 4.9732 5.4447 4.8027 13.8892
#
#
#
# Elastic Compliance Matrix: (Units=1/GPa)
#
#
# Indices 1 2 3 4 5 6 
#
# 1 0.019820 -0.003370 -0.002979 0.001673 -0.005603 -0.004108
# 2 -0.003370 0.011837 -0.005464 0.001248 0.007426 -0.014046
# 3 -0.002979 -0.005464 0.012728 -0.002139 -0.008002 0.007462
# 4 0.001673 0.001248 -0.002139 0.034505 -0.007139 -0.012748
# 5 -0.005603 0.007426 -0.008002 -0.007139 0.048648 -0.017404
# 6 -0.004108 -0.014046 0.007462 -0.012748 -0.017404 0.100063
#
#
# Mechanical properties :
#
#
# Convention : Reuss Voigt Hill
#
# Bulk Modulus (GPa) = 48.17259 65.64683 56.90971
# Shear Modulus (GPa) = 19.36880 28.40994 23.88937
#
# Velocity S-wave (km/s) = 3.04921 3.69293 3.38640
# Velocity P-wave (km/s) = 5.95998 7.04956 6.52754
#
# Compressibility (1/GPa) = 0.02075869
#
# Stress axis : x y z
#
# Youngs Moduli (GPa) = 50.45451 84.48120 78.56448
#
# Poissons Ratio (x) = 0.28472 0.23408
# Poissons Ratio (y) = 0.17004 0.42924
# Poissons Ratio (z) = 0.15033 0.46157
#
# Static dielectric constant tensor:
#      x y z
#    x 3.777100 0.158510 0.092110 
#    y 0.158510 4.370810 -0.099640 
#    z 0.092110 -0.099640 3.880030 
# 
# 
# High freq. dielectric constant tensor:
#      x y z
#    x 1.784050 0.021120 0.015120 
#    y 0.021120 1.838330 -0.001180 
#    z 0.015120 -0.001180 1.828150 
# 
# From -- ./inp_files/575917.got.cif
#   From: 2010.06.25/outbox.cif.g09.slc.cpg/sg2_288_cif.got.tgz:575917.got - 2010.06.27 13:26:56.
