data_PCOD8042675
_publ_section_title
;
Structure prediction by ZEFSAII (Michael W. Deem and Ramdas Pophale) SiO2 
 PCOD8042675
Probable space group: P -1
;
_chemical_formula_sum "Si O2"
_cell_formula_units_Z 16
_cell_length_a 13.345446
_cell_length_b 7.822725
_cell_length_c 8.643490
_cell_angle_alpha 107.270482
_cell_angle_beta 87.572364
_cell_angle_gamma 52.631552
_cell_volume 654.710898
_symmetry_space_group_name_H-M "P -1"
_symmetry_group_IT_number 2
_symmetry_cell_setting 'triclinic'
loop_
_space_group_symop_operation_xyz
x,y,z
-x,-y,-z
loop_
_atom_site_type_symbol
_atom_site_label
_atom_site_fract_x
_atom_site_fract_y
_atom_site_fract_z
Si Si1 0.985351 0.782280 0.638123
Si Si2 0.224465 0.686322 0.926457
Si Si3 0.972010 0.456167 0.730808
Si Si4 0.477222 0.284948 0.634593
Si Si5 0.505566 0.906232 0.723704
Si Si6 0.685012 0.176601 0.800839
Si Si7 0.036796 0.106948 0.864600
Si Si8 0.316894 0.142043 0.066931
O O1 0.031194 0.578182 0.705718
O O2 0.055140 0.646914 0.437633
O O3 0.827855 0.953646 0.665152
O O4 0.032705 0.923055 0.722425
O O5 0.323081 0.490224 0.741503
O O6 0.304513 0.643190 0.065557
O O7 0.101295 0.701082 0.983053
O O8 0.157752 0.949300 0.935383
O O9 0.065818 0.242282 0.788710
O O10 0.837159 0.648533 0.880241
O O11 0.490170 0.268866 0.441591
O O12 0.575865 0.321370 0.710111
O O13 0.530642 0.042277 0.643248
O O14 0.618316 0.770533 0.812593
O O15 0.366758 0.082270 0.870084
O O16 0.639017 0.090279 0.912031
#
# Coordination Sequence:
#
# PCOD8042675 Si02
#       8
#     2   2   2   2   2   2   2   2
#     4   9  20  37  59  91 121 159 204 249 300 361
#     4  10  21  37  58  85 121 159 201 248 306 361
#     4  10  19  36  64  88 119 166 197 244 313 359
#     4  10  19  35  60  83 113 159 198 247 306 355
#     4   9  19  34  55  90 114 148 202 251 299 360
#     4   9  19  38  57  79 120 160 195 251 304 354
#     4  10  21  38  58  91 125 157 201 253 296 366
#     4   9  18  35  58  83 121 151 197 252 300 362
#
# _framework density 24.438268000000001
#
# number of rings (size 3 to 8) (size 9 to 14) (size 15 to 20)
#    0.000    2.500    0.000    1.500    1.750    0.000 
#    4.500   10.625    0.000    0.000    0.000    0.000 
#    0.000    0.000    0.000    0.000    0.000    0.000 
#
# Total GULP energy -198297.647083 kJ/mol
# GULP energy per Si atom -12393.602943 kJ/mol
# Density = 2.438264 g / cm^3
# Si number density = 24.438268 Si / 1000 Ang^3
#
#
#
# Elastic Constant Matrix: (Units=GPa)
#
#
# Indices 1 2 3 4 5 6 
#
# 1 33.2105 6.1767 21.7940 -0.8782 15.7051 -11.7522
# 2 6.1767 71.7437 18.7554 -13.0400 -1.7306 2.5255
# 3 21.7940 18.7554 155.0383 6.5632 14.7637 -6.6091
# 4 -0.8782 -13.0400 6.5632 32.9452 3.8084 -1.1523
# 5 15.7051 -1.7306 14.7637 3.8084 29.0769 -6.6763
# 6 -11.7522 2.5255 -6.6091 -1.1523 -6.6763 19.1320
#
#
#
# Elastic Compliance Matrix: (Units=1/GPa)
#
#
# Indices 1 2 3 4 5 6 
#
# 1 0.052190 -0.004124 -0.003937 0.003860 -0.021431 0.023997
# 2 -0.004124 0.016176 -0.002053 0.006272 0.002460 -0.004142
# 3 -0.003937 -0.002053 0.007485 -0.002237 -0.001558 -0.000240
# 4 0.003860 0.006272 -0.002237 0.033975 -0.004760 0.001155
# 5 -0.021431 0.002460 -0.001558 -0.004760 0.048095 0.002469
# 6 0.023997 -0.004142 -0.000240 0.001155 0.002469 0.068404
#
#
# Mechanical properties :
#
#
# Convention : Reuss Voigt Hill
#
# Bulk Modulus (GPa) = 17.97878 39.27164 28.62521
# Shear Modulus (GPa) = 18.86117 30.44859 24.65488
#
# Velocity S-wave (km/s) = 2.78112 3.53362 3.17971
# Velocity P-wave (km/s) = 4.20543 5.72304 5.02189
#
# Compressibility (1/GPa) = 0.05562112
#
# Stress axis : x y z
#
# Youngs Moduli (GPa) = 19.16063 61.82170 133.60543
#
# Poissons Ratio (x) = 0.25496 0.52603
# Poissons Ratio (y) = 0.07902 0.27435
# Poissons Ratio (z) = 0.07544 0.12695
#
# Static dielectric constant tensor:
#      x y z
#    x 4.262370 -0.091500 0.191890 
#    y -0.091500 4.195000 -0.127690 
#    z 0.191890 -0.127690 4.569550 
# 
# 
# High freq. dielectric constant tensor:
#      x y z
#    x 1.950890 -0.005640 0.010950 
#    y -0.005640 1.948020 -0.000380 
#    z 0.010950 -0.000380 1.979370 
# 
# From -- ./inp_files/298819.got.cif
#   From: 2010.06.25/outbox.cif.g09.slc.cpg/sg2_150_cif.got.tgz:298819.got - 2010.06.27 13:26:56.
