data_PCOD8042581
_publ_section_title
;
Structure prediction by ZEFSAII (Michael W. Deem and Ramdas Pophale) SiO2 
 PCOD8042581
Probable space group: P -1
;
_chemical_formula_sum "Si O2"
_cell_formula_units_Z 16
_cell_length_a 16.277133
_cell_length_b 8.955872
_cell_length_c 9.600270
_cell_angle_alpha 57.331459
_cell_angle_beta 100.882106
_cell_angle_gamma 60.788002
_cell_volume 810.430389
_symmetry_space_group_name_H-M "P -1"
_symmetry_group_IT_number 2
_symmetry_cell_setting 'triclinic'
loop_
_space_group_symop_operation_xyz
x,y,z
-x,-y,-z
loop_
_atom_site_type_symbol
_atom_site_label
_atom_site_fract_x
_atom_site_fract_y
_atom_site_fract_z
Si Si1 0.530773 0.222152 0.517400
Si Si2 0.847418 0.880770 0.506395
Si Si3 0.118622 0.471149 0.778046
Si Si4 0.276078 0.574652 0.764079
Si Si5 0.258677 0.991853 0.883228
Si Si6 0.209347 0.311084 0.187676
Si Si7 0.514575 0.656120 0.246883
Si Si8 0.695966 0.471819 0.882122
O O1 0.552151 0.395410 0.404168
O O2 0.493924 0.243570 0.654475
O O3 0.429125 0.296242 0.348682
O O4 0.652726 0.938006 0.670566
O O5 0.849270 0.718428 0.697890
O O6 0.980498 0.716606 0.577073
O O7 0.797704 0.133896 0.434788
O O8 0.764634 0.946182 0.318810
O O9 0.191181 0.536656 0.727337
O O10 0.160343 0.241871 0.815567
O O11 0.132879 0.397723 0.980783
O O12 0.385493 0.392331 0.784202
O O13 0.327888 0.497049 0.975723
O O14 0.389655 0.868110 0.020515
O O15 0.250708 0.795478 0.019773
O O16 0.207230 0.521851 0.126024
#
# Coordination Sequence:
#
# PCOD8042581 Si02
#       8
#     2   2   2   2   2   2   2   2
#     4  10  19  35  58  88 123 149 185 233 298 346
#     4  11  23  39  63  84 116 155 199 238 282 338
#     4  11  23  42  58  85 118 158 195 237 282 343
#     4  10  22  39  62  88 115 150 197 239 289 339
#     4  10  22  40  59  84 120 152 190 241 290 340
#     4  11  21  39  58  88 114 156 195 235 285 344
#     4  10  20  36  61  90 117 151 185 241 294 347
#     4   9  22  36  58  86 120 150 188 239 289 346
#
# _framework density 19.742595999999999
#
# number of rings (size 3 to 8) (size 9 to 14) (size 15 to 20)
#    0.000    1.750    2.500    1.500    1.750    3.000 
#    0.000    0.625    0.000    0.000    0.000    0.000 
#    0.000    0.000    0.000    0.000    0.000    0.000 
#
# Total GULP energy -198469.884689 kJ/mol
# GULP energy per Si atom -12404.367793 kJ/mol
# Density = 1.969766 g / cm^3
# Si number density = 19.742596 Si / 1000 Ang^3
#
#
#
# Elastic Constant Matrix: (Units=GPa)
#
#
# Indices 1 2 3 4 5 6 
#
# 1 95.8834 41.4037 33.2107 11.0463 -11.0110 -13.2660
# 2 41.4037 76.5892 18.6713 -6.1494 5.3659 -6.3913
# 3 33.2107 18.6713 72.9740 7.1597 -1.5842 -10.9552
# 4 11.0463 -6.1494 7.1597 24.4968 -3.6473 1.8792
# 5 -11.0110 5.3659 -1.5842 -3.6473 24.6592 -4.6375
# 6 -13.2660 -6.3913 -10.9552 1.8792 -4.6375 24.2214
#
#
#
# Elastic Compliance Matrix: (Units=1/GPa)
#
#
# Indices 1 2 3 4 5 6 
#
# 1 0.020103 -0.010734 -0.003795 -0.009673 0.011405 0.009395
# 2 -0.010734 0.020413 -0.002037 0.009562 -0.008669 -0.003815
# 3 -0.003795 -0.002037 0.017203 -0.004213 0.000273 0.005544
# 4 -0.009673 0.009562 -0.004213 0.049332 -0.001010 -0.008701
# 5 0.011405 -0.008669 0.000273 -0.001010 0.049982 0.013730
# 6 0.009395 -0.003815 0.005544 -0.008701 0.013730 0.051236
#
#
# Mechanical properties :
#
#
# Convention : Reuss Voigt Hill
#
# Bulk Modulus (GPa) = 40.67260 48.00201 44.33730
# Shear Modulus (GPa) = 20.03230 24.81955 22.42593
#
# Velocity S-wave (km/s) = 3.18885 3.54949 3.37399
# Velocity P-wave (km/s) = 5.84846 6.41601 6.13880
#
# Compressibility (1/GPa) = 0.02458658
#
# Stress axis : x y z
#
# Youngs Moduli (GPa) = 49.74410 48.98932 58.12775
#
# Poissons Ratio (x) = 0.52585 0.22062
# Poissons Ratio (y) = 0.53395 0.11840
# Poissons Ratio (z) = 0.18880 0.09979
#
# Static dielectric constant tensor:
#      x y z
#    x 3.502770 0.211770 -0.012370 
#    y 0.211770 3.548380 -0.019770 
#    z -0.012370 -0.019770 3.731430 
# 
# 
# High freq. dielectric constant tensor:
#      x y z
#    x 1.762320 0.013240 0.000460 
#    y 0.013240 1.765300 -0.002040 
#    z 0.000460 -0.002040 1.781400 
# 
# From -- ./inp_files/170228.got.cif
#   From: 2010.06.25/outbox.cif.g09.slc.cpg/sg2_86_cif.got.tgz:170228.got - 2010.06.27 13:26:56.
