data_PCOD8042110
_publ_section_title
;
Structure prediction by ZEFSAII (Michael W. Deem and Ramdas Pophale) SiO2 
 PCOD8042110
Probable space group: P -1
;
_chemical_formula_sum "Si O2"
_cell_formula_units_Z 14
_cell_length_a 10.945582
_cell_length_b 12.316879
_cell_length_c 17.009169
_cell_angle_alpha 31.750345
_cell_angle_beta 40.312833
_cell_angle_gamma 61.694571
_cell_volume 670.675465
_symmetry_space_group_name_H-M "P -1"
_symmetry_group_IT_number 2
_symmetry_cell_setting 'triclinic'
loop_
_space_group_symop_operation_xyz
x,y,z
-x,-y,-z
loop_
_atom_site_type_symbol
_atom_site_label
_atom_site_fract_x
_atom_site_fract_y
_atom_site_fract_z
Si Si1 0.811524 0.154708 0.732871
Si Si2 0.724416 0.851356 0.814798
Si Si3 0.059100 0.883599 0.137203
Si Si4 0.775766 0.427087 0.807566
Si Si5 0.017925 0.324833 0.291066
Si Si6 0.782522 0.590976 0.254190
Si Si7 0.621397 0.445766 0.590563
O O1 0.810451 0.070796 0.873005
O O2 0.621183 0.224717 0.771895
O O3 0.049169 0.390598 0.454172
O O4 0.769176 0.940094 0.827724
O O5 0.856515 0.713040 0.819164
O O6 0.467981 0.663405 0.045673
O O7 0.807925 0.071382 0.576968
O O8 0.173665 0.790548 0.076221
O O9 0.800507 0.695232 0.388805
O O10 0.088735 0.137963 0.940491
O O11 0.811906 0.557308 0.792908
O O12 0.938944 0.507306 0.189289
O O13 0.671870 0.421637 0.488808
O O14 0.610855 0.566014 0.286522
#
# Coordination Sequence:
#
# PCOD8042110 Si02
#       7
#     2   2   2   2   2   2   2
#     4  10  21  39  54  84 112 143 187 219 264 334
#     4  10  20  36  58  77 107 150 184 226 264 314
#     4  11  22  34  58  83 116 143 173 228 278 324
#     4  10  19  34  58  81 107 142 185 225 271 319
#     4  10  21  36  53  83 112 138 188 228 264 321
#     4  11  21  34  55  84 114 141 177 226 281 321
#     4  10  20  35  55  82 114 141 180 224 273 327
#
# _framework density 20.874478
#
# number of rings (size 3 to 8) (size 9 to 14) (size 15 to 20)
#    0.000    1.714    4.286    3.429    2.000    3.429 
#    0.000    0.714    0.000    1.714    0.000    0.000 
#    0.000    0.000    0.000    0.000    0.000    0.000 
#
# Total GULP energy -173615.960312 kJ/mol
# GULP energy per Si atom -12401.140022 kJ/mol
# Density = 2.082697 g / cm^3
# Si number density = 20.874478 Si / 1000 Ang^3
#
#
#
# Elastic Constant Matrix: (Units=GPa)
#
#
# Indices 1 2 3 4 5 6 
#
# 1 61.2916 15.7033 14.2538 -4.6855 -10.4151 -9.7322
# 2 15.7033 110.7235 14.1158 -20.8846 -2.9776 -17.8827
# 3 14.2538 14.1158 23.3169 -14.8464 -11.1053 -9.8484
# 4 -4.6855 -20.8846 -14.8464 23.1901 -1.6171 2.5926
# 5 -10.4151 -2.9776 -11.1053 -1.6171 39.1379 -0.4596
# 6 -9.7322 -17.8827 -9.8484 2.5926 -0.4596 31.8639
#
#
#
# Elastic Compliance Matrix: (Units=1/GPa)
#
#
# Indices 1 2 3 4 5 6 
#
# 1 0.020061 -0.002224 -0.015306 -0.007801 0.000513 0.000791
# 2 -0.002224 0.012608 0.009110 0.016107 0.003711 0.007956
# 3 -0.015306 0.009110 0.143249 0.095528 0.041654 0.037541
# 4 -0.007801 0.016107 0.095528 0.116360 0.031382 0.027167
# 5 0.000513 0.003711 0.041654 0.031382 0.039240 0.013127
# 6 0.000791 0.007956 0.037541 0.027167 0.013127 0.045672
#
#
# Mechanical properties :
#
#
# Convention : Reuss Voigt Hill
#
# Bulk Modulus (GPa) = 6.28617 31.49753 18.89185
# Shear Modulus (GPa) = 11.18433 28.92233 20.05333
#
# Velocity S-wave (km/s) = 2.31722 3.72632 3.10282
# Velocity P-wave (km/s) = 3.19019 5.79963 4.68044
#
# Compressibility (1/GPa) = 0.15907928
#
# Stress axis : x y z
#
# Youngs Moduli (GPa) = 49.84777 79.31284 6.98087
#
# Poissons Ratio (x) = 0.17637 0.10685
# Poissons Ratio (y) = 0.11085 -0.06360
# Poissons Ratio (z) = 0.76295 -0.72255
#
# Static dielectric constant tensor:
#      x y z
#    x 3.752990 -0.121920 -0.195620 
#    y -0.121920 3.734680 -0.205010 
#    z -0.195620 -0.205010 3.753470 
# 
# 
# High freq. dielectric constant tensor:
#      x y z
#    x 1.815560 -0.005760 -0.021720 
#    y -0.005760 1.797000 -0.019920 
#    z -0.021720 -0.019920 1.815050 
# 
# From -- ./inp_files/272496.got.cif
#   From: 2010.06.25/outbox.cif.g09.slc.cpg/sg2_137_cif.got.tgz:272496.got - 2010.06.27 13:26:56.
