data_PCOD8042357
_publ_section_title
;
Structure prediction by ZEFSAII (Michael W. Deem and Ramdas Pophale) SiO2 
 PCOD8042357
Probable space group: P -1
;
_chemical_formula_sum "Si O2"
_cell_formula_units_Z 14
_cell_length_a 10.052200
_cell_length_b 10.323854
_cell_length_c 13.103881
_cell_angle_alpha 66.606889
_cell_angle_beta 117.738355
_cell_angle_gamma 139.540424
_cell_volume 778.855242
_symmetry_space_group_name_H-M "P -1"
_symmetry_group_IT_number 2
_symmetry_cell_setting 'triclinic'
loop_
_space_group_symop_operation_xyz
x,y,z
-x,-y,-z
loop_
_atom_site_type_symbol
_atom_site_label
_atom_site_fract_x
_atom_site_fract_y
_atom_site_fract_z
Si Si1 0.368446 0.349766 0.854702
Si Si2 0.255572 0.525610 0.646190
Si Si3 0.770794 0.047556 0.035053
Si Si4 0.788128 0.269494 0.574178
Si Si5 0.309278 0.797516 0.864769
Si Si6 0.601447 0.105612 0.351211
Si Si7 0.801233 0.588907 0.034701
O O1 0.336323 0.418068 0.716406
O O2 0.266900 0.377865 0.897670
O O3 0.241470 0.119013 0.873022
O O4 0.619669 0.492758 0.914379
O O5 0.235406 0.576672 0.507505
O O6 0.417814 0.734981 0.702806
O O7 0.022255 0.385573 0.659111
O O8 0.794158 0.170025 0.098883
O O9 0.975822 0.199265 0.989346
O O10 0.560203 0.938347 0.928459
O O11 0.736724 0.149589 0.486686
O O12 0.630452 0.120677 0.655081
O O13 0.289027 0.861922 0.727279
O O14 0.177201 0.564127 0.891190
#
# Coordination Sequence:
#
# PCOD8042357 Si02
#       7
#     2   2   2   2   2   2   2
#     4  10  20  31  51  75 103 127 165 208 250 292
#     4   9  16  31  48  75  98 120 158 212 248 286
#     4  10  22  34  47  77 103 136 165 201 241 304
#     4   8  17  29  50  79  95 119 166 214 245 281
#     4  10  20  34  53  71 104 133 171 198 241 300
#     4   9  16  30  49  75  94 124 162 206 244 285
#     4  10  19  35  49  73 100 135 169 204 238 299
#
# _framework density 17.975099
#
# number of rings (size 3 to 8) (size 9 to 14) (size 15 to 20)
#    0.857    1.714    1.429    0.857    2.000    1.143 
#    0.000    0.000    0.000    1.714    0.000    0.000 
#    0.000    0.000    0.000    0.000    0.000    0.000 
#
# Total GULP energy -173442.431212 kJ/mol
# GULP energy per Si atom -12388.745087 kJ/mol
# Density = 1.793419 g / cm^3
# Si number density = 17.975099 Si / 1000 Ang^3
#
#
#
# Elastic Constant Matrix: (Units=GPa)
#
#
# Indices 1 2 3 4 5 6 
#
# 1 40.4046 27.2128 9.7157 -8.4405 2.9312 -2.2636
# 2 27.2128 90.2927 11.6753 -23.5173 7.7950 6.7879
# 3 9.7157 11.6753 57.5025 -12.2189 7.4680 0.7985
# 4 -8.4405 -23.5173 -12.2189 19.4439 -3.6200 -3.7212
# 5 2.9312 7.7950 7.4680 -3.6200 19.0451 -1.8545
# 6 -2.2636 6.7879 0.7985 -3.7212 -1.8545 33.0368
#
#
#
# Elastic Compliance Matrix: (Units=1/GPa)
#
#
# Indices 1 2 3 4 5 6 
#
# 1 0.032358 -0.009282 -0.003400 0.001704 0.000909 0.004449
# 2 -0.009282 0.019152 0.002339 0.019368 -0.003906 -0.002665
# 3 -0.003400 0.002339 0.021159 0.013491 -0.006172 -0.000052
# 4 0.001704 0.019368 0.013491 0.085786 0.003377 0.005664
# 5 0.000909 -0.003906 -0.006172 0.003377 0.057478 0.004621
# 6 0.004449 -0.002665 -0.000052 0.005664 0.004621 0.032020
#
#
# Mechanical properties :
#
#
# Convention : Reuss Voigt Hill
#
# Bulk Modulus (GPa) = 19.23671 31.71192 25.47432
# Shear Modulus (GPa) = 17.48459 23.61155 20.54807
#
# Velocity S-wave (km/s) = 3.12222 3.62825 3.38470
# Velocity P-wave (km/s) = 4.87060 5.93572 5.42934
#
# Compressibility (1/GPa) = 0.05198394
#
# Stress axis : x y z
#
# Youngs Moduli (GPa) = 30.90442 52.21390 47.26092
#
# Poissons Ratio (x) = 0.48462 0.16071
# Poissons Ratio (y) = 0.28684 -0.11056
# Poissons Ratio (z) = 0.10509 -0.12215
#
# Static dielectric constant tensor:
#      x y z
#    x 2.953410 0.058160 0.073000 
#    y 0.058160 3.418520 -0.143410 
#    z 0.073000 -0.143410 3.237560 
# 
# 
# High freq. dielectric constant tensor:
#      x y z
#    x 1.648310 0.017430 0.001800 
#    y 0.017430 1.706440 -0.013630 
#    z 0.001800 -0.013630 1.687990 
# 
# From -- ./inp_files/352408.got.cif
#   From: 2010.06.25/outbox.cif.g09.slc.cpg/sg2_177_cif.got.tgz:352408.got - 2010.06.27 13:26:56.
