data_PCOD8042068
_publ_section_title
;
Structure prediction by ZEFSAII (Michael W. Deem and Ramdas Pophale) SiO2 
 PCOD8042068
Probable space group: P -1
;
_chemical_formula_sum "Si O2"
_cell_formula_units_Z 16
_cell_length_a 7.467347
_cell_length_b 7.493815
_cell_length_c 17.218880
_cell_angle_alpha 115.603998
_cell_angle_beta 51.098591
_cell_angle_gamma 118.889213
_cell_volume 644.716266
_symmetry_space_group_name_H-M "P -1"
_symmetry_group_IT_number 2
_symmetry_cell_setting 'triclinic'
loop_
_space_group_symop_operation_xyz
x,y,z
-x,-y,-z
loop_
_atom_site_type_symbol
_atom_site_label
_atom_site_fract_x
_atom_site_fract_y
_atom_site_fract_z
Si Si1 0.999514 0.798665 0.568919
Si Si2 0.582315 0.066412 0.784948
Si Si3 0.250424 0.521282 0.537148
Si Si4 0.180614 0.268932 0.890271
Si Si5 0.597448 0.901505 0.582946
Si Si6 0.852063 0.934151 0.290412
Si Si7 0.792577 0.310021 0.117057
Si Si8 0.060078 0.411763 0.730889
O O1 0.150159 0.646453 0.524371
O O2 0.775761 0.689275 0.549436
O O3 0.175427 0.984606 0.508013
O O4 0.931254 0.905450 0.686386
O O5 0.417911 0.211027 0.835646
O O6 0.812645 0.236853 0.791476
O O7 0.655765 0.954237 0.668130
O O8 0.445237 0.887622 0.849495
O O9 0.513049 0.656002 0.528527
O O10 0.061724 0.468421 0.650630
O O11 0.046403 0.108730 0.828630
O O12 0.262695 0.506889 0.882491
O O13 0.001648 0.237549 0.005396
O O14 0.362583 0.966349 0.637292
O O15 0.745355 0.710129 0.322069
O O16 0.887823 0.381817 0.192146
#
# Coordination Sequence:
#
# PCOD8042068 Si02
#       8
#     2   2   2   2   2   2   2   2
#     4  10  20  37  59  81 114 159 198 239 293 351
#     4  11  21  39  63  89 122 156 197 243 300 351
#     4  10  19  34  57  82 113 152 194 241 291 342
#     4   9  21  41  65  88 119 158 199 240 299 362
#     4  10  19  39  59  81 114 160 196 239 296 355
#     4   9  20  37  57  82 119 151 190 248 288 341
#     4  10  21  43  64  88 122 154 194 252 298 344
#     4  11  22  38  57  89 122 149 201 247 287 362
#
# _framework density 24.817119000000002
#
# number of rings (size 3 to 8) (size 9 to 14) (size 15 to 20)
#    0.000    2.000    2.500    1.875    0.000    1.000 
#    4.500   10.625    0.000    0.000    0.000    0.000 
#    0.000    0.000    0.000    0.000    0.000    0.000 
#
# Total GULP energy -198330.497713 kJ/mol
# GULP energy per Si atom -12395.656107 kJ/mol
# Density = 2.476063 g / cm^3
# Si number density = 24.817119 Si / 1000 Ang^3
#
#
#
# Elastic Constant Matrix: (Units=GPa)
#
#
# Indices 1 2 3 4 5 6 
#
# 1 107.2830 48.1770 24.3671 13.6862 16.4970 16.3910
# 2 48.1770 139.4554 39.3662 -2.4517 -5.2487 7.9542
# 3 24.3671 39.3662 101.8197 17.7784 1.3479 -5.8003
# 4 13.6862 -2.4517 17.7784 47.3058 0.5892 3.2956
# 5 16.4970 -5.2487 1.3479 0.5892 24.4627 6.8670
# 6 16.3910 7.9542 -5.8003 3.2956 6.8670 40.3901
#
#
#
# Elastic Compliance Matrix: (Units=1/GPa)
#
#
# Indices 1 2 3 4 5 6 
#
# 1 0.014112 -0.004881 -0.000890 -0.003675 -0.009595 -0.002962
# 2 -0.004881 0.010261 -0.003570 0.003339 0.006133 -0.001868
# 3 -0.000890 -0.003570 0.012485 -0.004845 -0.001732 0.003547
# 4 -0.003675 0.003339 -0.004845 0.024323 0.003564 -0.002453
# 5 -0.009595 0.006133 -0.001732 0.003564 0.050481 -0.006437
# 6 -0.002962 -0.001868 0.003547 -0.002453 -0.006437 0.028132
#
#
# Mechanical properties :
#
#
# Convention : Reuss Voigt Hill
#
# Bulk Modulus (GPa) = 55.01472 63.59764 59.30618
# Shear Modulus (GPa) = 30.38873 38.20823 34.29848
#
# Velocity S-wave (km/s) = 3.50309 3.92802 3.72163
# Velocity P-wave (km/s) = 6.21115 6.80107 6.51279
#
# Compressibility (1/GPa) = 0.01817695
#
# Stress axis : x y z
#
# Youngs Moduli (GPa) = 70.86209 97.46037 80.09313
#
# Poissons Ratio (x) = 0.47567 0.07130
# Poissons Ratio (y) = 0.34585 0.28590
# Poissons Ratio (z) = 0.06308 0.34790
#
# Static dielectric constant tensor:
#      x y z
#    x 4.916630 -0.171850 0.188600 
#    y -0.171850 4.937700 0.489280 
#    z 0.188600 0.489280 4.518130 
# 
# 
# High freq. dielectric constant tensor:
#      x y z
#    x 2.026310 -0.024140 0.004940 
#    y -0.024140 2.009970 0.033830 
#    z 0.004940 0.033830 1.975810 
# 
# From -- ./inp_files/557440.got.cif
#   From: 2010.06.25/outbox.cif.g09.slc.cpg/sg2_279_cif.got.tgz:557440.got - 2010.06.27 13:26:56.
