data_PCOD8042491
_publ_section_title
;
Structure prediction by ZEFSAII (Michael W. Deem and Ramdas Pophale) SiO2 
 PCOD8042491
Probable space group: P -1
;
_chemical_formula_sum "Si O2"
_cell_formula_units_Z 14
_cell_length_a 11.536837
_cell_length_b 15.532000
_cell_length_c 7.057919
_cell_angle_alpha 69.974722
_cell_angle_beta 72.074346
_cell_angle_gamma 28.959797
_cell_volume 575.251656
_symmetry_space_group_name_H-M "P -1"
_symmetry_group_IT_number 2
_symmetry_cell_setting 'triclinic'
loop_
_space_group_symop_operation_xyz
x,y,z
-x,-y,-z
loop_
_atom_site_type_symbol
_atom_site_label
_atom_site_fract_x
_atom_site_fract_y
_atom_site_fract_z
Si Si1 0.871514 0.249659 0.511383
Si Si2 0.670112 0.015664 0.325254
Si Si3 0.432470 0.086080 0.766378
Si Si4 0.496965 0.379513 0.430982
Si Si5 0.694590 0.603719 0.799146
Si Si6 0.947150 0.697144 0.842563
Si Si7 0.172591 0.431903 0.638866
O O1 0.770440 0.224590 0.472902
O O2 0.658059 0.428493 0.610381
O O3 0.963134 0.263388 0.302677
O O4 0.087799 0.085555 0.669340
O O5 0.564167 0.046959 0.551464
O O6 0.727683 0.894818 0.244637
O O7 0.485303 0.203612 0.173477
O O8 0.669843 0.892367 0.915943
O O9 0.261888 0.276381 0.796667
O O10 0.472117 0.367326 0.231503
O O11 0.390713 0.363236 0.619384
O O12 0.868996 0.537777 0.596288
O O13 0.868788 0.452521 0.979872
O O14 0.947520 0.619080 0.732833
#
# Coordination Sequence:
#
# PCOD8042491 Si02
#       7
#     2   2   2   2   2   2   2
#     4   9  17  34  59  76 107 149 179 224 278 320
#     4   9  18  34  54  80 110 141 185 228 265 327
#     4   9  18  36  54  81 113 142 187 225 265 334
#     4   8  17  34  55  80 108 139 187 223 269 333
#     4   9  19  35  52  83 113 137 187 223 269 335
#     4  10  19  35  57  81 113 146 178 226 276 321
#     4   8  18  38  54  80 113 143 180 227 272 322
#
# _framework density 24.337171999999999
#
# number of rings (size 3 to 8) (size 9 to 14) (size 15 to 20)
#    0.857    2.286    0.000    0.000    0.000    1.714 
#    5.143    4.286    0.000    2.571    0.000    0.000 
#    0.000    0.000    0.000    0.000    0.000    0.000 
#
# Total GULP energy -173515.225794 kJ/mol
# GULP energy per Si atom -12393.944700 kJ/mol
# Density = 2.428178 g / cm^3
# Si number density = 24.337172 Si / 1000 Ang^3
#
#
#
# Elastic Constant Matrix: (Units=GPa)
#
#
# Indices 1 2 3 4 5 6 
#
# 1 89.7350 61.7820 31.9135 -15.7668 24.0131 -3.8897
# 2 61.7820 130.8857 38.8691 -14.3969 4.6053 3.9833
# 3 31.9135 38.8691 79.6042 -31.5759 15.2259 1.4645
# 4 -15.7668 -14.3969 -31.5759 38.4097 -0.3011 6.7761
# 5 24.0131 4.6053 15.2259 -0.3011 29.4680 -4.4073
# 6 -3.8897 3.9833 1.4645 6.7761 -4.4073 36.9258
#
#
#
# Elastic Compliance Matrix: (Units=1/GPa)
#
#
# Indices 1 2 3 4 5 6 
#
# 1 0.023964 -0.010438 0.002081 0.007498 -0.018905 -0.000065
# 2 -0.010438 0.013527 -0.005615 -0.003658 0.009170 -0.000570
# 3 0.002081 -0.005615 0.025588 0.020682 -0.014686 -0.005738
# 4 0.007498 -0.003658 0.020682 0.046411 -0.017279 -0.010215
# 5 -0.018905 0.009170 -0.014686 -0.017279 0.056442 0.007509
# 6 -0.000065 -0.000570 -0.005738 -0.010215 0.007509 0.030134
#
#
# Mechanical properties :
#
#
# Convention : Reuss Voigt Hill
#
# Bulk Modulus (GPa) = 28.46129 62.81713 45.63921
# Shear Modulus (GPa) = 21.21152 32.13805 26.67478
#
# Velocity S-wave (km/s) = 2.95544 3.63786 3.31426
# Velocity P-wave (km/s) = 4.83385 6.59640 5.78268
#
# Compressibility (1/GPa) = 0.03513544
#
# Stress axis : x y z
#
# Youngs Moduli (GPa) = 41.72964 73.92666 39.08104
#
# Poissons Ratio (x) = 0.77162 -0.08132
# Poissons Ratio (y) = 0.43556 0.21943
# Poissons Ratio (z) = -0.08683 0.41508
#
# Static dielectric constant tensor:
#      x y z
#    x 4.680110 0.092740 0.160070 
#    y 0.092740 4.796700 -0.053320 
#    z 0.160070 -0.053320 4.317710 
# 
# 
# High freq. dielectric constant tensor:
#      x y z
#    x 1.975050 -0.000700 0.015530 
#    y -0.000700 1.975000 -0.010390 
#    z 0.015530 -0.010390 1.951460 
# 
# From -- ./inp_files/213121.got.cif
#   From: 2010.06.25/outbox.cif.g09.slc.cpg/sg2_107_cif.got.tgz:213121.got - 2010.06.27 13:26:56.
