data_PCOD8042954
_publ_section_title
;
Structure prediction by ZEFSAII (Michael W. Deem and Ramdas Pophale) SiO2 
 PCOD8042954
Probable space group: P -1
;
_chemical_formula_sum "Si O2"
_cell_formula_units_Z 16
_cell_length_a 15.533128
_cell_length_b 8.737977
_cell_length_c 11.161195
_cell_angle_alpha 151.403183
_cell_angle_beta 93.330893
_cell_angle_gamma 76.740316
_cell_volume 671.553233
_symmetry_space_group_name_H-M "P -1"
_symmetry_group_IT_number 2
_symmetry_cell_setting 'triclinic'
loop_
_space_group_symop_operation_xyz
x,y,z
-x,-y,-z
loop_
_atom_site_type_symbol
_atom_site_label
_atom_site_fract_x
_atom_site_fract_y
_atom_site_fract_z
Si Si1 0.496853 0.880251 0.752850
Si Si2 0.255486 0.865741 0.494602
Si Si3 0.415264 0.124285 0.667820
Si Si4 0.089907 0.217887 0.873525
Si Si5 0.171446 0.187752 0.478514
Si Si6 0.027748 0.709752 0.404590
Si Si7 0.740355 0.277046 0.052975
Si Si8 0.340685 0.161600 0.124502
O O1 0.500000 0.500000 0.500000
O O2 0.603966 0.844810 0.751966
O O3 0.461792 0.105789 0.786772
O O4 0.421854 0.091130 0.987500
O O5 0.261513 0.522849 0.329680
O O6 0.357325 0.875740 0.498134
O O7 0.184398 0.185791 0.787703
O O8 0.211590 0.880592 0.368899
O O9 0.347021 0.502899 0.884651
O O10 0.500000 0.000000 0.500000
O O11 0.079770 0.843056 0.604578
O O12 0.000000 0.500000 0.000000
O O13 0.093784 0.343452 0.097350
O O14 0.060347 0.347063 0.585109
O O15 0.207899 0.489458 0.725708
O O16 0.197021 0.035636 0.242381
O O17 0.000000 0.000000 0.500000
O O18 0.706890 0.118194 0.056120
#
# Coordination Sequence:
#
# PCOD8042954 Si02
#       8
#     2   2   2   2   2   2   2   2
#     4  11  23  44  68  92 135 180 244 284 344 407
#     4  11  23  41  68 104 130 180 236 281 338 420
#     4  11  25  42  70 100 137 182 231 289 344 404
#     4  10  20  36  65 101 132 166 226 288 338 393
#     4  11  23  42  68 104 132 171 233 285 341 407
#     4  10  19  35  66  98 132 168 215 289 344 394
#     4  11  27  42  67  97 141 180 224 285 345 408
#     4  11  26  43  66  95 135 191 228 288 346 415
#
# _framework density 23.825364
#
# number of rings (size 3 to 8) (size 9 to 14) (size 15 to 20)
#    0.000    1.250    3.750    2.250   12.250    1.500 
#    0.000    0.000    0.000    4.500    0.000    0.000 
#    0.000    0.000    0.000    0.000    0.000    0.000 
#
# Total GULP energy -198269.804364 kJ/mol
# GULP energy per Si atom -12391.862773 kJ/mol
# Density = 2.377114 g / cm^3
# Si number density = 23.825364 Si / 1000 Ang^3
#
#
#
# Elastic Constant Matrix: (Units=GPa)
#
#
# Indices 1 2 3 4 5 6 
#
# 1 128.4292 27.6054 49.3541 -5.9033 2.9496 29.2829
# 2 27.6054 79.4983 22.8002 12.3429 7.8735 21.4971
# 3 49.3541 22.8002 138.3521 -13.0497 14.3422 13.2544
# 4 -5.9033 12.3429 -13.0497 36.1569 0.6169 0.8810
# 5 2.9496 7.8735 14.3422 0.6169 39.4817 -6.1889
# 6 29.2829 21.4971 13.2544 0.8810 -6.1889 26.0103
#
#
#
# Elastic Compliance Matrix: (Units=1/GPa)
#
#
# Indices 1 2 3 4 5 6 
#
# 1 0.011731 0.000022 -0.002695 0.001267 -0.001856 -0.012336
# 2 0.000022 0.018921 -0.001641 -0.006565 -0.005573 -0.015930
# 3 -0.002695 -0.001641 0.009220 0.003528 -0.003057 -0.001155
# 4 0.001267 -0.006565 0.003528 0.031360 -0.000394 0.001045
# 5 -0.001856 -0.005573 -0.003057 -0.000394 0.030114 0.015431
# 6 -0.012336 -0.015930 -0.001155 0.001045 0.015431 0.069726
#
#
# Mechanical properties :
#
#
# Convention : Reuss Voigt Hill
#
# Bulk Modulus (GPa) = 32.00606 60.64432 46.32519
# Shear Modulus (GPa) = 26.30015 36.76443 31.53229
#
# Velocity S-wave (km/s) = 3.32606 3.93247 3.64191
# Velocity P-wave (km/s) = 5.31159 6.79176 6.09676
#
# Compressibility (1/GPa) = 0.03124408
#
# Stress axis : x y z
#
# Youngs Moduli (GPa) = 85.24556 52.85213 108.45976
#
# Poissons Ratio (x) = -0.00118 0.29226
# Poissons Ratio (y) = -0.00190 0.17802
# Poissons Ratio (z) = 0.22970 0.08675
#
# Static dielectric constant tensor:
#      x y z
#    x 4.407290 0.192940 0.000940 
#    y 0.192940 3.853110 0.048420 
#    z 0.000940 0.048420 4.415680 
# 
# 
# High freq. dielectric constant tensor:
#      x y z
#    x 1.959470 0.008580 -0.005170 
#    y 0.008580 1.919030 -0.006600 
#    z -0.005170 -0.006600 1.944370 
# 
# From -- ./inp_files/135560.got.cif
#   From: 2010.06.25/outbox.cif.g09.slc.cpg/sg2_68_cif.got.tgz:135560.got - 2010.06.27 13:26:56.
