data_PCOD8042551
_publ_section_title
;
Structure prediction by ZEFSAII (Michael W. Deem and Ramdas Pophale) SiO2 
 PCOD8042551
Probable space group: P -1
;
_chemical_formula_sum "Si O2"
_cell_formula_units_Z 16
_cell_length_a 15.713016
_cell_length_b 14.768766
_cell_length_c 5.126863
_cell_angle_alpha 90.135228
_cell_angle_beta 99.763962
_cell_angle_gamma 38.320474
_cell_volume 710.207135
_symmetry_space_group_name_H-M "P -1"
_symmetry_group_IT_number 2
_symmetry_cell_setting 'triclinic'
loop_
_space_group_symop_operation_xyz
x,y,z
-x,-y,-z
loop_
_atom_site_type_symbol
_atom_site_label
_atom_site_fract_x
_atom_site_fract_y
_atom_site_fract_z
Si Si1 0.326641 0.980913 0.927380
Si Si2 0.498542 0.893609 0.515935
Si Si3 0.974762 0.960572 0.737802
Si Si4 0.259678 0.652858 0.958380
Si Si5 0.888528 0.685879 0.226852
Si Si6 0.693633 0.180962 0.840315
Si Si7 0.182511 0.366385 0.309998
Si Si8 0.419327 0.475765 0.521373
O O1 0.399048 0.939508 0.240524
O O2 0.290215 0.904338 0.915730
O O3 0.436562 0.914115 0.759550
O O4 0.177549 0.159138 0.830745
O O5 0.660942 0.720931 0.569982
O O6 0.500000 0.000000 0.500000
O O7 0.090494 0.782738 0.812798
O O8 0.812542 0.060999 0.677795
O O9 0.000000 0.000000 0.500000
O O10 0.000000 0.000000 0.000000
O O11 0.339663 0.548482 0.751708
O O12 0.294833 0.729545 0.023245
O O13 0.307290 0.551488 0.229344
O O14 0.848567 0.684732 0.493243
O O15 0.060448 0.545765 0.275343
O O16 0.820366 0.675584 0.978255
O O17 0.540612 0.297314 0.613977
O O18 0.500000 0.500000 0.500000
#
# Coordination Sequence:
#
# PCOD8042551 Si02
#       8
#     2   2   2   2   2   2   2   2
#     4  12  24  37  59  87 123 150 189 248 308 329
#     4  12  22  39  60  87 115 157 197 240 283 360
#     4  10  20  36  59  84 112 150 198 235 281 344
#     4  10  20  37  61  83 111 157 201 233 277 349
#     4  10  19  36  57  86 106 147 185 237 289 335
#     4  10  23  38  57  90 120 150 193 250 294 345
#     4  10  20  35  61  80 109 142 199 235 267 349
#     4  10  19  35  58  82 112 152 196 232 278 349
#
# _framework density 22.528638000000001
#
# number of rings (size 3 to 8) (size 9 to 14) (size 15 to 20)
#    0.000    1.500    2.500    4.875    0.000    6.000 
#    0.000    2.500    0.000    0.000    0.000    0.000 
#    0.000    0.000    0.000    0.000    0.000    0.000 
#
# Total GULP energy -198346.834959 kJ/mol
# GULP energy per Si atom -12396.677185 kJ/mol
# Density = 2.247736 g / cm^3
# Si number density = 22.528638 Si / 1000 Ang^3
#
#
#
# Elastic Constant Matrix: (Units=GPa)
#
#
# Indices 1 2 3 4 5 6 
#
# 1 52.5820 47.9680 18.2044 -6.6395 -24.5784 -11.9557
# 2 47.9680 187.6242 64.2162 -39.3492 -15.5647 -42.1093
# 3 18.2044 64.2162 126.0247 -11.4759 -18.6995 -7.6608
# 4 -6.6395 -39.3492 -11.4759 44.4478 -3.6467 2.7430
# 5 -24.5784 -15.5647 -18.6995 -3.6467 33.0974 -3.0721
# 6 -11.9557 -42.1093 -7.6608 2.7430 -3.0721 31.9455
#
#
#
# Elastic Compliance Matrix: (Units=1/GPa)
#
#
# Indices 1 2 3 4 5 6 
#
# 1 0.040075 -0.005279 0.002380 0.003704 0.030068 0.011184
# 2 -0.005279 0.013385 -0.003978 0.009364 0.002472 0.014148
# 3 0.002380 -0.003978 0.010381 0.000058 0.005644 -0.001327
# 4 0.003704 0.009364 0.000058 0.031573 0.011795 0.012166
# 5 0.030068 0.002472 0.005644 0.011795 0.060109 0.020633
# 6 0.011184 0.014148 -0.001327 0.012166 0.020633 0.054759
#
#
# Mechanical properties :
#
#
# Convention : Reuss Voigt Hill
#
# Bulk Modulus (GPa) = 19.96573 69.66758 44.81665
# Shear Modulus (GPa) = 20.76990 37.62095 29.19543
#
# Velocity S-wave (km/s) = 3.03963 4.09089 3.60380
# Velocity P-wave (km/s) = 4.60443 7.30103 6.10351
#
# Compressibility (1/GPa) = 0.05008583
#
# Stress axis : x y z
#
# Youngs Moduli (GPa) = 24.95309 74.71008 96.33303
#
# Poissons Ratio (x) = 0.39437 -0.22923
# Poissons Ratio (y) = 0.13172 0.38326
# Poissons Ratio (z) = -0.05938 0.29723
#
# Static dielectric constant tensor:
#      x y z
#    x 4.049150 -0.859250 -0.019820 
#    y -0.859250 5.283510 -0.494960 
#    z -0.019820 -0.494960 4.530690 
# 
# 
# High freq. dielectric constant tensor:
#      x y z
#    x 1.838290 -0.027360 -0.011380 
#    y -0.027360 1.908850 -0.012980 
#    z -0.011380 -0.012980 1.908150 
# 
# From -- ./inp_files/97933.got.cif
#   From: 2010.06.25/outbox.cif.g09.slc.cpg/sg2_49_cif.got.tgz:97933.got - 2010.06.27 13:26:56.
