data_PCOD8042349
_publ_section_title
;
Structure prediction by ZEFSAII (Michael W. Deem and Ramdas Pophale) SiO2 
 PCOD8042349
Probable space group: P -1
;
_chemical_formula_sum "Si O2"
_cell_formula_units_Z 16
_cell_length_a 21.096429
_cell_length_b 17.773884
_cell_length_c 8.842583
_cell_angle_alpha 113.569288
_cell_angle_beta 105.135102
_cell_angle_gamma 18.294953
_cell_volume 869.245232
_symmetry_space_group_name_H-M "P -1"
_symmetry_group_IT_number 2
_symmetry_cell_setting 'triclinic'
loop_
_space_group_symop_operation_xyz
x,y,z
-x,-y,-z
loop_
_atom_site_type_symbol
_atom_site_label
_atom_site_fract_x
_atom_site_fract_y
_atom_site_fract_z
Si Si1 0.840612 0.834003 0.060040
Si Si2 0.731125 0.795349 0.848558
Si Si3 0.202950 0.174685 0.637267
Si Si4 0.525370 0.280051 0.731071
Si Si5 0.672599 0.180787 0.054352
Si Si6 0.312864 0.213124 0.846945
Si Si7 0.634815 0.322608 0.785723
Si Si8 0.984443 0.112959 0.125721
O O1 0.722787 0.903466 0.944679
O O2 0.098754 0.523333 0.923155
O O3 0.738400 0.043772 0.123150
O O4 0.804275 0.864298 0.239469
O O5 0.958739 0.488181 0.674911
O O6 0.531439 0.005789 0.784656
O O7 0.709067 0.783671 0.990155
O O8 0.332267 0.106450 0.677571
O O9 0.321713 0.977887 0.428851
O O10 0.582983 0.231961 0.901573
O O11 0.581595 0.293639 0.674422
O O12 0.272091 0.554925 0.765606
O O13 0.470969 0.481058 0.231143
O O14 0.886166 0.981075 0.983627
O O15 0.500000 0.500000 0.000000
O O16 0.897851 0.018886 0.740648
O O17 0.000000 0.000000 0.000000
#
# Coordination Sequence:
#
# PCOD8042349 Si02
#       8
#     2   2   2   2   2   2   2   2
#     4   9  18  32  48  75  98 120 158 199 236 279
#     4   8  15  31  51  65  95 131 160 190 225 286
#     4   9  18  31  51  72  97 123 158 198 234 280
#     4  10  18  31  50  73  93 125 162 195 234 277
#     4  10  19  30  50  74  94 122 162 197 236 278
#     4   8  15  30  50  70  90 131 165 183 229 287
#     4   8  16  29  47  68  89 123 159 191 228 278
#     4  10  15  31  52  67  90 126 167 194 217 282
#
# _framework density 18.406773999999999
#
# number of rings (size 3 to 8) (size 9 to 14) (size 15 to 20)
#    0.000    3.250    3.750    1.500    0.000    3.000 
#    0.000    3.125    0.000    5.250    0.000    0.000 
#    0.000    0.000    0.000    0.000    0.000    0.000 
#
# Total GULP energy -198221.332547 kJ/mol
# GULP energy per Si atom -12388.833284 kJ/mol
# Density = 1.836488 g / cm^3
# Si number density = 18.406774 Si / 1000 Ang^3
#
#
#
# Elastic Constant Matrix: (Units=GPa)
#
#
# Indices 1 2 3 4 5 6 
#
# 1 59.9232 34.3051 -12.4170 -3.4177 -3.9617 -11.5578
# 2 34.3051 72.3518 -5.2280 0.0601 -8.1266 -25.9983
# 3 -12.4170 -5.2280 20.5140 5.4199 6.5628 -11.4943
# 4 -3.4177 0.0601 5.4199 13.6590 0.6420 -3.9834
# 5 -3.9617 -8.1266 6.5628 0.6420 14.8420 -2.6322
# 6 -11.5578 -25.9983 -11.4943 -3.9834 -2.6322 43.3428
#
#
#
# Elastic Compliance Matrix: (Units=1/GPa)
#
#
# Indices 1 2 3 4 5 6 
#
# 1 0.027132 -0.009987 0.018583 0.001458 -0.005447 0.005976
# 2 -0.009987 0.025491 0.005167 -0.000946 0.011640 0.014617
# 3 0.018583 0.005167 0.091841 -0.022174 -0.026763 0.028748
# 4 0.001458 -0.000946 -0.022174 0.082638 0.006443 0.001927
# 5 -0.005447 0.011640 -0.026763 0.006443 0.084589 0.004161
# 6 0.005976 0.014617 0.028748 0.001927 0.004161 0.041487
#
#
# Mechanical properties :
#
#
# Convention : Reuss Voigt Hill
#
# Bulk Modulus (GPa) = 5.81430 20.67879 13.24654
# Shear Modulus (GPa) = 13.05549 23.44403 18.24976
#
# Velocity S-wave (km/s) = 2.66611 3.57271 3.15218
# Velocity P-wave (km/s) = 3.55573 5.31768 4.52333
#
# Compressibility (1/GPa) = 0.17198990
#
# Stress axis : x y z
#
# Youngs Moduli (GPa) = 36.85677 39.22982 10.88843
#
# Poissons Ratio (x) = 0.39181 -0.20234
# Poissons Ratio (y) = 0.36811 -0.05627
# Poissons Ratio (z) = -0.68492 -0.20272
#
# Static dielectric constant tensor:
#      x y z
#    x 3.694180 -0.222770 0.204310 
#    y -0.222770 4.040760 0.258950 
#    z 0.204310 0.258950 2.834850 
# 
# 
# High freq. dielectric constant tensor:
#      x y z
#    x 1.716090 -0.006360 0.024920 
#    y -0.006360 1.724310 0.015810 
#    z 0.024920 0.015810 1.654880 
# 
# From -- ./inp_files/348057.got.cif
#   From: 2010.06.25/outbox.cif.g09.slc.cpg/sg2_175_cif.got.tgz:348057.got - 2010.06.27 13:26:56.
