data_PCOD8042054
_publ_section_title
;
Structure prediction by ZEFSAII (Michael W. Deem and Ramdas Pophale) SiO2 
 PCOD8042054
Probable space group: P -1
;
_chemical_formula_sum "Si O2"
_cell_formula_units_Z 16
_cell_length_a 11.433403
_cell_length_b 16.080452
_cell_length_c 9.602655
_cell_angle_alpha 123.857243
_cell_angle_beta 86.285375
_cell_angle_gamma 133.914914
_cell_volume 890.508823
_symmetry_space_group_name_H-M "P -1"
_symmetry_group_IT_number 2
_symmetry_cell_setting 'triclinic'
loop_
_space_group_symop_operation_xyz
x,y,z
-x,-y,-z
loop_
_atom_site_type_symbol
_atom_site_label
_atom_site_fract_x
_atom_site_fract_y
_atom_site_fract_z
Si Si1 0.679844 0.128461 0.204814
Si Si2 0.551711 0.694898 0.144248
Si Si3 0.661228 0.765909 0.497559
Si Si4 0.591371 0.870883 0.084799
Si Si5 0.669498 0.578507 0.895440
Si Si6 0.083901 0.327265 0.270522
Si Si7 0.393735 0.703740 0.649823
Si Si8 0.007351 0.080710 0.200587
O O1 0.696283 0.254770 0.369670
O O2 0.866413 0.220654 0.188730
O O3 0.637298 0.021308 0.235102
O O4 0.500000 0.000000 0.000000
O O5 0.679717 0.814908 0.380677
O O6 0.486773 0.750040 0.114290
O O7 0.358569 0.506596 0.039764
O O8 0.672433 0.698291 0.042144
O O9 0.512658 0.570463 0.331402
O O10 0.574348 0.795689 0.626693
O O11 0.869839 0.878250 0.642092
O O12 0.465910 0.765525 0.859379
O O13 0.791826 0.948552 0.144201
O O14 0.864734 0.676892 0.893481
O O15 0.224662 0.509017 0.481260
O O16 0.106442 0.250814 0.303439
O O17 0.000000 0.000000 0.000000
#
# Coordination Sequence:
#
# PCOD8042054 Si02
#       8
#     2   2   2   2   2   2   2   2
#     4   9  20  37  53  80 107 134 180 232 277 303
#     4   9  18  35  51  78 116 146 170 212 271 322
#     4   9  19  32  52  80 109 143 172 215 264 321
#     4  10  20  33  54  76 111 145 173 224 271 316
#     4   8  18  32  52  79 112 143 171 219 258 322
#     4  10  20  32  58  82 101 141 184 225 261 318
#     4  10  19  34  57  80 100 140 188 229 258 304
#     4  11  20  31  49  85 116 134 177 219 272 320
#
# _framework density 17.967257
#
# number of rings (size 3 to 8) (size 9 to 14) (size 15 to 20)
#    0.750    1.750    1.250    1.125    1.750    1.500 
#    0.000    0.625    0.000    3.000    3.250    0.000 
#    0.000    0.000    0.000    0.000    0.000    0.000 
#
# Total GULP energy -198222.643046 kJ/mol
# GULP energy per Si atom -12388.915190 kJ/mol
# Density = 1.792636 g / cm^3
# Si number density = 17.967257 Si / 1000 Ang^3
#
#
#
# Elastic Constant Matrix: (Units=GPa)
#
#
# Indices 1 2 3 4 5 6 
#
# 1 96.7551 45.4407 32.1330 -2.8985 3.7698 -10.0880
# 2 45.4407 93.1701 28.2647 -0.6855 -3.4966 -22.6365
# 3 32.1330 28.2647 71.9762 -5.7400 0.7711 -11.6092
# 4 -2.8985 -0.6855 -5.7400 26.4951 -2.7877 0.8700
# 5 3.7698 -3.4966 0.7711 -2.7877 23.0479 5.2480
# 6 -10.0880 -22.6365 -11.6092 0.8700 5.2480 32.5575
#
#
#
# Elastic Compliance Matrix: (Units=1/GPa)
#
#
# Indices 1 2 3 4 5 6 
#
# 1 0.014676 -0.006183 -0.004197 0.000247 -0.002992 -0.000772
# 2 -0.006183 0.016626 -0.002481 -0.000899 0.001565 0.008531
# 3 -0.004197 -0.002481 0.017518 0.003098 -0.000639 0.003241
# 4 0.000247 -0.000899 0.003098 0.038955 0.004715 -0.001245
# 5 -0.002992 0.001565 -0.000639 0.004715 0.046455 -0.007681
# 6 -0.000772 0.008531 0.003241 -0.001245 -0.007681 0.038834
#
#
# Mechanical properties :
#
#
# Convention : Reuss Voigt Hill
#
# Bulk Modulus (GPa) = 43.29235 52.61979 47.95607
# Shear Modulus (GPa) = 24.21466 26.82431 25.51949
#
# Velocity S-wave (km/s) = 3.67510 3.86807 3.77282
# Velocity P-wave (km/s) = 6.49276 7.02135 6.76222
#
# Compressibility (1/GPa) = 0.02309877
#
# Stress axis : x y z
#
# Youngs Moduli (GPa) = 68.13643 60.14663 57.08330
#
# Poissons Ratio (x) = 0.37187 0.23958
# Poissons Ratio (y) = 0.42127 0.14164
# Poissons Ratio (z) = 0.28597 0.14924
#
# Static dielectric constant tensor:
#      x y z
#    x 3.580760 -0.277720 -0.262260 
#    y -0.277720 3.426330 0.113260 
#    z -0.262260 0.113260 3.186670 
# 
# 
# High freq. dielectric constant tensor:
#      x y z
#    x 1.684720 -0.007270 -0.009940 
#    y -0.007270 1.694700 0.013150 
#    z -0.009940 0.013150 1.678640 
# 
# From -- ./inp_files/268607.got.cif
#   From: 2010.06.25/outbox.cif.g09.slc.cpg/sg2_135_cif.got.tgz:268607.got - 2010.06.27 13:26:56.
