data_PCOD8042729
_publ_section_title
;
Structure prediction by ZEFSAII (Michael W. Deem and Ramdas Pophale) SiO2 
 PCOD8042729
Probable space group: P -1
;
_chemical_formula_sum "Si O2"
_cell_formula_units_Z 16
_cell_length_a 12.576416
_cell_length_b 12.177195
_cell_length_c 14.774169
_cell_angle_alpha 130.225050
_cell_angle_beta 28.638411
_cell_angle_gamma 114.365499
_cell_volume 750.837640
_symmetry_space_group_name_H-M "P -1"
_symmetry_group_IT_number 2
_symmetry_cell_setting 'triclinic'
loop_
_space_group_symop_operation_xyz
x,y,z
-x,-y,-z
loop_
_atom_site_type_symbol
_atom_site_label
_atom_site_fract_x
_atom_site_fract_y
_atom_site_fract_z
Si Si1 0.592395 0.325287 0.517578
Si Si2 0.549073 0.124725 0.285921
Si Si3 0.900339 0.901787 0.298789
Si Si4 0.983309 0.164971 0.285211
Si Si5 0.251861 0.234902 0.270293
Si Si6 0.300118 0.409805 0.490883
Si Si7 0.929022 0.609831 0.023782
Si Si8 0.209226 0.943297 0.238486
O O1 0.654038 0.192313 0.324130
O O2 0.539378 0.492373 0.597739
O O3 0.355354 0.341202 0.759410
O O4 0.823942 0.276627 0.384324
O O5 0.325670 0.089279 0.467947
O O6 0.467814 0.245594 0.326719
O O7 0.757392 0.961322 0.011181
O O8 0.971807 0.767133 0.096099
O O9 0.131542 0.859990 0.169911
O O10 0.835767 0.072076 0.390922
O O11 0.044673 0.276946 0.369760
O O12 0.190767 0.380851 0.462534
O O13 0.244445 0.094671 0.260788
O O14 0.523429 0.184486 0.996391
O O15 0.075743 0.518072 0.778907
O O16 0.000000 0.500000 0.000000
O O17 0.000000 0.000000 0.500000
#
# Coordination Sequence:
#
# PCOD8042729 Si02
#       8
#     2   2   2   2   2   2   2   2
#     4  11  26  40  63  94 127 167 201 252 318 375
#     4  11  22  38  67  95 118 156 211 263 312 361
#     4  10  21  37  63  90 124 159 204 260 308 362
#     4  11  24  43  60  90 131 167 204 246 313 379
#     4  10  23  36  58  91 123 165 210 248 300 371
#     4  12  23  40  66  91 129 159 211 263 306 357
#     4  11  24  40  62  96 124 154 209 258 315 367
#     4  10  19  35  60  91 121 160 206 260 305 351
#
# _framework density 21.309532999999998
#
# number of rings (size 3 to 8) (size 9 to 14) (size 15 to 20)
#    0.000    1.250    2.500    5.250    3.500    3.500 
#    0.000    0.625    0.000    0.000    0.000    0.000 
#    0.000    0.000    0.000    0.000    0.000    0.000 
#
# Total GULP energy -198406.897836 kJ/mol
# GULP energy per Si atom -12400.431115 kJ/mol
# Density = 2.126103 g / cm^3
# Si number density = 21.309533 Si / 1000 Ang^3
#
#
#
# Elastic Constant Matrix: (Units=GPa)
#
#
# Indices 1 2 3 4 5 6 
#
# 1 99.2757 25.4398 38.9963 -1.6541 4.6690 12.2254
# 2 25.4398 68.6145 29.5148 -16.7610 1.4041 14.8135
# 3 38.9963 29.5148 95.7893 -4.1053 11.3800 10.7053
# 4 -1.6541 -16.7610 -4.1053 24.4058 0.6696 1.0164
# 5 4.6690 1.4041 11.3800 0.6696 32.2550 10.5471
# 6 12.2254 14.8135 10.7053 1.0164 10.5471 32.3111
#
#
#
# Elastic Compliance Matrix: (Units=1/GPa)
#
#
# Indices 1 2 3 4 5 6 
#
# 1 0.012660 -0.002857 -0.004161 -0.001726 0.000521 -0.002217
# 2 -0.002857 0.023530 -0.004792 0.015463 0.004000 -0.009911
# 3 -0.004161 -0.004792 0.014009 -0.001122 -0.004294 0.000567
# 4 -0.001726 0.015463 -0.001122 0.051586 0.001584 -0.008204
# 5 0.000521 0.004000 -0.004294 0.001584 0.036328 -0.012516
# 6 -0.002217 -0.009911 0.000567 -0.008204 -0.012516 0.040488
#
#
# Mechanical properties :
#
#
# Convention : Reuss Voigt Hill
#
# Bulk Modulus (GPa) = 37.62621 50.17569 43.90095
# Shear Modulus (GPa) = 23.68774 29.10962 26.39868
#
# Velocity S-wave (km/s) = 3.33769 3.70000 3.52351
# Velocity P-wave (km/s) = 5.70516 6.46920 6.09916
#
# Compressibility (1/GPa) = 0.02657722
#
# Stress axis : x y z
#
# Youngs Moduli (GPa) = 78.99163 42.49928 71.38379
#
# Poissons Ratio (x) = 0.12144 0.29706
# Poissons Ratio (y) = 0.22571 0.34204
# Poissons Ratio (z) = 0.32872 0.20364
#
# Static dielectric constant tensor:
#      x y z
#    x 3.966590 0.282910 0.135730 
#    y 0.282910 4.072640 -0.289690 
#    z 0.135730 -0.289690 3.960650 
# 
# 
# High freq. dielectric constant tensor:
#      x y z
#    x 1.833790 0.025590 0.011330 
#    y 0.025590 1.834800 -0.017570 
#    z 0.011330 -0.017570 1.833240 
# 
# From -- ./inp_files/464703.got.cif
#   From: 2010.06.25/outbox.cif.g09.slc.cpg/sg2_233_cif.got.tgz:464703.got - 2010.06.27 13:26:56.
