data_PCOD8042824
_publ_section_title
;
Structure prediction by ZEFSAII (Michael W. Deem and Ramdas Pophale) SiO2 
 PCOD8042824
Probable space group: P -1
;
_chemical_formula_sum "Si O2"
_cell_formula_units_Z 16
_cell_length_a 16.303495
_cell_length_b 11.029988
_cell_length_c 9.300633
_cell_angle_alpha 80.832209
_cell_angle_beta 66.099149
_cell_angle_gamma 33.229612
_cell_volume 782.255627
_symmetry_space_group_name_H-M "P -1"
_symmetry_group_IT_number 2
_symmetry_cell_setting 'triclinic'
loop_
_space_group_symop_operation_xyz
x,y,z
-x,-y,-z
loop_
_atom_site_type_symbol
_atom_site_label
_atom_site_fract_x
_atom_site_fract_y
_atom_site_fract_z
Si Si1 0.761252 0.189558 0.418894
Si Si2 0.856951 0.215325 0.719070
Si Si3 0.461099 0.725970 0.588027
Si Si4 0.372726 0.293916 0.718818
Si Si5 0.473188 0.141263 0.276574
Si Si6 0.234393 0.943954 0.273391
Si Si7 0.138596 0.599457 0.569606
Si Si8 0.426601 0.306962 0.995754
O O1 0.645704 0.441383 0.495468
O O2 0.690087 0.199600 0.325617
O O3 0.738008 0.110964 0.568290
O O4 0.958078 0.999483 0.290708
O O5 0.787753 0.158957 0.772672
O O6 0.875857 0.252564 0.537493
O O7 0.723417 0.440729 0.871524
O O8 0.461537 0.826184 0.439724
O O9 0.456050 0.808618 0.725254
O O10 0.203438 0.533243 0.702040
O O11 0.350500 0.348875 0.891812
O O12 0.405906 0.110178 0.708290
O O13 0.276954 0.351643 0.435150
O O14 0.470599 0.143918 0.104332
O O15 0.397544 0.823098 0.118467
O O16 0.054780 0.231467 0.323717
#
# Coordination Sequence:
#
# PCOD8042824 Si02
#       8
#     2   2   2   2   2   2   2   2
#     4  10  19  35  62  89 118 143 186 236 276 347
#     4  10  20  36  59  83 119 155 179 224 293 344
#     4  10  19  35  62  92 110 145 195 232 279 331
#     4  11  20  39  61  83 112 150 197 236 276 325
#     4  10  21  39  62  78 114 155 191 233 284 330
#     4  11  19  37  59  85 119 149 184 229 290 339
#     4   9  19  36  62  83 105 148 194 228 275 339
#     4  11  23  37  56  85 117 149 191 231 286 338
#
# _framework density 20.453672000000001
#
# number of rings (size 3 to 8) (size 9 to 14) (size 15 to 20)
#    0.000    1.750    1.250    7.500    0.000    0.000 
#    2.250    2.500    8.250    0.000    0.000    0.000 
#    0.000    0.000    0.000    0.000    0.000    0.000 
#
# Total GULP energy -198224.298861 kJ/mol
# GULP energy per Si atom -12389.018679 kJ/mol
# Density = 2.040712 g / cm^3
# Si number density = 20.453672 Si / 1000 Ang^3
#
#
#
# Elastic Constant Matrix: (Units=GPa)
#
#
# Indices 1 2 3 4 5 6 
#
# 1 95.4078 57.0656 33.7879 9.6181 7.2308 -15.5841
# 2 57.0656 119.9167 34.6569 -2.0233 -2.8237 -12.5747
# 3 33.7879 34.6569 87.0622 -10.1511 14.8403 -19.5136
# 4 9.6181 -2.0233 -10.1511 27.7496 -9.2716 -1.6660
# 5 7.2308 -2.8237 14.8403 -9.2716 26.5621 4.2086
# 6 -15.5841 -12.5747 -19.5136 -1.6660 4.2086 21.1736
#
#
#
# Elastic Compliance Matrix: (Units=1/GPa)
#
#
# Indices 1 2 3 4 5 6 
#
# 1 0.019343 -0.008191 -0.001727 -0.010865 -0.010388 0.008991
# 2 -0.008191 0.013214 -0.003328 0.004985 0.007609 -0.002368
# 3 -0.001727 -0.003328 0.020240 0.004698 -0.012443 0.018248
# 4 -0.010865 0.004985 0.004698 0.047737 0.017596 -0.000448
# 5 -0.010388 0.007609 -0.012443 0.017596 0.058308 -0.024800
# 6 0.008991 -0.002368 0.018248 -0.000448 -0.024800 0.074151
#
#
# Mechanical properties :
#
#
# Convention : Reuss Voigt Hill
#
# Bulk Modulus (GPa) = 38.01558 61.48975 49.75267
# Shear Modulus (GPa) = 18.63908 26.88880 22.76394
#
# Velocity S-wave (km/s) = 3.02202 3.62970 3.33971
# Velocity P-wave (km/s) = 5.55008 6.90612 6.26490
#
# Compressibility (1/GPa) = 0.02630500
#
# Stress axis : x y z
#
# Youngs Moduli (GPa) = 51.69713 75.67885 49.40733
#
# Poissons Ratio (x) = 0.61989 0.08534
# Poissons Ratio (y) = 0.42345 0.16441
# Poissons Ratio (z) = 0.08930 0.25184
#
# Static dielectric constant tensor:
#      x y z
#    x 3.549380 -0.139200 0.065190 
#    y -0.139200 3.932730 -0.101820 
#    z 0.065190 -0.101820 3.632720 
# 
# 
# High freq. dielectric constant tensor:
#      x y z
#    x 1.789690 -0.009290 0.012130 
#    y -0.009290 1.807730 -0.008510 
#    z 0.012130 -0.008510 1.777060 
# 
# From -- ./inp_files/333252.got.cif
#   From: 2010.06.25/outbox.cif.g09.slc.cpg/sg2_167_cif.got.tgz:333252.got - 2010.06.27 13:26:56.
