data_PCOD8042442
_publ_section_title
;
Structure prediction by ZEFSAII (Michael W. Deem and Ramdas Pophale) SiO2 
 PCOD8042442
Probable space group: P -1
;
_chemical_formula_sum "Si O2"
_cell_formula_units_Z 16
_cell_length_a 7.855419
_cell_length_b 14.429683
_cell_length_c 16.436482
_cell_angle_alpha 27.716671
_cell_angle_beta 114.385645
_cell_angle_gamma 99.976981
_cell_volume 703.260451
_symmetry_space_group_name_H-M "P -1"
_symmetry_group_IT_number 2
_symmetry_cell_setting 'triclinic'
loop_
_space_group_symop_operation_xyz
x,y,z
-x,-y,-z
loop_
_atom_site_type_symbol
_atom_site_label
_atom_site_fract_x
_atom_site_fract_y
_atom_site_fract_z
Si Si1 0.996054 0.230708 0.382968
Si Si2 0.416644 0.526622 0.244927
Si Si3 0.744114 0.824059 0.275686
Si Si4 0.690707 0.775839 0.122043
Si Si5 0.665098 0.109167 0.384253
Si Si6 0.925797 0.451437 0.731481
Si Si7 0.369750 0.967593 0.380237
Si Si8 0.910718 0.096174 0.195245
O O1 0.762264 0.286344 0.259403
O O2 0.066178 0.020089 0.622992
O O3 0.003640 0.437294 0.267689
O O4 0.153122 0.142348 0.406345
O O5 0.607522 0.587988 0.247064
O O6 0.240196 0.627336 0.203925
O O7 0.510487 0.258073 0.473963
O O8 0.284673 0.652727 0.039181
O O9 0.799714 0.750353 0.250723
O O10 0.809009 0.610543 0.510229
O O11 0.871369 0.956223 0.224959
O O12 0.495446 0.977173 0.118990
O O13 0.859343 0.744917 0.108889
O O14 0.588370 0.124690 0.448494
O O15 0.475864 0.138061 0.261909
O O16 0.125202 0.104540 0.204531
#
# Coordination Sequence:
#
# PCOD8042442 Si02
#       8
#     2   2   2   2   2   2   2   2
#     4   9  17  35  56  79 109 149 185 227 277 335
#     4  11  22  37  57  87 114 143 191 234 271 334
#     4   9  20  39  59  82 114 150 183 226 278 336
#     4  10  21  39  59  83 117 147 183 232 279 327
#     4   9  17  32  59  76 107 150 184 224 284 330
#     4  11  21  36  61  84 111 150 187 227 280 331
#     4  10  19  35  56  81 111 147 182 233 282 323
#     4   9  20  37  57  78 113 147 182 231 282 328
#
# _framework density 22.751173999999999
#
# number of rings (size 3 to 8) (size 9 to 14) (size 15 to 20)
#    0.000    2.250    1.250    2.625    0.000    1.500 
#    2.250   11.875    0.000    0.000    0.000    0.000 
#    0.000    0.000    0.000    0.000    0.000    0.000 
#
# Total GULP energy -198220.428980 kJ/mol
# GULP energy per Si atom -12388.776811 kJ/mol
# Density = 2.269939 g / cm^3
# Si number density = 22.751174 Si / 1000 Ang^3
#
#
#
# Elastic Constant Matrix: (Units=GPa)
#
#
# Indices 1 2 3 4 5 6 
#
# 1 97.9102 19.7018 -6.9812 2.8664 20.1099 -7.2983
# 2 19.7018 81.2521 3.3001 0.7196 16.2052 2.4428
# 3 -6.9812 3.3001 42.2693 2.1942 10.3135 4.4230
# 4 2.8664 0.7196 2.1942 18.9054 0.4061 17.1392
# 5 20.1099 16.2052 10.3135 0.4061 25.1063 -1.1146
# 6 -7.2983 2.4428 4.4230 17.1392 -1.1146 37.0671
#
#
#
# Elastic Compliance Matrix: (Units=1/GPa)
#
#
# Indices 1 2 3 4 5 6 
#
# 1 0.013909 -0.001256 0.005185 -0.007006 -0.012122 0.005078
# 2 -0.001256 0.014390 0.000981 0.001979 -0.008828 -0.002493
# 3 0.005185 0.000981 0.028830 -0.001901 -0.016692 -0.002107
# 4 -0.007006 0.001979 -0.001901 0.095020 0.001573 -0.045171
# 5 -0.012122 -0.008828 -0.016692 0.001573 0.062129 0.001328
# 6 0.005078 -0.002493 -0.002107 -0.045171 0.001328 0.049320
#
#
# Mechanical properties :
#
#
# Convention : Reuss Voigt Hill
#
# Bulk Modulus (GPa) = 14.93665 28.16366 21.55016
# Shear Modulus (GPa) = 18.10976 29.90982 24.00979
#
# Velocity S-wave (km/s) = 2.82439 3.62974 3.25209
# Velocity P-wave (km/s) = 4.14919 5.47472 4.85738
#
# Compressibility (1/GPa) = 0.06694940
#
# Stress axis : x y z
#
# Youngs Moduli (GPa) = 71.89465 69.49160 34.68649
#
# Poissons Ratio (x) = 0.08730 -0.17986
# Poissons Ratio (y) = 0.09032 -0.03403
# Poissons Ratio (z) = -0.37280 -0.06818
#
# Static dielectric constant tensor:
#      x y z
#    x 4.315760 0.230290 0.223550 
#    y 0.230290 4.277580 0.181900 
#    z 0.223550 0.181900 3.872820 
# 
# 
# High freq. dielectric constant tensor:
#      x y z
#    x 1.903540 0.008430 0.022960 
#    y 0.008430 1.900810 0.004620 
#    z 0.022960 0.004620 1.860900 
# 
# From -- ./inp_files/214806.got.cif
#   From: 2010.06.25/outbox.cif.g09.slc.cpg/sg2_108_cif.got.tgz:214806.got - 2010.06.27 13:26:56.
