data_PCOD8042617
_publ_section_title
;
Structure prediction by ZEFSAII (Michael W. Deem and Ramdas Pophale) SiO2 
 PCOD8042617
Probable space group: P -1
;
_chemical_formula_sum "Si O2"
_cell_formula_units_Z 16
_cell_length_a 21.964281
_cell_length_b 17.530101
_cell_length_c 9.370335
_cell_angle_alpha 55.931706
_cell_angle_beta 141.402526
_cell_angle_gamma 153.806751
_cell_volume 853.132428
_symmetry_space_group_name_H-M "P -1"
_symmetry_group_IT_number 2
_symmetry_cell_setting 'triclinic'
loop_
_space_group_symop_operation_xyz
x,y,z
-x,-y,-z
loop_
_atom_site_type_symbol
_atom_site_label
_atom_site_fract_x
_atom_site_fract_y
_atom_site_fract_z
Si Si1 0.335826 0.064839 0.105301
Si Si2 0.400552 0.659012 0.941416
Si Si3 0.993584 0.367281 0.011136
Si Si4 0.705458 0.819161 0.861871
Si Si5 0.191587 0.258076 0.248858
Si Si6 0.219394 0.627648 0.420884
Si Si7 0.650917 0.411013 0.756982
Si Si8 0.425240 0.471718 0.169198
O O1 0.372206 0.121270 0.945057
O O2 0.324216 0.151436 0.076555
O O3 0.543604 0.180576 0.415657
O O4 0.123780 0.829252 0.991601
O O5 0.215404 0.567058 0.626611
O O6 0.410917 0.684272 0.102976
O O7 0.346672 0.508544 0.953861
O O8 0.839692 0.315877 0.716004
O O9 0.049080 0.440427 0.197822
O O10 0.204054 0.537966 0.120157
O O11 0.566847 0.751105 0.555136
O O12 0.625040 0.645928 0.923253
O O13 0.950155 0.023175 0.050623
O O14 0.206755 0.379730 0.175534
O O15 0.296899 0.319994 0.226543
O O16 0.322789 0.314596 0.554073
#
# Coordination Sequence:
#
# PCOD8042617 Si02
#       8
#     2   2   2   2   2   2   2   2
#     4  10  21  38  55  84 113 142 186 231 275 330
#     4   9  21  40  50  85 125 138 174 246 280 310
#     4  11  19  39  66  78 103 155 192 221 272 346
#     4  11  19  34  61  82 109 154 193 215 268 339
#     4   9  18  34  54  84 109 150 190 225 263 330
#     4   9  22  39  60  81 112 144 186 231 285 324
#     4  10  19  35  59  84 114 143 189 231 267 330
#     4   9  19  34  54  80 118 146 185 225 274 324
#
# _framework density 18.754415999999999
#
# number of rings (size 3 to 8) (size 9 to 14) (size 15 to 20)
#    0.750    1.500    2.500    1.500    0.000    1.000 
#    6.750    0.625    0.000    2.250    0.000    0.000 
#    0.000    0.000    0.000    0.000    0.000    0.000 
#
# Total GULP energy -198283.695324 kJ/mol
# GULP energy per Si atom -12392.730958 kJ/mol
# Density = 1.871173 g / cm^3
# Si number density = 18.754416 Si / 1000 Ang^3
#
#
#
# Elastic Constant Matrix: (Units=GPa)
#
#
# Indices 1 2 3 4 5 6 
#
# 1 72.2082 30.4621 9.1431 0.1001 5.0945 2.7429
# 2 30.4621 80.8666 38.0116 4.1419 -2.3648 2.9357
# 3 9.1431 38.0116 60.6257 5.5389 4.1906 11.7468
# 4 0.1001 4.1419 5.5389 32.7692 5.1000 -0.8532
# 5 5.0945 -2.3648 4.1906 5.1000 29.2637 1.0292
# 6 2.7429 2.9357 11.7468 -0.8532 1.0292 24.8064
#
#
#
# Elastic Compliance Matrix: (Units=1/GPa)
#
#
# Indices 1 2 3 4 5 6 
#
# 1 0.017222 -0.008016 0.003047 0.001040 -0.004187 -0.002189
# 2 -0.008016 0.021821 -0.013596 -0.001119 0.005143 0.004490
# 3 0.003047 -0.013596 0.027354 -0.002483 -0.004707 -0.011571
# 4 0.001040 -0.001119 -0.002483 0.032009 -0.005583 0.002526
# 5 -0.004187 0.005143 -0.004707 -0.005583 0.036951 0.000358
# 6 -0.002189 0.004490 -0.011571 0.002526 0.000358 0.045574
#
#
# Mechanical properties :
#
#
# Convention : Reuss Voigt Hill
#
# Bulk Modulus (GPa) = 34.16787 40.99265 37.58026
# Shear Modulus (GPa) = 21.94750 26.44010 24.19380
#
# Velocity S-wave (km/s) = 3.42461 3.75881 3.59560
# Velocity P-wave (km/s) = 5.82198 6.38305 6.10896
#
# Compressibility (1/GPa) = 0.02926726
#
# Stress axis : x y z
#
# Youngs Moduli (GPa) = 58.06622 45.82713 36.55784
#
# Poissons Ratio (x) = 0.36735 -0.11140
# Poissons Ratio (y) = 0.46545 0.49704
# Poissons Ratio (z) = -0.17694 0.62307
#
# Static dielectric constant tensor:
#      x y z
#    x 3.465360 -0.049130 0.102280 
#    y -0.049130 3.141040 -0.000930 
#    z 0.102280 -0.000930 3.347400 
# 
# 
# High freq. dielectric constant tensor:
#      x y z
#    x 1.732140 -0.006580 0.011380 
#    y -0.006580 1.705240 0.004160 
#    z 0.011380 0.004160 1.719300 
# 
# From -- ./inp_files/348052.got.cif
#   From: 2010.06.25/outbox.cif.g09.slc.cpg/sg2_175_cif.got.tgz:348052.got - 2010.06.27 13:26:56.
