data_PCOD8042650
_publ_section_title
;
Structure prediction by ZEFSAII (Michael W. Deem and Ramdas Pophale) SiO2 
 PCOD8042650
Probable space group: P -1
;
_chemical_formula_sum "Si O2"
_cell_formula_units_Z 16
_cell_length_a 17.322928
_cell_length_b 9.019069
_cell_length_c 11.951956
_cell_angle_alpha 94.671251
_cell_angle_beta 47.602891
_cell_angle_gamma 55.649801
_cell_volume 743.165096
_symmetry_space_group_name_H-M "P -1"
_symmetry_group_IT_number 2
_symmetry_cell_setting 'triclinic'
loop_
_space_group_symop_operation_xyz
x,y,z
-x,-y,-z
loop_
_atom_site_type_symbol
_atom_site_label
_atom_site_fract_x
_atom_site_fract_y
_atom_site_fract_z
Si Si1 0.915871 0.746718 0.655746
Si Si2 0.584682 0.746828 0.102352
Si Si3 0.614987 0.511886 0.867576
Si Si4 0.664339 0.452606 0.438027
Si Si5 0.990745 0.112363 0.268212
Si Si6 0.606871 0.484306 0.246565
Si Si7 0.027333 0.824491 0.378265
Si Si8 0.521441 0.153590 0.181575
O O1 0.043477 0.689447 0.618807
O O2 0.874257 0.910834 0.604377
O O3 0.000000 0.500000 0.500000
O O4 0.730225 0.921184 0.913669
O O5 0.505697 0.763459 0.067608
O O6 0.820160 0.473658 0.847107
O O7 0.533725 0.711229 0.259194
O O8 0.474817 0.035050 0.228240
O O9 0.621253 0.573162 0.739152
O O10 0.837978 0.227174 0.676108
O O11 0.500000 0.500000 0.000000
O O12 0.688244 0.448133 0.282435
O O13 0.587050 0.379573 0.535751
O O14 0.869835 0.251454 0.280224
O O15 0.500084 0.760107 0.666255
O O16 0.918670 0.053926 0.405950
O O17 0.221956 0.813593 0.000789
#
# Coordination Sequence:
#
# PCOD8042650 Si02
#       8
#     2   2   2   2   2   2   2   2
#     4  12  22  37  58  91 132 171 202 250 317 385
#     4   9  21  37  61  85 129 165 201 261 316 373
#     4  10  19  35  59  88 123 161 205 255 314 372
#     4  11  24  40  70  94 119 168 214 267 318 363
#     4  11  22  42  65  92 126 162 213 260 317 368
#     4  10  22  46  67  93 122 161 221 266 311 372
#     4   9  21  38  55  86 124 163 202 250 305 379
#     4  12  22  37  60  90 130 164 207 256 313 384
#
# _framework density 21.529537999999999
#
# number of rings (size 3 to 8) (size 9 to 14) (size 15 to 20)
#    0.750    0.750    2.500    3.375    0.000    3.500 
#    0.000    0.000    0.000    0.750    0.000    0.000 
#    0.000    0.000    0.000    0.000    0.000    0.000 
#
# Total GULP energy -198234.288309 kJ/mol
# GULP energy per Si atom -12389.643019 kJ/mol
# Density = 2.148054 g / cm^3
# Si number density = 21.529538 Si / 1000 Ang^3
#
#
#
# Elastic Constant Matrix: (Units=GPa)
#
#
# Indices 1 2 3 4 5 6 
#
# 1 98.7165 37.7130 13.8482 5.5400 16.6488 7.7307
# 2 37.7130 104.7478 24.8410 2.9836 15.1098 20.4570
# 3 13.8482 24.8410 64.7015 1.9995 15.5486 7.8917
# 4 5.5400 2.9836 1.9995 35.8824 -4.3950 1.4937
# 5 16.6488 15.1098 15.5486 -4.3950 41.0977 -0.2157
# 6 7.7307 20.4570 7.8917 1.4937 -0.2157 31.1753
#
#
#
# Elastic Compliance Matrix: (Units=1/GPa)
#
#
# Indices 1 2 3 4 5 6 
#
# 1 0.012365 -0.003700 -0.000187 -0.002035 -0.003798 -0.000520
# 2 -0.003700 0.013295 -0.002865 -0.000372 -0.002382 -0.007080
# 3 -0.000187 -0.002865 0.018410 -0.001381 -0.005998 -0.002709
# 4 -0.002035 -0.000372 -0.001381 0.028861 0.004568 -0.000253
# 5 -0.003798 -0.002382 -0.005998 0.004568 0.029526 0.004009
# 6 -0.000520 -0.007080 -0.002709 -0.000253 0.004009 0.037577
#
#
# Mechanical properties :
#
#
# Convention : Reuss Voigt Hill
#
# Bulk Modulus (GPa) = 32.71564 46.77447 39.74505
# Shear Modulus (GPa) = 30.53854 34.41533 32.47694
#
# Velocity S-wave (km/s) = 3.77032 4.00248 3.88813
# Velocity P-wave (km/s) = 5.84657 6.56755 6.21752
#
# Compressibility (1/GPa) = 0.03056642
#
# Stress axis : x y z
#
# Youngs Moduli (GPa) = 80.87104 75.21419 54.31811
#
# Poissons Ratio (x) = 0.27831 0.01015
# Poissons Ratio (y) = 0.29925 0.15562
# Poissons Ratio (z) = 0.01511 0.21549
#
# Static dielectric constant tensor:
#      x y z
#    x 3.858980 0.060110 0.158940 
#    y 0.060110 3.875800 0.049690 
#    z 0.158940 0.049690 4.068710 
# 
# 
# High freq. dielectric constant tensor:
#      x y z
#    x 1.832760 0.010580 0.005100 
#    y 0.010580 1.834370 -0.001640 
#    z 0.005100 -0.001640 1.859020 
# 
# From -- ./inp_files/216782.got.cif
#   From: 2010.06.25/outbox.cif.g09.slc.cpg/sg2_109_cif.got.tgz:216782.got - 2010.06.27 13:26:56.
