data_PCOD8042855
_publ_section_title
;
Structure prediction by ZEFSAII (Michael W. Deem and Ramdas Pophale) SiO2 
 PCOD8042855
Probable space group: P -1
;
_chemical_formula_sum "Si O2"
_cell_formula_units_Z 16
_cell_length_a 9.081429
_cell_length_b 8.974859
_cell_length_c 15.124842
_cell_angle_alpha 93.798011
_cell_angle_beta 76.019017
_cell_angle_gamma 46.902322
_cell_volume 825.616756
_symmetry_space_group_name_H-M "P -1"
_symmetry_group_IT_number 2
_symmetry_cell_setting 'triclinic'
loop_
_space_group_symop_operation_xyz
x,y,z
-x,-y,-z
loop_
_atom_site_type_symbol
_atom_site_label
_atom_site_fract_x
_atom_site_fract_y
_atom_site_fract_z
Si Si1 0.149372 0.033487 0.294282
Si Si2 0.643476 0.747663 0.186861
Si Si3 0.656173 0.969112 0.042635
Si Si4 0.303009 0.348129 0.213979
Si Si5 0.868299 0.744495 0.526905
Si Si6 0.027957 0.276876 0.160547
Si Si7 0.008506 0.177150 0.663587
Si Si8 0.547257 0.060884 0.337695
O O1 0.100992 0.186802 0.383864
O O2 0.993788 0.175734 0.237223
O O3 0.395395 0.869156 0.213506
O O4 0.105656 0.900743 0.332930
O O5 0.727748 0.794449 0.097596
O O6 0.795047 0.496673 0.167026
O O7 0.661119 0.829905 0.277010
O O8 0.526780 0.201119 0.116235
O O9 0.861717 0.874203 0.949395
O O10 0.500000 0.000000 0.000000
O O11 0.165406 0.310581 0.190095
O O12 0.386757 0.252474 0.296817
O O13 0.154252 0.602187 0.246048
O O14 0.955947 0.781915 0.436435
O O15 0.612985 0.877258 0.556779
O O16 0.000000 0.500000 0.500000
O O17 0.249976 0.980105 0.663375
#
# Coordination Sequence:
#
# PCOD8042855 Si02
#       8
#     2   2   2   2   2   2   2   2
#     4  11  24  39  55  92 124 147 190 245 295 347
#     4  10  19  35  63  88 114 155 198 237 285 340
#     4   9  17  33  62  92 113 145 207 248 265 335
#     4  10  19  37  60  87 115 151 200 241 279 343
#     4  11  21  42  64  82 113 154 201 241 282 342
#     4  11  18  37  62  87 117 155 199 242 283 340
#     4  12  23  38  61  84 123 156 184 245 304 337
#     4  10  20  37  61  87 109 151 204 235 278 352
#
# _framework density 19.379452000000001
#
# number of rings (size 3 to 8) (size 9 to 14) (size 15 to 20)
#    0.000    1.500    7.500    1.125    0.000    1.000 
#    0.000    1.250    0.000    3.750    0.000    0.000 
#    0.000    0.000    0.000    0.000    0.000    0.000 
#
# Total GULP energy -198242.281168 kJ/mol
# GULP energy per Si atom -12390.142573 kJ/mol
# Density = 1.933534 g / cm^3
# Si number density = 19.379452 Si / 1000 Ang^3
#
#
#
# Elastic Constant Matrix: (Units=GPa)
#
#
# Indices 1 2 3 4 5 6 
#
# 1 54.9868 31.0955 30.7990 2.3867 -7.0687 10.8721
# 2 31.0955 112.8037 58.4187 8.2282 -1.0184 -2.3756
# 3 30.7990 58.4187 117.0697 11.4013 1.0189 1.8321
# 4 2.3867 8.2282 11.4013 27.3063 -1.7233 2.2696
# 5 -7.0687 -1.0184 1.0189 -1.7233 9.7078 -2.6128
# 6 10.8721 -2.3756 1.8321 2.2696 -2.6128 22.9161
#
#
#
# Elastic Compliance Matrix: (Units=1/GPa)
#
#
# Indices 1 2 3 4 5 6 
#
# 1 0.028820 -0.005666 -0.005061 0.003462 0.018276 -0.012115
# 2 -0.005666 0.013228 -0.004987 -0.001866 -0.001337 0.004491
# 3 -0.005061 -0.004987 0.012778 -0.003819 -0.006080 0.000548
# 4 0.003462 -0.001866 -0.003819 0.039384 0.008517 -0.004460
# 5 0.018276 -0.001337 -0.006080 0.008517 0.119528 0.004461
# 6 -0.012115 0.004491 0.000548 -0.004460 0.004461 0.050757
#
#
# Mechanical properties :
#
#
# Convention : Reuss Voigt Hill
#
# Bulk Modulus (GPa) = 42.73969 58.38740 50.56354
# Shear Modulus (GPa) = 16.46229 22.95583 19.70906
#
# Velocity S-wave (km/s) = 2.91773 3.44546 3.19252
# Velocity P-wave (km/s) = 5.78385 6.78396 6.30377
#
# Compressibility (1/GPa) = 0.02339746
#
# Stress axis : x y z
#
# Youngs Moduli (GPa) = 34.69850 75.59561 78.25674
#
# Poissons Ratio (x) = 0.42833 0.39607
# Poissons Ratio (y) = 0.19660 0.39029
# Poissons Ratio (z) = 0.17562 0.37702
#
# Static dielectric constant tensor:
#      x y z
#    x 3.160680 -0.160480 -0.099640 
#    y -0.160480 3.592020 0.219450 
#    z -0.099640 0.219450 4.300410 
# 
# 
# High freq. dielectric constant tensor:
#      x y z
#    x 1.712480 -0.017740 -0.000510 
#    y -0.017740 1.754470 0.007090 
#    z -0.000510 0.007090 1.771690 
# 
# From -- ./inp_files/201634.got.cif
#   From: 2010.06.25/outbox.cif.g09.slc.cpg/sg2_101_cif.got.tgz:201634.got - 2010.06.27 13:26:56.
