data_PCOD8042585
_publ_section_title
;
Structure prediction by ZEFSAII (Michael W. Deem and Ramdas Pophale) SiO2 
 PCOD8042585
Probable space group: P -1
;
_chemical_formula_sum "Si O2"
_cell_formula_units_Z 12
_cell_length_a 18.004682
_cell_length_b 10.392446
_cell_length_c 11.360225
_cell_angle_alpha 133.821836
_cell_angle_beta 23.161238
_cell_angle_gamma 126.505350
_cell_volume 596.660461
_symmetry_space_group_name_H-M "P -1"
_symmetry_group_IT_number 2
_symmetry_cell_setting 'triclinic'
loop_
_space_group_symop_operation_xyz
x,y,z
-x,-y,-z
loop_
_atom_site_type_symbol
_atom_site_label
_atom_site_fract_x
_atom_site_fract_y
_atom_site_fract_z
Si Si1 0.003753 0.977109 0.618093
Si Si2 0.217515 0.765585 0.732843
Si Si3 0.795024 0.807732 0.373951
Si Si4 0.543876 0.592104 0.745023
Si Si5 0.681234 0.134142 0.600879
Si Si6 0.122290 0.651053 0.381395
O O1 0.021244 0.765488 0.491597
O O2 0.187747 0.055733 0.454288
O O3 0.000000 0.000000 0.500000
O O4 0.810597 0.087691 0.027178
O O5 0.353379 0.589435 0.463070
O O6 0.314351 0.853023 0.537734
O O7 0.009220 0.714318 0.967067
O O8 0.670581 0.654477 0.494368
O O9 0.692100 0.924780 0.490092
O O10 0.511571 0.746193 0.991828
O O11 0.337503 0.560286 0.974104
O O12 0.864662 0.211973 0.440536
O O13 0.000000 0.500000 0.500000
#
# Coordination Sequence:
#
# PCOD8042585 Si02
#       6
#     2   2   2   2   2   2
#     4   9  21  38  58  76 114 149 182 220 281 322
#     4  10  19  35  58  90 107 140 185 229 274 324
#     4   9  19  34  62  81 114 141 184 223 278 321
#     4  10  19  35  58  90 107 140 185 229 274 324
#     4   9  19  34  62  81 114 141 184 223 278 321
#     4   9  21  38  58  76 114 149 182 220 281 322
#
# _framework density 20.111940000000001
#
# number of rings (size 3 to 8) (size 9 to 14) (size 15 to 20)
#    2.000    0.667    0.000    2.000    0.000    1.333 
#    0.000    1.667    0.000    0.000    0.000    0.000 
#    0.000    0.000    0.000    0.000    0.000    0.000 
#
# Total GULP energy -148675.821229 kJ/mol
# GULP energy per Si atom -12389.651769 kJ/mol
# Density = 2.006616 g / cm^3
# Si number density = 20.111940 Si / 1000 Ang^3
#
#
#
# Elastic Constant Matrix: (Units=GPa)
#
#
# Indices 1 2 3 4 5 6 
#
# 1 64.5336 64.0692 34.4047 4.9142 12.3379 -41.2890
# 2 64.0692 106.6190 37.3265 -8.5674 -8.8045 -51.6543
# 3 34.4047 37.3265 102.0363 9.4001 -6.4613 -31.4342
# 4 4.9142 -8.5674 9.4001 38.9639 -7.2223 -8.0442
# 5 12.3379 -8.8045 -6.4613 -7.2223 31.8749 -2.3513
# 6 -41.2890 -51.6543 -31.4342 -8.0442 -2.3513 42.4059
#
#
#
# Elastic Compliance Matrix: (Units=1/GPa)
#
#
# Indices 1 2 3 4 5 6 
#
# 1 0.108620 -0.071014 -0.011990 -0.040288 -0.073317 -0.001338
# 2 -0.071014 0.083920 0.009363 0.048597 0.067485 0.052980
# 3 -0.011990 0.009363 0.014448 0.004818 0.012135 0.012028
# 4 -0.040288 0.048597 0.004818 0.056279 0.045456 0.036737
# 5 -0.073317 0.067485 0.012135 0.045456 0.093633 0.033627
# 6 -0.001338 0.052980 0.012028 0.036737 0.033627 0.104563
#
#
# Mechanical properties :
#
#
# Convention : Reuss Voigt Hill
#
# Bulk Modulus (GPa) = 16.74850 60.53218 38.64034
# Shear Modulus (GPa) = 7.95361 31.80816 19.88088
#
# Velocity S-wave (km/s) = 1.99079 3.98119 3.14747
# Velocity P-wave (km/s) = 3.69189 7.16213 5.69764
#
# Compressibility (1/GPa) = 0.05970683
#
# Stress axis : x y z
#
# Youngs Moduli (GPa) = 9.20642 11.91612 69.21390
#
# Poissons Ratio (x) = 0.84621 0.82987
# Poissons Ratio (y) = 0.65378 -0.64806
# Poissons Ratio (z) = 0.11038 -0.11157
#
# Static dielectric constant tensor:
#      x y z
#    x 3.236040 -0.290340 -0.054040 
#    y -0.290340 3.465110 0.068170 
#    z -0.054040 0.068170 3.540210 
# 
# 
# High freq. dielectric constant tensor:
#      x y z
#    x 1.745610 -0.036800 -0.002190 
#    y -0.036800 1.779220 0.002330 
#    z -0.002190 0.002330 1.780860 
# 
# From -- ./inp_files/469542.got.cif
#   From: 2010.06.25/outbox.cif.g09.slc.cpg/sg2_235_cif.got.tgz:469542.got - 2010.06.27 13:26:56.
