data_PCOD8042690
_publ_section_title
;
Structure prediction by ZEFSAII (Michael W. Deem and Ramdas Pophale) SiO2 
 PCOD8042690
Probable space group: P -1
;
_chemical_formula_sum "Si O2"
_cell_formula_units_Z 14
_cell_length_a 21.557029
_cell_length_b 9.583645
_cell_length_c 7.530333
_cell_angle_alpha 73.155437
_cell_angle_beta 94.777986
_cell_angle_gamma 34.688838
_cell_volume 683.981308
_symmetry_space_group_name_H-M "P -1"
_symmetry_group_IT_number 2
_symmetry_cell_setting 'triclinic'
loop_
_space_group_symop_operation_xyz
x,y,z
-x,-y,-z
loop_
_atom_site_type_symbol
_atom_site_label
_atom_site_fract_x
_atom_site_fract_y
_atom_site_fract_z
Si Si1 0.364081 0.718132 0.157751
Si Si2 0.416742 0.505808 0.620087
Si Si3 0.350320 0.193234 0.079426
Si Si4 0.927292 0.291011 0.058660
Si Si5 0.990744 0.835217 0.253659
Si Si6 0.174598 0.361127 0.771470
Si Si7 0.692362 0.390027 0.097313
O O1 0.330582 0.731340 0.343855
O O2 0.499221 0.533278 0.266908
O O3 0.389878 0.531922 0.096967
O O4 0.236122 0.073733 0.922591
O O5 0.314849 0.666648 0.689199
O O6 0.513748 0.172759 0.699867
O O7 0.233058 0.412820 0.120368
O O8 0.292136 0.240412 0.865678
O O9 0.379558 0.303028 0.020697
O O10 0.988963 0.243555 0.920154
O O11 0.940934 0.367440 0.205731
O O12 0.006532 0.976009 0.234441
O O13 0.108424 0.507634 0.508646
O O14 0.847395 0.075487 0.194573
#
# Coordination Sequence:
#
# PCOD8042690 Si02
#       7
#     2   2   2   2   2   2   2
#     4  10  23  40  58  82 112 156 193 220 292 333
#     4  10  21  43  59  77 116 154 186 237 278 337
#     4   8  19  39  60  86 112 144 195 229 280 327
#     4   8  18  35  56  86 112 147 184 226 273 342
#     4  10  19  35  60  86 117 144 186 230 284 328
#     4   9  19  38  59  83 112 157 184 220 282 344
#     4  11  22  36  58  92 112 140 191 243 276 330
#
# _framework density 20.468395999999998
#
# number of rings (size 3 to 8) (size 9 to 14) (size 15 to 20)
#    0.857    1.714    0.000    1.286    0.000    3.429 
#   10.286    1.429    0.000    0.000    0.000    0.000 
#    0.000    0.000    0.000    0.000    0.000    0.000 
#
# Total GULP energy -173527.846620 kJ/mol
# GULP energy per Si atom -12394.846187 kJ/mol
# Density = 2.042181 g / cm^3
# Si number density = 20.468396 Si / 1000 Ang^3
#
#
#
# Elastic Constant Matrix: (Units=GPa)
#
#
# Indices 1 2 3 4 5 6 
#
# 1 82.3690 37.8014 48.0322 5.1684 -23.4993 10.2813
# 2 37.8014 48.6626 40.3822 1.9962 -9.2584 5.9268
# 3 48.0322 40.3822 125.3334 -10.1623 -24.1218 -0.6627
# 4 5.1684 1.9962 -10.1623 29.3103 -7.1868 -4.3507
# 5 -23.4993 -9.2584 -24.1218 -7.1868 25.8817 12.1260
# 6 10.2813 5.9268 -0.6627 -4.3507 12.1260 37.8218
#
#
#
# Elastic Compliance Matrix: (Units=1/GPa)
#
#
# Indices 1 2 3 4 5 6 
#
# 1 0.028897 -0.014549 -0.001443 -0.000266 0.026185 -0.014026
# 2 -0.014549 0.037475 -0.008793 -0.005347 -0.009679 0.000416
# 3 -0.001443 -0.008793 0.014275 0.008529 0.011545 -0.000700
# 4 -0.000266 -0.005347 0.008529 0.041762 0.017232 0.000339
# 5 0.026185 -0.009679 0.011545 0.017232 0.089546 -0.032126
# 6 -0.014026 0.000416 -0.000700 0.000339 -0.032126 0.040514
#
#
# Mechanical properties :
#
#
# Convention : Reuss Voigt Hill
#
# Bulk Modulus (GPa) = 32.17759 56.53293 44.35526
# Shear Modulus (GPa) = 16.00533 27.27938 21.64235
#
# Velocity S-wave (km/s) = 2.79938 3.65465 3.25523
# Velocity P-wave (km/s) = 5.11893 6.74450 5.98714
#
# Compressibility (1/GPa) = 0.03107753
#
# Stress axis : x y z
#
# Youngs Moduli (GPa) = 34.60624 26.68445 70.05491
#
# Poissons Ratio (x) = 0.38822 0.10107
# Poissons Ratio (y) = 0.50347 0.61599
# Poissons Ratio (z) = 0.04993 0.23464
#
# Static dielectric constant tensor:
#      x y z
#    x 3.519470 0.132100 -0.175860 
#    y 0.132100 3.645980 0.026410 
#    z -0.175860 0.026410 3.460260 
# 
# 
# High freq. dielectric constant tensor:
#      x y z
#    x 1.781960 0.008290 -0.014410 
#    y 0.008290 1.798980 0.000930 
#    z -0.014410 0.000930 1.782870 
# 
# From -- ./inp_files/122519.got.cif
#   From: 2010.06.25/outbox.cif.g09.slc.cpg/sg2_62_cif.got.tgz:122519.got - 2010.06.27 13:26:56.
