data_PCOD8042786
_publ_section_title
;
Structure prediction by ZEFSAII (Michael W. Deem and Ramdas Pophale) SiO2 
 PCOD8042786
Probable space group: P -1
;
_chemical_formula_sum "Si O2"
_cell_formula_units_Z 16
_cell_length_a 12.641649
_cell_length_b 11.214309
_cell_length_c 11.805456
_cell_angle_alpha 50.012513
_cell_angle_beta 118.285740
_cell_angle_gamma 145.497536
_cell_volume 720.342768
_symmetry_space_group_name_H-M "P -1"
_symmetry_group_IT_number 2
_symmetry_cell_setting 'triclinic'
loop_
_space_group_symop_operation_xyz
x,y,z
-x,-y,-z
loop_
_atom_site_type_symbol
_atom_site_label
_atom_site_fract_x
_atom_site_fract_y
_atom_site_fract_z
Si Si1 0.751932 0.591054 0.668947
Si Si2 0.264680 0.549495 0.664125
Si Si3 0.919412 0.019103 0.775544
Si Si4 0.572831 0.831021 0.821838
Si Si5 0.153733 0.987592 0.518034
Si Si6 0.877399 0.377541 0.266125
Si Si7 0.295142 0.707382 0.335799
Si Si8 0.253174 0.472545 0.037622
O O1 0.698670 0.723909 0.556333
O O2 0.627994 0.355642 0.668179
O O3 0.715857 0.485542 0.839113
O O4 0.972215 0.814668 0.612923
O O5 0.466764 0.709475 0.721501
O O6 0.176952 0.607288 0.650017
O O7 0.277838 0.610790 0.505613
O O8 0.126872 0.263204 0.779222
O O9 0.776853 0.963209 0.824360
O O10 0.902744 0.063503 0.611823
O O11 0.895129 0.810086 0.896050
O O12 0.574169 0.011239 0.757226
O O13 0.450088 0.622680 0.983688
O O14 0.241151 0.902973 0.637576
O O15 0.098327 0.561569 0.268584
O O16 0.829428 0.446871 0.097736
#
# Coordination Sequence:
#
# PCOD8042786 Si02
#       8
#     2   2   2   2   2   2   2   2
#     4   9  19  37  62  89 121 165 211 245 308 361
#     4  11  21  38  65  95 120 162 206 262 307 356
#     4  11  20  42  66  91 125 158 210 258 307 359
#     4  11  24  37  61  96 128 161 200 255 314 371
#     4   9  18  34  65  91 113 163 208 260 296 354
#     4  10  19  35  61  90 124 157 203 249 314 354
#     4  11  20  37  62  93 124 161 205 261 304 361
#     4  10  24  39  59  94 127 168 200 249 307 380
#
# _framework density 22.211649000000001
#
# number of rings (size 3 to 8) (size 9 to 14) (size 15 to 20)
#    0.000    1.750    3.750    1.875    0.000    5.500 
#    2.250    0.000    0.000   13.500    0.000    0.000 
#    0.000    0.000    0.000    0.000    0.000    0.000 
#
# Total GULP energy -198286.733900 kJ/mol
# GULP energy per Si atom -12392.920869 kJ/mol
# Density = 2.216109 g / cm^3
# Si number density = 22.211649 Si / 1000 Ang^3
#
#
#
# Elastic Constant Matrix: (Units=GPa)
#
#
# Indices 1 2 3 4 5 6 
#
# 1 55.9730 24.8406 47.9962 8.3037 -0.7319 -35.3724
# 2 24.8406 116.3278 45.5212 0.0146 2.9708 -40.4341
# 3 47.9962 45.5212 152.3304 7.1508 -2.3833 -24.2602
# 4 8.3037 0.0146 7.1508 35.1808 -19.1405 -4.0192
# 5 -0.7319 2.9708 -2.3833 -19.1405 44.9567 -6.1771
# 6 -35.3724 -40.4341 -24.2602 -4.0192 -6.1771 43.7879
#
#
#
# Elastic Compliance Matrix: (Units=1/GPa)
#
#
# Indices 1 2 3 4 5 6 
#
# 1 0.052873 0.008802 -0.011993 -0.002343 0.004781 0.044654
# 2 0.008802 0.014981 -0.004270 0.002370 0.002568 0.019158
# 3 -0.011993 -0.004270 0.010354 -0.000582 -0.000718 -0.008050
# 4 -0.002343 0.002370 -0.000582 0.039184 0.017283 0.006008
# 5 0.004781 0.002568 -0.000718 0.017283 0.031094 0.011809
# 6 0.044654 0.019158 -0.008050 0.006008 0.011809 0.074358
#
#
# Mechanical properties :
#
#
# Convention : Reuss Voigt Hill
#
# Bulk Modulus (GPa) = 15.80153 62.37191 39.08672
# Shear Modulus (GPa) = 19.31541 38.53662 28.92601
#
# Velocity S-wave (km/s) = 2.95211 4.16982 3.61264
# Velocity P-wave (km/s) = 4.33006 7.16414 5.91922
#
# Compressibility (1/GPa) = 0.06328500
#
# Stress axis : x y z
#
# Youngs Moduli (GPa) = 18.91336 66.75130 96.58490
#
# Poissons Ratio (x) = -0.58754 1.15835
# Poissons Ratio (y) = -0.16648 0.41243
# Poissons Ratio (z) = 0.22683 0.28503
#
# Static dielectric constant tensor:
#      x y z
#    x 4.234740 -0.453150 0.043750 
#    y -0.453150 4.166500 -0.387670 
#    z 0.043750 -0.387670 4.038920 
# 
# 
# High freq. dielectric constant tensor:
#      x y z
#    x 1.869370 -0.028020 -0.001980 
#    y -0.028020 1.866690 -0.019830 
#    z -0.001980 -0.019830 1.876480 
# 
# From -- ./inp_files/295872.got.cif
#   From: 2010.06.25/outbox.cif.g09.slc.cpg/sg2_148_cif.got.tgz:295872.got - 2010.06.27 13:26:56.
