data_PCOD8042936
_publ_section_title
;
Structure prediction by ZEFSAII (Michael W. Deem and Ramdas Pophale) SiO2 
 PCOD8042936
Probable space group: P -1
;
_chemical_formula_sum "Si O2"
_cell_formula_units_Z 16
_cell_length_a 12.141866
_cell_length_b 9.066095
_cell_length_c 7.775178
_cell_angle_alpha 83.815189
_cell_angle_beta 54.041352
_cell_angle_gamma 102.349123
_cell_volume 646.626743
_symmetry_space_group_name_H-M "P -1"
_symmetry_group_IT_number 2
_symmetry_cell_setting 'triclinic'
loop_
_space_group_symop_operation_xyz
x,y,z
-x,-y,-z
loop_
_atom_site_type_symbol
_atom_site_label
_atom_site_fract_x
_atom_site_fract_y
_atom_site_fract_z
Si Si1 0.297625 0.073254 0.190409
Si Si2 0.070455 0.676049 0.836296
Si Si3 0.451210 0.551633 0.714721
Si Si4 0.864430 0.487570 0.515840
Si Si5 0.790316 0.762012 0.051695
Si Si6 0.615951 0.171279 0.412106
Si Si7 0.250247 0.260389 0.511510
Si Si8 0.618113 0.217311 0.798372
O O1 0.219972 0.113609 0.426745
O O2 0.287127 0.892491 0.226336
O O3 0.219930 0.101000 0.083163
O O4 0.467383 0.174404 0.040829
O O5 0.142298 0.643748 0.602185
O O6 0.212329 0.804304 0.780938
O O7 0.000000 0.500000 0.000000
O O8 0.952738 0.759224 0.903751
O O9 0.500000 0.500000 0.500000
O O10 0.314954 0.400865 0.919689
O O11 0.406030 0.704670 0.716942
O O12 0.595116 0.604575 0.694955
O O13 0.872228 0.658229 0.414393
O O14 0.711068 0.394056 0.761444
O O15 0.000000 0.500000 0.500000
O O16 0.750660 0.793349 0.280997
O O17 0.578541 0.210331 0.633639
O O18 0.500000 0.000000 0.500000
#
# Coordination Sequence:
#
# PCOD8042936 Si02
#       8
#     2   2   2   2   2   2   2   2
#     4  11  24  42  68  96 137 182 221 280 350 404
#     4  11  20  42  68 101 139 177 226 284 342 407
#     4  10  19  35  65  93 127 173 221 278 335 390
#     4  11  23  42  69  96 133 180 229 283 339 405
#     4  11  21  40  68 100 134 174 234 284 334 397
#     4  11  22  41  69 101 134 179 226 281 345 405
#     4  11  22  39  65 101 130 169 236 288 327 404
#     4  10  23  45  63  95 142 178 224 281 346 415
#
# _framework density 24.743794999999999
#
# number of rings (size 3 to 8) (size 9 to 14) (size 15 to 20)
#    0.000    1.250    2.500    6.000    0.000    3.000 
#    4.500    8.750    0.000   15.000    0.000    0.000 
#    0.000    0.000    0.000    0.000    0.000    0.000 
#
# Total GULP energy -198231.985012 kJ/mol
# GULP energy per Si atom -12389.499063 kJ/mol
# Density = 2.468748 g / cm^3
# Si number density = 24.743795 Si / 1000 Ang^3
#
#
#
# Elastic Constant Matrix: (Units=GPa)
#
#
# Indices 1 2 3 4 5 6 
#
# 1 144.9246 46.4076 24.1483 1.9580 -1.9588 -23.6209
# 2 46.4076 76.7299 22.8948 0.5601 2.4236 -8.3117
# 3 24.1483 22.8948 55.5271 4.1632 -3.8964 -2.0060
# 4 1.9580 0.5601 4.1632 38.7105 0.5026 -5.5671
# 5 -1.9588 2.4236 -3.8964 0.5026 45.7792 -8.3090
# 6 -23.6209 -8.3117 -2.0060 -5.5671 -8.3090 44.3912
#
#
#
# Elastic Compliance Matrix: (Units=1/GPa)
#
#
# Indices 1 2 3 4 5 6 
#
# 1 0.009454 -0.004706 -0.001955 0.000409 0.001272 0.004350
# 2 -0.004706 0.017550 -0.005332 0.000625 -0.001531 0.000333
# 3 -0.001955 -0.005332 0.021323 -0.002287 0.001854 -0.001015
# 4 0.000409 0.000625 -0.002287 0.026563 0.000150 0.003591
# 5 0.001272 -0.001531 0.001854 0.000150 0.023007 0.004799
# 6 0.004350 0.000333 -0.001015 0.003591 0.004799 0.026207
#
#
# Mechanical properties :
#
#
# Convention : Reuss Voigt Hill
#
# Bulk Modulus (GPa) = 41.08432 51.56479 46.32456
# Shear Modulus (GPa) = 32.00964 38.02491 35.01727
#
# Velocity S-wave (km/s) = 3.60063 3.92439 3.76599
# Velocity P-wave (km/s) = 5.82460 6.43577 6.13780
#
# Compressibility (1/GPa) = 0.02434018
#
# Stress axis : x y z
#
# Youngs Moduli (GPa) = 105.77901 56.98042 46.89828
#
# Poissons Ratio (x) = 0.26817 0.09169
# Poissons Ratio (y) = 0.49783 0.25005
# Poissons Ratio (z) = 0.20681 0.30380
#
# Static dielectric constant tensor:
#      x y z
#    x 5.808160 0.631380 -0.109270 
#    y 0.631380 4.752110 -0.120150 
#    z -0.109270 -0.120150 4.604300 
# 
# 
# High freq. dielectric constant tensor:
#      x y z
#    x 1.990790 -0.010450 -0.013980 
#    y -0.010450 1.972680 -0.003480 
#    z -0.013980 -0.003480 1.976360 
# 
# From -- ./inp_files/243872.got.cif
#   From: 2010.06.25/outbox.cif.g09.slc.cpg/sg2_122_cif.got.tgz:243872.got - 2010.06.27 13:26:56.
