data_PCOD8042155
_publ_section_title
;
Structure prediction by ZEFSAII (Michael W. Deem and Ramdas Pophale) SiO2 
 PCOD8042155
Probable space group: P -1
;
_chemical_formula_sum "Si O2"
_cell_formula_units_Z 16
_cell_length_a 21.104840
_cell_length_b 10.394728
_cell_length_c 13.849262
_cell_angle_alpha 150.123033
_cell_angle_beta 30.129591
_cell_angle_gamma 147.494783
_cell_volume 704.709943
_symmetry_space_group_name_H-M "P -1"
_symmetry_group_IT_number 2
_symmetry_cell_setting 'triclinic'
loop_
_space_group_symop_operation_xyz
x,y,z
-x,-y,-z
loop_
_atom_site_type_symbol
_atom_site_label
_atom_site_fract_x
_atom_site_fract_y
_atom_site_fract_z
Si Si1 0.083166 0.795586 0.993375
Si Si2 0.636075 0.584882 0.071010
Si Si3 0.061913 0.547898 0.661600
Si Si4 0.350338 0.349733 0.289251
Si Si5 0.933241 0.931351 0.439421
Si Si6 0.362359 0.119136 0.921059
Si Si7 0.923324 0.674201 0.765962
Si Si8 0.360039 0.847563 0.483439
O O1 0.980816 0.725291 0.175136
O O2 0.062476 0.045961 0.125485
O O3 0.052515 0.550609 0.794112
O O4 0.236103 0.867443 0.876792
O O5 0.493646 0.358833 0.152247
O O6 0.611447 0.604760 0.999957
O O7 0.671135 0.888760 0.268929
O O8 0.760748 0.488846 0.866941
O O9 0.220313 0.651694 0.486521
O O10 0.987523 0.732967 0.828004
O O11 0.984304 0.234935 0.519783
O O12 0.229828 0.213297 0.434931
O O13 0.378664 0.674697 0.439661
O O14 0.313267 0.166072 0.121612
O O15 0.000000 0.000000 0.500000
O O16 0.502421 0.058038 0.701177
O O17 0.000000 0.500000 0.500000
#
# Coordination Sequence:
#
# PCOD8042155 Si02
#       8
#     2   2   2   2   2   2   2   2
#     4  11  23  42  62  95 127 160 213 254 312 367
#     4  10  22  37  59  93 118 159 208 259 313 355
#     4  12  24  40  64  93 125 163 207 260 307 369
#     4  11  22  38  59  86 131 163 202 249 308 376
#     4  12  24  41  59  91 132 173 201 244 311 384
#     4  10  19  34  58  91 120 157 196 253 314 364
#     4  11  23  41  68  90 121 160 214 267 309 354
#     4  11  20  34  62  91 125 152 201 262 318 356
#
# _framework density 22.704377000000001
#
# number of rings (size 3 to 8) (size 9 to 14) (size 15 to 20)
#    0.000    1.000    6.250    3.375    3.500    0.500 
#    4.500    0.625    0.000    0.750    0.000    0.000 
#    0.000    0.000    0.000    0.000    0.000    0.000 
#
# Total GULP energy -198271.113122 kJ/mol
# GULP energy per Si atom -12391.944570 kJ/mol
# Density = 2.265270 g / cm^3
# Si number density = 22.704377 Si / 1000 Ang^3
#
#
#
# Elastic Constant Matrix: (Units=GPa)
#
#
# Indices 1 2 3 4 5 6 
#
# 1 65.5829 12.9967 33.7789 -27.5954 -3.9999 19.9163
# 2 12.9967 102.6165 52.5650 -40.3044 -3.2777 25.9013
# 3 33.7789 52.5650 144.3480 -32.5982 3.1827 19.3434
# 4 -27.5954 -40.3044 -32.5982 55.7611 10.2032 -9.3775
# 5 -3.9999 -3.2777 3.1827 10.2032 40.7835 -10.6857
# 6 19.9163 25.9013 19.3434 -9.3775 -10.6857 21.7265
#
#
#
# Elastic Compliance Matrix: (Units=1/GPa)
#
#
# Indices 1 2 3 4 5 6 
#
# 1 0.038059 0.018822 -0.003071 0.024657 -0.014004 -0.050837
# 2 0.018822 0.029386 -0.003418 0.023305 -0.013342 -0.045746
# 3 -0.003071 -0.003418 0.009599 0.001695 -0.002286 -0.002049
# 4 0.024657 0.023305 0.001695 0.044240 -0.017796 -0.041552
# 5 -0.014004 -0.013342 -0.002286 -0.017796 0.037602 0.041590
# 6 -0.050837 -0.045746 -0.002049 -0.041552 0.041590 0.151510
#
#
# Mechanical properties :
#
#
# Convention : Reuss Voigt Hill
#
# Bulk Modulus (GPa) = 9.83197 56.80316 33.31757
# Shear Modulus (GPa) = 15.64298 37.86800 26.75549
#
# Velocity S-wave (km/s) = 2.62770 4.08839 3.43655
# Velocity P-wave (km/s) = 3.68052 6.88182 5.51841
#
# Compressibility (1/GPa) = 0.10170902
#
# Stress axis : x y z
#
# Youngs Moduli (GPa) = 26.27524 34.02975 104.18079
#
# Poissons Ratio (x) = -0.64049 0.31989
# Poissons Ratio (y) = -0.49454 0.35611
# Poissons Ratio (z) = 0.08068 0.11632
#
# Static dielectric constant tensor:
#      x y z
#    x 4.184620 0.114020 -0.063320 
#    y 0.114020 4.494840 -0.166250 
#    z -0.063320 -0.166250 4.408210 
# 
# 
# High freq. dielectric constant tensor:
#      x y z
#    x 1.854460 0.032190 0.009630 
#    y 0.032190 1.886980 -0.014690 
#    z 0.009630 -0.014690 1.918790 
# 
# From -- ./inp_files/541164.got.cif
#   From: 2010.06.25/outbox.cif.g09.slc.cpg/sg2_271_cif.got.tgz:541164.got - 2010.06.27 13:26:56.
