data_PCOD8042579
_publ_section_title
;
Structure prediction by ZEFSAII (Michael W. Deem and Ramdas Pophale) SiO2 
 PCOD8042579
Probable space group: P -1
;
_chemical_formula_sum "Si O2"
_cell_formula_units_Z 16
_cell_length_a 11.622298
_cell_length_b 11.516748
_cell_length_c 9.093152
_cell_angle_alpha 121.236233
_cell_angle_beta 56.109904
_cell_angle_gamma 126.953071
_cell_volume 775.941908
_symmetry_space_group_name_H-M "P -1"
_symmetry_group_IT_number 2
_symmetry_cell_setting 'triclinic'
loop_
_space_group_symop_operation_xyz
x,y,z
-x,-y,-z
loop_
_atom_site_type_symbol
_atom_site_label
_atom_site_fract_x
_atom_site_fract_y
_atom_site_fract_z
Si Si1 0.020129 0.607811 0.918532
Si Si2 0.211397 0.662481 0.543425
Si Si3 0.744924 0.510110 0.849954
Si Si4 0.298842 0.896874 0.974749
Si Si5 0.438266 0.267098 0.623257
Si Si6 0.652600 0.010217 0.320858
Si Si7 0.425885 0.175157 0.254319
Si Si8 0.545384 0.598993 0.859891
O O1 0.107344 0.571975 0.696559
O O2 0.119315 0.779992 0.014024
O O3 0.855594 0.590690 0.962145
O O4 0.000000 0.500000 0.000000
O O5 0.164688 0.560577 0.362944
O O6 0.386354 0.706449 0.489191
O O7 0.205475 0.824964 0.631271
O O8 0.698225 0.621074 0.856810
O O9 0.579378 0.374826 0.931365
O O10 0.361688 0.002234 0.854211
O O11 0.397184 0.800637 0.861681
O O12 0.316898 0.002752 0.171204
O O13 0.370252 0.207604 0.471442
O O14 0.439766 0.426081 0.767070
O O15 0.328210 0.135395 0.728606
O O16 0.500000 0.000000 0.500000
O O17 0.398750 0.288931 0.240644
#
# Coordination Sequence:
#
# PCOD8042579 Si02
#       8
#     2   2   2   2   2   2   2   2
#     4  11  21  39  58  87 120 149 189 249 294 335
#     4   9  19  35  57  90 111 150 194 236 294 336
#     4  10  22  37  59  82 119 152 201 226 293 345
#     4  10  22  34  59  91 111 148 196 242 300 327
#     4  10  19  35  58  88 121 149 189 237 294 339
#     4   9  16  31  54  82 120 137 185 243 280 341
#     4  11  20  36  58  85 121 145 191 248 281 339
#     4  10  23  36  58  89 114 159 196 229 286 354
#
# _framework density 20.620100999999998
#
# number of rings (size 3 to 8) (size 9 to 14) (size 15 to 20)
#    0.000    2.000    3.750    1.500    7.000    1.000 
#    0.000    0.625    0.000    0.750    0.000    0.000 
#    0.000    0.000    0.000    0.000    0.000    0.000 
#
# Total GULP energy -198256.950875 kJ/mol
# GULP energy per Si atom -12391.059430 kJ/mol
# Density = 2.057317 g / cm^3
# Si number density = 20.620101 Si / 1000 Ang^3
#
#
#
# Elastic Constant Matrix: (Units=GPa)
#
#
# Indices 1 2 3 4 5 6 
#
# 1 111.6738 45.3288 25.8720 -7.3981 25.6361 -0.1041
# 2 45.3288 84.8381 27.3454 -10.2770 13.2246 -9.0038
# 3 25.8720 27.3454 71.0265 -5.7023 15.4552 -0.4797
# 4 -7.3981 -10.2770 -5.7023 34.5464 -0.9782 8.7402
# 5 25.6361 13.2246 15.4552 -0.9782 30.4802 -2.2977
# 6 -0.1041 -9.0038 -0.4797 8.7402 -2.2977 32.8489
#
#
#
# Elastic Compliance Matrix: (Units=1/GPa)
#
#
# Indices 1 2 3 4 5 6 
#
# 1 0.013539 -0.005737 -0.000736 0.001468 -0.008669 -0.002537
# 2 -0.005737 0.016888 -0.004219 0.002089 0.000005 0.003994
# 3 -0.000736 -0.004219 0.017518 0.001756 -0.006514 -0.001826
# 4 0.001468 0.002089 0.001756 0.032157 -0.002613 -0.008136
# 5 -0.008669 0.000005 -0.006514 -0.002613 0.043590 0.003623
# 6 -0.002537 0.003994 -0.001826 -0.008136 0.003623 0.033921
#
#
# Mechanical properties :
#
#
# Convention : Reuss Voigt Hill
#
# Bulk Modulus (GPa) = 37.64776 51.62567 44.63671
# Shear Modulus (GPa) = 26.61726 30.84124 28.72925
#
# Velocity S-wave (km/s) = 3.59672 3.87161 3.73670
# Velocity P-wave (km/s) = 5.96205 6.71392 6.34912
#
# Compressibility (1/GPa) = 0.02656201
#
# Stress axis : x y z
#
# Youngs Moduli (GPa) = 73.86296 59.21308 57.08496
#
# Poissons Ratio (x) = 0.33968 0.04201
# Poissons Ratio (y) = 0.42372 0.24083
# Poissons Ratio (z) = 0.05435 0.24981
#
# Static dielectric constant tensor:
#      x y z
#    x 3.571020 -0.134320 0.265790 
#    y -0.134320 4.233950 0.283390 
#    z 0.265790 0.283390 3.930210 
# 
# 
# High freq. dielectric constant tensor:
#      x y z
#    x 1.776930 -0.002050 0.028600 
#    y -0.002050 1.798330 0.005610 
#    z 0.028600 0.005610 1.808700 
# 
# From -- ./inp_files/262789.got.cif
#   From: 2010.06.25/outbox.cif.g09.slc.cpg/sg2_132_cif.got.tgz:262789.got - 2010.06.27 13:26:56.
