data_PCOD8042540
_publ_section_title
;
Structure prediction by ZEFSAII (Michael W. Deem and Ramdas Pophale) SiO2 
 PCOD8042540
Probable space group: P -1
;
_chemical_formula_sum "Si O2"
_cell_formula_units_Z 16
_cell_length_a 16.637622
_cell_length_b 17.043400
_cell_length_c 15.678778
_cell_angle_alpha 39.993302
_cell_angle_beta 142.373269
_cell_angle_gamma 163.095282
_cell_volume 788.392270
_symmetry_space_group_name_H-M "P -1"
_symmetry_group_IT_number 2
_symmetry_cell_setting 'triclinic'
loop_
_space_group_symop_operation_xyz
x,y,z
-x,-y,-z
loop_
_atom_site_type_symbol
_atom_site_label
_atom_site_fract_x
_atom_site_fract_y
_atom_site_fract_z
Si Si1 0.208329 0.799605 0.519205
Si Si2 0.633868 0.428321 0.782950
Si Si3 0.229815 0.507550 0.344112
Si Si4 0.191397 0.982302 0.495080
Si Si5 0.776099 0.082654 0.919877
Si Si6 0.056062 0.968001 0.769703
Si Si7 0.139019 0.722786 0.337422
Si Si8 0.805708 0.379546 0.094180
O O1 0.116186 0.826603 0.485696
O O2 0.063185 0.708963 0.380010
O O3 0.096968 0.573654 0.644503
O O4 0.553672 0.091791 0.556797
O O5 0.612644 0.401259 0.686118
O O6 0.337825 0.242328 0.724646
O O7 0.669261 0.320338 0.941185
O O8 0.895926 0.733472 0.774717
O O9 0.051525 0.244438 0.448511
O O10 0.987023 0.408809 0.203624
O O11 0.479185 0.761309 0.407142
O O12 0.149630 0.086128 0.340921
O O13 0.449003 0.857390 0.853767
O O14 0.843991 0.149190 0.820473
O O15 0.840132 0.999302 0.077980
O O16 0.989284 0.348031 0.925413
#
# Coordination Sequence:
#
# PCOD8042540 Si02
#       8
#     2   2   2   2   2   2   2   2
#     4  10  21  35  55  85 114 135 168 225 273 319
#     4  10  22  39  56  78 107 144 187 229 269 313
#     4  12  23  35  58  81 107 145 182 229 278 321
#     4  12  24  37  54  80 113 146 183 221 267 319
#     4  10  19  35  58  79 107 146 180 214 268 327
#     4  10  23  39  54  76 110 149 186 224 259 313
#     4  10  19  35  59  84 109 137 173 216 274 329
#     4  10  20  35  56  83 110 134 177 232 276 318
#
# _framework density 20.294466
#
# number of rings (size 3 to 8) (size 9 to 14) (size 15 to 20)
#    0.000    1.500    0.000    6.375    0.000    3.000 
#    0.000    5.625    0.000    0.000    0.000   12.250 
#    0.000    0.000    0.000    0.000    0.000    0.000 
#
# Total GULP energy -198403.984869 kJ/mol
# GULP energy per Si atom -12400.249054 kJ/mol
# Density = 2.024827 g / cm^3
# Si number density = 20.294466 Si / 1000 Ang^3
#
#
#
# Elastic Constant Matrix: (Units=GPa)
#
#
# Indices 1 2 3 4 5 6 
#
# 1 78.5619 19.4441 55.9327 3.3253 -13.0497 -2.0250
# 2 19.4441 100.2844 17.4424 -2.6753 -3.9275 6.9789
# 3 55.9327 17.4424 94.5325 -3.8675 -1.4987 -1.6306
# 4 3.3253 -2.6753 -3.8675 26.4569 6.1198 -4.0040
# 5 -13.0497 -3.9275 -1.4987 6.1198 30.9053 -4.3563
# 6 -2.0250 6.9789 -1.6306 -4.0040 -4.3563 28.6639
#
#
#
# Elastic Compliance Matrix: (Units=1/GPa)
#
#
# Indices 1 2 3 4 5 6 
#
# 1 0.026842 -0.002403 -0.015548 -0.008378 0.012256 0.002289
# 2 -0.002403 0.010742 -0.000572 0.000950 -0.000249 -0.002723
# 3 -0.015548 -0.000572 0.020037 0.006434 -0.006936 0.000025
# 4 -0.008378 0.000950 0.006434 0.043036 -0.011081 0.003870
# 5 0.012256 -0.000249 -0.006936 -0.011081 0.040074 0.005074
# 6 0.002289 -0.002723 0.000025 0.003870 0.005074 0.037025
#
#
# Mechanical properties :
#
#
# Convention : Reuss Voigt Hill
#
# Bulk Modulus (GPa) = 48.60149 51.00188 49.80169
# Shear Modulus (GPa) = 22.55708 29.24256 25.89982
#
# Velocity S-wave (km/s) = 3.33752 3.80005 3.57627
# Velocity P-wave (km/s) = 6.23315 6.66629 6.45335
#
# Compressibility (1/GPa) = 0.02057550
#
# Stress axis : x y z
#
# Youngs Moduli (GPa) = 37.25468 93.09100 49.90835
#
# Poissons Ratio (x) = 0.22370 0.77595
# Poissons Ratio (y) = 0.08953 0.02856
# Poissons Ratio (z) = 0.57922 0.05327
#
# Static dielectric constant tensor:
#      x y z
#    x 3.410830 0.086050 -0.339360 
#    y 0.086050 3.810610 -0.039610 
#    z -0.339360 -0.039610 3.988940 
# 
# 
# High freq. dielectric constant tensor:
#      x y z
#    x 1.763380 0.008470 -0.021350 
#    y 0.008470 1.813980 -0.003290 
#    z -0.021350 -0.003290 1.790720 
# 
# From -- ./inp_files/367843.got.cif
#   From: 2010.06.25/outbox.cif.g09.slc.cpg/sg2_184_cif.got.tgz:367843.got - 2010.06.27 13:26:56.
