data_PCOD8042621
_publ_section_title
;
Structure prediction by ZEFSAII (Michael W. Deem and Ramdas Pophale) SiO2 
 PCOD8042621
Probable space group: P -1
;
_chemical_formula_sum "Si O2"
_cell_formula_units_Z 12
_cell_length_a 11.209969
_cell_length_b 11.635069
_cell_length_c 11.741479
_cell_angle_alpha 92.411760
_cell_angle_beta 123.321089
_cell_angle_gamma 38.118936
_cell_volume 516.824265
_symmetry_space_group_name_H-M "P -1"
_symmetry_group_IT_number 2
_symmetry_cell_setting 'triclinic'
loop_
_space_group_symop_operation_xyz
x,y,z
-x,-y,-z
loop_
_atom_site_type_symbol
_atom_site_label
_atom_site_fract_x
_atom_site_fract_y
_atom_site_fract_z
Si Si1 0.683858 0.891947 0.363849
Si Si2 0.272601 0.355090 0.481912
Si Si3 0.310222 0.819238 0.895501
Si Si4 0.731676 0.223822 0.768872
Si Si5 0.291704 0.248109 0.969984
Si Si6 0.231225 0.661737 0.705048
O O1 0.580969 0.874580 0.404452
O O2 0.972038 0.625120 0.418821
O O3 0.846316 0.886773 0.505924
O O4 0.327182 0.189583 0.120045
O O5 0.599004 0.201858 0.642282
O O6 0.112139 0.452540 0.274582
O O7 0.526340 0.763739 0.955050
O O8 0.202068 0.813820 0.736651
O O9 0.538830 0.585010 0.099580
O O10 0.947228 0.132157 0.778777
O O11 0.407881 0.534539 0.665547
O O12 0.000000 0.000000 0.000000
O O13 0.500000 0.000000 0.000000
#
# Coordination Sequence:
#
# PCOD8042621 Si02
#       6
#     2   2   2   2   2   2
#     4   9  17  31  57  80 109 157 186 229 286 339
#     4   9  17  34  54  80 116 146 192 233 281 342
#     4  10  19  35  59  85 113 148 195 232 284 344
#     4   9  19  33  60  85 109 152 190 235 286 336
#     4  10  20  32  58  85 111 154 192 230 286 343
#     4   9  18  35  58  84 113 150 189 236 286 333
#
# _framework density 23.218726
#
# number of rings (size 3 to 8) (size 9 to 14) (size 15 to 20)
#    0.000    2.667    1.667    0.000    7.000    0.667 
#    0.000    8.333    0.000    2.000    0.000    0.000 
#    0.000    0.000    0.000    0.000    0.000    0.000 
#
# Total GULP energy -148737.793409 kJ/mol
# GULP energy per Si atom -12394.816117 kJ/mol
# Density = 2.316588 g / cm^3
# Si number density = 23.218726 Si / 1000 Ang^3
#
#
#
# Elastic Constant Matrix: (Units=GPa)
#
#
# Indices 1 2 3 4 5 6 
#
# 1 67.4785 16.9926 62.4137 8.6954 -1.9814 13.5380
# 2 16.9926 48.7367 21.1729 19.5193 0.2029 11.1980
# 3 62.4137 21.1729 176.5868 31.4768 5.5947 7.4206
# 4 8.6954 19.5193 31.4768 31.3650 3.9919 9.8663
# 5 -1.9814 0.2029 5.5947 3.9919 30.1069 5.8107
# 6 13.5380 11.1980 7.4206 9.8663 5.8107 23.9941
#
#
#
# Elastic Compliance Matrix: (Units=1/GPa)
#
#
# Indices 1 2 3 4 5 6 
#
# 1 0.028036 -0.005931 -0.010641 0.010785 0.005426 -0.015508
# 2 -0.005931 0.029889 0.001768 -0.017619 0.002276 -0.004456
# 3 -0.010641 0.001768 0.010965 -0.011006 -0.002632 0.006950
# 4 0.010785 -0.017619 -0.011006 0.056537 -0.001264 -0.017400
# 5 0.005426 0.002276 -0.002632 -0.001264 0.036456 -0.011618
# 6 -0.015508 -0.004456 0.006950 -0.017400 -0.011618 0.060326
#
#
# Mechanical properties :
#
#
# Convention : Reuss Voigt Hill
#
# Bulk Modulus (GPa) = 25.45633 54.88450 40.17041
# Shear Modulus (GPa) = 18.87433 29.90806 24.39120
#
# Velocity S-wave (km/s) = 2.85422 3.59291 3.24465
# Velocity P-wave (km/s) = 4.67436 6.39541 5.60138
#
# Compressibility (1/GPa) = 0.03928296
#
# Stress axis : x y z
#
# Youngs Moduli (GPa) = 35.66820 33.45718 91.19961
#
# Poissons Ratio (x) = 0.19844 0.97043
# Poissons Ratio (y) = 0.21156 -0.16128
# Poissons Ratio (z) = 0.37954 -0.05917
#
# Static dielectric constant tensor:
#      x y z
#    x 4.358190 -0.053590 -0.077270 
#    y -0.053590 4.032830 0.263480 
#    z -0.077270 0.263480 4.755800 
# 
# 
# High freq. dielectric constant tensor:
#      x y z
#    x 1.898120 0.003230 0.005390 
#    y 0.003230 1.891720 0.021570 
#    z 0.005390 0.021570 1.933230 
# 
# From -- ./inp_files/147349.got.cif
#   From: 2010.06.25/outbox.cif.g09.slc.cpg/sg2_74_cif.got.tgz:147349.got - 2010.06.27 13:26:56.
