data_PCOD8042087
_publ_section_title
;
Structure prediction by ZEFSAII (Michael W. Deem and Ramdas Pophale) SiO2 
 PCOD8042087
Probable space group: P -1
;
_chemical_formula_sum "Si O2"
_cell_formula_units_Z 16
_cell_length_a 17.491695
_cell_length_b 8.913012
_cell_length_c 12.456541
_cell_angle_alpha 92.611468
_cell_angle_beta 40.863641
_cell_angle_gamma 123.865419
_cell_volume 761.765917
_symmetry_space_group_name_H-M "P -1"
_symmetry_group_IT_number 2
_symmetry_cell_setting 'triclinic'
loop_
_space_group_symop_operation_xyz
x,y,z
-x,-y,-z
loop_
_atom_site_type_symbol
_atom_site_label
_atom_site_fract_x
_atom_site_fract_y
_atom_site_fract_z
Si Si1 0.894600 0.757931 0.725088
Si Si2 0.919627 0.211613 0.866453
Si Si3 0.355675 0.424678 0.567772
Si Si4 0.423087 0.329826 0.872993
Si Si5 0.523396 0.183229 0.429199
Si Si6 0.811111 0.680387 0.573292
Si Si7 0.138049 0.498288 0.061115
Si Si8 0.884205 0.079543 0.142049
O O1 0.867848 0.673296 0.629181
O O2 0.909606 0.626518 0.778772
O O3 0.710475 0.669409 0.950516
O O4 0.094990 0.057443 0.531997
O O5 0.933825 0.405008 0.859179
O O6 0.104380 0.342445 0.608251
O O7 0.938417 0.159407 0.962776
O O8 0.714761 0.951553 0.021901
O O9 0.500000 0.500000 0.500000
O O10 0.435778 0.475357 0.366529
O O11 0.347435 0.591414 0.612751
O O12 0.145997 0.129238 0.801178
O O13 0.575256 0.442513 0.809101
O O14 0.500000 0.000000 0.500000
O O15 0.317000 0.044485 0.620588
O O16 0.632487 0.277084 0.202059
O O17 0.043282 0.310944 0.058059
#
# Coordination Sequence:
#
# PCOD8042087 Si02
#       8
#     2   2   2   2   2   2   2   2
#     4  10  23  44  64  94 119 155 218 264 305 366
#     4  11  24  39  59  93 128 162 209 248 314 378
#     4  10  19  34  57  87 121 155 199 246 296 367
#     4  11  20  42  65  89 122 162 204 259 316 365
#     4  11  22  37  57  90 128 164 202 249 301 376
#     4  10  24  42  68  89 118 165 210 262 312 365
#     4  12  25  39  63  90 130 168 202 259 311 368
#     4  11  23  39  58  91 127 171 202 249 311 373
#
# _framework density 21.003827999999999
#
# number of rings (size 3 to 8) (size 9 to 14) (size 15 to 20)
#    0.000    1.250    3.750    3.000    3.500    2.000 
#    0.000    0.625    0.000    0.000    0.000    0.000 
#    0.000    0.000    0.000    0.000    0.000    0.000 
#
# Total GULP energy -198396.055258 kJ/mol
# GULP energy per Si atom -12399.753454 kJ/mol
# Density = 2.095602 g / cm^3
# Si number density = 21.003828 Si / 1000 Ang^3
#
#
#
# Elastic Constant Matrix: (Units=GPa)
#
#
# Indices 1 2 3 4 5 6 
#
# 1 86.9076 43.1923 28.7657 -10.8494 21.0701 1.4496
# 2 43.1923 107.2304 22.5857 -11.0772 10.8432 -11.7259
# 3 28.7657 22.5857 73.9002 -8.1210 5.5703 -2.3302
# 4 -10.8494 -11.0772 -8.1210 27.2176 4.6218 0.9596
# 5 21.0701 10.8432 5.5703 4.6218 35.9341 -9.8305
# 6 1.4496 -11.7259 -2.3302 0.9596 -9.8305 29.9427
#
#
#
# Elastic Compliance Matrix: (Units=1/GPa)
#
#
# Indices 1 2 3 4 5 6 
#
# 1 0.019866 -0.006017 -0.004519 0.006455 -0.012111 -0.007853
# 2 -0.006017 0.012702 -0.001230 0.002020 0.001124 0.005474
# 3 -0.004519 -0.001230 0.015914 0.002314 0.000553 0.001083
# 4 0.006455 0.002020 0.002314 0.042939 -0.011506 -0.004495
# 5 -0.012111 0.001124 0.000553 -0.011506 0.039968 0.014560
# 6 -0.007853 0.005474 0.001083 -0.004495 0.014560 0.040930
#
#
# Mechanical properties :
#
#
# Convention : Reuss Voigt Hill
#
# Bulk Modulus (GPa) = 40.08235 50.79174 45.43705
# Shear Modulus (GPa) = 24.48974 30.18517 27.33746
#
# Velocity S-wave (km/s) = 3.41833 3.79506 3.61161
# Velocity P-wave (km/s) = 5.89107 6.59075 6.25071
#
# Compressibility (1/GPa) = 0.02494864
#
# Stress axis : x y z
#
# Youngs Moduli (GPa) = 50.33789 78.72629 62.83967
#
# Poissons Ratio (x) = 0.47372 0.28398
# Poissons Ratio (y) = 0.30290 0.07729
# Poissons Ratio (z) = 0.22748 0.09683
#
# Static dielectric constant tensor:
#      x y z
#    x 2.004940 1.397220 0.294810 
#    y 1.397220 2.657020 -0.462040 
#    z 0.294810 -0.462040 4.154130 
# 
# 
# High freq. dielectric constant tensor:
#      x y z
#    x 1.811580 0.001730 -0.004030 
#    y 0.001730 1.821550 -0.002670 
#    z -0.004030 -0.002670 1.842660 
# 
# From -- ./inp_files/273066.got.cif
#   From: 2010.06.25/outbox.cif.g09.slc.cpg/sg2_137_cif.got.tgz:273066.got - 2010.06.27 13:26:56.
