data_PCOD8042190
_publ_section_title
;
Structure prediction by ZEFSAII (Michael W. Deem and Ramdas Pophale) SiO2 
 PCOD8042190
Probable space group: P -1
;
_chemical_formula_sum "Si O2"
_cell_formula_units_Z 16
_cell_length_a 13.691172
_cell_length_b 8.024895
_cell_length_c 9.615008
_cell_angle_alpha 64.162624
_cell_angle_beta 58.094631
_cell_angle_gamma 54.684210
_cell_volume 718.711530
_symmetry_space_group_name_H-M "P -1"
_symmetry_group_IT_number 2
_symmetry_cell_setting 'triclinic'
loop_
_space_group_symop_operation_xyz
x,y,z
-x,-y,-z
loop_
_atom_site_type_symbol
_atom_site_label
_atom_site_fract_x
_atom_site_fract_y
_atom_site_fract_z
Si Si1 0.472039 0.439394 0.190641
Si Si2 0.004087 0.418756 0.369692
Si Si3 0.905288 0.342674 0.976594
Si Si4 0.456274 0.072539 0.230550
Si Si5 0.984151 0.033316 0.794349
Si Si6 0.198406 0.723639 0.393907
Si Si7 0.617328 0.669677 0.092642
Si Si8 0.210207 0.033644 0.468314
O O1 0.512353 0.190398 0.250820
O O2 0.318477 0.557491 0.279976
O O3 0.546931 0.518880 0.213331
O O4 0.500000 0.500000 0.000000
O O5 0.006401 0.565344 0.191858
O O6 0.000000 0.500000 0.500000
O O7 0.876734 0.394500 0.442132
O O8 0.134571 0.203100 0.344362
O O9 0.894950 0.185877 0.927096
O O10 0.767435 0.523284 0.058238
O O11 0.976192 0.205672 0.108637
O O12 0.565730 0.843287 0.190184
O O13 0.339440 0.051094 0.405379
O O14 0.404350 0.215473 0.080525
O O15 0.115124 0.060608 0.660796
O O16 0.899974 0.088418 0.698093
O O17 0.250948 0.811135 0.447194
#
# Coordination Sequence:
#
# PCOD8042190 Si02
#       8
#     2   2   2   2   2   2   2   2
#     4  10  20  32  60  92 118 151 198 263 297 343
#     4  11  19  33  58  86 114 154 201 243 289 354
#     4  11  21  38  59  88 123 158 203 243 304 370
#     4  10  19  34  59  90 115 153 204 250 300 347
#     4  10  22  36  58  88 120 165 192 247 314 353
#     4  11  21  37  58  93 122 152 205 250 300 359
#     4  10  20  36  56  92 118 152 200 253 300 354
#     4  11  20  37  58  89 123 153 205 250 298 362
#
# _framework density 22.262062
#
# number of rings (size 3 to 8) (size 9 to 14) (size 15 to 20)
#    0.000    1.500    5.000    3.750    0.000    0.000 
#    0.000    3.125    0.000    0.750    0.000    0.000 
#    0.000    0.000    0.000    0.000    0.000    0.000 
#
# Total GULP energy -198294.332152 kJ/mol
# GULP energy per Si atom -12393.395759 kJ/mol
# Density = 2.221139 g / cm^3
# Si number density = 22.262062 Si / 1000 Ang^3
#
#
#
# Elastic Constant Matrix: (Units=GPa)
#
#
# Indices 1 2 3 4 5 6 
#
# 1 62.1792 47.4150 33.5438 -5.2212 -25.3618 20.5671
# 2 47.4150 149.5592 56.9023 8.5422 -20.3724 14.3414
# 3 33.5438 56.9023 110.0754 -9.5407 -28.2666 -6.6000
# 4 -5.2212 8.5422 -9.5407 42.8521 -0.4883 -4.2793
# 5 -25.3618 -20.3724 -28.2666 -0.4883 28.6248 -6.1955
# 6 20.5671 14.3414 -6.6000 -4.2793 -6.1955 38.2693
#
#
#
# Elastic Compliance Matrix: (Units=1/GPa)
#
#
# Indices 1 2 3 4 5 6 
#
# 1 0.036134 -0.006462 -0.002417 0.004071 0.022206 -0.013364
# 2 -0.006462 0.010606 -0.004982 -0.004297 -0.003698 -0.002440
# 3 -0.002417 -0.004982 0.016661 0.005423 0.012743 0.008708
# 4 0.004071 -0.004297 0.005423 0.026429 0.007329 0.004499
# 5 0.022206 -0.003698 0.012743 0.007329 0.065346 0.003048
# 6 -0.013364 -0.002440 0.008708 0.004499 0.003048 0.036726
#
#
# Mechanical properties :
#
#
# Convention : Reuss Voigt Hill
#
# Bulk Modulus (GPa) = 28.02719 66.39288 47.21004
# Shear Modulus (GPa) = 21.59672 34.21274 27.90473
#
# Velocity S-wave (km/s) = 3.11804 3.92448 3.54427
# Velocity P-wave (km/s) = 5.05766 7.10095 6.16455
#
# Compressibility (1/GPa) = 0.03567963
#
# Stress axis : x y z
#
# Youngs Moduli (GPa) = 27.67457 94.28544 60.02081
#
# Poissons Ratio (x) = 0.60930 0.14505
# Poissons Ratio (y) = 0.17884 0.29901
# Poissons Ratio (z) = 0.06688 0.46971
#
# Static dielectric constant tensor:
#      x y z
#    x 3.720670 0.437610 -0.398990 
#    y 0.437610 4.380520 -0.082680 
#    z -0.398990 -0.082680 4.097420 
# 
# 
# High freq. dielectric constant tensor:
#      x y z
#    x 1.828770 0.022950 -0.029300 
#    y 0.022950 1.891160 0.010680 
#    z -0.029300 0.010680 1.872890 
# 
# From -- ./inp_files/444160.got.cif
#   From: 2010.06.25/outbox.cif.g09.slc.cpg/sg2_223_cif.got.tgz:444160.got - 2010.06.27 13:26:56.
