data_PCOD8042273
_publ_section_title
;
Structure prediction by ZEFSAII (Michael W. Deem and Ramdas Pophale) SiO2 
 PCOD8042273
Probable space group: P -1
;
_chemical_formula_sum "Si O2"
_cell_formula_units_Z 16
_cell_length_a 8.844958
_cell_length_b 21.113198
_cell_length_c 10.698196
_cell_angle_alpha 56.294039
_cell_angle_beta 127.211900
_cell_angle_gamma 150.114718
_cell_volume 790.424752
_symmetry_space_group_name_H-M "P -1"
_symmetry_group_IT_number 2
_symmetry_cell_setting 'triclinic'
loop_
_space_group_symop_operation_xyz
x,y,z
-x,-y,-z
loop_
_atom_site_type_symbol
_atom_site_label
_atom_site_fract_x
_atom_site_fract_y
_atom_site_fract_z
Si Si1 0.716380 0.311096 0.511135
Si Si2 0.836040 0.772969 0.412597
Si Si3 0.148169 0.074581 0.122716
Si Si4 0.426639 0.569199 0.633874
Si Si5 0.149846 0.430802 0.154369
Si Si6 0.255834 0.772968 0.622494
Si Si7 0.471997 0.688904 0.083054
Si Si8 0.150153 0.074581 0.623709
O O1 0.615687 0.367341 0.375603
O O2 0.616153 0.234308 0.421317
O O3 0.526681 0.210567 0.641186
O O4 0.086768 0.420619 0.605947
O O5 0.563848 0.636776 0.494103
O O6 0.678917 0.765692 0.226219
O O7 0.992132 0.887962 0.453097
O O8 0.116852 0.808426 0.468148
O O9 0.440286 0.112040 0.263109
O O10 0.315587 0.210567 0.035639
O O11 0.906534 0.000000 0.203267
O O12 0.000000 0.000000 0.000000
O O13 0.666403 0.583201 0.800232
O O14 0.404298 0.579382 0.139586
O O15 0.016747 0.363225 0.296194
O O16 0.853679 0.367343 0.994598
O O17 0.000000 0.000000 0.500000
#
# Coordination Sequence:
#
# PCOD8042273 Si02
#       8
#     2   2   2   2   2   2   2   2
#     4  10  19  34  61  91 121 156 201 253 306 345
#     4  10  20  36  64  92 117 157 210 252 294 364
#     4  11  22  40  60  88 120 165 206 250 298 356
#     4   9  19  35  59  92 122 154 201 251 305 367
#     4   9  19  35  59  92 122 154 201 251 305 367
#     4  10  20  36  64  92 117 157 210 252 294 364
#     4  10  19  34  61  91 121 156 201 253 306 345
#     4  11  22  40  60  88 120 165 206 250 298 356
#
# _framework density 20.242281999999999
#
# number of rings (size 3 to 8) (size 9 to 14) (size 15 to 20)
#    0.000    2.000    2.500    1.500    0.000    2.500 
#    0.000    0.000    0.000   41.250    0.000    0.000 
#    0.000    0.000    0.000    0.000    0.000    0.000 
#
# Total GULP energy -198247.342953 kJ/mol
# GULP energy per Si atom -12390.458935 kJ/mol
# Density = 2.019621 g / cm^3
# Si number density = 20.242282 Si / 1000 Ang^3
#
#
#
# Elastic Constant Matrix: (Units=GPa)
#
#
# Indices 1 2 3 4 5 6 
#
# 1 119.4354 46.9360 63.1015 6.9589 11.4900 -6.5980
# 2 46.9360 104.4140 51.1454 -6.6139 -6.2351 3.4044
# 3 63.1015 51.1454 110.1780 8.1361 6.7522 -0.1392
# 4 6.9589 -6.6139 8.1361 33.8993 4.1625 -9.4026
# 5 11.4900 -6.2351 6.7522 4.1625 37.6448 0.6518
# 6 -6.5980 3.4044 -0.1392 -9.4026 0.6518 27.4837
#
#
#
# Elastic Compliance Matrix: (Units=1/GPa)
#
#
# Indices 1 2 3 4 5 6 
#
# 1 0.013390 -0.003586 -0.005728 -0.000658 -0.003641 0.003491
# 2 -0.003586 0.014195 -0.005063 0.003840 0.003954 -0.001425
# 3 -0.005728 -0.005063 0.015067 -0.003802 -0.001339 -0.001941
# 4 -0.000658 0.003840 -0.003802 0.034737 -0.002518 0.011291
# 5 -0.003641 0.003954 -0.001339 -0.002518 0.028899 -0.002917
# 6 0.003491 -0.001425 -0.001941 0.011291 -0.002917 0.041322
#
#
# Mechanical properties :
#
#
# Convention : Reuss Voigt Hill
#
# Bulk Modulus (GPa) = 71.95319 72.93257 72.44288
# Shear Modulus (GPa) = 27.62466 31.32853 29.47660
#
# Velocity S-wave (km/s) = 3.69819 3.93832 3.82014
# Velocity P-wave (km/s) = 7.33885 7.53582 7.43798
#
# Compressibility (1/GPa) = 0.01389792
#
# Stress axis : x y z
#
# Youngs Moduli (GPa) = 74.68471 70.44550 66.36844
#
# Poissons Ratio (x) = 0.25263 0.38013
# Poissons Ratio (y) = 0.26784 0.33605
# Poissons Ratio (z) = 0.42777 0.35669
#
# Static dielectric constant tensor:
#      x y z
#    x 3.666680 0.175710 0.060500 
#    y 0.175710 3.927930 -0.228020 
#    z 0.060500 -0.228020 3.695680 
# 
# 
# High freq. dielectric constant tensor:
#      x y z
#    x 1.770340 0.009870 0.002790 
#    y 0.009870 1.809430 -0.015920 
#    z 0.002790 -0.015920 1.772540 
# 
# From -- ./inp_files/214395.got.cif
#   From: 2010.06.25/outbox.cif.g09.slc.cpg/sg2_108_cif.got.tgz:214395.got - 2010.06.27 13:26:56.
