data_PCOD8042695
_publ_section_title
;
Structure prediction by ZEFSAII (Michael W. Deem and Ramdas Pophale) SiO2 
 PCOD8042695
Probable space group: P -1
;
_chemical_formula_sum "Si O2"
_cell_formula_units_Z 14
_cell_length_a 12.672583
_cell_length_b 13.768686
_cell_length_c 8.935033
_cell_angle_alpha 137.298553
_cell_angle_beta 138.609709
_cell_angle_gamma 41.923293
_cell_volume 631.221633
_symmetry_space_group_name_H-M "P -1"
_symmetry_group_IT_number 2
_symmetry_cell_setting 'triclinic'
loop_
_space_group_symop_operation_xyz
x,y,z
-x,-y,-z
loop_
_atom_site_type_symbol
_atom_site_label
_atom_site_fract_x
_atom_site_fract_y
_atom_site_fract_z
Si Si1 0.258683 0.344483 0.954192
Si Si2 0.324241 0.724319 0.189213
Si Si3 0.964087 0.404056 0.219668
Si Si4 0.286802 0.091026 0.233683
Si Si5 0.394500 0.469869 0.487080
Si Si6 0.684220 0.962774 0.456041
Si Si7 0.622793 0.255207 0.068412
O O1 0.091368 0.486836 0.862936
O O2 0.239047 0.178830 0.744872
O O3 0.273067 0.393220 0.196954
O O4 0.430778 0.313816 0.003798
O O5 0.473758 0.645010 0.381364
O O6 0.228257 0.914656 0.337436
O O7 0.183902 0.652169 0.953004
O O8 0.414830 0.703033 0.099170
O O9 0.000000 0.500000 0.500000
O O10 0.137359 0.247747 0.179141
O O11 0.276038 0.120373 0.433622
O O12 0.472979 0.067671 0.336086
O O13 0.258621 0.931823 0.989981
O O14 0.500000 0.500000 0.500000
O O15 0.281283 0.641782 0.640290
#
# Coordination Sequence:
#
# PCOD8042695 Si02
#       7
#     2   2   2   2   2   2   2
#     4  10  20  39  60  88 121 155 188 234 303 337
#     4  11  22  35  65  91 110 146 213 236 280 335
#     4  12  23  35  58  91 120 152 186 246 297 341
#     4   9  19  36  57  87 122 151 185 241 298 334
#     4  10  19  35  60  87 117 152 195 241 280 349
#     4   9  19  37  60  85 116 153 198 234 279 352
#     4   9  19  36  62  88 109 152 201 237 272 345
#
# _framework density 22.179216
#
# number of rings (size 3 to 8) (size 9 to 14) (size 15 to 20)
#    0.000    2.000    4.286    1.286    0.000    2.857 
#    0.000    0.714    0.000    3.429    0.000    0.000 
#    0.000    0.000    0.000    0.000    0.000    0.000 
#
# Total GULP energy -173506.912330 kJ/mol
# GULP energy per Si atom -12393.350881 kJ/mol
# Density = 2.212873 g / cm^3
# Si number density = 22.179216 Si / 1000 Ang^3
#
#
#
# Elastic Constant Matrix: (Units=GPa)
#
#
# Indices 1 2 3 4 5 6 
#
# 1 23.7952 22.8432 21.5777 1.4495 -1.2550 10.9681
# 2 22.8432 160.0103 85.7369 12.5928 -7.9125 -7.3430
# 3 21.5777 85.7369 192.1973 28.2524 -11.5979 10.1594
# 4 1.4495 12.5928 28.2524 41.1174 1.2392 5.4460
# 5 -1.2550 -7.9125 -11.5979 1.2392 28.3653 3.6310
# 6 10.9681 -7.3430 10.1594 5.4460 3.6310 23.5511
#
#
#
# Elastic Compliance Matrix: (Units=1/GPa)
#
#
# Indices 1 2 3 4 5 6 
#
# 1 0.072353 -0.011551 -0.001741 0.007207 0.003921 -0.038817
# 2 -0.011551 0.010502 -0.003736 -0.001648 -0.000408 0.010709
# 3 -0.001741 -0.003736 0.007982 -0.003923 0.002740 -0.003313
# 4 0.007207 -0.001648 -0.003923 0.028445 -0.001904 -0.008462
# 5 0.003921 -0.000408 0.002740 -0.001904 0.037605 -0.008493
# 6 -0.038817 0.010709 -0.003313 -0.008462 -0.008493 0.068573
#
#
# Mechanical properties :
#
#
# Convention : Reuss Voigt Hill
#
# Bulk Modulus (GPa) = 17.61180 70.70205 44.15692
# Shear Modulus (GPa) = 17.95704 34.99641 26.47673
#
# Velocity S-wave (km/s) = 2.84849 3.97658 3.45884
# Velocity P-wave (km/s) = 4.33318 7.28224 5.99197
#
# Compressibility (1/GPa) = 0.05678012
#
# Stress axis : x y z
#
# Youngs Moduli (GPa) = 13.82116 95.22383 125.27742
#
# Poissons Ratio (x) = 1.09991 0.21813
# Poissons Ratio (y) = 0.15965 0.46808
# Poissons Ratio (z) = 0.02406 0.35579
#
# Static dielectric constant tensor:
#      x y z
#    x 4.112940 0.009630 -0.637120 
#    y 0.009630 4.181880 0.677350 
#    z -0.637120 0.677350 5.665550 
# 
# 
# High freq. dielectric constant tensor:
#      x y z
#    x 1.825940 0.014770 -0.001340 
#    y 0.014770 1.876690 0.028690 
#    z -0.001340 0.028690 1.886790 
# 
# From -- ./inp_files/175258.got.cif
#   From: 2010.06.25/outbox.cif.g09.slc.cpg/sg2_88_cif.got.tgz:175258.got - 2010.06.27 13:26:56.
