data_PCOD8042826
_publ_section_title
;
Structure prediction by ZEFSAII (Michael W. Deem and Ramdas Pophale) SiO2 
 PCOD8042826
Probable space group: P -1
;
_chemical_formula_sum "Si O2"
_cell_formula_units_Z 16
_cell_length_a 4.942602
_cell_length_b 18.419320
_cell_length_c 14.752014
_cell_angle_alpha 141.232965
_cell_angle_beta 86.419922
_cell_angle_gamma 106.412919
_cell_volume 778.306742
_symmetry_space_group_name_H-M "P -1"
_symmetry_group_IT_number 2
_symmetry_cell_setting 'triclinic'
loop_
_space_group_symop_operation_xyz
x,y,z
-x,-y,-z
loop_
_atom_site_type_symbol
_atom_site_label
_atom_site_fract_x
_atom_site_fract_y
_atom_site_fract_z
Si Si1 0.094580 0.878218 0.956237
Si Si2 0.289158 0.286594 0.635030
Si Si3 0.398279 0.257603 0.808461
Si Si4 0.271735 0.968008 0.851919
Si Si5 0.494259 0.434450 0.142477
Si Si6 0.240210 0.873811 0.247586
Si Si7 0.336705 0.862026 0.559431
Si Si8 0.138941 0.695809 0.913188
O O1 0.373237 0.629220 0.844654
O O2 0.078550 0.874322 0.843233
O O3 0.088186 0.744937 0.863268
O O4 0.827627 0.912313 0.036104
O O5 0.392151 0.307128 0.756644
O O6 0.323399 0.418479 0.718960
O O7 0.497037 0.232909 0.521992
O O8 0.950658 0.196873 0.553081
O O9 0.632237 0.191494 0.742443
O O10 0.093014 0.152328 0.745204
O O11 0.510399 0.377535 0.988259
O O12 0.218919 0.893906 0.687318
O O13 0.610071 0.010797 0.911182
O O14 0.159647 0.407996 0.145979
O O15 0.255083 0.818292 0.093835
O O16 0.430570 0.020298 0.383218
#
# Coordination Sequence:
#
# PCOD8042826 Si02
#       8
#     2   2   2   2   2   2   2   2
#     4  10  19  35  62  90 116 144 183 231 289 335
#     4  12  25  39  57  79 115 165 194 227 287 335
#     4  10  22  39  59  81 109 146 202 255 273 320
#     4  10  21  35  57  91 122 145 178 228 284 356
#     4  10  22  39  59  83 108 150 205 245 270 319
#     4  10  21  35  57  87 113 146 184 236 303 330
#     4  12  24  37  58  83 126 153 179 231 285 371
#     4  10  19  35  63  86 111 141 189 250 283 322
#
# _framework density 20.557449999999999
#
# number of rings (size 3 to 8) (size 9 to 14) (size 15 to 20)
#    0.000    1.500    1.250    4.125    3.500    3.000 
#    0.000    5.000    0.000    4.500    0.000    0.000 
#    0.000    0.000    0.000    0.000    0.000    0.000 
#
# Total GULP energy -198457.270485 kJ/mol
# GULP energy per Si atom -12403.579405 kJ/mol
# Density = 2.051066 g / cm^3
# Si number density = 20.557450 Si / 1000 Ang^3
#
#
#
# Elastic Constant Matrix: (Units=GPa)
#
#
# Indices 1 2 3 4 5 6 
#
# 1 93.8229 6.1178 21.3470 3.6880 -4.0226 -9.4357
# 2 6.1178 84.6954 28.1865 8.2281 -12.3138 -18.8029
# 3 21.3470 28.1865 59.7225 15.6561 -6.7366 0.6553
# 4 3.6880 8.2281 15.6561 21.8531 1.8014 -2.0117
# 5 -4.0226 -12.3138 -6.7366 1.8014 25.9582 -0.3145
# 6 -9.4357 -18.8029 0.6553 -2.0117 -0.3145 29.1043
#
#
#
# Elastic Compliance Matrix: (Units=1/GPa)
#
#
# Indices 1 2 3 4 5 6 
#
# 1 0.012436 0.002433 -0.005919 0.001642 0.001502 0.005867
# 2 0.002433 0.018532 -0.008849 -0.000433 0.007059 0.013007
# 3 -0.005919 -0.008849 0.027896 -0.016781 0.003176 -0.009389
# 4 0.001642 -0.000433 -0.016781 0.058779 -0.008329 0.004603
# 5 0.001502 0.007059 0.003176 -0.008329 0.043566 0.004871
# 6 0.005867 0.013007 -0.009389 0.004603 0.004871 0.045247
#
#
# Mechanical properties :
#
#
# Convention : Reuss Voigt Hill
#
# Bulk Modulus (GPa) = 29.24369 38.83815 34.04092
# Shear Modulus (GPa) = 20.61650 27.55577 24.08614
#
# Velocity S-wave (km/s) = 3.17025 3.66516 3.42665
# Velocity P-wave (km/s) = 5.25898 6.06998 5.67898
#
# Compressibility (1/GPa) = 0.03419542
#
# Stress axis : x y z
#
# Youngs Moduli (GPa) = 80.41012 53.95986 35.84709
#
# Poissons Ratio (x) = -0.13127 0.21216
# Poissons Ratio (y) = -0.19562 0.31721
# Poissons Ratio (z) = 0.47591 0.47748
#
# Static dielectric constant tensor:
#      x y z
#    x 3.899430 -0.093030 0.012740 
#    y -0.093030 3.619910 -0.071990 
#    z 0.012740 -0.071990 3.440060 
# 
# 
# High freq. dielectric constant tensor:
#      x y z
#    x 1.826930 -0.005870 0.004060 
#    y -0.005870 1.798810 0.002860 
#    z 0.004060 0.002860 1.766410 
# 
# From -- ./inp_files/485261.got.cif
#   From: 2010.06.25/outbox.cif.g09.slc.cpg/sg2_243_cif.got.tgz:485261.got - 2010.06.27 13:26:56.
