data_PCOD8042798
_publ_section_title
;
Structure prediction by ZEFSAII (Michael W. Deem and Ramdas Pophale) SiO2 
 PCOD8042798
Probable space group: P -1
;
_chemical_formula_sum "Si O2"
_cell_formula_units_Z 16
_cell_length_a 17.464136
_cell_length_b 9.665630
_cell_length_c 8.783949
_cell_angle_alpha 69.089649
_cell_angle_beta 129.546028
_cell_angle_gamma 136.966485
_cell_volume 763.500350
_symmetry_space_group_name_H-M "P -1"
_symmetry_group_IT_number 2
_symmetry_cell_setting 'triclinic'
loop_
_space_group_symop_operation_xyz
x,y,z
-x,-y,-z
loop_
_atom_site_type_symbol
_atom_site_label
_atom_site_fract_x
_atom_site_fract_y
_atom_site_fract_z
Si Si1 0.203200 0.929410 0.015225
Si Si2 0.368079 0.922868 0.458598
Si Si3 0.263395 0.518263 0.580645
Si Si4 0.059231 0.315314 0.656450
Si Si5 0.967818 0.912619 0.663969
Si Si6 0.404948 0.026073 0.802532
Si Si7 0.539888 0.707248 0.977727
Si Si8 0.129888 0.670512 0.762207
O O1 0.280225 0.963932 0.253668
O O2 0.306936 0.123676 0.960659
O O3 0.071754 0.901764 0.877449
O O4 0.169116 0.738299 0.960767
O O5 0.253505 0.675111 0.442582
O O6 0.500000 0.000000 0.500000
O O7 0.424083 0.053908 0.634597
O O8 0.206058 0.433049 0.713921
O O9 0.429824 0.675465 0.742703
O O10 0.186060 0.322836 0.442967
O O11 0.074342 0.443550 0.767513
O O12 0.982757 0.320647 0.419814
O O13 0.980598 0.082734 0.706045
O O14 0.000000 0.000000 0.500000
O O15 0.248710 0.819653 0.729083
O O16 0.454098 0.229708 0.864627
O O17 0.500000 0.000000 0.000000
O O18 0.500000 0.500000 0.000000
#
# Coordination Sequence:
#
# PCOD8042798 Si02
#       8
#     2   2   2   2   2   2   2   2
#     4  11  22  38  63  94 122 169 205 260 323 362
#     4  12  23  41  62  92 135 162 213 266 310 380
#     4  11  20  37  60  92 123 166 200 256 320 364
#     4  10  19  35  63  90 124 153 210 264 303 365
#     4  10  20  37  60  92 127 158 206 256 310 378
#     4  11  21  39  63  92 119 164 214 259 308 371
#     4  11  22  37  67  95 120 161 218 260 312 377
#     4  10  19  35  61  95 115 156 213 256 311 361
#
# _framework density 20.956113999999999
#
# number of rings (size 3 to 8) (size 9 to 14) (size 15 to 20)
#    0.000    1.250    6.250    2.250    1.750    0.500 
#    0.000    0.625    2.750    1.500    0.000    0.000 
#    0.000    0.000    0.000    0.000    0.000    0.000 
#
# Total GULP energy -198241.342320 kJ/mol
# GULP energy per Si atom -12390.083895 kJ/mol
# Density = 2.090842 g / cm^3
# Si number density = 20.956114 Si / 1000 Ang^3
#
#
#
# Elastic Constant Matrix: (Units=GPa)
#
#
# Indices 1 2 3 4 5 6 
#
# 1 53.0004 33.9932 32.8228 8.3843 -7.4542 -18.7066
# 2 33.9932 148.9778 33.8540 19.8049 -12.5578 -41.3390
# 3 32.8228 33.8540 116.4053 9.0574 -8.3832 -18.0832
# 4 8.3843 19.8049 9.0574 30.0450 0.4616 1.8168
# 5 -7.4542 -12.5578 -8.3832 0.4616 29.7669 7.3365
# 6 -18.7066 -41.3390 -18.0832 1.8168 7.3365 35.0497
#
#
#
# Elastic Compliance Matrix: (Units=1/GPa)
#
#
# Indices 1 2 3 4 5 6 
#
# 1 0.027933 -0.001244 -0.005225 -0.006075 0.002496 0.010538
# 2 -0.001244 0.012049 -0.000297 -0.008345 0.001486 0.013515
# 3 -0.005225 -0.000297 0.010711 -0.001727 0.001053 0.002256
# 4 -0.006075 -0.008345 -0.001727 0.041984 -0.002318 -0.015668
# 5 0.002496 0.001486 0.001053 -0.002318 0.036118 -0.003812
# 6 0.010538 0.013515 0.002256 -0.015668 -0.003812 0.052869
#
#
# Mechanical properties :
#
#
# Convention : Reuss Voigt Hill
#
# Bulk Modulus (GPa) = 26.91104 57.74704 42.32904
# Shear Modulus (GPa) = 24.08670 33.48654 28.78662
#
# Velocity S-wave (km/s) = 3.39394 4.00176 3.71032
# Velocity P-wave (km/s) = 5.31300 6.99772 6.21273
#
# Compressibility (1/GPa) = 0.03715946
#
# Stress axis : x y z
#
# Youngs Moduli (GPa) = 35.80003 82.99623 93.36052
#
# Poissons Ratio (x) = 0.10327 0.48781
# Poissons Ratio (y) = 0.04455 0.02777
# Poissons Ratio (z) = 0.18705 0.02469
#
# Static dielectric constant tensor:
#      x y z
#    x 2.310730 -0.454110 0.399650 
#    y -0.454110 4.389710 0.341510 
#    z 0.399650 0.341510 3.191580 
# 
# 
# High freq. dielectric constant tensor:
#      x y z
#    x 1.799210 -0.015680 0.024800 
#    y -0.015680 1.826790 0.024420 
#    z 0.024800 0.024420 1.808250 
# 
# From -- ./inp_files/327458.got.cif
#   From: 2010.06.25/outbox.cif.g09.slc.cpg/sg2_164_cif.got.tgz:327458.got - 2010.06.27 13:26:56.
