data_PCOD8042015
_publ_section_title
;
Structure prediction by ZEFSAII (Michael W. Deem and Ramdas Pophale) SiO2 
 PCOD8042015
Probable space group: P -1
;
_chemical_formula_sum "Si O2"
_cell_formula_units_Z 16
_cell_length_a 17.031719
_cell_length_b 8.910089
_cell_length_c 8.207868
_cell_angle_alpha 51.646680
_cell_angle_beta 53.430902
_cell_angle_gamma 61.503363
_cell_volume 772.998137
_symmetry_space_group_name_H-M "P -1"
_symmetry_group_IT_number 2
_symmetry_cell_setting 'triclinic'
loop_
_space_group_symop_operation_xyz
x,y,z
-x,-y,-z
loop_
_atom_site_type_symbol
_atom_site_label
_atom_site_fract_x
_atom_site_fract_y
_atom_site_fract_z
Si Si1 0.765631 0.933808 0.687335
Si Si2 0.561487 0.671784 0.569063
Si Si3 0.573938 0.844602 0.109357
Si Si4 0.121291 0.425457 0.774954
Si Si5 0.723081 0.372181 0.397577
Si Si6 0.366907 0.539537 0.883159
Si Si7 0.280188 0.296749 0.398455
Si Si8 0.963074 0.793650 0.703457
O O1 0.731614 0.881547 0.584089
O O2 0.871025 0.805634 0.685844
O O3 0.767930 0.160760 0.552009
O O4 0.685848 0.885487 0.948687
O O5 0.540422 0.831749 0.345041
O O6 0.627492 0.472270 0.552428
O O7 0.452248 0.645489 0.784500
O O8 0.619032 0.760001 0.583573
O O9 0.569760 0.647519 0.153076
O O10 0.500000 0.000000 0.000000
O O11 0.191177 0.498029 0.777094
O O12 0.183630 0.337018 0.602654
O O13 0.044369 0.608759 0.676528
O O14 0.069569 0.256806 0.036973
O O15 0.698060 0.342624 0.258848
O O16 0.292446 0.488513 0.149191
O O17 0.000000 0.000000 0.500000
#
# Coordination Sequence:
#
# PCOD8042015 Si02
#       8
#     2   2   2   2   2   2   2   2
#     4  11  21  37  59  90 123 155 201 249 301 358
#     4  10  19  35  57  83 117 163 207 242 294 351
#     4  10  19  34  59  86 115 158 208 249 284 348
#     4  10  22  42  65  89 120 150 200 253 301 359
#     4  10  19  37  60  85 115 163 204 245 289 354
#     4  10  19  34  56  82 119 161 201 241 304 350
#     4  10  22  38  55  87 124 158 187 250 314 354
#     4  11  22  42  70  92 111 155 210 248 296 363
#
# _framework density 20.698626000000001
#
# number of rings (size 3 to 8) (size 9 to 14) (size 15 to 20)
#    0.000    1.750    1.250    6.375    0.000    0.500 
#    2.250    8.750    0.000    0.000    0.000    0.000 
#    0.000    0.000    0.000    0.000    0.000    0.000 
#
# Total GULP energy -198321.617176 kJ/mol
# GULP energy per Si atom -12395.101074 kJ/mol
# Density = 2.065152 g / cm^3
# Si number density = 20.698626 Si / 1000 Ang^3
#
#
#
# Elastic Constant Matrix: (Units=GPa)
#
#
# Indices 1 2 3 4 5 6 
#
# 1 95.0067 21.1922 24.1277 -9.4692 2.5561 -12.5689
# 2 21.1922 45.0758 29.6969 -14.8362 2.1150 -5.1754
# 3 24.1277 29.6969 111.4538 -6.0305 -9.8398 6.9169
# 4 -9.4692 -14.8362 -6.0305 30.6181 -2.9234 5.3830
# 5 2.5561 2.1150 -9.8398 -2.9234 35.2260 0.3929
# 6 -12.5689 -5.1754 6.9169 5.3830 0.3929 29.4027
#
#
#
# Elastic Compliance Matrix: (Units=1/GPa)
#
#
# Indices 1 2 3 4 5 6 
#
# 1 0.012680 -0.003646 -0.002173 0.000691 -0.001309 0.005181
# 2 -0.003646 0.034055 -0.008112 0.012776 -0.003031 0.004046
# 3 -0.002173 -0.008112 0.012230 -0.000908 0.004043 -0.005122
# 4 0.000691 0.012776 -0.000908 0.039910 0.002292 -0.004580
# 5 -0.001309 -0.003031 0.004043 0.002292 0.030017 -0.002865
# 6 0.005181 0.004046 -0.005122 -0.004580 -0.002865 0.039019
#
#
# Mechanical properties :
#
#
# Convention : Reuss Voigt Hill
#
# Bulk Modulus (GPa) = 32.15178 44.61889 38.38534
# Shear Modulus (GPa) = 24.25521 30.81731 27.53626
#
# Velocity S-wave (km/s) = 3.42691 3.86276 3.65134
# Velocity P-wave (km/s) = 5.58796 6.44188 6.03005
#
# Compressibility (1/GPa) = 0.03110248
#
# Stress axis : x y z
#
# Youngs Moduli (GPa) = 78.86263 29.36412 81.76658
#
# Poissons Ratio (x) = 0.10707 0.17770
# Poissons Ratio (y) = 0.28754 0.66330
# Poissons Ratio (z) = 0.17139 0.23820
#
# Static dielectric constant tensor:
#      x y z
#    x 3.864970 -0.110120 0.151300 
#    y -0.110120 3.431570 -0.229720 
#    z 0.151300 -0.229720 3.774500 
# 
# 
# High freq. dielectric constant tensor:
#      x y z
#    x 1.818820 -0.013200 -0.004150 
#    y -0.013200 1.777440 -0.009890 
#    z -0.004150 -0.009890 1.818820 
# 
# From -- ./inp_files/206177.got.cif
#   From: 2010.06.25/outbox.cif.g09.slc.cpg/sg2_104_cif.got.tgz:206177.got - 2010.06.27 13:26:56.
