data_PCOD8042787
_publ_section_title
;
Structure prediction by ZEFSAII (Michael W. Deem and Ramdas Pophale) SiO2 
 PCOD8042787
Probable space group: P -1
;
_chemical_formula_sum "Si O2"
_cell_formula_units_Z 16
_cell_length_a 11.222134
_cell_length_b 8.978242
_cell_length_c 12.152775
_cell_angle_alpha 127.630937
_cell_angle_beta 52.070382
_cell_angle_gamma 110.814204
_cell_volume 764.489897
_symmetry_space_group_name_H-M "P -1"
_symmetry_group_IT_number 2
_symmetry_cell_setting 'triclinic'
loop_
_space_group_symop_operation_xyz
x,y,z
-x,-y,-z
loop_
_atom_site_type_symbol
_atom_site_label
_atom_site_fract_x
_atom_site_fract_y
_atom_site_fract_z
Si Si1 0.311455 0.152133 0.146167
Si Si2 0.735488 0.923201 0.346027
Si Si3 0.013167 0.104033 0.383248
Si Si4 0.574563 0.237288 0.178157
Si Si5 0.299240 0.465462 0.916445
Si Si6 0.544452 0.103999 0.364562
Si Si7 0.482028 0.274785 0.904521
Si Si8 0.830347 0.237280 0.737209
O O1 0.401774 0.188987 0.225002
O O2 0.133413 0.210436 0.286477
O O3 0.387828 0.288642 0.077007
O O4 0.320885 0.932043 0.007197
O O5 0.763358 0.734459 0.172599
O O6 0.627214 0.867016 0.483019
O O7 0.894989 0.989150 0.327924
O O8 0.658882 0.101792 0.403419
O O9 0.118830 0.958236 0.325422
O O10 0.930952 0.258332 0.579340
O O11 0.629189 0.431978 0.182976
O O12 0.582760 0.254496 0.314933
O O13 0.432038 0.452338 0.932723
O O14 0.158460 0.586591 0.104849
O O15 0.581200 0.900540 0.202924
O O16 0.657092 0.225285 0.796914
#
# Coordination Sequence:
#
# PCOD8042787 Si02
#       8
#     2   2   2   2   2   2   2   2
#     4  10  19  35  61  91 117 156 201 247 286 354
#     4  10  22  38  61  86 122 161 197 241 302 358
#     4  11  22  37  63  90 121 158 199 242 300 361
#     4  10  19  35  62  89 117 153 210 245 287 347
#     4  11  22  38  63  91 119 157 198 253 296 348
#     4   9  19  38  60  85 115 161 207 241 277 365
#     4  10  19  38  66  90 115 155 210 245 289 348
#     4  11  21  36  62  93 116 156 198 251 291 351
#
# _framework density 20.928989000000001
#
# number of rings (size 3 to 8) (size 9 to 14) (size 15 to 20)
#    0.000    1.750    3.750    1.875    1.750    1.000 
#    0.000    6.250    0.000    0.000    0.000    0.000 
#    0.000    0.000    0.000    0.000    0.000    0.000 
#
# Total GULP energy -198289.736509 kJ/mol
# GULP energy per Si atom -12393.108532 kJ/mol
# Density = 2.088135 g / cm^3
# Si number density = 20.928989 Si / 1000 Ang^3
#
#
#
# Elastic Constant Matrix: (Units=GPa)
#
#
# Indices 1 2 3 4 5 6 
#
# 1 85.4419 33.6345 50.7472 -13.5979 -13.6266 -5.4291
# 2 33.6345 72.1192 40.2207 -12.6151 -9.0248 -14.9119
# 3 50.7472 40.2207 137.2123 -22.4118 -14.1377 4.7176
# 4 -13.5979 -12.6151 -22.4118 26.4216 5.6796 3.5909
# 5 -13.6266 -9.0248 -14.1377 5.6796 30.9840 -9.6476
# 6 -5.4291 -14.9119 4.7176 3.5909 -9.6476 26.6518
#
#
#
# Elastic Compliance Matrix: (Units=1/GPa)
#
#
# Indices 1 2 3 4 5 6 
#
# 1 0.017267 -0.003701 -0.004644 0.001479 0.005376 0.004015
# 2 -0.003701 0.022525 -0.004823 0.001139 0.007248 0.015173
# 3 -0.004644 -0.004823 0.011549 0.006409 -0.001569 -0.007120
# 4 0.001479 0.001139 0.006409 0.047528 -0.007732 -0.009399
# 5 0.005376 0.007248 -0.001569 -0.007732 0.044480 0.022571
# 6 0.004015 0.015173 -0.007120 -0.009399 0.022571 0.057526
#
#
# Mechanical properties :
#
#
# Convention : Reuss Voigt Hill
#
# Bulk Modulus (GPa) = 39.99089 60.44202 50.21646
# Shear Modulus (GPa) = 21.22731 28.15622 24.69177
#
# Velocity S-wave (km/s) = 3.18819 3.67184 3.43853
# Velocity P-wave (km/s) = 5.71858 6.84973 6.30955
#
# Compressibility (1/GPa) = 0.02500569
#
# Stress axis : x y z
#
# Youngs Moduli (GPa) = 57.91441 44.39453 86.58774
#
# Poissons Ratio (x) = 0.16432 0.40208
# Poissons Ratio (y) = 0.21437 0.41758
# Poissons Ratio (z) = 0.26893 0.21410
#
# Static dielectric constant tensor:
#      x y z
#    x 3.915030 -0.348140 0.095650 
#    y -0.348140 3.749040 -0.040460 
#    z 0.095650 -0.040460 4.151520 
# 
# 
# High freq. dielectric constant tensor:
#      x y z
#    x 1.808020 -0.015360 0.010160 
#    y -0.015360 1.799430 -0.004190 
#    z 0.010160 -0.004190 1.826780 
# 
# From -- ./inp_files/418023.got.cif
#   From: 2010.06.25/outbox.cif.g09.slc.cpg/sg2_210_cif.got.tgz:418023.got - 2010.06.27 13:26:56.
