data_PCOD8042240
_publ_section_title
;
Structure prediction by ZEFSAII (Michael W. Deem and Ramdas Pophale) SiO2 
 PCOD8042240
Probable space group: P -1
;
_chemical_formula_sum "Si O2"
_cell_formula_units_Z 16
_cell_length_a 8.553079
_cell_length_b 14.847133
_cell_length_c 9.334677
_cell_angle_alpha 68.393678
_cell_angle_beta 64.601050
_cell_angle_gamma 48.273286
_cell_volume 793.141637
_symmetry_space_group_name_H-M "P -1"
_symmetry_group_IT_number 2
_symmetry_cell_setting 'triclinic'
loop_
_space_group_symop_operation_xyz
x,y,z
-x,-y,-z
loop_
_atom_site_type_symbol
_atom_site_label
_atom_site_fract_x
_atom_site_fract_y
_atom_site_fract_z
Si Si1 0.364933 0.453251 0.037156
Si Si2 0.069995 0.135158 0.363599
Si Si3 0.566999 0.834161 0.472648
Si Si4 0.012235 0.638152 0.838199
Si Si5 0.890986 0.582164 0.632880
Si Si6 0.458788 0.956563 0.717120
Si Si7 0.255161 0.877494 0.342581
Si Si8 0.512345 0.775210 0.012016
O O1 0.254719 0.454304 0.225551
O O2 0.500000 0.500000 0.000000
O O3 0.187300 0.534457 0.937299
O O4 0.526602 0.313670 0.000742
O O5 0.280670 0.117768 0.351233
O O6 0.940004 0.262700 0.253011
O O7 0.924197 0.144512 0.546714
O O8 0.141492 0.021888 0.298356
O O9 0.759307 0.716986 0.545768
O O10 0.396416 0.931180 0.603112
O O11 0.430056 0.809164 0.441755
O O12 0.651653 0.899442 0.307573
O O13 0.037884 0.575249 0.709789
O O14 0.772234 0.703076 0.962486
O O15 0.000000 0.500000 0.500000
O O16 0.397506 0.903818 0.898894
O O17 0.390402 0.809962 0.188313
#
# Coordination Sequence:
#
# PCOD8042240 Si02
#       8
#     2   2   2   2   2   2   2   2
#     4  11  25  43  60  86 122 158 199 248 300 348
#     4   9  19  39  55  89 119 156 189 242 296 355
#     4  10  19  34  60  90 113 154 196 242 287 348
#     4  10  22  41  64  80 122 161 200 241 296 348
#     4  11  23  40  61  89 121 157 204 243 288 355
#     4   9  18  37  63  80 118 155 198 241 292 346
#     4  10  22  33  63  89 123 150 195 242 301 349
#     4  10  20  41  60  89 117 158 197 244 292 356
#
# _framework density 20.172941999999999
#
# number of rings (size 3 to 8) (size 9 to 14) (size 15 to 20)
#    0.000    2.000    3.750    1.500    5.250    5.500 
#    0.000    1.250    0.000   12.750    0.000    0.000 
#    0.000    0.000    0.000    0.000    0.000    0.000 
#
# Total GULP energy -198245.198864 kJ/mol
# GULP energy per Si atom -12390.324929 kJ/mol
# Density = 2.012703 g / cm^3
# Si number density = 20.172942 Si / 1000 Ang^3
#
#
#
# Elastic Constant Matrix: (Units=GPa)
#
#
# Indices 1 2 3 4 5 6 
#
# 1 80.2739 42.5026 55.6656 1.3504 -4.5267 21.7999
# 2 42.5026 92.7960 70.1309 -14.2274 -6.7251 12.7235
# 3 55.6656 70.1309 138.2047 7.9473 -3.9315 7.2546
# 4 1.3504 -14.2274 7.9473 50.9250 0.6027 1.9902
# 5 -4.5267 -6.7251 -3.9315 0.6027 24.8922 -9.9839
# 6 21.7999 12.7235 7.2546 1.9902 -9.9839 21.2699
#
#
#
# Elastic Compliance Matrix: (Units=1/GPa)
#
#
# Indices 1 2 3 4 5 6 
#
# 1 0.026115 -0.002730 -0.008035 0.000911 -0.007755 -0.026117
# 2 -0.002730 0.021945 -0.010096 0.008056 0.000713 -0.007305
# 3 -0.008035 -0.010096 0.015420 -0.005468 0.002710 0.010799
# 4 0.000911 0.008056 -0.005468 0.023008 -0.001850 -0.006909
# 5 -0.007755 0.000713 0.002710 -0.001850 0.051918 0.031140
# 6 -0.026117 -0.007305 0.010799 -0.006909 0.031140 0.089733
#
#
# Mechanical properties :
#
#
# Convention : Reuss Voigt Hill
#
# Bulk Modulus (GPa) = 45.96053 71.98587 58.97320
# Shear Modulus (GPa) = 18.04315 28.94915 23.49615
#
# Velocity S-wave (km/s) = 2.99394 3.79231 3.41653
# Velocity P-wave (km/s) = 5.89782 7.41197 6.69782
#
# Compressibility (1/GPa) = 0.02175780
#
# Stress axis : x y z
#
# Youngs Moduli (GPa) = 38.29270 45.56842 64.85174
#
# Poissons Ratio (x) = 0.12439 0.52110
# Poissons Ratio (y) = 0.10453 0.65474
# Poissons Ratio (z) = 0.30769 0.46005
#
# Static dielectric constant tensor:
#      x y z
#    x 3.237350 -0.245730 -0.087110 
#    y -0.245730 3.027770 -0.498600 
#    z -0.087110 -0.498600 3.725680 
# 
# 
# High freq. dielectric constant tensor:
#      x y z
#    x 1.767380 0.021670 0.005710 
#    y 0.021670 1.788220 -0.026530 
#    z 0.005710 -0.026530 1.788220 
# 
# From -- ./inp_files/179436.got.cif
#   From: 2010.06.25/outbox.cif.g09.slc.cpg/sg2_90_cif.got.tgz:179436.got - 2010.06.27 13:26:56.
