data_PCOD8042843
_publ_section_title
;
Structure prediction by ZEFSAII (Michael W. Deem and Ramdas Pophale) SiO2 
 PCOD8042843
Probable space group: P -1
;
_chemical_formula_sum "Si O2"
_cell_formula_units_Z 16
_cell_length_a 15.524570
_cell_length_b 11.247570
_cell_length_c 8.772472
_cell_angle_alpha 102.809824
_cell_angle_beta 142.729926
_cell_angle_gamma 61.561615
_cell_volume 779.300293
_symmetry_space_group_name_H-M "P -1"
_symmetry_group_IT_number 2
_symmetry_cell_setting 'triclinic'
loop_
_space_group_symop_operation_xyz
x,y,z
-x,-y,-z
loop_
_atom_site_type_symbol
_atom_site_label
_atom_site_fract_x
_atom_site_fract_y
_atom_site_fract_z
Si Si1 0.478960 0.324596 0.072999
Si Si2 0.729763 0.891565 0.975887
Si Si3 0.568583 0.053567 0.252058
Si Si4 0.451833 0.472043 0.587113
Si Si5 0.532523 0.214930 0.796123
Si Si6 0.100933 0.543707 0.044722
Si Si7 0.783198 0.815810 0.683424
Si Si8 0.848395 0.622212 0.230696
O O1 0.606605 0.174839 0.289228
O O2 0.492106 0.454476 0.188745
O O3 0.517521 0.311036 0.945785
O O4 0.303333 0.336253 0.859273
O O5 0.558441 0.894583 0.767873
O O6 0.793292 0.856668 0.883340
O O7 0.687309 0.054156 0.990161
O O8 0.857897 0.764355 0.236821
O O9 0.740773 0.934976 0.530931
O O10 0.500000 0.000000 0.000000
O O11 0.500000 0.500000 0.500000
O O12 0.551427 0.301733 0.707254
O O13 0.254665 0.539420 0.345353
O O14 0.357038 0.225886 0.531729
O O15 0.176606 0.438994 0.979225
O O16 0.000000 0.500000 0.000000
O O17 0.964355 0.700636 0.846458
O O18 0.000000 0.500000 0.500000
#
# Coordination Sequence:
#
# PCOD8042843 Si02
#       8
#     2   2   2   2   2   2   2   2
#     4  11  23  40  62  95 129 170 213 260 326 388
#     4  10  21  35  59  99 124 165 215 267 315 372
#     4  10  19  35  62  96 129 160 212 267 315 376
#     4  12  26  43  64  91 133 171 216 264 325 388
#     4  11  21  39  65  89 130 170 214 264 316 383
#     4  12  23  42  63  95 126 168 217 264 319 382
#     4  11  21  36  66  94 126 161 220 271 309 370
#     4  11  23  37  65  99 131 158 215 276 323 370
#
# _framework density 20.531238999999999
#
# number of rings (size 3 to 8) (size 9 to 14) (size 15 to 20)
#    0.000    1.000    6.250    2.625    5.250    0.000 
#    0.000    0.625    0.000    1.500    0.000    0.000 
#    0.000    0.000    0.000    0.000    0.000    0.000 
#
# Total GULP energy -198212.047933 kJ/mol
# GULP energy per Si atom -12388.252996 kJ/mol
# Density = 2.048451 g / cm^3
# Si number density = 20.531239 Si / 1000 Ang^3
#
#
#
# Elastic Constant Matrix: (Units=GPa)
#
#
# Indices 1 2 3 4 5 6 
#
# 1 81.5601 32.6357 25.6007 -13.8200 -13.3232 5.8550
# 2 32.6357 125.0722 46.2293 -27.4553 -11.9918 13.4833
# 3 25.6007 46.2293 79.3264 -28.3988 -15.1799 16.8106
# 4 -13.8200 -27.4553 -28.3988 43.5929 6.6192 -10.8178
# 5 -13.3232 -11.9918 -15.1799 6.6192 26.2505 -3.9225
# 6 5.8550 13.4833 16.8106 -10.8178 -3.9225 41.9762
#
#
#
# Elastic Compliance Matrix: (Units=1/GPa)
#
#
# Indices 1 2 3 4 5 6 
#
# 1 0.014870 -0.002408 -0.002092 0.001151 0.004992 0.000300
# 2 -0.002408 0.011013 -0.004296 0.003152 0.000436 -0.000628
# 3 -0.002092 -0.004296 0.020775 0.008228 0.006327 -0.003937
# 4 0.001151 0.003152 0.008228 0.031649 -0.000656 0.003627
# 5 0.004992 0.000436 0.006327 -0.000656 0.044747 0.000642
# 6 0.000300 -0.000628 -0.003937 0.003627 0.000642 0.026554
#
#
# Mechanical properties :
#
#
# Convention : Reuss Voigt Hill
#
# Bulk Modulus (GPa) = 34.40355 54.98782 44.69568
# Shear Modulus (GPa) = 28.26616 34.46344 31.36480
#
# Velocity S-wave (km/s) = 3.71447 4.10150 3.91277
# Velocity P-wave (km/s) = 5.93207 7.01929 6.49845
#
# Compressibility (1/GPa) = 0.02906677
#
# Stress axis : x y z
#
# Youngs Moduli (GPa) = 67.24930 90.80149 48.13407
#
# Poissons Ratio (x) = 0.21864 0.10069
# Poissons Ratio (y) = 0.16193 0.20679
# Poissons Ratio (z) = 0.14067 0.39009
#
# Static dielectric constant tensor:
#      x y z
#    x 3.830900 -0.130640 -0.172040 
#    y -0.130640 4.461320 -0.802130 
#    z -0.172040 -0.802130 4.175870 
# 
# 
# High freq. dielectric constant tensor:
#      x y z
#    x 1.798570 -0.005900 -0.038590 
#    y -0.005900 1.815200 -0.029920 
#    z -0.038590 -0.029920 1.771600 
# 
# From -- ./inp_files/305468.got.cif
#   From: 2010.06.25/outbox.cif.g09.slc.cpg/sg2_153_cif.got.tgz:305468.got - 2010.06.27 13:26:56.
