data_PCOD8042434
_publ_section_title
;
Structure prediction by ZEFSAII (Michael W. Deem and Ramdas Pophale) SiO2 
 PCOD8042434
Probable space group: P -1
;
_chemical_formula_sum "Si O2"
_cell_formula_units_Z 12
_cell_length_a 5.005050
_cell_length_b 17.272254
_cell_length_c 9.355973
_cell_angle_alpha 127.213672
_cell_angle_beta 76.440478
_cell_angle_gamma 89.720544
_cell_volume 614.830445
_symmetry_space_group_name_H-M "P -1"
_symmetry_group_IT_number 2
_symmetry_cell_setting 'triclinic'
loop_
_space_group_symop_operation_xyz
x,y,z
-x,-y,-z
loop_
_atom_site_type_symbol
_atom_site_label
_atom_site_fract_x
_atom_site_fract_y
_atom_site_fract_z
Si Si1 0.266473 0.859959 0.543502
Si Si2 0.762540 0.761052 0.553601
Si Si3 0.608513 0.285106 0.877709
Si Si4 0.000136 0.055845 0.912543
Si Si5 0.569507 0.810194 0.934795
Si Si6 0.887530 0.615236 0.132633
O O1 0.549625 0.842109 0.580521
O O2 0.330443 0.820464 0.330288
O O3 0.315313 0.901775 0.047141
O O4 0.140936 0.976927 0.687202
O O5 0.639016 0.747954 0.710780
O O6 0.814447 0.656097 0.347823
O O7 0.051171 0.800095 0.578826
O O8 0.890565 0.327946 0.905749
O O9 0.388364 0.365493 0.908536
O O10 0.496897 0.268154 0.029374
O O11 0.164461 0.145836 0.998813
O O12 0.000000 0.000000 0.000000
O O13 0.000000 0.500000 0.000000
#
# Coordination Sequence:
#
# PCOD8042434 Si02
#       6
#     2   2   2   2   2   2
#     4  10  20  35  53  77 110 152 186 215 252 324
#     4  10  19  35  56  79 107 144 182 218 273 318
#     4  10  23  38  56  84 114 136 177 231 284 308
#     4  12  21  33  56  81 111 151 197 210 250 320
#     4  12  22  35  55  83 115 144 177 236 266 300
#     4  10  21  41  63  79 103 143 182 219 274 351
#
# _framework density 19.517574
#
# number of rings (size 3 to 8) (size 9 to 14) (size 15 to 20)
#    0.000    1.333    3.333    3.000    0.000    1.333 
#    0.000    1.667    0.000    0.000    0.000    0.000 
#    0.000    0.000    0.000    0.000    0.000    0.000 
#
# Total GULP energy -148860.038502 kJ/mol
# GULP energy per Si atom -12405.003208 kJ/mol
# Density = 1.947315 g / cm^3
# Si number density = 19.517574 Si / 1000 Ang^3
#
#
#
# Elastic Constant Matrix: (Units=GPa)
#
#
# Indices 1 2 3 4 5 6 
#
# 1 73.0384 5.8459 18.0756 -1.1974 -7.2744 -1.9951
# 2 5.8459 64.8036 48.1299 -3.3702 -16.8573 4.4363
# 3 18.0756 48.1299 110.0122 2.0380 -22.7116 3.0208
# 4 -1.1974 -3.3702 2.0380 28.9561 -0.8100 -12.7803
# 5 -7.2744 -16.8573 -22.7116 -0.8100 29.2588 -0.1217
# 6 -1.9951 4.4363 3.0208 -12.7803 -0.1217 27.8203
#
#
#
# Elastic Compliance Matrix: (Units=1/GPa)
#
#
# Indices 1 2 3 4 5 6 
#
# 1 0.014537 0.001102 -0.002465 0.001850 0.002395 0.001995
# 2 0.001102 0.024439 -0.009426 0.003177 0.007120 -0.001304
# 3 -0.002465 -0.009426 0.014823 -0.002768 0.005379 -0.001531
# 4 0.001850 0.003177 -0.002768 0.044136 0.001448 0.020208
# 5 0.002395 0.007120 0.005379 0.001448 0.043088 -0.000694
# 6 0.001995 -0.001304 -0.001531 0.020208 -0.000694 0.045743
#
#
# Mechanical properties :
#
#
# Convention : Reuss Voigt Hill
#
# Bulk Modulus (GPa) = 31.03643 43.55078 37.29360
# Shear Modulus (GPa) = 22.82225 28.92723 25.87474
#
# Velocity S-wave (km/s) = 3.42324 3.85400 3.64499
# Velocity P-wave (km/s) = 5.61792 6.49357 6.07155
#
# Compressibility (1/GPa) = 0.03222020
#
# Stress axis : x y z
#
# Youngs Moduli (GPa) = 68.79139 40.91737 67.46380
#
# Poissons Ratio (x) = -0.04511 0.16632
# Poissons Ratio (y) = -0.07583 0.63594
# Poissons Ratio (z) = 0.16959 0.38570
#
# Static dielectric constant tensor:
#      x y z
#    x 3.837710 -0.036300 -0.101750 
#    y -0.036300 3.093050 -0.053550 
#    z -0.101750 -0.053550 3.753640 
# 
# 
# High freq. dielectric constant tensor:
#      x y z
#    x 1.785750 -0.003750 -0.003290 
#    y -0.003750 1.719070 -0.006100 
#    z -0.003290 -0.006100 1.763210 
# 
# From -- ./inp_files/138236.got.cif
#   From: 2010.06.25/outbox.cif.g09.slc.cpg/sg2_70_cif.got.tgz:138236.got - 2010.06.27 13:26:56.
