data_PCOD8042974
_publ_section_title
;
Structure prediction by ZEFSAII (Michael W. Deem and Ramdas Pophale) SiO2 
 PCOD8042974
Probable space group: P -1
;
_chemical_formula_sum "Si O2"
_cell_formula_units_Z 16
_cell_length_a 14.485989
_cell_length_b 11.965381
_cell_length_c 5.119092
_cell_angle_alpha 88.054116
_cell_angle_beta 82.114424
_cell_angle_gamma 121.211024
_cell_volume 745.894083
_symmetry_space_group_name_H-M "P -1"
_symmetry_group_IT_number 2
_symmetry_cell_setting 'triclinic'
loop_
_space_group_symop_operation_xyz
x,y,z
-x,-y,-z
loop_
_atom_site_type_symbol
_atom_site_label
_atom_site_fract_x
_atom_site_fract_y
_atom_site_fract_z
Si Si1 0.556306 0.902157 0.795009
Si Si2 0.644434 0.184537 0.823808
Si Si3 0.171659 0.800947 0.929302
Si Si4 0.164893 0.608628 0.547944
Si Si5 0.044427 0.168295 0.229598
Si Si6 0.318871 0.084878 0.737517
Si Si7 0.138379 0.135627 0.703328
Si Si8 0.002064 0.672296 0.388274
O O1 0.582800 0.858498 0.515639
O O2 0.565313 0.042794 0.726046
O O3 0.428801 0.797434 0.931997
O O4 0.633155 0.898403 0.992474
O O5 0.707258 0.313146 0.601691
O O6 0.737115 0.160012 0.891218
O O7 0.154870 0.670674 0.812613
O O8 0.224874 0.931757 0.717781
O O9 0.057043 0.774958 0.111898
O O10 0.119895 0.453106 0.614174
O O11 0.085723 0.620059 0.369260
O O12 0.131842 0.190243 0.420113
O O13 0.994313 0.255885 0.344982
O O14 0.109765 0.212449 0.926102
O O15 0.947346 0.019457 0.248270
O O16 0.259645 0.167031 0.719174
#
# Coordination Sequence:
#
# PCOD8042974 Si02
#       8
#     2   2   2   2   2   2   2   2
#     4  10  21  33  55  81 111 141 181 218 276 324
#     4   9  20  33  49  80 109 145 175 224 265 321
#     4  10  20  31  53  76 115 145 178 219 262 329
#     4  10  19  36  52  76 114 146 186 216 259 329
#     4  10  22  36  54  79 109 145 178 227 265 323
#     4  11  21  34  56  81 108 146 175 223 275 328
#     4  10  22  36  55  79 109 140 183 226 274 316
#     4  10  22  33  52  80 108 152 185 213 268 321
#
# _framework density 21.450766999999999
#
# number of rings (size 3 to 8) (size 9 to 14) (size 15 to 20)
#    0.000    2.000    1.250    1.875   12.250    1.500 
#    0.000    0.000    0.000    0.000    0.000    5.250 
#    0.000    0.000    0.000    0.000    0.000    0.000 
#
# Total GULP energy -198238.011497 kJ/mol
# GULP energy per Si atom -12389.875719 kJ/mol
# Density = 2.140194 g / cm^3
# Si number density = 21.450767 Si / 1000 Ang^3
#
#
#
# Elastic Constant Matrix: (Units=GPa)
#
#
# Indices 1 2 3 4 5 6 
#
# 1 57.9921 12.8318 18.4261 -15.5057 -27.1187 -1.7863
# 2 12.8318 64.7697 32.0895 0.2500 -24.5565 7.3139
# 3 18.4261 32.0895 112.2866 6.6013 -36.8339 8.6129
# 4 -15.5057 0.2500 6.6013 26.8658 3.5463 -7.3776
# 5 -27.1187 -24.5565 -36.8339 3.5463 38.0459 2.1126
# 6 -1.7863 7.3139 8.6129 -7.3776 2.1126 18.7385
#
#
#
# Elastic Compliance Matrix: (Units=1/GPa)
#
#
# Indices 1 2 3 4 5 6 
#
# 1 0.031931 0.000849 -0.000178 0.017713 0.021075 0.007392
# 2 0.000849 0.023115 0.000134 -0.005589 0.016903 -0.013109
# 3 -0.000178 0.000134 0.016204 -0.010061 0.017331 -0.013432
# 4 0.017713 -0.005589 -0.010061 0.060134 -0.008165 0.033091
# 5 0.021075 0.016903 0.017331 -0.008165 0.071076 -0.023782
# 6 0.007392 -0.013109 -0.013432 0.033091 -0.023782 0.081071
#
#
# Mechanical properties :
#
#
# Convention : Reuss Voigt Hill
#
# Bulk Modulus (GPa) = 13.72492 40.19369 26.95931
# Shear Modulus (GPa) = 16.32876 28.17677 22.25277
#
# Velocity S-wave (km/s) = 2.76202 3.62823 3.22434
# Velocity P-wave (km/s) = 4.07233 6.02747 5.14365
#
# Compressibility (1/GPa) = 0.07286018
#
# Stress axis : x y z
#
# Youngs Moduli (GPa) = 31.31737 43.26142 61.71436
#
# Poissons Ratio (x) = -0.03673 0.01096
# Poissons Ratio (y) = -0.02659 -0.00824
# Poissons Ratio (z) = 0.00556 -0.00578
#
# Static dielectric constant tensor:
#      x y z
#    x 3.951540 0.132440 -0.104700 
#    y 0.132440 3.674390 -0.211150 
#    z -0.104700 -0.211150 4.104360 
# 
# 
# High freq. dielectric constant tensor:
#      x y z
#    x 1.833390 0.009680 -0.001400 
#    y 0.009680 1.783380 0.004460 
#    z -0.001400 0.004460 1.855320 
# 
# From -- ./inp_files/94760.got.cif
#   From: 2010.06.25/outbox.cif.g09.slc.cpg/sg2_48_cif.got.tgz:94760.got - 2010.06.27 13:26:56.
