data_PCOD8042045
_publ_section_title
;
Structure prediction by ZEFSAII (Michael W. Deem and Ramdas Pophale) SiO2 
 PCOD8042045
Probable space group: P -1
;
_chemical_formula_sum "Si O2"
_cell_formula_units_Z 16
_cell_length_a 10.683032
_cell_length_b 12.466229
_cell_length_c 9.166758
_cell_angle_alpha 84.813585
_cell_angle_beta 43.976365
_cell_angle_gamma 59.205317
_cell_volume 644.218652
_symmetry_space_group_name_H-M "P -1"
_symmetry_group_IT_number 2
_symmetry_cell_setting 'triclinic'
loop_
_space_group_symop_operation_xyz
x,y,z
-x,-y,-z
loop_
_atom_site_type_symbol
_atom_site_label
_atom_site_fract_x
_atom_site_fract_y
_atom_site_fract_z
Si Si1 0.109221 0.878963 0.753540
Si Si2 0.677741 0.784990 0.104490
Si Si3 0.381882 0.848686 0.769683
Si Si4 0.964827 0.242710 0.405474
Si Si5 0.266446 0.095124 0.453463
Si Si6 0.003666 0.259002 0.918341
Si Si7 0.178394 0.478761 0.135401
Si Si8 0.291715 0.449568 0.366383
O O1 0.139696 0.828905 0.565566
O O2 0.325843 0.868277 0.637940
O O3 0.124371 0.764475 0.852677
O O4 0.862875 0.036505 0.955349
O O5 0.793770 0.747731 0.171737
O O6 0.408954 0.932574 0.312965
O O7 0.817014 0.805840 0.871377
O O8 0.683370 0.659890 0.063459
O O9 0.564412 0.867565 0.668472
O O10 0.467312 0.695372 0.758805
O O11 0.067289 0.193360 0.487506
O O12 0.751950 0.411548 0.561010
O O13 0.128904 0.129683 0.715297
O O14 0.828106 0.408025 0.964006
O O15 0.322180 0.438104 0.168151
O O16 0.916926 0.544059 0.394626
#
# Coordination Sequence:
#
# PCOD8042045 Si02
#       8
#     2   2   2   2   2   2   2   2
#     4  10  25  39  60  87 126 157 193 240 305 352
#     4  10  21  30  55  91 122 148 190 246 300 339
#     4  11  21  40  60  87 119 165 194 237 293 368
#     4  10  20  37  58  93 116 153 200 247 283 352
#     4  12  20  35  67  89 117 150 208 244 289 343
#     4  11  20  38  56  91 122 152 190 258 295 341
#     4  10  19  34  56  94 122 144 196 257 294 333
#     4  10  19  34  60  87 116 154 199 243 289 346
#
# _framework density 24.836286999999999
#
# number of rings (size 3 to 8) (size 9 to 14) (size 15 to 20)
#    0.000    1.500    5.000    2.625    1.750    0.500 
#    0.000    0.625    0.000    6.000    0.000    0.000 
#    0.000    0.000    0.000    0.000    0.000    0.000 
#
# Total GULP energy -198340.018452 kJ/mol
# GULP energy per Si atom -12396.251153 kJ/mol
# Density = 2.477976 g / cm^3
# Si number density = 24.836287 Si / 1000 Ang^3
#
#
#
# Elastic Constant Matrix: (Units=GPa)
#
#
# Indices 1 2 3 4 5 6 
#
# 1 134.0433 36.2069 34.2325 15.6152 31.9950 -13.5485
# 2 36.2069 125.1310 34.7538 34.7350 2.2012 -0.3268
# 3 34.2325 34.7538 54.1873 17.4992 31.9078 4.7973
# 4 15.6152 34.7350 17.4992 43.3341 5.7084 7.6244
# 5 31.9950 2.2012 31.9078 5.7084 32.9552 1.5719
# 6 -13.5485 -0.3268 4.7973 7.6244 1.5719 28.0090
#
#
#
# Elastic Compliance Matrix: (Units=1/GPa)
#
#
# Indices 1 2 3 4 5 6 
#
# 1 0.011939 -0.003575 0.003478 -0.002055 -0.014675 0.006521
# 2 -0.003575 0.015674 -0.018103 -0.007150 0.021079 0.002317
# 3 0.003478 -0.018103 0.071312 -0.005374 -0.070027 -0.005350
# 4 -0.002055 -0.007150 -0.005374 0.033036 0.002397 -0.009284
# 5 -0.014675 0.021079 -0.070027 0.002397 0.110652 -0.001721
# 6 0.006521 0.002317 -0.005350 -0.009284 -0.001721 0.042424
#
#
# Mechanical properties :
#
#
# Convention : Reuss Voigt Hill
#
# Bulk Modulus (GPa) = 15.99353 58.19421 37.09387
# Shear Modulus (GPa) = 14.60804 34.73756 24.67280
#
# Velocity S-wave (km/s) = 2.42786 3.74393 3.15527
# Velocity P-wave (km/s) = 3.78324 6.49394 5.31433
#
# Compressibility (1/GPa) = 0.06252527
#
# Stress axis : x y z
#
# Youngs Moduli (GPa) = 83.75951 63.80096 14.02293
#
# Poissons Ratio (x) = 0.22808 -0.04877
# Poissons Ratio (y) = 0.29943 0.25385
# Poissons Ratio (z) = -0.29132 1.15498
#
# Static dielectric constant tensor:
#      x y z
#    x 4.808830 -0.016410 0.401210 
#    y -0.016410 4.497280 0.205340 
#    z 0.401210 0.205340 4.345130 
# 
# 
# High freq. dielectric constant tensor:
#      x y z
#    x 1.989040 -0.001700 0.022300 
#    y -0.001700 1.997390 0.014160 
#    z 0.022300 0.014160 1.974190 
# 
# From -- ./inp_files/254814.got.cif
#   From: 2010.06.25/outbox.cif.g09.slc.cpg/sg2_128_cif.got.tgz:254814.got - 2010.06.27 13:26:56.
