data_PCOD8042626
_publ_section_title
;
Structure prediction by ZEFSAII (Michael W. Deem and Ramdas Pophale) SiO2 
 PCOD8042626
Probable space group: P -1
;
_chemical_formula_sum "Si O2"
_cell_formula_units_Z 14
_cell_length_a 10.931924
_cell_length_b 22.669503
_cell_length_c 10.559718
_cell_angle_alpha 26.489151
_cell_angle_beta 55.773108
_cell_angle_gamma 40.750114
_cell_volume 699.329259
_symmetry_space_group_name_H-M "P -1"
_symmetry_group_IT_number 2
_symmetry_cell_setting 'triclinic'
loop_
_space_group_symop_operation_xyz
x,y,z
-x,-y,-z
loop_
_atom_site_type_symbol
_atom_site_label
_atom_site_fract_x
_atom_site_fract_y
_atom_site_fract_z
Si Si1 0.910136 0.359791 0.591115
Si Si2 0.493606 0.659429 0.850132
Si Si3 0.155869 0.516687 0.341800
Si Si4 0.909207 0.063028 0.071147
Si Si5 0.510163 0.640034 0.172279
Si Si6 0.818679 0.284537 0.248273
Si Si7 0.645719 0.791145 0.353121
O O1 0.803587 0.424604 0.667934
O O2 0.745169 0.540872 0.250889
O O3 0.124792 0.302907 0.570637
O O4 0.947871 0.186625 0.861620
O O5 0.288914 0.751737 0.714840
O O6 0.561088 0.767944 0.569896
O O7 0.451603 0.683248 0.977047
O O8 0.661379 0.445808 0.129123
O O9 0.354666 0.317347 0.553027
O O10 0.000000 0.500000 0.500000
O O11 0.074713 0.665872 0.993197
O O12 0.667560 0.173426 0.004374
O O13 0.013623 0.893541 0.427130
O O14 0.000000 0.000000 0.000000
O O15 0.500000 0.500000 0.500000
O O16 0.500000 0.000000 0.000000
#
# Coordination Sequence:
#
# PCOD8042626 Si02
#       7
#     2   2   2   2   2   2   2
#     4  10  21  38  58  82 123 162 187 239 300 341
#     4  10  21  36  58  86 116 153 194 239 296 350
#     4   9  20  37  58  84 118 155 191 236 295 349
#     4  11  23  37  60  89 116 151 201 245 286 350
#     4  10  21  36  54  80 115 152 190 235 292 347
#     4  10  19  35  59  85 115 151 193 244 290 339
#     4  10  21  37  61  89 116 151 199 245 286 348
#
# _framework density 20.019183000000002
#
# number of rings (size 3 to 8) (size 9 to 14) (size 15 to 20)
#    0.000    2.000    0.000    4.286    0.000    8.571 
#    0.000    1.429    0.000    9.429    0.000    0.000 
#    0.000    0.000    0.000    0.000    0.000    0.000 
#
# Total GULP energy -173484.937208 kJ/mol
# GULP energy per Si atom -12391.781229 kJ/mol
# Density = 1.997362 g / cm^3
# Si number density = 20.019183 Si / 1000 Ang^3
#
#
#
# Elastic Constant Matrix: (Units=GPa)
#
#
# Indices 1 2 3 4 5 6 
#
# 1 82.6846 47.1915 54.1656 -4.0138 4.5824 -6.1025
# 2 47.1915 130.7070 72.1719 7.7656 5.8148 11.6420
# 3 54.1656 72.1719 161.7297 -2.5111 12.1393 -3.4578
# 4 -4.0138 7.7656 -2.5111 34.7621 -5.4854 1.5166
# 5 4.5824 5.8148 12.1393 -5.4854 33.9160 -4.5829
# 6 -6.1025 11.6420 -3.4578 1.5166 -4.5829 41.0334
#
#
#
# Elastic Compliance Matrix: (Units=1/GPa)
#
#
# Indices 1 2 3 4 5 6 
#
# 1 0.017645 -0.004872 -0.003667 0.002813 0.000715 0.003673
# 2 -0.004872 0.012224 -0.003883 -0.003571 -0.001237 -0.004526
# 3 -0.003667 -0.003883 0.009322 0.000769 -0.001902 0.001101
# 4 0.002813 -0.003571 0.000769 0.030701 0.005047 0.000926
# 5 0.000715 -0.001237 -0.001902 0.005047 0.031589 0.003639
# 6 0.003673 -0.004526 0.001101 0.000926 0.003639 0.026666
#
#
# Mechanical properties :
#
#
# Convention : Reuss Voigt Hill
#
# Bulk Modulus (GPa) = 69.69620 80.24216 74.96918
# Shear Modulus (GPa) = 31.69111 35.38177 33.53644
#
# Velocity S-wave (km/s) = 3.98306 4.20860 4.09738
# Velocity P-wave (km/s) = 7.48621 7.98662 7.74046
#
# Compressibility (1/GPa) = 0.01434799
#
# Stress axis : x y z
#
# Youngs Moduli (GPa) = 56.67313 81.80655 107.27207
#
# Poissons Ratio (x) = 0.39858 0.39335
# Poissons Ratio (y) = 0.27612 0.41649
# Poissons Ratio (z) = 0.20781 0.31762
#
# Static dielectric constant tensor:
#      x y z
#    x 4.038910 0.070800 0.300990 
#    y 0.070800 4.262530 0.076180 
#    z 0.300990 0.076180 4.027330 
# 
# 
# High freq. dielectric constant tensor:
#      x y z
#    x 1.765380 -0.000920 -0.001510 
#    y -0.000920 1.796710 0.002770 
#    z -0.001510 0.002770 1.780700 
# 
# From -- ./inp_files/201374.got.cif
#   From: 2010.06.25/outbox.cif.g09.slc.cpg/sg2_101_cif.got.tgz:201374.got - 2010.06.27 13:26:56.
