data_PCOD8042773
_publ_section_title
;
Structure prediction by ZEFSAII (Michael W. Deem and Ramdas Pophale) SiO2 
 PCOD8042773
Probable space group: P -1
;
_chemical_formula_sum "Si O2"
_cell_formula_units_Z 14
_cell_length_a 9.894280
_cell_length_b 13.696940
_cell_length_c 9.121265
_cell_angle_alpha 86.228692
_cell_angle_beta 62.829966
_cell_angle_gamma 46.466664
_cell_volume 735.595452
_symmetry_space_group_name_H-M "P -1"
_symmetry_group_IT_number 2
_symmetry_cell_setting 'triclinic'
loop_
_space_group_symop_operation_xyz
x,y,z
-x,-y,-z
loop_
_atom_site_type_symbol
_atom_site_label
_atom_site_fract_x
_atom_site_fract_y
_atom_site_fract_z
Si Si1 0.836181 0.361437 0.444104
Si Si2 0.781163 0.595401 0.996646
Si Si3 0.977620 0.368384 0.676672
Si Si4 0.468585 0.170565 0.490779
Si Si5 0.510716 0.642337 0.381591
Si Si6 0.758966 0.883217 0.231333
Si Si7 0.263435 0.162207 0.068555
O O1 0.717446 0.488685 0.373520
O O2 0.709902 0.318867 0.523540
O O3 0.836810 0.412892 0.596766
O O4 0.091523 0.219477 0.279249
O O5 0.696643 0.741524 0.974897
O O6 0.830110 0.511380 0.834414
O O7 0.585507 0.635171 0.181615
O O8 0.000000 0.500000 0.000000
O O9 0.220902 0.303099 0.523636
O O10 0.027865 0.243750 0.755354
O O11 0.558463 0.228982 0.504752
O O12 0.438391 0.104550 0.643081
O O13 0.656659 0.039946 0.296910
O O14 0.839705 0.835402 0.028998
O O15 0.500000 0.000000 0.000000
#
# Coordination Sequence:
#
# PCOD8042773 Si02
#       7
#     2   2   2   2   2   2   2
#     4  11  25  37  58  97 128 154 197 268 308 344
#     4  12  19  41  66  85 114 171 210 238 298 371
#     4  10  19  35  61  88 115 157 213 245 287 369
#     4   9  17  34  62  82 110 160 205 240 287 365
#     4  11  22  41  61  88 129 162 198 252 316 359
#     4   9  18  35  61  85 114 157 208 247 292 351
#     4  12  23  38  61  95 124 156 207 259 299 360
#
# _framework density 19.0322
#
# number of rings (size 3 to 8) (size 9 to 14) (size 15 to 20)
#    0.857    0.571    5.714    0.857    0.000    4.000 
#    0.000    3.571    0.000    0.000    0.000    0.000 
#    0.000    0.000    0.000    0.000    0.000    0.000 
#
# Total GULP energy -173573.299348 kJ/mol
# GULP energy per Si atom -12398.092811 kJ/mol
# Density = 1.898888 g / cm^3
# Si number density = 19.032200 Si / 1000 Ang^3
#
#
#
# Elastic Constant Matrix: (Units=GPa)
#
#
# Indices 1 2 3 4 5 6 
#
# 1 108.1434 50.3153 63.8714 3.7851 14.5876 15.1113
# 2 50.3153 103.2005 52.1036 16.2401 -5.4542 14.2429
# 3 63.8714 52.1036 111.0862 10.2146 10.8157 12.7726
# 4 3.7851 16.2401 10.2146 28.3217 6.6804 10.2323
# 5 14.5876 -5.4542 10.8157 6.6804 30.6760 2.0002
# 6 15.1113 14.2429 12.7726 10.2323 2.0002 30.5186
#
#
#
# Elastic Compliance Matrix: (Units=1/GPa)
#
#
# Indices 1 2 3 4 5 6 
#
# 1 0.017512 -0.006195 -0.006443 0.007325 -0.008427 -0.004987
# 2 -0.006195 0.017002 -0.004427 -0.009416 0.009612 -0.000488
# 3 -0.006443 -0.004427 0.015228 -0.001249 -0.002787 -0.000516
# 4 0.007325 -0.009416 -0.001249 0.048663 -0.014396 -0.014082
# 5 -0.008427 0.009612 -0.002787 -0.014396 0.042243 0.002911
# 6 -0.004987 -0.000488 -0.000516 -0.014082 0.002911 0.040210
#
#
# Mechanical properties :
#
#
# Convention : Reuss Voigt Hill
#
# Bulk Modulus (GPa) = 64.04758 72.77897 68.41327
# Shear Modulus (GPa) = 22.70748 28.31257 25.51003
#
# Velocity S-wave (km/s) = 3.45789 3.86114 3.66507
# Velocity P-wave (km/s) = 7.04755 7.62895 7.34400
#
# Compressibility (1/GPa) = 0.01561339
#
# Stress axis : x y z
#
# Youngs Moduli (GPa) = 57.10475 58.81599 65.66751
#
# Poissons Ratio (x) = 0.36436 0.42308
# Poissons Ratio (y) = 0.35375 0.29070
# Poissons Ratio (z) = 0.36791 0.26037
#
# Static dielectric constant tensor:
#      x y z
#    x 3.200250 0.159920 0.165860 
#    y 0.159920 3.466830 0.051500 
#    z 0.165860 0.051500 3.552700 
# 
# 
# High freq. dielectric constant tensor:
#      x y z
#    x 1.708390 0.011640 0.022800 
#    y 0.011640 1.738820 0.008780 
#    z 0.022800 0.008780 1.739240 
# 
# From -- ./inp_files/270134.got.cif
#   From: 2010.06.25/outbox.cif.g09.slc.cpg/sg2_136_cif.got.tgz:270134.got - 2010.06.27 13:26:56.
