data_PCOD8042542
_publ_section_title
;
Structure prediction by ZEFSAII (Michael W. Deem and Ramdas Pophale) SiO2 
 PCOD8042542
Probable space group: P -1
;
_chemical_formula_sum "Si O2"
_cell_formula_units_Z 16
_cell_length_a 7.405291
_cell_length_b 11.219729
_cell_length_c 14.537912
_cell_angle_alpha 118.459244
_cell_angle_beta 60.752359
_cell_angle_gamma 121.997006
_cell_volume 854.251930
_symmetry_space_group_name_H-M "P -1"
_symmetry_group_IT_number 2
_symmetry_cell_setting 'triclinic'
loop_
_space_group_symop_operation_xyz
x,y,z
-x,-y,-z
loop_
_atom_site_type_symbol
_atom_site_label
_atom_site_fract_x
_atom_site_fract_y
_atom_site_fract_z
Si Si1 0.405791 0.826070 0.668053
Si Si2 0.853038 0.321431 0.144583
Si Si3 0.823277 0.836762 0.997115
Si Si4 0.936204 0.410111 0.699822
Si Si5 0.702300 0.650488 0.528818
Si Si6 0.549573 0.152129 0.794522
Si Si7 0.568814 0.157954 0.995867
Si Si8 0.959455 0.617189 0.615828
O O1 0.327359 0.780724 0.775329
O O2 0.611810 0.777377 0.575044
O O3 0.194308 0.755175 0.625600
O O4 0.501886 0.000736 0.697168
O O5 0.073363 0.284587 0.074722
O O6 0.923422 0.494176 0.213167
O O7 0.749206 0.287544 0.056608
O O8 0.686468 0.828425 0.123418
O O9 0.652672 0.803918 0.941245
O O10 0.000000 0.000000 0.000000
O O11 0.708071 0.282199 0.739443
O O12 0.873201 0.529784 0.700772
O O13 0.085849 0.336711 0.582322
O O14 0.500000 0.500000 0.500000
O O15 0.777859 0.663532 0.623198
O O16 0.662968 0.153369 0.867191
O O17 0.500000 0.000000 0.000000
O O18 0.000000 0.500000 0.500000
#
# Coordination Sequence:
#
# PCOD8042542 Si02
#       8
#     2   2   2   2   2   2   2   2
#     4  11  20  36  65  89 115 158 198 238 294 348
#     4  11  19  37  61  86 113 161 198 238 289 343
#     4  10  19  35  58  79 115 152 195 239 276 346
#     4  10  23  40  59  88 126 151 194 251 292 345
#     4  11  20  40  67  87 115 151 203 241 285 360
#     4  10  23  40  56  91 128 149 194 252 290 342
#     4  10  19  35  61  84 120 151 204 237 280 351
#     4   9  19  38  63  85 113 152 201 239 284 351
#
# _framework density 18.729838999999998
#
# number of rings (size 3 to 8) (size 9 to 14) (size 15 to 20)
#    0.750    1.000    7.500    0.000    0.000    3.500 
#    2.250    3.750    0.000    0.000    0.000    0.000 
#    0.000    0.000    0.000    0.000    0.000    0.000 
#
# Total GULP energy -198251.563532 kJ/mol
# GULP energy per Si atom -12390.722721 kJ/mol
# Density = 1.868721 g / cm^3
# Si number density = 18.729839 Si / 1000 Ang^3
#
#
#
# Elastic Constant Matrix: (Units=GPa)
#
#
# Indices 1 2 3 4 5 6 
#
# 1 130.2118 34.3156 41.6116 7.9374 5.5889 9.6846
# 2 34.3156 117.1098 45.0425 1.0577 0.9420 20.4276
# 3 41.6116 45.0425 91.1892 7.8290 -5.8484 9.1853
# 4 7.9374 1.0577 7.8290 31.9489 9.9431 -1.9386
# 5 5.5889 0.9420 -5.8484 9.9431 40.7423 6.8831
# 6 9.6846 20.4276 9.1853 -1.9386 6.8831 19.9841
#
#
#
# Elastic Compliance Matrix: (Units=1/GPa)
#
#
# Indices 1 2 3 4 5 6 
#
# 1 0.009334 -0.001094 -0.003558 -0.001109 -0.001251 -0.001446
# 2 -0.001094 0.012405 -0.004522 0.000039 0.000961 -0.010398
# 3 -0.003558 -0.004522 0.015768 -0.004373 0.004403 -0.002841
# 4 -0.001109 0.000039 -0.004373 0.036702 -0.011105 0.009893
# 5 -0.001251 0.000961 0.004403 -0.011105 0.030392 -0.013945
# 6 -0.001446 -0.010398 -0.002841 0.009893 -0.013945 0.068438
#
#
# Mechanical properties :
#
#
# Convention : Reuss Voigt Hill
#
# Bulk Modulus (GPa) = 52.19965 64.49447 58.34706
# Shear Modulus (GPa) = 25.28140 33.03781 29.15960
#
# Velocity S-wave (km/s) = 3.67794 4.20445 3.94998
# Velocity P-wave (km/s) = 6.77987 7.62094 7.21267
#
# Compressibility (1/GPa) = 0.01915722
#
# Stress axis : x y z
#
# Youngs Moduli (GPa) = 107.13377 80.61481 63.42107
#
# Poissons Ratio (x) = 0.08821 0.22566
# Poissons Ratio (y) = 0.11722 0.28680
# Poissons Ratio (z) = 0.38120 0.36456
#
# Static dielectric constant tensor:
#      x y z
#    x 4.315140 -0.041910 0.067530 
#    y -0.041910 3.133360 0.244240 
#    z 0.067530 0.244240 3.813230 
# 
# 
# High freq. dielectric constant tensor:
#      x y z
#    x 1.723980 0.013250 0.003110 
#    y 0.013250 1.701320 0.018210 
#    z 0.003110 0.018210 1.727450 
# 
# From -- ./inp_files/500790.got.cif
#   From: 2010.06.25/outbox.cif.g09.slc.cpg/sg2_251_cif.got.tgz:500790.got - 2010.06.27 13:26:56.
