data_PCOD8042975
_publ_section_title
;
Structure prediction by ZEFSAII (Michael W. Deem and Ramdas Pophale) SiO2 
 PCOD8042975
Probable space group: P -1
;
_chemical_formula_sum "Si O2"
_cell_formula_units_Z 16
_cell_length_a 13.921552
_cell_length_b 15.283153
_cell_length_c 12.195382
_cell_angle_alpha 151.808122
_cell_angle_beta 126.667887
_cell_angle_gamma 40.979199
_cell_volume 784.152610
_symmetry_space_group_name_H-M "P -1"
_symmetry_group_IT_number 2
_symmetry_cell_setting 'triclinic'
loop_
_space_group_symop_operation_xyz
x,y,z
-x,-y,-z
loop_
_atom_site_type_symbol
_atom_site_label
_atom_site_fract_x
_atom_site_fract_y
_atom_site_fract_z
Si Si1 0.692833 0.655581 0.920842
Si Si2 0.462381 0.590163 0.229760
Si Si3 0.139709 0.036234 0.460302
Si Si4 0.441984 0.629782 0.719512
Si Si5 0.162570 0.412783 0.826418
Si Si6 0.166815 0.813419 0.619574
Si Si7 0.140882 0.159948 0.831068
Si Si8 0.430407 0.265231 0.719359
O O1 0.516238 0.765356 0.932498
O O2 0.778335 0.439059 0.657897
O O3 0.759471 0.580514 0.004535
O O4 0.716694 0.837166 0.087053
O O5 0.507379 0.547605 0.340934
O O6 0.545369 0.689618 0.339644
O O7 0.283496 0.777894 0.299478
O O8 0.510190 0.350045 0.942082
O O9 0.180717 0.173388 0.564469
O O10 0.069696 0.178213 0.684021
O O11 0.012464 0.028933 0.306368
O O12 0.500000 0.500000 0.500000
O O13 0.259371 0.799567 0.774693
O O14 0.251476 0.418412 0.790546
O O15 0.987421 0.630722 0.948118
O O16 0.205818 0.916949 0.662248
O O17 0.500000 0.000000 0.500000
#
# Coordination Sequence:
#
# PCOD8042975 Si02
#       8
#     2   2   2   2   2   2   2   2
#     4  10  19  36  52  88 127 157 196 251 300 369
#     4  11  23  41  65  92 123 161 209 259 305 359
#     4  11  19  35  63  91 121 159 202 262 312 360
#     4  10  22  38  59  90 133 167 193 245 313 384
#     4  11  19  36  61  89 124 151 207 265 303 349
#     4  11  21  34  55  88 127 162 194 234 314 381
#     4  11  21  32  60  91 123 164 199 256 319 352
#     4  11  23  40  64  92 117 162 214 267 299 346
#
# _framework density 20.404192999999999
#
# number of rings (size 3 to 8) (size 9 to 14) (size 15 to 20)
#    0.000    1.250    5.000    3.375    0.000    0.500 
#    0.000    3.750    0.000    7.500    0.000    0.000 
#    0.000    0.000    0.000    0.000    0.000    0.000 
#
# Total GULP energy -198303.486494 kJ/mol
# GULP energy per Si atom -12393.967906 kJ/mol
# Density = 2.035775 g / cm^3
# Si number density = 20.404193 Si / 1000 Ang^3
#
#
#
# Elastic Constant Matrix: (Units=GPa)
#
#
# Indices 1 2 3 4 5 6 
#
# 1 148.3992 64.6157 28.0137 -8.4261 16.7756 -1.9147
# 2 64.6157 102.7346 22.9912 -15.4782 13.4223 -14.8662
# 3 28.0137 22.9912 58.9080 4.7420 15.1979 1.6777
# 4 -8.4261 -15.4782 4.7420 22.4419 -3.1220 7.4554
# 5 16.7756 13.4223 15.1979 -3.1220 34.2755 -0.9404
# 6 -1.9147 -14.8662 1.6777 7.4554 -0.9404 36.9286
#
#
#
# Elastic Compliance Matrix: (Units=1/GPa)
#
#
# Indices 1 2 3 4 5 6 
#
# 1 0.009782 -0.005666 -0.001999 0.000564 -0.001681 -0.001840
# 2 -0.005666 0.016302 -0.004258 0.008318 -0.000834 0.004762
# 3 -0.001999 -0.004258 0.022473 -0.009178 -0.008188 -0.001194
# 4 0.000564 0.008318 -0.009178 0.055623 0.005403 -0.007297
# 5 -0.001681 -0.000834 -0.008188 0.005403 0.034440 -0.000265
# 6 -0.001840 0.004762 -0.001194 -0.007297 -0.000265 0.030422
#
#
# Mechanical properties :
#
#
# Convention : Reuss Voigt Hill
#
# Bulk Modulus (GPa) = 40.46985 60.14256 50.30620
# Shear Modulus (GPa) = 24.86013 31.69060 28.27537
#
# Velocity S-wave (km/s) = 3.49432 3.94527 3.72662
# Velocity P-wave (km/s) = 6.01311 7.09176 6.57460
#
# Compressibility (1/GPa) = 0.02470976
#
# Stress axis : x y z
#
# Youngs Moduli (GPa) = 102.23311 61.34327 44.49705
#
# Poissons Ratio (x) = 0.34759 0.08897
# Poissons Ratio (y) = 0.57928 0.18945
# Poissons Ratio (z) = 0.20441 0.26118
#
# Static dielectric constant tensor:
#      x y z
#    x 4.083200 -0.236350 0.263990 
#    y -0.236350 3.770850 -0.103390 
#    z 0.263990 -0.103390 3.634670 
# 
# 
# High freq. dielectric constant tensor:
#      x y z
#    x 1.809480 -0.007460 0.027460 
#    y -0.007460 1.761630 0.015350 
#    z 0.027460 0.015350 1.778370 
# 
# From -- ./inp_files/424441.got.cif
#   From: 2010.06.25/outbox.cif.g09.slc.cpg/sg2_213_cif.got.tgz:424441.got - 2010.06.27 13:26:56.
