data_PCOD8042641
_publ_section_title
;
Structure prediction by ZEFSAII (Michael W. Deem and Ramdas Pophale) SiO2 
 PCOD8042641
Probable space group: P -1
;
_chemical_formula_sum "Si O2"
_cell_formula_units_Z 16
_cell_length_a 14.850916
_cell_length_b 7.649803
_cell_length_c 11.297067
_cell_angle_alpha 105.002525
_cell_angle_beta 130.146750
_cell_angle_gamma 104.723494
_cell_volume 778.413448
_symmetry_space_group_name_H-M "P -1"
_symmetry_group_IT_number 2
_symmetry_cell_setting 'triclinic'
loop_
_space_group_symop_operation_xyz
x,y,z
-x,-y,-z
loop_
_atom_site_type_symbol
_atom_site_label
_atom_site_fract_x
_atom_site_fract_y
_atom_site_fract_z
Si Si1 0.321997 0.363675 0.714830
Si Si2 0.665366 0.256122 0.080421
Si Si3 0.818305 0.538629 0.038549
Si Si4 0.863820 0.092272 0.609969
Si Si5 0.554947 0.538093 0.747710
Si Si6 0.515513 0.793414 0.572735
Si Si7 0.740327 0.226041 0.721981
Si Si8 0.660544 0.975725 0.220249
O O1 0.291884 0.539530 0.761654
O O2 0.465453 0.482526 0.780793
O O3 0.343432 0.248916 0.827721
O O4 0.190234 0.164885 0.489430
O O5 0.755014 0.352210 0.053780
O O6 0.705195 0.104642 0.155999
O O7 0.496162 0.097265 0.881358
O O8 0.967450 0.754847 0.245838
O O9 0.712381 0.610339 0.930965
O O10 0.846513 0.444504 0.927759
O O11 0.829856 0.149467 0.718797
O O12 0.778037 0.135845 0.446707
O O13 0.563283 0.737521 0.723785
O O14 0.477820 0.329955 0.558110
O O15 0.354975 0.734826 0.441967
O O16 0.629801 0.050669 0.694133
#
# Coordination Sequence:
#
# PCOD8042641 Si02
#       8
#     2   2   2   2   2   2   2   2
#     4  10  21  39  61  87 120 152 202 251 290 352
#     4  11  22  39  63  91 116 158 204 250 301 341
#     4  11  23  38  57  87 126 159 194 240 299 368
#     4  10  22  40  59  85 123 161 193 243 306 357
#     4  10  19  35  59  87 114 149 196 250 293 341
#     4   9  19  33  61  89 109 147 204 248 291 343
#     4  10  20  38  61  88 119 153 198 251 298 349
#     4   9  22  39  61  90 115 158 202 248 294 353
#
# _framework density 20.55463
#
# number of rings (size 3 to 8) (size 9 to 14) (size 15 to 20)
#    0.750    1.250    2.500    0.750    5.250    2.000 
#    0.000    1.875    0.000    0.000    0.000    0.000 
#    0.000    0.000    0.000    0.000    0.000    0.000 
#
# Total GULP energy -198308.085070 kJ/mol
# GULP energy per Si atom -12394.255317 kJ/mol
# Density = 2.050785 g / cm^3
# Si number density = 20.554630 Si / 1000 Ang^3
#
#
#
# Elastic Constant Matrix: (Units=GPa)
#
#
# Indices 1 2 3 4 5 6 
#
# 1 62.2746 22.9080 34.8984 -2.0284 -1.6971 9.8595
# 2 22.9080 106.7092 34.3630 -20.8439 1.0494 10.0227
# 3 34.8984 34.3630 116.8400 4.4198 9.6280 13.9221
# 4 -2.0284 -20.8439 4.4198 18.1750 4.6740 -2.4540
# 5 -1.6971 1.0494 9.6280 4.6740 21.4598 8.4721
# 6 9.8595 10.0227 13.9221 -2.4540 8.4721 19.1177
#
#
#
# Elastic Compliance Matrix: (Units=1/GPa)
#
#
# Indices 1 2 3 4 5 6 
#
# 1 0.021691 -0.002779 -0.005031 -0.003252 0.008940 -0.010446
# 2 -0.002779 0.014913 -0.004039 0.018711 -0.003395 0.000462
# 3 -0.005031 -0.004039 0.012251 -0.008176 -0.002230 -0.004271
# 4 -0.003252 0.018711 -0.008176 0.087004 -0.024245 0.019734
# 5 0.008940 -0.003395 -0.002230 -0.024245 0.067218 -0.034107
# 6 -0.010446 0.000462 -0.004271 0.019734 -0.034107 0.078211
#
#
# Mechanical properties :
#
#
# Convention : Reuss Voigt Hill
#
# Bulk Modulus (GPa) = 39.74812 52.24029 45.99421
# Shear Modulus (GPa) = 15.95553 24.66078 20.30815
#
# Velocity S-wave (km/s) = 2.78915 3.46752 3.14667
# Velocity P-wave (km/s) = 5.45456 6.44222 5.96885
#
# Compressibility (1/GPa) = 0.02515842
#
# Stress axis : x y z
#
# Youngs Moduli (GPa) = 46.10283 67.05412 81.62476
#
# Poissons Ratio (x) = 0.18631 0.41062
# Poissons Ratio (y) = 0.12810 0.32970
# Poissons Ratio (z) = 0.23192 0.27085
#
# Static dielectric constant tensor:
#      x y z
#    x 3.334570 -0.018710 -0.115100 
#    y -0.018710 3.786040 0.012020 
#    z -0.115100 0.012020 3.650330 
# 
# 
# High freq. dielectric constant tensor:
#      x y z
#    x 1.780020 0.000280 -0.015710 
#    y 0.000280 1.797790 0.005170 
#    z -0.015710 0.005170 1.799860 
# 
# From -- ./inp_files/446223.got.cif
#   From: 2010.06.25/outbox.cif.g09.slc.cpg/sg2_224_cif.got.tgz:446223.got - 2010.06.27 13:26:56.
