data_PCOD8042723
_publ_section_title
;
Structure prediction by ZEFSAII (Michael W. Deem and Ramdas Pophale) SiO2 
 PCOD8042723
Probable space group: P -1
;
_chemical_formula_sum "Si O2"
_cell_formula_units_Z 16
_cell_length_a 11.733063
_cell_length_b 12.016620
_cell_length_c 8.484675
_cell_angle_alpha 62.633849
_cell_angle_beta 55.285812
_cell_angle_gamma 89.038436
_cell_volume 822.640377
_symmetry_space_group_name_H-M "P -1"
_symmetry_group_IT_number 2
_symmetry_cell_setting 'triclinic'
loop_
_space_group_symop_operation_xyz
x,y,z
-x,-y,-z
loop_
_atom_site_type_symbol
_atom_site_label
_atom_site_fract_x
_atom_site_fract_y
_atom_site_fract_z
Si Si1 0.417408 0.304571 0.130910
Si Si2 0.455993 0.858180 0.046927
Si Si3 0.849885 0.320004 0.052951
Si Si4 0.665560 0.341848 0.463960
Si Si5 0.354782 0.940033 0.758326
Si Si6 0.180211 0.397021 0.660069
Si Si7 0.733689 0.502105 0.803004
Si Si8 0.630176 0.777974 0.421739
O O1 0.293484 0.374848 0.159750
O O2 0.407932 0.239848 0.352399
O O3 0.406375 0.192969 0.075954
O O4 0.577767 0.414030 0.911065
O O5 0.345256 0.757205 0.318239
O O6 0.374389 0.858734 0.947320
O O7 0.500000 0.000000 0.000000
O O8 0.802761 0.337485 0.255482
O O9 0.773480 0.165332 0.169814
O O10 0.806444 0.422275 0.908834
O O11 0.023264 0.352746 0.895715
O O12 0.701427 0.489299 0.406463
O O13 0.517042 0.300580 0.506239
O O14 0.500000 0.000000 0.500000
O O15 0.310093 0.065466 0.768434
O O16 0.162215 0.441650 0.466152
O O17 0.238288 0.273202 0.695307
#
# Coordination Sequence:
#
# PCOD8042723 Si02
#       8
#     2   2   2   2   2   2   2   2
#     4  10  19  35  60  91 113 147 202 249 283 347
#     4  12  21  34  59  96 116 146 195 251 294 342
#     4  12  23  40  61  86 124 161 192 246 300 356
#     4  12  22  38  60  88 123 158 194 244 293 355
#     4  12  20  40  65  88 115 154 205 240 293 355
#     4  11  25  38  59  92 121 155 200 246 302 347
#     4  10  19  37  61  84 115 153 199 243 293 342
#     4  11  22  39  63  89 116 159 201 247 290 346
#
# _framework density 19.449567999999999
#
# number of rings (size 3 to 8) (size 9 to 14) (size 15 to 20)
#    0.000    0.750    7.500    1.125    0.000    1.500 
#    0.000    0.000    0.000    0.750    0.000    0.000 
#    0.000    0.000    0.000    0.000    0.000    0.000 
#
# Total GULP energy -198385.173697 kJ/mol
# GULP energy per Si atom -12399.073356 kJ/mol
# Density = 1.940530 g / cm^3
# Si number density = 19.449568 Si / 1000 Ang^3
#
#
#
# Elastic Constant Matrix: (Units=GPa)
#
#
# Indices 1 2 3 4 5 6 
#
# 1 51.5229 41.4837 43.3423 2.3939 1.0243 -13.2146
# 2 41.4837 164.4451 43.5283 7.3906 -0.5723 -4.3925
# 3 43.3423 43.5283 109.3158 14.4496 9.8356 -18.2773
# 4 2.3939 7.3906 14.4496 33.9513 1.9739 0.4207
# 5 1.0243 -0.5723 9.8356 1.9739 19.2856 1.3428
# 6 -13.2146 -4.3925 -18.2773 0.4207 1.3428 23.9229
#
#
#
# Elastic Compliance Matrix: (Units=1/GPa)
#
#
# Indices 1 2 3 4 5 6 
#
# 1 0.035660 -0.006037 -0.010628 0.003061 0.002318 0.010286
# 2 -0.006037 0.007903 -0.001270 -0.000805 0.001489 -0.002923
# 3 -0.010628 -0.001270 0.016488 -0.005625 -0.007795 0.007029
# 4 0.003061 -0.000805 -0.005625 0.031869 -0.000350 -0.003295
# 5 0.002318 0.001489 -0.007795 -0.000350 0.056311 -0.007557
# 6 0.010286 -0.002923 0.007029 -0.003295 -0.007557 0.052798
#
#
# Mechanical properties :
#
#
# Convention : Reuss Voigt Hill
#
# Bulk Modulus (GPa) = 41.35523 64.66585 53.01054
# Shear Modulus (GPa) = 20.41152 28.56059 24.48606
#
# Velocity S-wave (km/s) = 3.24305 3.83618 3.55202
# Velocity P-wave (km/s) = 5.94408 7.27612 6.64357
#
# Compressibility (1/GPa) = 0.02418074
#
# Stress axis : x y z
#
# Youngs Moduli (GPa) = 28.04241 126.52790 60.65189
#
# Poissons Ratio (x) = 0.76389 0.64462
# Poissons Ratio (y) = 0.16930 0.07701
# Poissons Ratio (z) = 0.29804 0.16065
#
# Static dielectric constant tensor:
#      x y z
#    x 3.191930 -0.093460 0.236250 
#    y -0.093460 4.260390 -0.040810 
#    z 0.236250 -0.040810 3.726580 
# 
# 
# High freq. dielectric constant tensor:
#      x y z
#    x 1.718360 -0.005730 0.022900 
#    y -0.005730 1.783400 0.005200 
#    z 0.022900 0.005200 1.759450 
# 
# From -- ./inp_files/181655.got.cif
#   From: 2010.06.25/outbox.cif.g09.slc.cpg/sg2_91_cif.got.tgz:181655.got - 2010.06.27 13:26:56.
