data_PCOD8042376
_publ_section_title
;
Structure prediction by ZEFSAII (Michael W. Deem and Ramdas Pophale) SiO2 
 PCOD8042376
Probable space group: P -1
;
_chemical_formula_sum "Si O2"
_cell_formula_units_Z 14
_cell_length_a 7.717922
_cell_length_b 25.778781
_cell_length_c 10.626999
_cell_angle_alpha 153.816316
_cell_angle_beta 123.884801
_cell_angle_gamma 52.611858
_cell_volume 740.785867
_symmetry_space_group_name_H-M "P -1"
_symmetry_group_IT_number 2
_symmetry_cell_setting 'triclinic'
loop_
_space_group_symop_operation_xyz
x,y,z
-x,-y,-z
loop_
_atom_site_type_symbol
_atom_site_label
_atom_site_fract_x
_atom_site_fract_y
_atom_site_fract_z
Si Si1 0.229241 0.021804 0.660299
Si Si2 0.664634 0.767350 0.694966
Si Si3 0.234641 0.931234 0.803248
Si Si4 0.284281 0.780762 0.729249
Si Si5 0.788480 0.985959 0.640613
Si Si6 0.945359 0.640225 0.318905
Si Si7 0.333859 0.136328 0.435326
O O1 0.314777 0.033865 0.578447
O O2 0.400359 0.909732 0.560015
O O3 0.000000 0.000000 0.500000
O O4 0.209113 0.146315 0.999292
O O5 0.484113 0.846573 0.692038
O O6 0.531635 0.715678 0.635651
O O7 0.837869 0.658868 0.455339
O O8 0.150416 0.870730 0.760110
O O9 0.057744 0.945356 0.650996
O O10 0.238150 0.068276 0.138887
O O11 0.169350 0.677684 0.493357
O O12 0.294963 0.869149 0.042717
O O13 0.725873 0.898946 0.527110
O O14 0.771778 0.718818 0.317614
O O15 0.000000 0.500000 0.000000
#
# Coordination Sequence:
#
# PCOD8042376 Si02
#       7
#     2   2   2   2   2   2   2
#     4  11  23  30  56  95 121 142 175 230 299 361
#     4   9  22  37  54  85 115 146 189 236 288 327
#     4   8  16  32  60  81 110 143 175 233 298 332
#     4   9  18  36  56  84 116 145 183 238 284 340
#     4  11  16  34  59  89 117 146 173 222 308 357
#     4  12  23  37  61  83 109 154 204 242 268 317
#     4  10  19  35  53  85 115 145 183 231 287 336
#
# _framework density 18.898848000000001
#
# number of rings (size 3 to 8) (size 9 to 14) (size 15 to 20)
#    0.857    1.143    4.286    2.143    2.000    1.714 
#    0.000    0.000    0.000    4.286    0.000    0.000 
#    0.000    0.000    0.000    0.000    0.000    0.000 
#
# Total GULP energy -173471.817648 kJ/mol
# GULP energy per Si atom -12390.844118 kJ/mol
# Density = 1.885583 g / cm^3
# Si number density = 18.898848 Si / 1000 Ang^3
#
#
#
# Elastic Constant Matrix: (Units=GPa)
#
#
# Indices 1 2 3 4 5 6 
#
# 1 106.8851 9.2849 58.6416 7.9122 -0.3456 -18.4628
# 2 9.2849 58.1997 42.9927 -8.1479 -2.2826 -8.7212
# 3 58.6416 42.9927 122.8439 11.3619 -14.0646 -6.3674
# 4 7.9122 -8.1479 11.3619 32.4465 -0.5439 0.6958
# 5 -0.3456 -2.2826 -14.0646 -0.5439 27.5064 -4.9474
# 6 -18.4628 -8.7212 -6.3674 0.6958 -4.9474 22.4294
#
#
#
# Elastic Compliance Matrix: (Units=1/GPa)
#
#
# Indices 1 2 3 4 5 6 
#
# 1 0.016201 0.006447 -0.009617 0.000733 -0.001885 0.012674
# 2 0.006447 0.029768 -0.014109 0.010547 -0.002288 0.012044
# 3 -0.009617 -0.014109 0.018853 -0.007547 0.007074 -0.006256
# 4 0.000733 0.010547 -0.007547 0.035876 -0.002087 0.000988
# 5 -0.001885 -0.002288 0.007074 -0.002087 0.041289 0.008739
# 6 0.012674 0.012044 -0.006256 0.000988 0.008739 0.059821
#
#
# Mechanical properties :
#
#
# Convention : Reuss Voigt Hill
#
# Bulk Modulus (GPa) = 33.04212 56.64077 44.84145
# Shear Modulus (GPa) = 20.28781 28.27709 24.28245
#
# Velocity S-wave (km/s) = 3.27998 3.87231 3.58839
# Velocity P-wave (km/s) = 5.64499 7.07309 6.39901
#
# Compressibility (1/GPa) = 0.03026440
#
# Stress axis : x y z
#
# Youngs Moduli (GPa) = 61.72498 33.59337 53.04301
#
# Poissons Ratio (x) = -0.21659 0.51010
# Poissons Ratio (y) = -0.39796 0.74838
# Poissons Ratio (z) = 0.59359 0.47397
#
# Static dielectric constant tensor:
#      x y z
#    x 3.929530 0.045090 -0.061240 
#    y 0.045090 3.316490 -0.307750 
#    z -0.061240 -0.307750 3.013120 
# 
# 
# High freq. dielectric constant tensor:
#      x y z
#    x 1.775530 -0.003680 0.000790 
#    y -0.003680 1.704250 -0.032370 
#    z 0.000790 -0.032370 1.682730 
# 
# From -- ./inp_files/407508.got.cif
#   From: 2010.06.25/outbox.cif.g09.slc.cpg/sg2_204_cif.got.tgz:407508.got - 2010.06.27 13:26:56.
