data_PCOD8042428
_publ_section_title
;
Structure prediction by ZEFSAII (Michael W. Deem and Ramdas Pophale) SiO2 
 PCOD8042428
Probable space group: P -1
;
_chemical_formula_sum "Si O2"
_cell_formula_units_Z 16
_cell_length_a 14.298830
_cell_length_b 11.787158
_cell_length_c 13.476074
_cell_angle_alpha 84.209418
_cell_angle_beta 144.812306
_cell_angle_gamma 69.116901
_cell_volume 837.739893
_symmetry_space_group_name_H-M "P -1"
_symmetry_group_IT_number 2
_symmetry_cell_setting 'triclinic'
loop_
_space_group_symop_operation_xyz
x,y,z
-x,-y,-z
loop_
_atom_site_type_symbol
_atom_site_label
_atom_site_fract_x
_atom_site_fract_y
_atom_site_fract_z
Si Si1 0.286102 0.147737 0.680027
Si Si2 0.239872 0.299648 0.332537
Si Si3 0.545972 0.163216 0.043199
Si Si4 0.682208 0.003248 0.878379
Si Si5 0.929776 0.041626 0.228367
Si Si6 0.500329 0.292120 0.194210
Si Si7 0.192428 0.297320 0.065732
Si Si8 0.084939 0.685721 0.826347
O O1 0.033919 0.290779 0.383762
O O2 0.285307 0.028129 0.746366
O O3 0.531359 0.023726 0.834264
O O4 0.305452 0.240473 0.768265
O O5 0.301506 0.255516 0.274211
O O6 0.077806 0.277419 0.227691
O O7 0.499769 0.167003 0.629437
O O8 0.083387 0.498718 0.202516
O O9 0.441107 0.300691 0.026386
O O10 0.724684 0.138693 0.128118
O O11 0.836367 0.821053 0.972230
O O12 0.872992 0.993961 0.088032
O O13 0.917516 0.178736 0.171813
O O14 0.201886 0.858313 0.519919
O O15 0.393672 0.245985 0.171182
O O16 0.367705 0.482556 0.092527
#
# Coordination Sequence:
#
# PCOD8042428 Si02
#       8
#     2   2   2   2   2   2   2   2
#     4   9  18  35  56  78 105 138 183 227 257 300
#     4   9  20  37  60  82 103 133 179 232 264 301
#     4  10  19  35  56  77 108 144 176 222 264 302
#     4  10  19  35  58  79 107 142 176 217 264 317
#     4  11  23  36  51  80 117 144 171 212 267 323
#     4  11  21  36  57  78 108 146 178 215 266 318
#     4  10  19  37  61  82 101 135 184 224 264 310
#     4  10  21  37  55  79 110 140 177 221 265 318
#
# _framework density 19.099005999999999
#
# number of rings (size 3 to 8) (size 9 to 14) (size 15 to 20)
#    0.000    2.000    2.500    1.500    0.000    2.000 
#    0.000    2.500    0.000    4.500    0.000    0.000 
#    0.000    0.000    0.000    0.000    0.000    0.000 
#
# Total GULP energy -198421.084803 kJ/mol
# GULP energy per Si atom -12401.317800 kJ/mol
# Density = 1.905554 g / cm^3
# Si number density = 19.099006 Si / 1000 Ang^3
#
#
#
# Elastic Constant Matrix: (Units=GPa)
#
#
# Indices 1 2 3 4 5 6 
#
# 1 56.3964 23.4735 28.7136 4.0282 -10.7152 -8.2417
# 2 23.4735 106.8397 58.0937 9.3657 -3.1742 0.4959
# 3 28.7136 58.0937 67.3271 8.6049 -8.6323 7.5756
# 4 4.0282 9.3657 8.6049 22.3267 0.1501 -7.2520
# 5 -10.7152 -3.1742 -8.6323 0.1501 22.6510 0.4236
# 6 -8.2417 0.4959 7.5756 -7.2520 0.4236 26.4035
#
#
#
# Elastic Compliance Matrix: (Units=1/GPa)
#
#
# Indices 1 2 3 4 5 6 
#
# 1 0.027382 0.001360 -0.013949 0.004219 0.007546 0.013562
# 2 0.001360 0.018487 -0.017671 0.000577 -0.003604 0.005364
# 3 -0.013949 -0.017671 0.040599 -0.011956 0.006833 -0.019064
# 4 0.004219 0.000577 -0.011956 0.054866 -0.003215 0.019857
# 5 0.007546 -0.003604 0.006833 -0.003215 0.049861 -0.001220
# 6 0.013562 0.005364 -0.019064 0.019857 -0.001220 0.052950
#
#
# Mechanical properties :
#
#
# Convention : Reuss Voigt Hill
#
# Bulk Modulus (GPa) = 38.53949 50.12500 44.33225
# Shear Modulus (GPa) = 15.95847 22.29507 19.12677
#
# Velocity S-wave (km/s) = 2.89375 3.42035 3.16801
# Velocity P-wave (km/s) = 5.60247 6.47303 6.05342
#
# Compressibility (1/GPa) = 0.02594741
#
# Stress axis : x y z
#
# Youngs Moduli (GPa) = 36.52068 54.09175 24.63126
#
# Poissons Ratio (x) = -0.07357 0.34358
# Poissons Ratio (y) = -0.04967 0.43526
# Poissons Ratio (z) = 0.50943 0.95587
#
# Static dielectric constant tensor:
#      x y z
#    x 3.513200 -0.062270 -0.182470 
#    y -0.062270 3.520720 0.059870 
#    z -0.182470 0.059870 3.382290 
# 
# 
# High freq. dielectric constant tensor:
#      x y z
#    x 1.743130 -0.003310 -0.015880 
#    y -0.003310 1.741310 -0.000880 
#    z -0.015880 -0.000880 1.730170 
# 
# From -- ./inp_files/268207.got.cif
#   From: 2010.06.25/outbox.cif.g09.slc.cpg/sg2_135_cif.got.tgz:268207.got - 2010.06.27 13:26:56.
