data_PCOD8042749
_publ_section_title
;
Structure prediction by ZEFSAII (Michael W. Deem and Ramdas Pophale) SiO2 
 PCOD8042749
Probable space group: P -1
;
_chemical_formula_sum "Si O2"
_cell_formula_units_Z 16
_cell_length_a 11.209754
_cell_length_b 11.334498
_cell_length_c 14.478297
_cell_angle_alpha 29.136072
_cell_angle_beta 103.567606
_cell_angle_gamma 90.845414
_cell_volume 797.305278
_symmetry_space_group_name_H-M "P -1"
_symmetry_group_IT_number 2
_symmetry_cell_setting 'triclinic'
loop_
_space_group_symop_operation_xyz
x,y,z
-x,-y,-z
loop_
_atom_site_type_symbol
_atom_site_label
_atom_site_fract_x
_atom_site_fract_y
_atom_site_fract_z
Si Si1 0.138380 0.456109 0.938963
Si Si2 0.947788 0.294855 0.751900
Si Si3 0.902702 0.346059 0.503198
Si Si4 0.130629 0.916406 0.729756
Si Si5 0.307635 0.605486 0.718138
Si Si6 0.122997 0.402467 0.295708
Si Si7 0.434065 0.524930 0.071020
Si Si8 0.699806 0.834022 0.671780
O O1 0.070933 0.713391 0.817466
O O2 0.239041 0.512151 0.850780
O O3 0.026008 0.401326 0.899378
O O4 0.217665 0.208479 0.187997
O O5 0.871234 0.328461 0.617532
O O6 0.844434 0.477231 0.686357
O O7 0.067938 0.394707 0.691336
O O8 0.000000 0.000000 0.000000
O O9 0.767455 0.379146 0.402196
O O10 0.033722 0.080495 0.683084
O O11 0.120960 0.118025 0.508299
O O12 0.286393 0.759257 0.894198
O O13 0.467576 0.416335 0.876976
O O14 0.318791 0.879368 0.561425
O O15 0.224713 0.381662 0.246925
O O16 0.428746 0.235970 0.285981
O O17 0.500000 0.500000 0.000000
#
# Coordination Sequence:
#
# PCOD8042749 Si02
#       8
#     2   2   2   2   2   2   2   2
#     4  11  20  34  57  92 123 151 187 243 296 360
#     4  10  23  38  61  86 119 148 206 253 297 342
#     4  10  23  40  61  89 114 161 194 253 299 334
#     4  10  19  35  61  83 126 153 191 232 297 357
#     4  12  21  39  62  88 130 154 198 237 296 362
#     4  11  20  37  59  92 115 156 197 250 298 347
#     4  11  22  38  55  88 129 166 189 232 296 365
#     4  11  23  33  60  90 125 158 194 234 300 365
#
# _framework density 20.067595000000001
#
# number of rings (size 3 to 8) (size 9 to 14) (size 15 to 20)
#    0.000    1.250    6.250    1.875    5.250    0.000 
#    0.000    0.000    0.000    7.500    0.000    0.000 
#    0.000    0.000    0.000    0.000    0.000    0.000 
#
# Total GULP energy -198245.372278 kJ/mol
# GULP energy per Si atom -12390.335767 kJ/mol
# Density = 2.002192 g / cm^3
# Si number density = 20.067595 Si / 1000 Ang^3
#
#
#
# Elastic Constant Matrix: (Units=GPa)
#
#
# Indices 1 2 3 4 5 6 
#
# 1 81.9487 40.6235 16.2191 20.7759 8.2755 4.1121
# 2 40.6235 98.1397 26.1627 29.3482 10.8825 -0.8405
# 3 16.2191 26.1627 48.9319 12.5680 -5.1000 -5.3319
# 4 20.7759 29.3482 12.5680 32.7731 4.3737 -2.2254
# 5 8.2755 10.8825 -5.1000 4.3737 37.2406 12.1386
# 6 4.1121 -0.8405 -5.3319 -2.2254 12.1386 21.4633
#
#
#
# Elastic Compliance Matrix: (Units=1/GPa)
#
#
# Indices 1 2 3 4 5 6 
#
# 1 0.016624 -0.004534 -0.002093 -0.005875 -0.000615 -0.004144
# 2 -0.004534 0.016763 -0.005279 -0.009480 -0.003984 0.001484
# 3 -0.002093 -0.005279 0.025952 -0.004332 0.004968 0.003382
# 4 -0.005875 -0.009480 -0.004332 0.045376 -0.004015 0.006654
# 5 -0.000615 -0.003984 0.004968 -0.004015 0.035617 -0.019364
# 6 -0.004144 0.001484 0.003382 0.006654 -0.019364 0.059924
#
#
# Mechanical properties :
#
#
# Convention : Reuss Voigt Hill
#
# Bulk Modulus (GPa) = 28.14643 43.89230 36.01936
# Shear Modulus (GPa) = 21.19468 28.02973 24.61220
#
# Velocity S-wave (km/s) = 3.25339 3.74139 3.50589
# Velocity P-wave (km/s) = 5.30745 6.37053 5.86313
#
# Compressibility (1/GPa) = 0.03552849
#
# Stress axis : x y z
#
# Youngs Moduli (GPa) = 60.15431 59.65533 38.53342
#
# Poissons Ratio (x) = 0.27045 0.08064
# Poissons Ratio (y) = 0.27272 0.20340
# Poissons Ratio (z) = 0.12589 0.31489
#
# Static dielectric constant tensor:
#      x y z
#    x 3.713560 0.156370 -0.022150 
#    y 0.156370 3.717810 0.238050 
#    z -0.022150 0.238050 3.860230 
# 
# 
# High freq. dielectric constant tensor:
#      x y z
#    x 1.770200 0.007980 -0.020750 
#    y 0.007980 1.756860 0.020420 
#    z -0.020750 0.020420 1.799570 
# 
# From -- ./inp_files/517504.got.cif
#   From: 2010.06.25/outbox.cif.g09.slc.cpg/sg2_259_cif.got.tgz:517504.got - 2010.06.27 13:26:56.
