data_PCOD8042555
_publ_section_title
;
Structure prediction by ZEFSAII (Michael W. Deem and Ramdas Pophale) SiO2 
 PCOD8042555
Probable space group: P -1
;
_chemical_formula_sum "Si O2"
_cell_formula_units_Z 16
_cell_length_a 22.004739
_cell_length_b 9.230029
_cell_length_c 15.129019
_cell_angle_alpha 107.669458
_cell_angle_beta 39.630071
_cell_angle_gamma 140.218034
_cell_volume 887.512441
_symmetry_space_group_name_H-M "P -1"
_symmetry_group_IT_number 2
_symmetry_cell_setting 'triclinic'
loop_
_space_group_symop_operation_xyz
x,y,z
-x,-y,-z
loop_
_atom_site_type_symbol
_atom_site_label
_atom_site_fract_x
_atom_site_fract_y
_atom_site_fract_z
Si Si1 0.669407 0.650041 0.952057
Si Si2 0.466276 0.829153 0.430249
Si Si3 0.366077 0.837416 0.875122
Si Si4 0.418253 0.592384 0.181937
Si Si5 0.977074 0.847419 0.836584
Si Si6 0.893737 0.780403 0.389012
Si Si7 0.408493 0.430677 0.500665
Si Si8 0.575395 0.404126 0.196564
O O1 0.653950 0.526081 0.859080
O O2 0.546261 0.630664 0.078679
O O3 0.574565 0.418117 0.094243
O O4 0.902303 0.021259 0.777240
O O5 0.242057 0.513599 0.580192
O O6 0.513124 0.730599 0.402908
O O7 0.500000 0.000000 0.500000
O O8 0.620726 0.078880 0.223882
O O9 0.501094 0.872332 0.741059
O O10 0.441418 0.063112 0.904436
O O11 0.133224 0.471391 0.090722
O O12 0.224359 0.341007 0.413449
O O13 0.050706 0.983473 0.678911
O O14 0.173732 0.129161 0.729536
O O15 0.810515 0.743554 0.029754
O O16 0.500000 0.500000 0.500000
O O17 0.435559 0.337002 0.380754
#
# Coordination Sequence:
#
# PCOD8042555 Si02
#       8
#     2   2   2   2   2   2   2   2
#     4  10  19  35  58  83 104 152 184 216 275 337
#     4  10  20  37  57  83 111 141 183 233 270 313
#     4   9  19  38  54  80 113 140 174 240 264 306
#     4  10  20  34  58  82 115 136 186 232 267 317
#     4   8  19  36  55  77 109 143 177 226 265 324
#     4   9  18  37  58  76 109 151 179 220 274 329
#     4  11  21  37  60  78 106 152 182 216 277 333
#     4   9  19  36  56  77 110 142 184 214 277 323
#
# _framework density 18.027915
#
# number of rings (size 3 to 8) (size 9 to 14) (size 15 to 20)
#    0.750    1.750    0.000    3.375    0.000    1.000 
#   11.250    0.625    0.000    2.250    0.000    0.000 
#    0.000    0.000    0.000    0.000    0.000    0.000 
#
# Total GULP energy -198219.589879 kJ/mol
# GULP energy per Si atom -12388.724367 kJ/mol
# Density = 1.798688 g / cm^3
# Si number density = 18.027915 Si / 1000 Ang^3
#
#
#
# Elastic Constant Matrix: (Units=GPa)
#
#
# Indices 1 2 3 4 5 6 
#
# 1 104.4827 42.2739 20.7532 -8.2366 5.4580 1.7200
# 2 42.2739 102.2811 21.4234 1.8854 13.3388 -2.9072
# 3 20.7532 21.4234 50.0746 -12.2149 6.2042 4.4418
# 4 -8.2366 1.8854 -12.2149 30.1294 -4.8499 3.4355
# 5 5.4580 13.3388 6.2042 -4.8499 31.2677 -4.3826
# 6 1.7200 -2.9072 4.4418 3.4355 -4.3826 35.1604
#
#
#
# Elastic Compliance Matrix: (Units=1/GPa)
#
#
# Indices 1 2 3 4 5 6 
#
# 1 0.012139 -0.004696 -0.002324 0.002879 0.000668 -0.000887
# 2 -0.004696 0.013410 -0.004598 -0.004920 -0.004494 0.001840
# 3 -0.002324 -0.004598 0.026118 0.010491 -0.001864 -0.004823
# 4 0.002879 -0.004920 0.010491 0.039928 0.004986 -0.005153
# 5 0.000668 -0.004494 -0.001864 0.004986 0.035453 0.003763
# 6 -0.000887 0.001840 -0.004823 -0.005153 0.003763 0.030218
#
#
# Mechanical properties :
#
#
# Convention : Reuss Voigt Hill
#
# Bulk Modulus (GPa) = 35.17059 47.30439 41.23749
# Shear Modulus (GPa) = 26.31871 30.80405 28.56138
#
# Velocity S-wave (km/s) = 3.82499 4.13811 3.98463
# Velocity P-wave (km/s) = 6.24970 7.00917 6.64030
#
# Compressibility (1/GPa) = 0.02843285
#
# Stress axis : x y z
#
# Youngs Moduli (GPa) = 82.37818 74.57212 38.28747
#
# Poissons Ratio (x) = 0.35018 0.08897
# Poissons Ratio (y) = 0.38683 0.17603
# Poissons Ratio (z) = 0.19143 0.34285
#
# Static dielectric constant tensor:
#      x y z
#    x 3.489180 -0.018930 0.030140 
#    y -0.018930 3.222880 -0.084880 
#    z 0.030140 -0.084880 3.468790 
# 
# 
# High freq. dielectric constant tensor:
#      x y z
#    x 1.710680 -0.001480 0.007900 
#    y -0.001480 1.677020 -0.006630 
#    z 0.007900 -0.006630 1.692580 
# 
# From -- ./inp_files/540274.got.cif
#   From: 2010.06.25/outbox.cif.g09.slc.cpg/sg2_271_cif.got.tgz:540274.got - 2010.06.27 13:26:56.
