data_PCOD8042525
_publ_section_title
;
Structure prediction by ZEFSAII (Michael W. Deem and Ramdas Pophale) SiO2 
 PCOD8042525
Probable space group: P -1
;
_chemical_formula_sum "Si O2"
_cell_formula_units_Z 16
_cell_length_a 11.131327
_cell_length_b 5.162268
_cell_length_c 16.016412
_cell_angle_alpha 121.681523
_cell_angle_beta 50.843577
_cell_angle_gamma 121.823427
_cell_volume 579.997270
_symmetry_space_group_name_H-M "P -1"
_symmetry_group_IT_number 2
_symmetry_cell_setting 'triclinic'
loop_
_space_group_symop_operation_xyz
x,y,z
-x,-y,-z
loop_
_atom_site_type_symbol
_atom_site_label
_atom_site_fract_x
_atom_site_fract_y
_atom_site_fract_z
Si Si1 0.502074 0.308436 0.601509
Si Si2 0.915484 0.777720 0.074773
Si Si3 0.843765 0.802459 0.298363
Si Si4 0.364671 0.863355 0.179525
Si Si5 0.048694 0.439165 0.358520
Si Si6 0.091793 0.432964 0.155650
Si Si7 0.822080 0.780334 0.578837
Si Si8 0.552157 0.573993 0.173495
O O1 0.345689 0.401443 0.649978
O O2 0.665838 0.594384 0.560601
O O3 0.478146 0.236675 0.699166
O O4 0.500000 0.000000 0.500000
O O5 0.890341 0.898734 0.198214
O O6 0.743219 0.653031 0.083364
O O7 0.044503 0.146517 0.056388
O O8 0.000000 0.500000 0.000000
O O9 0.944038 0.578924 0.250854
O O10 0.885996 0.130045 0.389846
O O11 0.270385 0.691784 0.107056
O O12 0.471780 0.667429 0.142348
O O13 0.220387 0.894559 0.315379
O O14 0.482062 0.201013 0.160352
O O15 0.122187 0.348203 0.224345
O O16 0.175269 0.426414 0.373613
O O17 0.985248 0.761819 0.451433
#
# Coordination Sequence:
#
# PCOD8042525 Si02
#       8
#     2   2   2   2   2   2   2   2
#     4  10  19  35  57  89 132 177 218 267 324 389
#     4  10  25  47  70  96 130 172 219 281 349 410
#     4  10  21  39  61  92 130 163 230 268 332 396
#     4  11  23  44  67  98 136 180 222 274 334 390
#     4  10  20  38  55  93 130 179 229 273 318 387
#     4  11  23  39  69  93 130 177 218 287 331 399
#     4  10  20  35  59  87 136 180 227 268 319 388
#     4  10  25  44  69  97 135 177 224 276 334 405
#
# _framework density 27.586334999999998
#
# number of rings (size 3 to 8) (size 9 to 14) (size 15 to 20)
#    0.000    1.750    2.500    1.500    7.000    2.000 
#    0.000    4.375    0.000    0.000    0.000    0.000 
#    0.000    0.000    0.000    0.000    0.000    0.000 
#
# Total GULP energy -198285.926263 kJ/mol
# GULP energy per Si atom -12392.870391 kJ/mol
# Density = 2.752355 g / cm^3
# Si number density = 27.586335 Si / 1000 Ang^3
#
#
#
# Elastic Constant Matrix: (Units=GPa)
#
#
# Indices 1 2 3 4 5 6 
#
# 1 192.3222 59.6542 70.5546 19.2046 -16.1123 35.0200
# 2 59.6542 108.8010 48.6995 9.2436 -2.7975 20.5797
# 3 70.5546 48.6995 90.5256 26.5356 5.4943 18.3399
# 4 19.2046 9.2436 26.5356 53.0420 8.7463 3.2485
# 5 -16.1123 -2.7975 5.4943 8.7463 62.5565 8.1253
# 6 35.0200 20.5797 18.3399 3.2485 8.1253 49.7106
#
#
#
# Elastic Compliance Matrix: (Units=1/GPa)
#
#
# Indices 1 2 3 4 5 6 
#
# 1 0.008603 -0.001550 -0.005077 -0.000585 0.003198 -0.004030
# 2 -0.001550 0.012951 -0.005661 0.001146 0.000827 -0.002391
# 3 -0.005077 -0.005661 0.020381 -0.006948 -0.002279 -0.000772
# 4 -0.000585 0.001146 -0.006948 0.022722 -0.002859 0.001483
# 5 0.003198 0.000827 -0.002279 -0.002859 0.018033 -0.004515
# 6 -0.004030 -0.002391 -0.000772 0.001483 -0.004515 0.024872
#
#
# Mechanical properties :
#
#
# Convention : Reuss Voigt Hill
#
# Bulk Modulus (GPa) = 57.60979 83.27392 70.44186
# Shear Modulus (GPa) = 36.25207 47.24453 41.74830
#
# Velocity S-wave (km/s) = 3.62903 4.14285 3.89442
# Velocity P-wave (km/s) = 6.20392 7.28948 6.76850
#
# Compressibility (1/GPa) = 0.01735816
#
# Stress axis : x y z
#
# Youngs Moduli (GPa) = 116.23379 77.21432 49.06639
#
# Poissons Ratio (x) = 0.11969 0.24913
# Poissons Ratio (y) = 0.18018 0.27775
# Poissons Ratio (z) = 0.59017 0.43709
#
# Static dielectric constant tensor:
#      x y z
#    x 5.407150 0.627570 0.291040 
#    y 0.627570 5.556020 -0.186740 
#    z 0.291040 -0.186740 5.319340 
# 
# 
# High freq. dielectric constant tensor:
#      x y z
#    x 2.132200 0.033600 0.018120 
#    y 0.033600 2.132970 -0.000530 
#    z 0.018120 -0.000530 2.129440 
# 
# From -- ./inp_files/55620.got.cif
#   From: 2010.06.25/outbox.cif.g09.slc.cpg/sg2_28_cif.got.tgz:55620.got - 2010.06.27 13:26:56.
