data_PCOD8042847
_publ_section_title
;
Structure prediction by ZEFSAII (Michael W. Deem and Ramdas Pophale) SiO2 
 PCOD8042847
Probable space group: P -1
;
_chemical_formula_sum "Si O2"
_cell_formula_units_Z 16
_cell_length_a 11.610507
_cell_length_b 12.192643
_cell_length_c 9.221676
_cell_angle_alpha 45.564604
_cell_angle_beta 69.159215
_cell_angle_gamma 58.791875
_cell_volume 797.199491
_symmetry_space_group_name_H-M "P -1"
_symmetry_group_IT_number 2
_symmetry_cell_setting 'triclinic'
loop_
_space_group_symop_operation_xyz
x,y,z
-x,-y,-z
loop_
_atom_site_type_symbol
_atom_site_label
_atom_site_fract_x
_atom_site_fract_y
_atom_site_fract_z
Si Si1 0.534788 0.367623 0.813958
Si Si2 0.218281 0.949604 0.937936
Si Si3 0.037437 0.797519 0.054350
Si Si4 0.928637 0.418660 0.501910
Si Si5 0.387124 0.260505 0.203550
Si Si6 0.424512 0.091869 0.637523
Si Si7 0.077454 0.476560 0.136552
Si Si8 0.622015 0.628370 0.400551
O O1 0.564284 0.532174 0.628797
O O2 0.425629 0.371983 0.740570
O O3 0.672722 0.205074 0.879465
O O4 0.472807 0.360617 0.007039
O O5 0.292873 0.049478 0.726564
O O6 0.141161 0.887901 0.904235
O O7 0.117223 0.068609 0.995747
O O8 0.074666 0.736234 0.262763
O O9 0.057722 0.654160 0.058259
O O10 0.782285 0.549304 0.401826
O O11 0.000000 0.500000 0.500000
O O12 0.019355 0.368773 0.362768
O O13 0.412018 0.229641 0.392178
O O14 0.232752 0.368077 0.136794
O O15 0.438660 0.075536 0.278997
O O16 0.430386 0.178729 0.705731
O O17 0.000000 0.500000 0.000000
#
# Coordination Sequence:
#
# PCOD8042847 Si02
#       8
#     2   2   2   2   2   2   2   2
#     4  10  23  38  61  86 123 150 193 249 290 355
#     4  10  20  38  61  90 113 152 203 247 290 333
#     4  10  20  36  62  86 114 153 200 246 285 346
#     4  10  19  35  63  86 110 152 199 247 278 340
#     4  10  22  39  55  88 116 156 189 233 294 351
#     4  10  21  38  60  83 115 153 197 239 284 350
#     4  11  22  36  58  88 122 154 190 238 300 354
#     4  11  21  39  61  90 113 154 200 244 297 330
#
# _framework density 20.070259
#
# number of rings (size 3 to 8) (size 9 to 14) (size 15 to 20)
#    0.000    1.750    1.250    4.500    0.000    3.500 
#    4.500    0.000    0.000    3.750    0.000    0.000 
#    0.000    0.000    0.000    0.000    0.000    0.000 
#
# Total GULP energy -198306.173573 kJ/mol
# GULP energy per Si atom -12394.135848 kJ/mol
# Density = 2.002458 g / cm^3
# Si number density = 20.070259 Si / 1000 Ang^3
#
#
#
# Elastic Constant Matrix: (Units=GPa)
#
#
# Indices 1 2 3 4 5 6 
#
# 1 121.2164 67.0732 32.5992 -0.6010 0.2568 -16.9189
# 2 67.0732 101.7796 25.2991 -8.5490 -2.3621 -11.8945
# 3 32.5992 25.2991 84.0077 11.3246 -8.7437 5.1173
# 4 -0.6010 -8.5490 11.3246 21.8930 -7.4775 -0.2946
# 5 0.2568 -2.3621 -8.7437 -7.4775 29.7463 -7.8720
# 6 -16.9189 -11.8945 5.1173 -0.2946 -7.8720 35.2409
#
#
#
# Elastic Compliance Matrix: (Units=1/GPa)
#
#
# Indices 1 2 3 4 5 6 
#
# 1 0.014276 -0.008242 -0.003227 -0.001420 -0.000941 0.004319
# 2 -0.008242 0.017285 -0.003086 0.009452 0.003772 0.003247
# 3 -0.003227 -0.003086 0.015701 -0.009198 0.000825 -0.004763
# 4 -0.001420 0.009452 -0.009198 0.059314 0.015005 0.007691
# 5 -0.000941 0.003772 0.000825 0.015005 0.040556 0.009886
# 6 0.004319 0.003247 -0.004763 0.007691 0.009886 0.034510
#
#
# Mechanical properties :
#
#
# Convention : Reuss Voigt Hill
#
# Bulk Modulus (GPa) = 55.09362 61.88295 58.48828
# Shear Modulus (GPa) = 23.06235 29.51154 26.28694
#
# Velocity S-wave (km/s) = 3.39349 3.83875 3.62297
# Velocity P-wave (km/s) = 6.54708 7.10972 6.83420
#
# Compressibility (1/GPa) = 0.01815092
#
# Stress axis : x y z
#
# Youngs Moduli (GPa) = 70.04752 57.85431 63.68876
#
# Poissons Ratio (x) = 0.47685 0.20553
# Poissons Ratio (y) = 0.57735 0.19656
# Poissons Ratio (z) = 0.22605 0.17855
#
# Static dielectric constant tensor:
#      x y z
#    x 3.638400 -0.179820 -0.323160 
#    y -0.179820 3.578500 -0.058280 
#    z -0.323160 -0.058280 4.846230 
# 
# 
# High freq. dielectric constant tensor:
#      x y z
#    x 1.787750 -0.018410 -0.013390 
#    y -0.018410 1.774850 -0.010440 
#    z -0.013390 -0.010440 1.781830 
# 
# From -- ./inp_files/261579.got.cif
#   From: 2010.06.25/outbox.cif.g09.slc.cpg/sg2_131_cif.got.tgz:261579.got - 2010.06.27 13:26:56.
