data_PCOD8042314
_publ_section_title
;
Structure prediction by ZEFSAII (Michael W. Deem and Ramdas Pophale) SiO2 
 PCOD8042314
Probable space group: P -1
;
_chemical_formula_sum "Si O2"
_cell_formula_units_Z 16
_cell_length_a 13.811438
_cell_length_b 16.540127
_cell_length_c 19.248058
_cell_angle_alpha 21.384499
_cell_angle_beta 146.134584
_cell_angle_gamma 135.571840
_cell_volume 854.853842
_symmetry_space_group_name_H-M "P -1"
_symmetry_group_IT_number 2
_symmetry_cell_setting 'triclinic'
loop_
_space_group_symop_operation_xyz
x,y,z
-x,-y,-z
loop_
_atom_site_type_symbol
_atom_site_label
_atom_site_fract_x
_atom_site_fract_y
_atom_site_fract_z
Si Si1 0.801425 0.299407 0.986894
Si Si2 0.090669 0.265285 0.782470
Si Si3 0.667585 0.862374 0.277347
Si Si4 0.407491 0.460636 0.617619
Si Si5 0.983835 0.453439 0.849573
Si Si6 0.034626 0.795177 0.096555
Si Si7 0.156934 0.759039 0.788773
Si Si8 0.538710 0.804567 0.006269
O O1 0.859496 0.352973 0.056017
O O2 0.779356 0.041658 0.181566
O O3 0.607688 0.489386 0.701435
O O4 0.950846 0.308005 0.012646
O O5 0.000000 0.500000 0.500000
O O6 0.058135 0.295681 0.821170
O O7 0.308113 0.184943 0.965890
O O8 0.000236 0.071092 0.855907
O O9 0.589393 0.779886 0.227055
O O10 0.798434 0.637448 0.570925
O O11 0.509443 0.970076 0.152931
O O12 0.252468 0.680169 0.321896
O O13 0.382520 0.421275 0.716546
O O14 0.052346 0.277397 0.966804
O O15 0.132327 0.582623 0.855618
O O16 0.355002 0.793902 0.866424
O O17 0.000000 0.000000 0.500000
#
# Coordination Sequence:
#
# PCOD8042314 Si02
#       8
#     2   2   2   2   2   2   2   2
#     4  10  20  30  55  83 120 156 174 218 287 339
#     4  11  23  42  59  80 113 152 196 237 292 323
#     4   9  19  32  51  87 123 138 181 227 285 358
#     4   9  18  33  53  90 116 140 184 231 286 357
#     4  11  21  35  57  86 120 149 184 232 281 339
#     4  10  24  36  59  88 111 144 197 243 275 341
#     4  10  19  39  55  85 124 149 190 220 274 356
#     4  10  19  34  63  78 112 162 178 230 288 329
#
# _framework density 18.716650000000001
#
# number of rings (size 3 to 8) (size 9 to 14) (size 15 to 20)
#    0.000    2.250    3.750    1.875    5.250    1.000 
#    0.000    0.625    0.000    0.750    0.000    0.000 
#    0.000    0.000    0.000    0.000    0.000    0.000 
#
# Total GULP energy -198319.701103 kJ/mol
# GULP energy per Si atom -12394.981319 kJ/mol
# Density = 1.867405 g / cm^3
# Si number density = 18.716650 Si / 1000 Ang^3
#
#
#
# Elastic Constant Matrix: (Units=GPa)
#
#
# Indices 1 2 3 4 5 6 
#
# 1 121.6147 55.9521 25.7393 0.4682 2.3957 -2.3286
# 2 55.9521 104.3537 30.7490 7.7934 -0.0767 -19.7952
# 3 25.7393 30.7490 61.2732 -4.2297 -0.6839 -1.6225
# 4 0.4682 7.7934 -4.2297 27.5712 0.0800 -0.3512
# 5 2.3957 -0.0767 -0.6839 0.0800 19.9974 0.0426
# 6 -2.3286 -19.7952 -1.6225 -0.3512 0.0426 29.3625
#
#
#
# Elastic Compliance Matrix: (Units=1/GPa)
#
#
# Indices 1 2 3 4 5 6 
#
# 1 0.011488 -0.006454 -0.001603 0.001343 -0.001454 -0.003511
# 2 -0.006454 0.017280 -0.006053 -0.005569 0.000632 0.010736
# 3 -0.001603 -0.006053 0.020293 0.004810 0.000850 -0.003031
# 4 0.001343 -0.005569 0.004810 0.038522 -0.000166 -0.002921
# 5 -0.001454 0.000632 0.000850 -0.000166 0.050212 0.000283
# 6 -0.003511 0.010736 -0.003031 -0.002921 0.000283 0.040814
#
#
# Mechanical properties :
#
#
# Convention : Reuss Voigt Hill
#
# Bulk Modulus (GPa) = 47.98763 56.90248 52.44505
# Shear Modulus (GPa) = 23.38885 27.03961 25.21423
#
# Velocity S-wave (km/s) = 3.53884 3.80502 3.67434
# Velocity P-wave (km/s) = 6.51096 7.05495 6.78840
#
# Compressibility (1/GPa) = 0.02083870
#
# Stress axis : x y z
#
# Youngs Moduli (GPa) = 87.04920 57.87026 49.27821
#
# Poissons Ratio (x) = 0.37352 0.07900
# Poissons Ratio (y) = 0.56185 0.29830
# Poissons Ratio (z) = 0.13956 0.35031
#
# Static dielectric constant tensor:
#      x y z
#    x 3.396620 -0.191940 -0.047330 
#    y -0.191940 3.496510 0.073180 
#    z -0.047330 0.073180 3.366970 
# 
# 
# High freq. dielectric constant tensor:
#      x y z
#    x 1.712870 -0.005850 -0.013280 
#    y -0.005850 1.718080 -0.000760 
#    z -0.013280 -0.000760 1.720570 
# 
# From -- ./inp_files/537910.got.cif
#   From: 2010.06.25/outbox.cif.g09.slc.cpg/sg2_269_cif.got.tgz:537910.got - 2010.06.27 13:26:56.
