data_PCOD8042198
_publ_section_title
;
Structure prediction by ZEFSAII (Michael W. Deem and Ramdas Pophale) SiO2 
 PCOD8042198
Probable space group: P -1
;
_chemical_formula_sum "Si O2"
_cell_formula_units_Z 14
_cell_length_a 11.182219
_cell_length_b 11.248213
_cell_length_c 7.279527
_cell_angle_alpha 138.723955
_cell_angle_beta 89.677547
_cell_angle_gamma 110.049624
_cell_volume 518.373610
_symmetry_space_group_name_H-M "P -1"
_symmetry_group_IT_number 2
_symmetry_cell_setting 'triclinic'
loop_
_space_group_symop_operation_xyz
x,y,z
-x,-y,-z
loop_
_atom_site_type_symbol
_atom_site_label
_atom_site_fract_x
_atom_site_fract_y
_atom_site_fract_z
Si Si1 0.315302 0.410684 0.394158
Si Si2 0.296351 0.024077 0.358109
Si Si3 0.428555 0.814208 0.633565
Si Si4 0.835204 0.383758 0.916263
Si Si5 0.644467 0.547531 0.138074
Si Si6 0.945438 0.628863 0.544285
Si Si7 0.233429 0.956776 0.867532
O O1 0.403661 0.596409 0.466009
O O2 0.377890 0.500940 0.699835
O O3 0.149802 0.321533 0.266603
O O4 0.324180 0.203455 0.105165
O O5 0.465738 0.126691 0.470870
O O6 0.254215 0.200104 0.593185
O O7 0.228309 0.864300 0.342933
O O8 0.237303 0.913901 0.034679
O O9 0.286217 0.818949 0.591498
O O10 0.500000 0.000000 0.000000
O O11 0.717937 0.435835 0.888998
O O12 0.833446 0.481197 0.224539
O O13 0.000000 0.500000 0.000000
O O14 0.500000 0.500000 0.000000
O O15 0.000000 0.500000 0.500000
O O16 0.068873 0.838434 0.688425
#
# Coordination Sequence:
#
# PCOD8042198 Si02
#       7
#     2   2   2   2   2   2   2
#     4  10  21  36  61  96 129 165 210 267 322 374
#     4  10  22  40  64  89 129 164 209 270 321 372
#     4  10  19  34  59  91 127 161 202 261 326 372
#     4  11  25  45  68  92 129 172 215 264 321 382
#     4  10  23  43  64  90 129 173 216 257 313 385
#     4  11  18  38  66  93 126 165 212 263 318 379
#     4  10  19  34  60  95 129 160 205 264 323 373
#
# _framework density 27.007543999999999
#
# number of rings (size 3 to 8) (size 9 to 14) (size 15 to 20)
#    0.000    1.714    2.857    3.000    0.000    8.571 
#    0.000    4.286    0.000    0.000    0.000    0.000 
#    0.000    0.000    0.000    0.000    0.000    0.000 
#
# Total GULP energy -173433.505658 kJ/mol
# GULP energy per Si atom -12388.107547 kJ/mol
# Density = 2.694607 g / cm^3
# Si number density = 27.007544 Si / 1000 Ang^3
#
#
#
# Elastic Constant Matrix: (Units=GPa)
#
#
# Indices 1 2 3 4 5 6 
#
# 1 177.0189 48.7838 31.8206 28.1387 -3.6679 6.7799
# 2 48.7838 143.3605 45.5408 46.8378 -3.3066 -0.3818
# 3 31.8206 45.5408 66.1070 29.5604 -31.1922 4.8092
# 4 28.1387 46.8378 29.5604 45.2093 -0.7843 11.6312
# 5 -3.6679 -3.3066 -31.1922 -0.7843 56.5705 3.6297
# 6 6.7799 -0.3818 4.8092 11.6312 3.6297 36.7108
#
#
#
# Elastic Compliance Matrix: (Units=1/GPa)
#
#
# Indices 1 2 3 4 5 6 
#
# 1 0.006562 -0.001108 -0.002058 -0.001501 -0.000769 -0.000402
# 2 -0.001108 0.012041 -0.004887 -0.009739 -0.002473 0.004300
# 3 -0.002058 -0.004887 0.036156 -0.016696 0.019351 -0.001031
# 4 -0.001501 -0.009739 -0.016696 0.046914 -0.008474 -0.011663
# 5 -0.000769 -0.002473 0.019351 -0.008474 0.028197 -0.002522
# 6 -0.000402 0.004300 -0.001031 -0.011663 -0.002522 0.031438
#
#
# Mechanical properties :
#
#
# Convention : Reuss Voigt Hill
#
# Bulk Modulus (GPa) = 25.87048 70.97519 48.42283
# Shear Modulus (GPa) = 26.27449 45.05422 35.66436
#
# Velocity S-wave (km/s) = 3.12245 4.08880 3.63786
# Velocity P-wave (km/s) = 4.75388 6.97337 5.96772
#
# Compressibility (1/GPa) = 0.03865410
#
# Stress axis : x y z
#
# Youngs Moduli (GPa) = 152.38275 83.04878 27.65819
#
# Poissons Ratio (x) = 0.09199 0.05693
# Poissons Ratio (y) = 0.16879 0.13516
# Poissons Ratio (z) = 0.31363 0.40583
#
# Static dielectric constant tensor:
#      x y z
#    x 6.217570 -0.321230 0.024880 
#    y -0.321230 4.552060 -0.089160 
#    z 0.024880 -0.089160 5.854250 
# 
# 
# High freq. dielectric constant tensor:
#      x y z
#    x 2.109670 -0.006880 0.000380 
#    y -0.006880 2.060130 -0.002770 
#    z 0.000380 -0.002770 2.115380 
# 
# From -- ./inp_files/261056.got.cif
#   From: 2010.06.25/outbox.cif.g09.slc.cpg/sg2_131_cif.got.tgz:261056.got - 2010.06.27 13:26:56.
