data_PCOD8042568
_publ_section_title
;
Structure prediction by ZEFSAII (Michael W. Deem and Ramdas Pophale) SiO2 
 PCOD8042568
Probable space group: P -1
;
_chemical_formula_sum "Si O2"
_cell_formula_units_Z 16
_cell_length_a 9.458539
_cell_length_b 15.766455
_cell_length_c 8.745821
_cell_angle_alpha 138.648342
_cell_angle_beta 114.000798
_cell_angle_gamma 89.941027
_cell_volume 679.808520
_symmetry_space_group_name_H-M "P -1"
_symmetry_group_IT_number 2
_symmetry_cell_setting 'triclinic'
loop_
_space_group_symop_operation_xyz
x,y,z
-x,-y,-z
loop_
_atom_site_type_symbol
_atom_site_label
_atom_site_fract_x
_atom_site_fract_y
_atom_site_fract_z
Si Si1 0.229015 0.139288 0.427629
Si Si2 0.130722 0.168925 0.751077
Si Si3 0.990921 0.191561 0.173831
Si Si4 0.831841 0.225713 0.691471
Si Si5 0.848574 0.523356 0.533626
Si Si6 0.211600 0.694253 0.543146
Si Si7 0.598400 0.266989 0.881969
Si Si8 0.425091 0.119195 0.901852
O O1 0.164412 0.190855 0.615054
O O2 0.445745 0.235929 0.647816
O O3 0.148385 0.170437 0.284662
O O4 0.164601 0.964025 0.172810
O O5 0.315995 0.210636 0.977214
O O6 0.032519 0.261828 0.874787
O O7 0.000000 0.000000 0.500000
O O8 0.907103 0.253121 0.343682
O O9 0.089451 0.303395 0.226015
O O10 0.841042 0.325003 0.684190
O O11 0.764230 0.270877 0.872814
O O12 0.706384 0.054007 0.356480
O O13 0.818836 0.462556 0.613763
O O14 0.000000 0.500000 0.500000
O O15 0.670041 0.421893 0.214940
O O16 0.422816 0.815606 0.813920
O O17 0.515504 0.136812 0.797881
#
# Coordination Sequence:
#
# PCOD8042568 Si02
#       8
#     2   2   2   2   2   2   2   2
#     4  10  20  37  62  93 113 149 210 247 290 349
#     4   9  19  33  52  86 122 151 186 247 305 345
#     4  10  20  37  62  88 118 157 199 251 292 355
#     4  11  19  33  59  89 123 151 198 252 296 346
#     4   9  21  39  59  85 119 163 200 239 297 364
#     4  10  19  35  58  86 120 157 197 241 304 349
#     4  10  21  37  60  89 119 159 202 240 295 365
#     4   9  19  33  54  85 122 157 198 243 299 352
#
# _framework density 23.536037
#
# number of rings (size 3 to 8) (size 9 to 14) (size 15 to 20)
#    0.000    2.250    1.250    1.500    0.000    8.500 
#    2.250    2.500    2.750    0.750    0.000    0.000 
#    0.000    0.000    0.000    0.000    0.000    0.000 
#
# Total GULP energy -198292.130694 kJ/mol
# GULP energy per Si atom -12393.258168 kJ/mol
# Density = 2.348247 g / cm^3
# Si number density = 23.536037 Si / 1000 Ang^3
#
#
#
# Elastic Constant Matrix: (Units=GPa)
#
#
# Indices 1 2 3 4 5 6 
#
# 1 109.0943 41.7814 19.2578 -8.2328 -2.6388 -5.2132
# 2 41.7814 136.1922 49.1863 4.6526 8.8742 -5.8503
# 3 19.2578 49.1863 61.2533 -0.9657 11.7352 -10.4789
# 4 -8.2328 4.6526 -0.9657 36.0428 -0.7313 5.6641
# 5 -2.6388 8.8742 11.7352 -0.7313 18.4667 -4.7025
# 6 -5.2132 -5.8503 -10.4789 5.6641 -4.7025 28.9202
#
#
#
# Elastic Compliance Matrix: (Units=1/GPa)
#
#
# Indices 1 2 3 4 5 6 
#
# 1 0.011019 -0.003158 -0.001574 0.002824 0.004445 0.000947
# 2 -0.003158 0.011348 -0.008109 -0.002277 -0.001081 -0.000942
# 3 -0.001574 -0.008109 0.026568 0.000258 -0.011739 0.005743
# 4 0.002824 -0.002277 0.000258 0.029573 0.001112 -0.005469
# 5 0.004445 -0.001081 -0.011739 0.001112 0.064490 0.006598
# 6 0.000947 -0.000942 0.005743 -0.005469 0.006598 0.038783
#
#
# Mechanical properties :
#
#
# Convention : Reuss Voigt Hill
#
# Bulk Modulus (GPa) = 43.00518 58.55452 50.77985
# Shear Modulus (GPa) = 23.23268 29.77354 26.50311
#
# Velocity S-wave (km/s) = 3.14524 3.56057 3.35933
# Velocity P-wave (km/s) = 5.61264 6.46809 6.05549
#
# Compressibility (1/GPa) = 0.02325301
#
# Stress axis : x y z
#
# Youngs Moduli (GPa) = 90.74905 88.12308 37.63935
#
# Poissons Ratio (x) = 0.27825 0.05925
# Poissons Ratio (y) = 0.28654 0.30523
# Poissons Ratio (z) = 0.14285 0.71463
#
# Static dielectric constant tensor:
#      x y z
#    x 4.441080 -0.115830 0.406140 
#    y -0.115830 4.698620 0.274620 
#    z 0.406140 0.274620 4.400610 
# 
# 
# High freq. dielectric constant tensor:
#      x y z
#    x 1.924790 -0.000050 0.022600 
#    y -0.000050 1.930850 -0.011740 
#    z 0.022600 -0.011740 1.919260 
# 
# From -- ./inp_files/204448.got.cif
#   From: 2010.06.25/outbox.cif.g09.slc.cpg/sg2_103_cif.got.tgz:204448.got - 2010.06.27 13:26:56.
