data_PCOD8042522
_publ_section_title
;
Structure prediction by ZEFSAII (Michael W. Deem and Ramdas Pophale) SiO2 
 PCOD8042522
Probable space group: P -1
;
_chemical_formula_sum "Si O2"
_cell_formula_units_Z 16
_cell_length_a 9.195788
_cell_length_b 10.872724
_cell_length_c 13.182709
_cell_angle_alpha 136.043126
_cell_angle_beta 113.590790
_cell_angle_gamma 85.340046
_cell_volume 792.855577
_symmetry_space_group_name_H-M "P -1"
_symmetry_group_IT_number 2
_symmetry_cell_setting 'triclinic'
loop_
_space_group_symop_operation_xyz
x,y,z
-x,-y,-z
loop_
_atom_site_type_symbol
_atom_site_label
_atom_site_fract_x
_atom_site_fract_y
_atom_site_fract_z
Si Si1 0.007993 0.737627 0.808185
Si Si2 0.047967 0.077978 0.890218
Si Si3 0.334592 0.563451 0.475920
Si Si4 0.398255 0.720377 0.372338
Si Si5 0.329434 0.781112 0.016225
Si Si6 0.476967 0.135722 0.160825
Si Si7 0.613937 0.667139 0.919644
Si Si8 0.713354 0.075022 0.704135
O O1 0.839880 0.587274 0.628396
O O2 0.963155 0.813498 0.946327
O O3 0.072941 0.886116 0.822458
O O4 0.161119 0.658475 0.835186
O O5 0.885664 0.036953 0.749898
O O6 0.195644 0.199679 0.928004
O O7 0.500000 0.500000 0.500000
O O8 0.305821 0.623641 0.390175
O O9 0.356256 0.744466 0.661429
O O10 0.420528 0.554025 0.208978
O O11 0.283461 0.820443 0.340090
O O12 0.574331 0.871372 0.541051
O O13 0.317767 0.781994 0.135124
O O14 0.349461 0.999623 0.124136
O O15 0.487492 0.720867 0.992103
O O16 0.407135 0.287734 0.178595
O O17 0.500000 0.000000 0.000000
#
# Coordination Sequence:
#
# PCOD8042522 Si02
#       8
#     2   2   2   2   2   2   2   2
#     4  10  20  33  58  92 118 150 197 242 294 347
#     4  10  19  35  57  88 120 152 194 246 290 344
#     4  12  20  35  62  89 113 150 195 246 291 343
#     4  11  22  38  60  87 113 153 207 242 287 342
#     4  10  21  39  59  85 123 158 186 239 302 349
#     4  10  20  35  57  85 117 149 184 230 301 351
#     4  11  21  37  60  88 118 152 195 239 295 358
#     4  10  23  39  60  82 116 158 202 246 283 341
#
# _framework density 20.180219000000001
#
# number of rings (size 3 to 8) (size 9 to 14) (size 15 to 20)
#    0.000    1.500    5.000    0.750    1.750    1.000 
#    0.000    5.000    0.000    1.500    0.000    0.000 
#    0.000    0.000    0.000    0.000    0.000    0.000 
#
# Total GULP energy -198236.249932 kJ/mol
# GULP energy per Si atom -12389.765621 kJ/mol
# Density = 2.013429 g / cm^3
# Si number density = 20.180219 Si / 1000 Ang^3
#
#
#
# Elastic Constant Matrix: (Units=GPa)
#
#
# Indices 1 2 3 4 5 6 
#
# 1 84.6004 16.0582 40.0866 -6.1889 15.5795 -9.9073
# 2 16.0582 77.4745 29.4491 -7.9568 1.4059 -6.5987
# 3 40.0866 29.4491 121.4000 -3.5682 20.6172 -8.9444
# 4 -6.1889 -7.9568 -3.5682 29.5943 -3.0201 1.6506
# 5 15.5795 1.4059 20.6172 -3.0201 27.2384 -6.6699
# 6 -9.9073 -6.5987 -8.9444 1.6506 -6.6699 16.2105
#
#
#
# Elastic Compliance Matrix: (Units=1/GPa)
#
#
# Indices 1 2 3 4 5 6 
#
# 1 0.015269 -0.001132 -0.003581 0.001719 -0.004591 0.004831
# 2 -0.001132 0.015199 -0.003552 0.003572 0.004142 0.004875
# 3 -0.003581 -0.003552 0.011354 -0.000998 -0.006454 0.000076
# 4 0.001719 0.003572 -0.000998 0.035355 0.003453 -0.000225
# 5 -0.004591 0.004142 -0.006454 0.003453 0.047997 0.014716
# 6 0.004831 0.004875 0.000076 -0.000225 0.014716 0.072745
#
#
# Mechanical properties :
#
#
# Convention : Reuss Voigt Hill
#
# Bulk Modulus (GPa) = 39.54014 50.51808 45.02911
# Shear Modulus (GPa) = 22.43355 27.80071 25.11713
#
# Velocity S-wave (km/s) = 3.33777 3.71566 3.53177
# Velocity P-wave (km/s) = 5.87285 6.59515 6.24445
#
# Compressibility (1/GPa) = 0.02529075
#
# Stress axis : x y z
#
# Youngs Moduli (GPa) = 65.49243 65.79191 88.07581
#
# Poissons Ratio (x) = 0.07449 0.31541
# Poissons Ratio (y) = 0.07415 0.31288
# Poissons Ratio (z) = 0.23453 0.23372
#
# Static dielectric constant tensor:
#      x y z
#    x 3.434140 0.107540 0.235640 
#    y 0.107540 3.945250 0.090330 
#    z 0.235640 0.090330 3.852440 
# 
# 
# High freq. dielectric constant tensor:
#      x y z
#    x 1.761740 0.002560 0.016660 
#    y 0.002560 1.777670 -0.002560 
#    z 0.016660 -0.002560 1.794140 
# 
# From -- ./inp_files/328675.got.cif
#   From: 2010.06.25/outbox.cif.g09.slc.cpg/sg2_165_cif.got.tgz:328675.got - 2010.06.27 13:26:56.
