data_PCOD8042211
_publ_section_title
;
Structure prediction by ZEFSAII (Michael W. Deem and Ramdas Pophale) SiO2 
 PCOD8042211
Probable space group: P -1
;
_chemical_formula_sum "Si O2"
_cell_formula_units_Z 14
_cell_length_a 8.590933
_cell_length_b 19.040547
_cell_length_c 9.514684
_cell_angle_alpha 140.535656
_cell_angle_beta 116.067974
_cell_angle_gamma 49.621367
_cell_volume 747.628137
_symmetry_space_group_name_H-M "P -1"
_symmetry_group_IT_number 2
_symmetry_cell_setting 'triclinic'
loop_
_space_group_symop_operation_xyz
x,y,z
-x,-y,-z
loop_
_atom_site_type_symbol
_atom_site_label
_atom_site_fract_x
_atom_site_fract_y
_atom_site_fract_z
Si Si1 0.276310 0.910364 0.334195
Si Si2 0.086216 0.804391 0.296912
Si Si3 0.600258 0.223920 0.414593
Si Si4 0.567702 0.141616 0.985959
Si Si5 0.098105 0.344723 0.132020
Si Si6 0.847291 0.638219 0.506701
Si Si7 0.426470 0.116908 0.375103
O O1 0.194889 0.826805 0.243458
O O2 0.499953 0.870017 0.420547
O O3 0.295272 0.881926 0.132272
O O4 0.123812 0.064066 0.539671
O O5 0.237079 0.750176 0.408399
O O6 0.040654 0.695550 0.066795
O O7 0.661649 0.182516 0.212934
O O8 0.367713 0.353467 0.531973
O O9 0.597191 0.106562 0.316270
O O10 0.332708 0.255160 0.036981
O O11 0.582367 0.010330 0.837788
O O12 0.075005 0.333574 0.273387
O O13 0.013974 0.495591 0.291299
O O14 0.797726 0.752084 0.548876
#
# Coordination Sequence:
#
# PCOD8042211 Si02
#       7
#     2   2   2   2   2   2   2
#     4  10  21  33  52  85 110 136 175 223 262 321
#     4  10  20  35  54  76 112 141 173 213 278 307
#     4   8  19  33  53  79 109 137 173 217 261 319
#     4  11  19  33  60  79 107 138 181 217 265 301
#     4  10  19  34  60  80 100 143 179 221 255 319
#     4   8  19  35  54  83 104 135 186 212 258 320
#     4   9  17  33  54  80 103 139 172 223 251 316
#
# _framework density 18.725887
#
# number of rings (size 3 to 8) (size 9 to 14) (size 15 to 20)
#    0.857    1.714    1.429    0.857    0.000    1.143 
#    0.000    0.714    0.000    7.714    0.000    0.000 
#    0.000    0.000    0.000    0.000    0.000    0.000 
#
# Total GULP energy -173507.881518 kJ/mol
# GULP energy per Si atom -12393.420108 kJ/mol
# Density = 1.868327 g / cm^3
# Si number density = 18.725887 Si / 1000 Ang^3
#
#
#
# Elastic Constant Matrix: (Units=GPa)
#
#
# Indices 1 2 3 4 5 6 
#
# 1 48.0825 28.9159 45.9388 -6.7513 -2.2930 -2.6389
# 2 28.9159 99.2329 52.8118 -5.0836 -5.4952 -20.2865
# 3 45.9388 52.8118 110.2204 -14.6973 0.7933 -7.3679
# 4 -6.7513 -5.0836 -14.6973 39.2576 -8.9651 -4.4277
# 5 -2.2930 -5.4952 0.7933 -8.9651 22.1287 -11.9560
# 6 -2.6389 -20.2865 -7.3679 -4.4277 -11.9560 17.2685
#
#
#
# Elastic Compliance Matrix: (Units=1/GPa)
#
#
# Indices 1 2 3 4 5 6 
#
# 1 0.035737 -0.004343 -0.013087 0.000323 0.000713 -0.004649
# 2 -0.004343 0.058021 -0.009841 0.048195 0.119365 0.158300
# 3 -0.013087 -0.009841 0.018078 -0.001619 -0.013560 -0.015651
# 4 0.000323 0.048195 -0.001619 0.082549 0.139288 0.173580
# 5 0.000713 0.119365 -0.013560 0.139288 0.357576 0.417835
# 6 -0.004649 0.158300 -0.015651 0.173580 0.417835 0.570287
#
#
# Mechanical properties :
#
#
# Convention : Reuss Voigt Hill
#
# Bulk Modulus (GPa) = 17.45375 56.98541 37.21958
# Shear Modulus (GPa) = 4.18099 24.38891 14.28495
#
# Velocity S-wave (km/s) = 1.49585 3.61282 2.76496
# Velocity P-wave (km/s) = 3.51060 6.92103 5.48749
#
# Compressibility (1/GPa) = 0.05729428
#
# Stress axis : x y z
#
# Youngs Moduli (GPa) = 27.98239 17.23504 55.31593
#
# Poissons Ratio (x) = 0.07485 0.72390
# Poissons Ratio (y) = 0.12153 0.54437
# Poissons Ratio (z) = 0.36619 0.16961
#
# Static dielectric constant tensor:
#      x y z
#    x 3.033470 -0.197750 -0.033290 
#    y -0.197750 3.519250 -0.172210 
#    z -0.033290 -0.172210 3.282620 
# 
# 
# High freq. dielectric constant tensor:
#      x y z
#    x 1.687020 -0.018520 -0.002270 
#    y -0.018520 1.728580 -0.016860 
#    z -0.002270 -0.016860 1.720250 
# 
# From -- ./inp_files/169247.got.cif
#   From: 2010.06.25/outbox.cif.g09.slc.cpg/sg2_85_cif.got.tgz:169247.got - 2010.06.27 13:26:56.
