data_PCOD8042265
_publ_section_title
;
Structure prediction by ZEFSAII (Michael W. Deem and Ramdas Pophale) SiO2 
 PCOD8042265
Probable space group: P -1
;
_chemical_formula_sum "Si O2"
_cell_formula_units_Z 14
_cell_length_a 10.350457
_cell_length_b 9.457914
_cell_length_c 15.498668
_cell_angle_alpha 148.665592
_cell_angle_beta 95.101504
_cell_angle_gamma 96.064088
_cell_volume 736.000743
_symmetry_space_group_name_H-M "P -1"
_symmetry_group_IT_number 2
_symmetry_cell_setting 'triclinic'
loop_
_space_group_symop_operation_xyz
x,y,z
-x,-y,-z
loop_
_atom_site_type_symbol
_atom_site_label
_atom_site_fract_x
_atom_site_fract_y
_atom_site_fract_z
Si Si1 0.053153 0.259650 0.706039
Si Si2 0.930906 0.756909 0.941166
Si Si3 0.308941 0.738183 0.924508
Si Si4 0.705473 0.681989 0.771723
Si Si5 0.783290 0.414753 0.473641
Si Si6 0.034201 0.953081 0.720184
Si Si7 0.437151 0.770416 0.773744
O O1 0.220635 0.424497 0.794134
O O2 0.020085 0.157443 0.748704
O O3 0.981170 0.486520 0.794742
O O4 0.000000 0.000000 0.500000
O O5 0.765667 0.633867 0.843273
O O6 0.950474 0.880107 0.102457
O O7 0.000000 0.000000 0.000000
O O8 0.317501 0.715305 0.809218
O O9 0.232055 0.968400 0.063666
O O10 0.467937 0.882947 0.044632
O O11 0.762738 0.507341 0.616510
O O12 0.537649 0.587947 0.710161
O O13 0.635297 0.331630 0.374766
O O14 0.832563 0.139151 0.336544
O O15 0.895418 0.673459 0.563659
#
# Coordination Sequence:
#
# PCOD8042265 Si02
#       7
#     2   2   2   2   2   2   2
#     4  12  24  39  61  94 129 156 199 261 311 352
#     4  12  21  40  64  86 126 163 202 251 302 374
#     4   9  19  36  58  86 117 158 206 233 307 356
#     4  10  19  34  61  89 114 158 207 243 296 355
#     4  11  20  37  61  93 119 156 208 251 299 368
#     4  11  25  36  62  93 125 156 204 254 313 358
#     4   9  19  35  62  87 117 164 209 245 290 370
#
# _framework density 19.021720999999999
#
# number of rings (size 3 to 8) (size 9 to 14) (size 15 to 20)
#    0.857    0.571    2.857    3.429    2.000    0.000 
#    0.000    0.714    0.000    4.286    0.000    0.000 
#    0.000    0.000    0.000    0.000    0.000    0.000 
#
# Total GULP energy -173482.708043 kJ/mol
# GULP energy per Si atom -12391.622003 kJ/mol
# Density = 1.897843 g / cm^3
# Si number density = 19.021721 Si / 1000 Ang^3
#
#
#
# Elastic Constant Matrix: (Units=GPa)
#
#
# Indices 1 2 3 4 5 6 
#
# 1 83.1986 30.7843 42.7236 -2.4959 0.8796 -14.9432
# 2 30.7843 105.0412 53.7469 -11.0407 2.9006 -10.0939
# 3 42.7236 53.7469 114.9660 -12.8395 -9.6232 -3.4700
# 4 -2.4959 -11.0407 -12.8395 31.4225 -1.9109 0.1654
# 5 0.8796 2.9006 -9.6232 -1.9109 39.2984 -5.0668
# 6 -14.9432 -10.0939 -3.4700 0.1654 -5.0668 30.4336
#
#
#
# Elastic Compliance Matrix: (Units=1/GPa)
#
#
# Indices 1 2 3 4 5 6 
#
# 1 0.016604 -0.001540 -0.005481 -0.001546 -0.000786 0.006895
# 2 -0.001540 0.013318 -0.005480 0.002192 -0.001833 0.002719
# 3 -0.005481 -0.005480 0.013947 0.003583 0.003820 -0.002302
# 4 -0.001546 0.002192 0.003583 0.034083 0.002485 0.000605
# 5 -0.000786 -0.001833 0.003820 0.002485 0.027165 0.003950
# 6 0.006895 0.002719 -0.002302 0.000605 0.003950 0.037537
#
#
# Mechanical properties :
#
#
# Convention : Reuss Voigt Hill
#
# Bulk Modulus (GPa) = 53.00287 61.96838 57.48562
# Shear Modulus (GPa) = 28.74449 31.96099 30.35274
#
# Velocity S-wave (km/s) = 3.89156 4.10352 3.99894
# Velocity P-wave (km/s) = 6.93665 7.42295 7.18392
#
# Compressibility (1/GPa) = 0.01886690
#
# Stress axis : x y z
#
# Youngs Moduli (GPa) = 60.22670 75.08686 71.69749
#
# Poissons Ratio (x) = 0.11563 0.39296
# Poissons Ratio (y) = 0.09275 0.39294
# Poissons Ratio (z) = 0.33009 0.41151
#
# Static dielectric constant tensor:
#      x y z
#    x 3.701770 -0.134890 0.083880 
#    y -0.134890 3.250590 -0.094310 
#    z 0.083880 -0.094310 3.527090 
# 
# 
# High freq. dielectric constant tensor:
#      x y z
#    x 1.746820 -0.005660 -0.000390 
#    y -0.005660 1.706630 -0.023240 
#    z -0.000390 -0.023240 1.747140 
# 
# From -- ./inp_files/189782.got.cif
#   From: 2010.06.25/outbox.cif.g09.slc.cpg/sg2_95_cif.got.tgz:189782.got - 2010.06.27 13:26:56.
