data_PCOD8042057
_publ_section_title
;
Structure prediction by ZEFSAII (Michael W. Deem and Ramdas Pophale) SiO2 
 PCOD8042057
Probable space group: P -1
;
_chemical_formula_sum "Si O2"
_cell_formula_units_Z 14
_cell_length_a 11.851917
_cell_length_b 15.069045
_cell_length_c 11.864173
_cell_angle_alpha 30.092131
_cell_angle_beta 46.601416
_cell_angle_gamma 41.586999
_cell_volume 700.082787
_symmetry_space_group_name_H-M "P -1"
_symmetry_group_IT_number 2
_symmetry_cell_setting 'triclinic'
loop_
_space_group_symop_operation_xyz
x,y,z
-x,-y,-z
loop_
_atom_site_type_symbol
_atom_site_label
_atom_site_fract_x
_atom_site_fract_y
_atom_site_fract_z
Si Si1 0.135560 0.070612 0.975809
Si Si2 0.523861 0.824160 0.045624
Si Si3 0.524797 0.215859 0.629347
Si Si4 0.006804 0.210696 0.679663
Si Si5 0.892646 0.464736 0.816522
Si Si6 0.320461 0.507795 0.280206
Si Si7 0.347520 0.508682 0.854444
O O1 0.148172 0.122928 0.778238
O O2 0.053538 0.265672 0.893131
O O3 0.321354 0.932541 0.045019
O O4 0.009872 0.958777 0.197585
O O5 0.604748 0.982559 0.815919
O O6 0.550749 0.721957 0.261561
O O7 0.626677 0.664345 0.059100
O O8 0.368652 0.314685 0.537887
O O9 0.668241 0.298294 0.416148
O O10 0.048849 0.359012 0.410579
O O11 0.827036 0.313073 0.754527
O O12 0.739323 0.524626 0.765623
O O13 0.823182 0.442697 0.010600
O O14 0.486432 0.556983 0.104715
#
# Coordination Sequence:
#
# PCOD8042057 Si02
#       7
#     2   2   2   2   2   2   2
#     4  10  20  34  57  79 110 144 188 218 262 329
#     4  11  19  38  59  81 103 147 191 222 259 324
#     4   9  21  34  60  80 105 142 192 224 261 315
#     4  10  19  34  57  80 109 149 183 214 270 328
#     4  11  21  35  55  85 118 139 169 230 282 320
#     4   9  18  38  55  81 110 144 182 219 264 327
#     4  10  22  35  55  85 113 139 178 228 277 313
#
# _framework density 19.997634999999999
#
# number of rings (size 3 to 8) (size 9 to 14) (size 15 to 20)
#    0.857    1.143    1.429    4.286    0.000    1.143 
#    0.000    2.143    0.000   10.286    0.000    0.000 
#    0.000    0.000    0.000    0.000    0.000    0.000 
#
# Total GULP energy -173515.313161 kJ/mol
# GULP energy per Si atom -12393.950940 kJ/mol
# Density = 1.995212 g / cm^3
# Si number density = 19.997635 Si / 1000 Ang^3
#
#
#
# Elastic Constant Matrix: (Units=GPa)
#
#
# Indices 1 2 3 4 5 6 
#
# 1 29.0697 22.2656 16.7373 -0.8996 -1.0459 7.1071
# 2 22.2656 76.7736 52.2736 9.1052 -5.4462 14.8631
# 3 16.7373 52.2736 127.3948 0.5788 -15.6422 13.7204
# 4 -0.8996 9.1052 0.5788 20.2299 4.1929 -5.3166
# 5 -1.0459 -5.4462 -15.6422 4.1929 32.1848 -1.6635
# 6 7.1071 14.8631 13.7204 -5.3166 -1.6635 19.8458
#
#
#
# Elastic Compliance Matrix: (Units=1/GPa)
#
#
# Indices 1 2 3 4 5 6 
#
# 1 0.045999 -0.013165 -0.000446 0.007229 -0.002126 -0.004547
# 2 -0.013165 0.026806 -0.007388 -0.016665 0.001936 -0.014555
# 3 -0.000446 -0.007388 0.011595 0.001732 0.004066 -0.001518
# 4 0.007229 -0.016665 0.001732 0.065787 -0.008992 0.025565
# 5 -0.002126 0.001936 0.004066 -0.008992 0.034320 -0.003032
# 6 -0.004547 -0.014555 -0.001518 0.025565 -0.003032 0.070562
#
#
# Mechanical properties :
#
#
# Convention : Reuss Voigt Hill
#
# Bulk Modulus (GPa) = 23.58424 46.19902 34.89163
# Shear Modulus (GPa) = 16.06682 23.91621 19.99151
#
# Velocity S-wave (km/s) = 2.83757 3.46201 3.16522
# Velocity P-wave (km/s) = 4.74919 6.25564 5.55373
#
# Compressibility (1/GPa) = 0.04240121
#
# Stress axis : x y z
#
# Youngs Moduli (GPa) = 21.73957 37.30554 86.24580
#
# Poissons Ratio (x) = 0.49113 0.03844
# Poissons Ratio (y) = 0.28620 0.63722
# Poissons Ratio (z) = 0.00969 0.27563
#
# Static dielectric constant tensor:
#      x y z
#    x 3.598010 0.173010 -0.029210 
#    y 0.173010 3.233110 -0.135970 
#    z -0.029210 -0.135970 3.698760 
# 
# 
# High freq. dielectric constant tensor:
#      x y z
#    x 1.770720 0.012620 -0.007770 
#    y 0.012620 1.745500 -0.014080 
#    z -0.007770 -0.014080 1.787560 
# 
# From -- ./inp_files/454335.got.cif
#   From: 2010.06.25/outbox.cif.g09.slc.cpg/sg2_228_cif.got.tgz:454335.got - 2010.06.27 13:26:56.
