data_PCOD8042712
_publ_section_title
;
Structure prediction by ZEFSAII (Michael W. Deem and Ramdas Pophale) SiO2 
 PCOD8042712
Probable space group: P -1
;
_chemical_formula_sum "Si O2"
_cell_formula_units_Z 14
_cell_length_a 11.153193
_cell_length_b 15.031057
_cell_length_c 9.002879
_cell_angle_alpha 78.956366
_cell_angle_beta 58.668599
_cell_angle_gamma 128.312808
_cell_volume 649.293087
_symmetry_space_group_name_H-M "P -1"
_symmetry_group_IT_number 2
_symmetry_cell_setting 'triclinic'
loop_
_space_group_symop_operation_xyz
x,y,z
-x,-y,-z
loop_
_atom_site_type_symbol
_atom_site_label
_atom_site_fract_x
_atom_site_fract_y
_atom_site_fract_z
Si Si1 0.954050 0.699607 0.644068
Si Si2 0.280398 0.740673 0.591183
Si Si3 0.987631 0.591563 0.106635
Si Si4 0.737100 0.882914 0.111961
Si Si5 0.981454 0.906937 0.431272
Si Si6 0.297445 0.487576 0.436644
Si Si7 0.554456 0.448914 0.239059
O O1 0.064907 0.858593 0.470584
O O2 0.788664 0.556179 0.666196
O O3 0.209035 0.780513 0.508676
O O4 0.751441 0.604276 0.941958
O O5 0.042026 0.531723 0.798477
O O6 0.579702 0.869812 0.318895
O O7 0.252653 0.758643 0.777351
O O8 0.981605 0.644817 0.247252
O O9 0.708720 0.468658 0.244609
O O10 0.536368 0.689929 0.260233
O O11 0.000000 0.000000 0.000000
O O12 0.822143 0.975416 0.873874
O O13 0.667361 0.735684 0.639909
O O14 0.000000 0.000000 0.500000
O O15 0.402228 0.445609 0.425672
#
# Coordination Sequence:
#
# PCOD8042712 Si02
#       7
#     2   2   2   2   2   2   2
#     4  10  21  37  60  85 116 150 192 242 280 334
#     4   9  20  38  55  82 118 152 190 235 289 336
#     4   9  18  33  59  83 111 149 192 239 275 327
#     4  11  23  38  58  83 120 155 187 235 289 346
#     4  11  21  36  59  87 116 150 187 234 293 343
#     4  10  19  35  60  89 111 147 195 237 281 331
#     4  10  19  36  60  85 113 147 195 240 276 335
#
# _framework density 21.561913000000001
#
# number of rings (size 3 to 8) (size 9 to 14) (size 15 to 20)
#    0.000    2.000    0.000    5.571    0.000    4.000 
#    0.000    2.857    0.000   29.143    0.000    0.000 
#    0.000    0.000    0.000    0.000    0.000    0.000 
#
# Total GULP energy -173532.459497 kJ/mol
# GULP energy per Si atom -12395.175678 kJ/mol
# Density = 2.151284 g / cm^3
# Si number density = 21.561913 Si / 1000 Ang^3
#
#
#
# Elastic Constant Matrix: (Units=GPa)
#
#
# Indices 1 2 3 4 5 6 
#
# 1 98.8363 31.6046 41.7787 3.1430 9.1114 -10.3527
# 2 31.6046 81.1060 35.1820 5.5020 7.7155 -16.8640
# 3 41.7787 35.1820 118.7041 17.4469 3.2325 -11.8724
# 4 3.1430 5.5020 17.4469 32.7683 -2.5642 -3.8293
# 5 9.1114 7.7155 3.2325 -2.5642 38.6867 4.3909
# 6 -10.3527 -16.8640 -11.8724 -3.8293 4.3909 20.9216
#
#
#
# Elastic Compliance Matrix: (Units=1/GPa)
#
#
# Indices 1 2 3 4 5 6 
#
# 1 0.013009 -0.002755 -0.003590 0.001276 -0.002462 0.002930
# 2 -0.002755 0.017530 -0.002918 -0.000041 -0.003961 0.011935
# 3 -0.003590 -0.002918 0.011446 -0.005094 -0.000030 0.001441
# 4 0.001276 -0.000041 -0.005094 0.033672 0.001973 0.003457
# 5 -0.002462 -0.003961 -0.000030 0.001973 0.028492 -0.010047
# 6 0.002930 0.011935 0.001441 0.003457 -0.010047 0.062426
#
#
# Mechanical properties :
#
#
# Convention : Reuss Voigt Hill
#
# Bulk Modulus (GPa) = 42.62718 57.30856 49.96787
# Shear Modulus (GPa) = 25.91707 31.14738 28.53222
#
# Velocity S-wave (km/s) = 3.47072 3.80485 3.64162
# Velocity P-wave (km/s) = 5.98948 6.77782 6.39581
#
# Compressibility (1/GPa) = 0.02345921
#
# Stress axis : x y z
#
# Youngs Moduli (GPa) = 76.86701 57.04430 87.36474
#
# Poissons Ratio (x) = 0.15718 0.31360
# Poissons Ratio (y) = 0.21181 0.25497
# Poissons Ratio (z) = 0.27592 0.16648
#
# Static dielectric constant tensor:
#      x y z
#    x 3.904130 -0.106260 0.064720 
#    y -0.106260 3.856620 0.468460 
#    z 0.064720 0.468460 4.260160 
# 
# 
# High freq. dielectric constant tensor:
#      x y z
#    x 1.849880 -0.013030 0.010440 
#    y -0.013030 1.831370 0.030580 
#    z 0.010440 0.030580 1.852130 
# 
# From -- ./inp_files/260268.got.cif
#   From: 2010.06.25/outbox.cif.g09.slc.cpg/sg2_131_cif.got.tgz:260268.got - 2010.06.27 13:26:56.
