data_PCOD8042960
_publ_section_title
;
Structure prediction by ZEFSAII (Michael W. Deem and Ramdas Pophale) SiO2 
 PCOD8042960
Probable space group: P -1
;
_chemical_formula_sum "Si O2"
_cell_formula_units_Z 12
_cell_length_a 9.381181
_cell_length_b 8.969180
_cell_length_c 13.623685
_cell_angle_alpha 53.501312
_cell_angle_beta 139.245589
_cell_angle_gamma 102.615080
_cell_volume 539.489355
_symmetry_space_group_name_H-M "P -1"
_symmetry_group_IT_number 2
_symmetry_cell_setting 'triclinic'
loop_
_space_group_symop_operation_xyz
x,y,z
-x,-y,-z
loop_
_atom_site_type_symbol
_atom_site_label
_atom_site_fract_x
_atom_site_fract_y
_atom_site_fract_z
Si Si1 0.230817 0.075800 0.136838
Si Si2 0.764178 0.321332 0.684048
Si Si3 0.810693 0.530731 0.973616
Si Si4 0.973845 0.429878 0.317593
Si Si5 0.617812 0.921801 0.234625
Si Si6 0.519261 0.683003 0.106490
O O1 0.338857 0.218741 0.189815
O O2 0.266753 0.875609 0.300331
O O3 0.367658 0.997313 0.134987
O O4 0.940976 0.220923 0.910373
O O5 0.500000 0.500000 0.500000
O O6 0.898011 0.420394 0.645492
O O7 0.640727 0.425604 0.892672
O O8 0.937076 0.430168 0.181805
O O9 0.000000 0.500000 0.000000
O O10 0.724008 0.509794 0.214453
O O11 0.148171 0.193613 0.529000
O O12 0.631314 0.754465 0.226554
O O13 0.638990 0.116803 0.121005
#
# Coordination Sequence:
#
# PCOD8042960 Si02
#       6
#     2   2   2   2   2   2
#     4  10  22  39  65  96 133 176 216 270 335 389
#     4  10  19  35  67  96 125 169 221 267 325 386
#     4  11  26  45  68  96 141 177 219 278 343 391
#     4  11  23  43  70  99 132 177 220 276 334 396
#     4  11  23  42  74  98 127 178 232 268 334 397
#     4  11  25  45  67  98 138 172 222 283 330 397
#
# _framework density 22.243258000000001
#
# number of rings (size 3 to 8) (size 9 to 14) (size 15 to 20)
#    0.000    1.333    5.000    1.000    7.000    0.667 
#    0.000    0.833    0.000    0.000    0.000    0.000 
#    0.000    0.000    0.000    0.000    0.000    0.000 
#
# Total GULP energy -148714.789642 kJ/mol
# GULP energy per Si atom -12392.899137 kJ/mol
# Density = 2.219263 g / cm^3
# Si number density = 22.243258 Si / 1000 Ang^3
#
#
#
# Elastic Constant Matrix: (Units=GPa)
#
#
# Indices 1 2 3 4 5 6 
#
# 1 131.2943 33.2497 27.3429 1.0981 13.7293 0.0820
# 2 33.2497 101.3874 29.9223 -16.9355 11.9842 15.8586
# 3 27.3429 29.9223 81.7376 -25.5459 17.4461 -8.8493
# 4 1.0981 -16.9355 -25.5459 29.2407 -3.9103 -4.8369
# 5 13.7293 11.9842 17.4461 -3.9103 21.9884 3.4901
# 6 0.0820 15.8586 -8.8493 -4.8369 3.4901 47.9957
#
#
#
# Elastic Compliance Matrix: (Units=1/GPa)
#
#
# Indices 1 2 3 4 5 6 
#
# 1 0.009254 -0.002617 -0.003090 -0.004937 -0.002776 -0.000017
# 2 -0.002617 0.013121 -0.002536 0.004516 -0.002036 -0.004195
# 3 -0.003090 -0.002536 0.023956 0.019110 -0.013594 0.008175
# 4 -0.004937 0.004516 0.019110 0.054185 -0.006167 0.007949
# 5 -0.002776 -0.002036 -0.013594 -0.006167 0.059081 -0.006747
# 6 -0.000017 -0.004195 0.008175 0.007949 -0.006747 0.025020
#
#
# Mechanical properties :
#
#
# Convention : Reuss Voigt Hill
#
# Bulk Modulus (GPa) = 33.50707 55.04992 44.27849
# Shear Modulus (GPa) = 23.69082 34.77191 29.23136
#
# Velocity S-wave (km/s) = 3.26709 3.95809 3.62908
# Velocity P-wave (km/s) = 5.41558 6.75954 6.12454
#
# Compressibility (1/GPa) = 0.02984445
#
# Stress axis : x y z
#
# Youngs Moduli (GPa) = 108.05844 76.21328 41.74405
#
# Poissons Ratio (x) = 0.19944 0.12899
# Poissons Ratio (y) = 0.28278 0.10588
# Poissons Ratio (z) = 0.33390 0.19330
#
# Static dielectric constant tensor:
#      x y z
#    x 3.995650 0.343580 -0.013150 
#    y 0.343580 4.520880 -0.332280 
#    z -0.013150 -0.332280 3.895010 
# 
# 
# High freq. dielectric constant tensor:
#      x y z
#    x 1.873890 0.017670 0.005160 
#    y 0.017670 1.882030 -0.027120 
#    z 0.005160 -0.027120 1.855350 
# 
# From -- ./inp_files/165858.got.cif
#   From: 2010.06.25/outbox.cif.g09.slc.cpg/sg2_83_cif.got.tgz:165858.got - 2010.06.27 13:26:56.
