data_PCOD8042475
_publ_section_title
;
Structure prediction by ZEFSAII (Michael W. Deem and Ramdas Pophale) SiO2 
 PCOD8042475
Probable space group: P -1
;
_chemical_formula_sum "Si O2"
_cell_formula_units_Z 14
_cell_length_a 25.548017
_cell_length_b 11.693150
_cell_length_c 9.920976
_cell_angle_alpha 40.964895
_cell_angle_beta 36.436601
_cell_angle_gamma 23.541856
_cell_volume 701.158777
_symmetry_space_group_name_H-M "P -1"
_symmetry_group_IT_number 2
_symmetry_cell_setting 'triclinic'
loop_
_space_group_symop_operation_xyz
x,y,z
-x,-y,-z
loop_
_atom_site_type_symbol
_atom_site_label
_atom_site_fract_x
_atom_site_fract_y
_atom_site_fract_z
Si Si1 0.244345 0.823269 0.460817
Si Si2 0.455648 0.749798 0.585269
Si Si3 0.644388 0.461900 0.023329
Si Si4 0.657544 0.833445 0.338312
Si Si5 0.701288 0.517157 0.130023
Si Si6 0.324710 0.071519 0.075418
Si Si7 0.840729 0.220557 0.580563
O O1 0.414493 0.516350 0.345632
O O2 0.199272 0.767629 0.729116
O O3 0.151447 0.930032 0.424786
O O4 0.232981 0.044135 0.332987
O O5 0.377438 0.701306 0.731552
O O6 0.529910 0.745741 0.314592
O O7 0.339949 0.046036 0.643482
O O8 0.728397 0.436693 0.988318
O O9 0.493738 0.792838 0.008718
O O10 0.741397 0.301369 0.832577
O O11 0.778943 0.497456 0.404724
O O12 0.500000 0.000000 0.500000
O O13 0.697037 0.878926 0.083488
O O14 0.739749 0.657603 0.956462
O O15 0.000000 0.000000 0.500000
#
# Coordination Sequence:
#
# PCOD8042475 Si02
#       7
#     2   2   2   2   2   2   2
#     4   9  20  37  58  85 118 154 189 240 295 343
#     4   9  18  32  60  85 121 144 189 243 291 344
#     4  11  21  34  56  94 118 155 190 244 295 345
#     4  12  17  35  60  86 111 153 196 242 286 340
#     4  10  19  35  56  93 125 147 183 247 303 347
#     4  11  19  32  64  89 119 148 196 239 297 349
#     4  12  24  40  58  84 121 158 201 244 286 345
#
# _framework density 19.966947000000001
#
# number of rings (size 3 to 8) (size 9 to 14) (size 15 to 20)
#    0.857    0.571    5.714    1.714    0.000    2.286 
#    0.000    3.571    0.000    0.857    0.000    0.000 
#    0.000    0.000    0.000    0.000    0.000    0.000 
#
# Total GULP energy -173544.369961 kJ/mol
# GULP energy per Si atom -12396.026426 kJ/mol
# Density = 1.992150 g / cm^3
# Si number density = 19.966947 Si / 1000 Ang^3
#
#
#
# Elastic Constant Matrix: (Units=GPa)
#
#
# Indices 1 2 3 4 5 6 
#
# 1 116.4336 27.3643 33.6728 -11.7908 -2.3915 4.8062
# 2 27.3643 38.8428 24.0026 -19.5336 -10.1095 -6.8122
# 3 33.6728 24.0026 72.4269 -29.6708 -9.9961 4.1603
# 4 -11.7908 -19.5336 -29.6708 22.1628 8.7257 -7.1478
# 5 -2.3915 -10.1095 -9.9961 8.7257 35.5960 -4.7874
# 6 4.8062 -6.8122 4.1603 -7.1478 -4.7874 28.7257
#
#
#
# Elastic Compliance Matrix: (Units=1/GPa)
#
#
# Indices 1 2 3 4 5 6 
#
# 1 0.014267 -0.020698 -0.011222 -0.028876 -0.002784 -0.013320
# 2 -0.020698 0.101156 0.026870 0.128207 0.011166 0.057323
# 3 -0.011222 0.026870 0.042103 0.080564 0.001982 0.022529
# 4 -0.028876 0.128207 0.080564 0.280397 0.000936 0.093494
# 5 -0.002784 0.011166 0.001982 0.000936 0.032545 0.008484
# 6 -0.013320 0.057323 0.022529 0.093494 0.008484 0.072050
#
#
# Mechanical properties :
#
#
# Convention : Reuss Voigt Hill
#
# Bulk Modulus (GPa) = 6.78311 44.19807 25.49059
# Shear Modulus (GPa) = 8.30896 26.80781 17.55839
#
# Velocity S-wave (km/s) = 2.04215 3.66814 2.96864
# Velocity P-wave (km/s) = 2.99417 6.33435 4.95424
#
# Compressibility (1/GPa) = 0.14742509
#
# Stress axis : x y z
#
# Youngs Moduli (GPa) = 70.09134 9.88577 23.75107
#
# Poissons Ratio (x) = 0.20462 0.26654
# Poissons Ratio (y) = 1.45078 -0.63820
# Poissons Ratio (z) = 0.78658 -0.26563
#
# Static dielectric constant tensor:
#      x y z
#    x 3.570890 0.222890 -0.098360 
#    y 0.222890 3.200460 -0.232250 
#    z -0.098360 -0.232250 3.427690 
# 
# 
# High freq. dielectric constant tensor:
#      x y z
#    x 1.782090 0.019390 0.000920 
#    y 0.019390 1.725500 -0.032410 
#    z 0.000920 -0.032410 1.772600 
# 
# From -- ./inp_files/476553.got.cif
#   From: 2010.06.25/outbox.cif.g09.slc.cpg/sg2_239_cif.got.tgz:476553.got - 2010.06.27 13:26:56.
