data_PCOD8042311
_publ_section_title
;
Structure prediction by ZEFSAII (Michael W. Deem and Ramdas Pophale) SiO2 
 PCOD8042311
Probable space group: P -1
;
_chemical_formula_sum "Si O2"
_cell_formula_units_Z 12
_cell_length_a 11.926842
_cell_length_b 8.993190
_cell_length_c 8.879086
_cell_angle_alpha 55.773155
_cell_angle_beta 127.503267
_cell_angle_gamma 135.833494
_cell_volume 512.609788
_symmetry_space_group_name_H-M "P -1"
_symmetry_group_IT_number 2
_symmetry_cell_setting 'triclinic'
loop_
_space_group_symop_operation_xyz
x,y,z
-x,-y,-z
loop_
_atom_site_type_symbol
_atom_site_label
_atom_site_fract_x
_atom_site_fract_y
_atom_site_fract_z
Si Si1 0.823340 0.325514 0.534828
Si Si2 0.314288 0.116350 0.822167
Si Si3 0.649522 0.881600 0.483086
Si Si4 0.689296 0.528974 0.859429
Si Si5 0.690149 0.573611 0.154988
Si Si6 0.269791 0.724915 0.185753
O O1 0.684591 0.376881 0.344494
O O2 0.849575 0.345042 0.724933
O O3 0.000000 0.500000 0.500000
O O4 0.761467 0.084962 0.569768
O O5 0.252093 0.067590 0.625514
O O6 0.521338 0.285037 0.897187
O O7 0.225461 0.218338 0.781905
O O8 0.254433 0.892465 0.980575
O O9 0.626513 0.670035 0.658138
O O10 0.464249 0.835970 0.336640
O O11 0.798839 0.492846 0.848575
O O12 0.790950 0.632095 0.042574
O O13 0.500000 0.500000 0.000000
#
# Coordination Sequence:
#
# PCOD8042311 Si02
#       6
#     2   2   2   2   2   2
#     4  12  26  42  59  89 127 163 203 253 306 358
#     4  10  19  34  62  96 120 150 202 257 298 352
#     4  11  20  37  62  91 121 161 204 249 300 361
#     4  10  19  34  62  96 120 150 202 257 298 352
#     4  10  19  38  62  87 118 157 199 245 291 354
#     4  11  20  37  62  91 121 161 204 249 300 361
#
# _framework density 23.409618999999999
#
# number of rings (size 3 to 8) (size 9 to 14) (size 15 to 20)
#    0.000    1.333    0.000   11.500    0.000    0.000 
#    0.000   10.000    0.000    0.000    0.000    0.000 
#    0.000    0.000    0.000    0.000    0.000    0.000 
#
# Total GULP energy -148785.190852 kJ/mol
# GULP energy per Si atom -12398.765904 kJ/mol
# Density = 2.335634 g / cm^3
# Si number density = 23.409619 Si / 1000 Ang^3
#
#
#
# Elastic Constant Matrix: (Units=GPa)
#
#
# Indices 1 2 3 4 5 6 
#
# 1 112.5474 51.0998 30.5637 3.7232 -40.1912 -41.8860
# 2 51.0998 63.4982 12.3783 -9.7129 -7.9912 -35.8424
# 3 30.5637 12.3783 110.7744 -19.2872 -25.4836 -17.7404
# 4 3.7232 -9.7129 -19.2872 32.0751 -16.5552 -9.3320
# 5 -40.1912 -7.9912 -25.4836 -16.5552 45.1444 7.6269
# 6 -41.8860 -35.8424 -17.7404 -9.3320 7.6269 48.7209
#
#
#
# Elastic Compliance Matrix: (Units=1/GPa)
#
#
# Indices 1 2 3 4 5 6 
#
# 1 0.030773 0.002700 0.012921 0.036991 0.043076 0.033489
# 2 0.002700 0.065150 0.028032 0.080890 0.047858 0.068458
# 3 0.012921 0.028032 0.034568 0.069560 0.053155 0.049320
# 4 0.036991 0.080890 0.069560 0.203711 0.138589 0.133962
# 5 0.043076 0.047858 0.053155 0.138589 0.133369 0.097262
# 6 0.033489 0.068458 0.049320 0.133962 0.097262 0.128070
#
#
# Mechanical properties :
#
#
# Convention : Reuss Voigt Hill
#
# Bulk Modulus (GPa) = 4.59145 52.76707 28.67926
# Shear Modulus (GPa) = 8.60685 38.03994 23.32340
#
# Velocity S-wave (km/s) = 1.91953 4.03547 3.15987
# Velocity P-wave (km/s) = 2.62268 6.65605 5.05873
#
# Compressibility (1/GPa) = 0.21779601
#
# Stress axis : x y z
#
# Youngs Moduli (GPa) = 32.49648 15.34928 28.92849
#
# Poissons Ratio (x) = -0.04144 -0.37379
# Poissons Ratio (y) = -0.08772 -0.81093
# Poissons Ratio (z) = -0.41990 -0.43027
#
# Static dielectric constant tensor:
#      x y z
#    x 4.835390 -0.980230 -0.580380 
#    y -0.980230 4.182640 0.123740 
#    z -0.580380 0.123740 4.480650 
# 
# 
# High freq. dielectric constant tensor:
#      x y z
#    x 1.922860 -0.051380 -0.023020 
#    y -0.051380 1.898980 -0.008970 
#    z -0.023020 -0.008970 1.938730 
# 
# From -- ./inp_files/149070.got.cif
#   From: 2010.06.25/outbox.cif.g09.slc.cpg/sg2_75_cif.got.tgz:149070.got - 2010.06.27 13:26:56.
