data_PCOD8042099
_publ_section_title
;
Structure prediction by ZEFSAII (Michael W. Deem and Ramdas Pophale) SiO2 
 PCOD8042099
Probable space group: P -1
;
_chemical_formula_sum "Si O2"
_cell_formula_units_Z 14
_cell_length_a 9.077904
_cell_length_b 10.809961
_cell_length_c 9.760079
_cell_angle_alpha 117.513886
_cell_angle_beta 44.934332
_cell_angle_gamma 109.911667
_cell_volume 599.821973
_symmetry_space_group_name_H-M "P -1"
_symmetry_group_IT_number 2
_symmetry_cell_setting 'triclinic'
loop_
_space_group_symop_operation_xyz
x,y,z
-x,-y,-z
loop_
_atom_site_type_symbol
_atom_site_label
_atom_site_fract_x
_atom_site_fract_y
_atom_site_fract_z
Si Si1 0.922650 0.077303 0.269068
Si Si2 0.081532 0.445883 0.243981
Si Si3 0.412276 0.588799 0.417848
Si Si4 0.680460 0.275102 0.717330
Si Si5 0.977425 0.209547 0.017741
Si Si6 0.678792 0.774677 0.866868
Si Si7 0.436165 0.695169 0.746858
O O1 0.173147 0.092779 0.130406
O O2 0.811478 0.145959 0.507186
O O3 0.875736 0.910654 0.203004
O O4 0.864024 0.155245 0.206324
O O5 0.173596 0.602342 0.249133
O O6 0.195572 0.368460 0.256871
O O7 0.834364 0.450969 0.434333
O O8 0.115451 0.348912 0.035967
O O9 0.460186 0.665555 0.282756
O O10 0.485669 0.683935 0.547181
O O11 0.554850 0.453923 0.259225
O O12 0.529006 0.214572 0.900960
O O13 0.796023 0.246543 0.049019
O O14 0.610749 0.787900 0.759036
#
# Coordination Sequence:
#
# PCOD8042099 Si02
#       7
#     2   2   2   2   2   2   2
#     4  10  21  42  63  82 119 169 197 238 292 372
#     4  10  19  37  59  87 118 159 196 238 293 359
#     4  10  19  34  62  84 125 157 193 241 307 349
#     4  12  20  36  66  94 113 155 206 246 288 362
#     4   9  20  39  63  81 121 166 196 236 306 352
#     4  11  22  34  63  92 121 150 204 246 299 347
#     4  10  19  34  57  93 120 154 192 255 298 347
#
# _framework density 23.340259
#
# number of rings (size 3 to 8) (size 9 to 14) (size 15 to 20)
#    0.000    1.714    5.714    1.714    0.000    0.571 
#    0.000   10.000   12.571    0.000    0.000    0.000 
#    0.000    0.000    0.000    0.000    0.000    0.000 
#
# Total GULP energy -173484.706337 kJ/mol
# GULP energy per Si atom -12391.764738 kJ/mol
# Density = 2.328714 g / cm^3
# Si number density = 23.340259 Si / 1000 Ang^3
#
#
#
# Elastic Constant Matrix: (Units=GPa)
#
#
# Indices 1 2 3 4 5 6 
#
# 1 148.0178 28.1634 36.2702 7.8525 -10.3077 20.2756
# 2 28.1634 65.4519 58.5470 27.9032 4.3231 15.2382
# 3 36.2702 58.5470 93.5619 26.8588 -4.7668 10.7828
# 4 7.8525 27.9032 26.8588 40.6044 1.4458 0.9113
# 5 -10.3077 4.3231 -4.7668 1.4458 27.7559 7.6363
# 6 20.2756 15.2382 10.7828 0.9113 7.6363 22.0443
#
#
#
# Elastic Compliance Matrix: (Units=1/GPa)
#
#
# Indices 1 2 3 4 5 6 
#
# 1 0.008897 -0.000356 -0.001843 -0.000253 0.005514 -0.008935
# 2 -0.000356 0.048408 -0.023308 -0.017153 -0.005523 -0.019111
# 3 -0.001843 -0.023308 0.026453 -0.001426 0.006862 0.002550
# 4 -0.000253 -0.017153 -0.001426 0.037238 -0.002986 0.012282
# 5 0.005514 -0.005523 0.006862 -0.002986 0.045877 -0.020379
# 6 -0.008935 -0.019111 0.002550 0.012282 -0.020379 0.072096
#
#
# Mechanical properties :
#
#
# Convention : Reuss Voigt Hill
#
# Bulk Modulus (GPa) = 30.54080 61.44367 45.99223
# Shear Modulus (GPa) = 16.61697 30.35099 23.48398
#
# Velocity S-wave (km/s) = 2.67112 3.60998 3.17544
# Velocity P-wave (km/s) = 4.75675 6.61500 5.76129
#
# Compressibility (1/GPa) = 0.03274309
#
# Stress axis : x y z
#
# Youngs Moduli (GPa) = 112.40256 20.65788 37.80316
#
# Poissons Ratio (x) = 0.00735 0.06967
# Poissons Ratio (y) = 0.04001 0.88112
# Poissons Ratio (z) = 0.20715 0.48150
#
# Static dielectric constant tensor:
#      x y z
#    x 4.514920 0.343160 0.008640 
#    y 0.343160 3.881180 0.474200 
#    z 0.008640 0.474200 4.027940 
# 
# 
# High freq. dielectric constant tensor:
#      x y z
#    x 1.930220 0.025380 -0.004120 
#    y 0.025380 1.881010 0.038100 
#    z -0.004120 0.038100 1.913040 
# 
# From -- ./inp_files/396291.got.cif
#   From: 2010.06.25/outbox.cif.g09.slc.cpg/sg2_199_cif.got.tgz:396291.got - 2010.06.27 13:26:56.
