data_PCOD8042351
_publ_section_title
;
Structure prediction by ZEFSAII (Michael W. Deem and Ramdas Pophale) SiO2 
 PCOD8042351
Probable space group: P -1
;
_chemical_formula_sum "Si O2"
_cell_formula_units_Z 16
_cell_length_a 15.415072
_cell_length_b 8.367220
_cell_length_c 12.709461
_cell_angle_alpha 106.187064
_cell_angle_beta 114.078652
_cell_angle_gamma 129.787175
_cell_volume 734.462835
_symmetry_space_group_name_H-M "P -1"
_symmetry_group_IT_number 2
_symmetry_cell_setting 'triclinic'
loop_
_space_group_symop_operation_xyz
x,y,z
-x,-y,-z
loop_
_atom_site_type_symbol
_atom_site_label
_atom_site_fract_x
_atom_site_fract_y
_atom_site_fract_z
Si Si1 0.388168 0.812489 0.214368
Si Si2 0.042809 0.244007 0.373775
Si Si3 0.658521 0.691251 0.195555
Si Si4 0.253742 0.865585 0.532457
Si Si5 0.404258 0.622023 0.707438
Si Si6 0.889737 0.883906 0.026910
Si Si7 0.371210 0.314583 0.275490
Si Si8 0.677211 0.990532 0.631802
O O1 0.563921 0.970126 0.365583
O O2 0.445592 0.005920 0.174494
O O3 0.327450 0.834861 0.286602
O O4 0.218321 0.434925 0.033539
O O5 0.096299 0.520443 0.449794
O O6 0.195319 0.365384 0.532123
O O7 0.844603 0.921341 0.269776
O O8 0.033788 0.169094 0.235415
O O9 0.588722 0.423318 0.175506
O O10 0.701299 0.904805 0.335731
O O11 0.500000 0.500000 0.000000
O O12 0.192909 0.819750 0.373793
O O13 0.457297 0.545163 0.647435
O O14 0.747277 0.815529 0.909708
O O15 0.000000 0.000000 0.000000
O O16 0.464305 0.618187 0.428512
O O17 0.245730 0.027912 0.247535
#
# Coordination Sequence:
#
# PCOD8042351 Si02
#       8
#     2   2   2   2   2   2   2   2
#     4  10  21  38  63  96 126 170 212 253 314 373
#     4  11  26  42  65  96 125 165 216 262 311 376
#     4  12  24  45  68  93 126 163 208 267 322 376
#     4  11  21  40  66  92 126 169 212 259 312 375
#     4  10  22  44  68  89 123 167 216 259 313 376
#     4  12  25  40  62  98 136 165 207 261 316 369
#     4  10  21  37  63  93 127 171 208 252 313 373
#     4  10  19  34  66  89 125 165 216 244 309 373
#
# _framework density 21.784628000000001
#
# number of rings (size 3 to 8) (size 9 to 14) (size 15 to 20)
#    0.000    1.250    2.500    3.375    7.000    0.000 
#    0.000   17.500    0.000    0.000    0.000    0.000 
#    0.000    0.000    0.000    0.000    0.000    0.000 
#
# Total GULP energy -198371.594781 kJ/mol
# GULP energy per Si atom -12398.224674 kJ/mol
# Density = 2.173505 g / cm^3
# Si number density = 21.784628 Si / 1000 Ang^3
#
#
#
# Elastic Constant Matrix: (Units=GPa)
#
#
# Indices 1 2 3 4 5 6 
#
# 1 78.5774 42.4283 24.7237 -5.7344 1.9292 -0.4644
# 2 42.4283 161.7869 50.6817 -14.7868 8.6515 2.1942
# 3 24.7237 50.6817 79.8231 -13.1289 7.4098 -5.9967
# 4 -5.7344 -14.7868 -13.1289 36.4652 0.2642 -1.4580
# 5 1.9292 8.6515 7.4098 0.2642 30.1911 -0.7440
# 6 -0.4644 2.1942 -5.9967 -1.4580 -0.7440 30.1612
#
#
#
# Elastic Compliance Matrix: (Units=1/GPa)
#
#
# Indices 1 2 3 4 5 6 
#
# 1 0.015301 -0.003165 -0.002771 0.000118 0.000607 -0.000064
# 2 -0.003165 0.008545 -0.004207 0.001403 -0.001262 -0.001470
# 3 -0.002771 -0.004207 0.017308 0.004264 -0.002808 0.003841
# 4 0.000118 0.001403 0.004264 0.029643 -0.001663 0.002139
# 5 0.000607 -0.001262 -0.002808 -0.001663 0.034156 0.000305
# 6 -0.000064 -0.001470 0.003841 0.002139 0.000305 0.034136
#
#
# Mechanical properties :
#
#
# Convention : Reuss Voigt Hill
#
# Bulk Modulus (GPa) = 47.92594 61.76162 54.84378
# Shear Modulus (GPa) = 30.06038 32.85374 31.45706
#
# Velocity S-wave (km/s) = 3.71872 3.88766 3.80413
# Velocity P-wave (km/s) = 6.36287 6.96882 6.67273
#
# Compressibility (1/GPa) = 0.02086553
#
# Stress axis : x y z
#
# Youngs Moduli (GPa) = 65.35664 117.03123 57.77710
#
# Poissons Ratio (x) = 0.37044 0.16011
# Poissons Ratio (y) = 0.20687 0.24309
# Poissons Ratio (z) = 0.18111 0.49240
#
# Static dielectric constant tensor:
#      x y z
#    x 3.879820 -0.237540 0.029550 
#    y -0.237540 4.569970 -0.100430 
#    z 0.029550 -0.100430 3.752840 
# 
# 
# High freq. dielectric constant tensor:
#      x y z
#    x 1.848170 -0.008890 -0.004480 
#    y -0.008890 1.882010 -0.005700 
#    z -0.004480 -0.005700 1.828230 
# 
# From -- ./inp_files/447859.got.cif
#   From: 2010.06.25/outbox.cif.g09.slc.cpg/sg2_224_cif.got.tgz:447859.got - 2010.06.27 13:26:56.
