data_PCOD8042051
_publ_section_title
;
Structure prediction by ZEFSAII (Michael W. Deem and Ramdas Pophale) SiO2 
 PCOD8042051
Probable space group: P -1
;
_chemical_formula_sum "Si O2"
_cell_formula_units_Z 14
_cell_length_a 8.967576
_cell_length_b 8.542106
_cell_length_c 18.076367
_cell_angle_alpha 56.014532
_cell_angle_beta 145.977049
_cell_angle_gamma 116.915383
_cell_volume 642.251823
_symmetry_space_group_name_H-M "P -1"
_symmetry_group_IT_number 2
_symmetry_cell_setting 'triclinic'
loop_
_space_group_symop_operation_xyz
x,y,z
-x,-y,-z
loop_
_atom_site_type_symbol
_atom_site_label
_atom_site_fract_x
_atom_site_fract_y
_atom_site_fract_z
Si Si1 0.732350 0.397171 0.803141
Si Si2 0.917110 0.287129 0.169608
Si Si3 0.680031 0.882299 0.516618
Si Si4 0.123680 0.644327 0.707925
Si Si5 0.068692 0.878831 0.925473
Si Si6 0.490743 0.720306 0.702976
Si Si7 0.168405 0.727601 0.281223
O O1 0.011669 0.508408 0.888673
O O2 0.497959 0.535902 0.701864
O O3 0.672326 0.338017 0.709880
O O4 0.757282 0.210680 0.913235
O O5 0.202480 0.181176 0.337967
O O6 0.743873 0.316172 0.165800
O O7 0.783194 0.164576 0.081795
O O8 0.879093 0.796808 0.557447
O O9 0.388008 0.795754 0.411550
O O10 0.672370 0.108722 0.448291
O O11 0.001478 0.436798 0.709551
O O12 0.346406 0.662647 0.734099
O O13 0.783656 0.781224 0.830492
O O14 0.038454 0.101313 0.868463
#
# Coordination Sequence:
#
# PCOD8042051 Si02
#       7
#     2   2   2   2   2   2   2
#     4  10  20  35  54  79 106 140 181 212 254 314
#     4   8  18  33  56  75 107 131 182 208 258 304
#     4   9  19  35  58  77 108 136 176 210 264 319
#     4   9  19  35  53  83 110 131 171 218 271 308
#     4  10  20  37  57  76 102 143 184 213 250 313
#     4  10  19  34  57  79 108 135 175 220 261 305
#     4  10  20  36  56  77 107 143 172 212 265 315
#
# _framework density 21.798303000000001
#
# number of rings (size 3 to 8) (size 9 to 14) (size 15 to 20)
#    0.857    1.714    0.000    3.000    0.000    5.143 
#    0.000   10.714    0.000    0.000    0.000    0.000 
#    0.000    0.000    0.000    0.000    0.000    0.000 
#
# Total GULP energy -173459.410115 kJ/mol
# GULP energy per Si atom -12389.957865 kJ/mol
# Density = 2.174869 g / cm^3
# Si number density = 21.798303 Si / 1000 Ang^3
#
#
#
# Elastic Constant Matrix: (Units=GPa)
#
#
# Indices 1 2 3 4 5 6 
#
# 1 51.2239 22.3191 -16.5939 -0.5551 -2.1357 -11.3363
# 2 22.3191 74.1624 20.0329 -24.7093 2.7523 -17.2590
# 3 -16.5939 20.0329 54.8994 -23.7209 -4.0623 2.1432
# 4 -0.5551 -24.7093 -23.7209 32.2109 -7.2506 4.7569
# 5 -2.1357 2.7523 -4.0623 -7.2506 21.3839 -4.0048
# 6 -11.3363 -17.2590 2.1432 4.7569 -4.0048 22.9652
#
#
#
# Elastic Compliance Matrix: (Units=1/GPa)
#
#
# Indices 1 2 3 4 5 6 
#
# 1 0.031667 -0.010944 0.016695 0.005954 0.010985 0.006531
# 2 -0.010944 0.025776 -0.007981 0.011989 0.000443 0.012308
# 3 0.016695 -0.007981 0.040150 0.028676 0.019281 -0.004081
# 4 0.005954 0.011989 0.028676 0.067632 0.027440 0.000049
# 5 0.010985 0.000443 0.019281 0.027440 0.062488 0.009170
# 6 0.006531 0.012308 -0.004081 0.000049 0.009170 0.057988
#
#
# Mechanical properties :
#
#
# Convention : Reuss Voigt Hill
#
# Bulk Modulus (GPa) = 10.73731 25.75576 18.24654
# Shear Modulus (GPa) = 15.56645 25.61383 20.59014
#
# Velocity S-wave (km/s) = 2.67519 3.43160 3.07673
# Velocity P-wave (km/s) = 3.80508 5.24808 4.58372
#
# Compressibility (1/GPa) = 0.09313319
#
# Stress axis : x y z
#
# Youngs Moduli (GPa) = 31.57859 38.79642 24.90666
#
# Poissons Ratio (x) = 0.42459 -0.41583
# Poissons Ratio (y) = 0.34560 0.19878
# Poissons Ratio (z) = -0.52722 0.30964
#
# Static dielectric constant tensor:
#      x y z
#    x 3.866690 -0.370200 -0.098260 
#    y -0.370200 3.822920 -0.420380 
#    z -0.098260 -0.420380 3.695770 
# 
# 
# High freq. dielectric constant tensor:
#      x y z
#    x 1.851090 -0.027800 -0.015960 
#    y -0.027800 1.838720 -0.034970 
#    z -0.015960 -0.034970 1.838250 
# 
# From -- ./inp_files/556015.got.cif
#   From: 2010.06.25/outbox.cif.g09.slc.cpg/sg2_279_cif.got.tgz:556015.got - 2010.06.27 13:26:56.
