data_PCOD8042336
_publ_section_title
;
Structure prediction by ZEFSAII (Michael W. Deem and Ramdas Pophale) SiO2 
 PCOD8042336
Probable space group: P -1
;
_chemical_formula_sum "Si O2"
_cell_formula_units_Z 12
_cell_length_a 29.521847
_cell_length_b 15.560133
_cell_length_c 9.323418
_cell_angle_alpha 28.537790
_cell_angle_beta 151.733976
_cell_angle_gamma 160.225073
_cell_volume 652.370478
_symmetry_space_group_name_H-M "P -1"
_symmetry_group_IT_number 2
_symmetry_cell_setting 'triclinic'
loop_
_space_group_symop_operation_xyz
x,y,z
-x,-y,-z
loop_
_atom_site_type_symbol
_atom_site_label
_atom_site_fract_x
_atom_site_fract_y
_atom_site_fract_z
Si Si1 0.835159 0.782464 0.830469
Si Si2 0.346879 0.200180 0.520626
Si Si3 0.435937 0.957165 0.230659
Si Si4 0.370276 0.201618 0.254740
Si Si5 0.330576 0.438890 0.571289
Si Si6 0.632601 0.191565 0.199033
O O1 0.768699 0.832492 0.681466
O O2 0.809372 0.789725 0.579834
O O3 0.764997 0.488675 0.079415
O O4 0.000000 0.000000 0.000000
O O5 0.500000 0.500000 0.500000
O O6 0.311935 0.122762 0.369550
O O7 0.341236 0.006757 0.882718
O O8 0.350829 0.670115 0.346515
O O9 0.500000 0.000000 0.500000
O O10 0.574479 0.200811 0.167468
O O11 0.541498 0.442473 0.354122
O O12 0.312767 0.932447 0.428209
O O13 0.307968 0.281762 0.876198
O O14 0.500000 0.000000 0.000000
#
# Coordination Sequence:
#
# PCOD8042336 Si02
#       6
#     2   2   2   2   2   2
#     4  12  25  40  59  89 129 162 192 246 311 360
#     4  12  19  36  60  90 114 154 212 242 289 356
#     4  11  21  32  63  96 116 144 207 262 286 338
#     4  10  19  34  64  88 111 155 203 254 288 345
#     4  10  20  37  57  92 124 147 196 253 304 341
#     4  11  18  39  61  85 121 156 198 246 299 345
#
# _framework density 18.394456000000002
#
# number of rings (size 3 to 8) (size 9 to 14) (size 15 to 20)
#    0.000    1.000    8.333    1.000    4.667    0.000 
#    0.000    5.000    0.000    0.000    0.000    0.000 
#    0.000    0.000    0.000    0.000    0.000    0.000 
#
# Total GULP energy -148683.020031 kJ/mol
# GULP energy per Si atom -12390.251669 kJ/mol
# Density = 1.835259 g / cm^3
# Si number density = 18.394456 Si / 1000 Ang^3
#
#
#
# Elastic Constant Matrix: (Units=GPa)
#
#
# Indices 1 2 3 4 5 6 
#
# 1 96.6647 35.1352 46.2293 13.2262 -5.6095 -4.5820
# 2 35.1352 102.2435 57.4510 10.3389 3.1422 -5.2744
# 3 46.2293 57.4510 142.3701 -10.4437 -3.9854 -1.3978
# 4 13.2262 10.3389 -10.4437 28.3971 -4.3087 -1.6936
# 5 -5.6095 3.1422 -3.9854 -4.3087 40.0781 0.7553
# 6 -4.5820 -5.2744 -1.3978 -1.6936 0.7553 18.4331
#
#
#
# Elastic Compliance Matrix: (Units=1/GPa)
#
#
# Indices 1 2 3 4 5 6 
#
# 1 0.014222 -0.001514 -0.004514 -0.007487 0.000817 0.002038
# 2 -0.001514 0.014596 -0.005966 -0.007054 -0.002761 0.002813
# 3 -0.004514 -0.005966 0.011582 0.008757 0.001952 -0.001226
# 4 -0.007487 -0.007054 0.008757 0.045329 0.005235 0.000735
# 5 0.000817 -0.002761 0.001952 0.005235 0.026058 -0.001026
# 6 0.002038 0.002813 -0.001226 0.000735 -0.001026 0.055578
#
#
# Mechanical properties :
#
#
# Convention : Reuss Voigt Hill
#
# Bulk Modulus (GPa) = 60.92322 68.76770 64.84546
# Shear Modulus (GPa) = 25.40338 30.87919 28.14129
#
# Velocity S-wave (km/s) = 3.72026 4.10167 3.91561
# Velocity P-wave (km/s) = 7.18652 7.73936 7.46806
#
# Compressibility (1/GPa) = 0.01641410
#
# Stress axis : x y z
#
# Youngs Moduli (GPa) = 70.31121 68.51090 86.34207
#
# Poissons Ratio (x) = 0.10373 0.38971
# Poissons Ratio (y) = 0.10646 0.51508
# Poissons Ratio (z) = 0.31736 0.40871
#
# Static dielectric constant tensor:
#      x y z
#    x 4.268490 -0.223160 -0.553520 
#    y -0.223160 3.110780 -0.241360 
#    z -0.553520 -0.241360 3.849340 
# 
# 
# High freq. dielectric constant tensor:
#      x y z
#    x 1.722800 -0.021240 -0.005950 
#    y -0.021240 1.659850 -0.029280 
#    z -0.005950 -0.029280 1.728880 
# 
# From -- ./inp_files/145053.got.cif
#   From: 2010.06.25/outbox.cif.g09.slc.cpg/sg2_73_cif.got.tgz:145053.got - 2010.06.27 13:26:56.
