data_PCOD8042834
_publ_section_title
;
Structure prediction by ZEFSAII (Michael W. Deem and Ramdas Pophale) SiO2 
 PCOD8042834
Probable space group: P -1
;
_chemical_formula_sum "Si O2"
_cell_formula_units_Z 16
_cell_length_a 14.992673
_cell_length_b 11.423455
_cell_length_c 14.131800
_cell_angle_alpha 39.507838
_cell_angle_beta 149.117448
_cell_angle_gamma 128.089410
_cell_volume 782.706110
_symmetry_space_group_name_H-M "P -1"
_symmetry_group_IT_number 2
_symmetry_cell_setting 'triclinic'
loop_
_space_group_symop_operation_xyz
x,y,z
-x,-y,-z
loop_
_atom_site_type_symbol
_atom_site_label
_atom_site_fract_x
_atom_site_fract_y
_atom_site_fract_z
Si Si1 0.065173 0.732270 0.187102
Si Si2 0.145258 0.978370 0.725667
Si Si3 0.256840 0.353284 0.547177
Si Si4 0.361785 0.587027 0.133450
Si Si5 0.678272 0.128146 0.516941
Si Si6 0.057086 0.065408 0.239673
Si Si7 0.807638 0.613308 0.747793
Si Si8 0.684365 0.734801 0.844301
O O1 0.103857 0.513087 0.339247
O O2 0.218771 0.803450 0.342237
O O3 0.053659 0.848736 0.005853
O O4 0.873934 0.755399 0.052067
O O5 0.071589 0.960942 0.774963
O O6 0.242747 0.158941 0.706338
O O7 0.273969 0.799428 0.920445
O O8 0.000000 0.000000 0.500000
O O9 0.435432 0.421794 0.698740
O O10 0.250338 0.323730 0.448247
O O11 0.332301 0.507191 0.260675
O O12 0.285511 0.458414 0.065785
O O13 0.488097 0.257137 0.248525
O O14 0.639802 0.915521 0.624504
O O15 0.814124 0.125466 0.553234
O O16 0.193778 0.201915 0.308474
O O17 0.000000 0.500000 0.000000
#
# Coordination Sequence:
#
# PCOD8042834 Si02
#       8
#     2   2   2   2   2   2   2   2
#     4  11  20  40  66  95 123 162 208 260 316 361
#     4  12  24  41  62  86 126 175 205 247 317 382
#     4  12  24  38  60  93 130 167 207 251 317 377
#     4  12  22  39  62  93 129 157 210 264 311 371
#     4  10  21  37  62  98 123 157 210 260 314 362
#     4  11  21  37  65  92 125 157 212 257 308 373
#     4  12  19  38  61  95 120 159 208 261 314 368
#     4  10  19  35  62  91 126 155 200 262 313 357
#
# _framework density 20.441901000000001
#
# number of rings (size 3 to 8) (size 9 to 14) (size 15 to 20)
#    0.000    0.750    7.500    3.000    0.000    0.000 
#    0.000    1.875    0.000    1.500    0.000    0.000 
#    0.000    0.000    0.000    0.000    0.000    0.000 
#
# Total GULP energy -198240.425540 kJ/mol
# GULP energy per Si atom -12390.026596 kJ/mol
# Density = 2.039537 g / cm^3
# Si number density = 20.441901 Si / 1000 Ang^3
#
#
#
# Elastic Constant Matrix: (Units=GPa)
#
#
# Indices 1 2 3 4 5 6 
#
# 1 68.7143 38.4450 42.9890 -10.0085 21.8664 -3.9697
# 2 38.4450 93.9519 26.5800 -5.9987 4.5868 10.3500
# 3 42.9890 26.5800 81.5319 -2.3005 23.0867 8.2616
# 4 -10.0085 -5.9987 -2.3005 39.2014 -3.3639 6.0555
# 5 21.8664 4.5868 23.0867 -3.3639 34.4084 0.5920
# 6 -3.9697 10.3500 8.2616 6.0555 0.5920 32.9909
#
#
#
# Elastic Compliance Matrix: (Units=1/GPa)
#
#
# Indices 1 2 3 4 5 6 
#
# 1 0.031805 -0.010120 -0.011147 0.003512 -0.011201 0.009350
# 2 -0.010120 0.015423 -0.000404 0.001136 0.004865 -0.006251
# 3 -0.011147 -0.000404 0.020785 -0.001340 -0.006835 -0.006051
# 4 0.003512 0.001136 -0.001340 0.027326 0.001267 -0.004637
# 5 -0.011201 0.004865 -0.006835 0.001267 0.040279 -0.002118
# 6 0.009350 -0.006251 -0.006051 -0.004637 -0.002118 0.035802
#
#
# Mechanical properties :
#
#
# Convention : Reuss Voigt Hill
#
# Bulk Modulus (GPa) = 40.53423 51.13624 45.83523
# Shear Modulus (GPa) = 22.42303 30.39910 26.41107
#
# Velocity S-wave (km/s) = 3.31556 3.86047 3.59835
# Velocity P-wave (km/s) = 5.87617 6.70378 6.30357
#
# Compressibility (1/GPa) = 0.02467051
#
# Stress axis : x y z
#
# Youngs Moduli (GPa) = 31.44174 64.83950 48.11113
#
# Poissons Ratio (x) = 0.65616 0.53630
# Poissons Ratio (y) = 0.31818 0.01945
# Poissons Ratio (z) = 0.35048 0.02621
#
# Static dielectric constant tensor:
#      x y z
#    x 4.019250 0.056540 0.109430 
#    y 0.056540 4.166390 -0.447560 
#    z 0.109430 -0.447560 4.507270 
# 
# 
# High freq. dielectric constant tensor:
#      x y z
#    x 1.783340 -0.008970 0.037280 
#    y -0.008970 1.812000 0.000080 
#    z 0.037280 0.000080 1.783420 
# 
# From -- ./inp_files/208730.got.cif
#   From: 2010.06.25/outbox.cif.g09.slc.cpg/sg2_105_cif.got.tgz:208730.got - 2010.06.27 13:26:56.
