data_PCOD8042262
_publ_section_title
;
Structure prediction by ZEFSAII (Michael W. Deem and Ramdas Pophale) SiO2 
 PCOD8042262
Probable space group: P -1
;
_chemical_formula_sum "Si O2"
_cell_formula_units_Z 16
_cell_length_a 14.244260
_cell_length_b 11.744990
_cell_length_c 21.030757
_cell_angle_alpha 148.507946
_cell_angle_beta 150.489757
_cell_angle_gamma 50.299110
_cell_volume 829.165685
_symmetry_space_group_name_H-M "P -1"
_symmetry_group_IT_number 2
_symmetry_cell_setting 'triclinic'
loop_
_space_group_symop_operation_xyz
x,y,z
-x,-y,-z
loop_
_atom_site_type_symbol
_atom_site_label
_atom_site_fract_x
_atom_site_fract_y
_atom_site_fract_z
Si Si1 0.442756 0.055207 0.061868
Si Si2 0.455449 0.721136 0.099374
Si Si3 0.480190 0.330034 0.753186
Si Si4 0.821578 0.205902 0.693204
Si Si5 0.108470 0.858122 0.432140
Si Si6 0.724978 0.562420 0.883766
Si Si7 0.219939 0.610360 0.788305
Si Si8 0.124482 0.807418 0.555158
O O1 0.396683 0.289524 0.146386
O O2 0.630404 0.094638 0.240393
O O3 0.500000 0.000000 0.000000
O O4 0.237270 0.827337 0.855422
O O5 0.382881 0.698948 0.120223
O O6 0.670029 0.944310 0.324632
O O7 0.500000 0.500000 0.000000
O O8 0.286694 0.731853 0.955247
O O9 0.635473 0.454397 0.847640
O O10 0.365696 0.492711 0.787806
O O11 0.310812 0.074438 0.510303
O O12 0.871427 0.284896 0.686145
O O13 0.693522 0.349252 0.714756
O O14 0.033079 0.266805 0.885975
O O15 0.051295 0.704861 0.391007
O O16 0.945197 0.973451 0.372191
O O17 0.988525 0.405225 0.562084
#
# Coordination Sequence:
#
# PCOD8042262 Si02
#       8
#     2   2   2   2   2   2   2   2
#     4  12  25  38  56  85 127 157 185 229 296 359
#     4   9  16  31  54  87 118 140 183 240 288 330
#     4  10  20  35  61  89 114 147 192 247 288 330
#     4  10  22  41  61  87 109 153 205 243 279 338
#     4  10  19  34  61  88 117 142 199 247 284 331
#     4  11  24  40  60  82 119 160 193 235 289 346
#     4  11  21  35  56  91 123 149 183 235 297 351
#     4  11  22  34  59  91 115 154 186 242 293 338
#
# _framework density 19.296505
#
# number of rings (size 3 to 8) (size 9 to 14) (size 15 to 20)
#    0.000    1.500    6.250    1.125    1.750    1.500 
#    0.000    0.625    0.000    0.750    0.000    0.000 
#    0.000    0.000    0.000    0.000    0.000    0.000 
#
# Total GULP energy -198295.171646 kJ/mol
# GULP energy per Si atom -12393.448228 kJ/mol
# Density = 1.925259 g / cm^3
# Si number density = 19.296505 Si / 1000 Ang^3
#
#
#
# Elastic Constant Matrix: (Units=GPa)
#
#
# Indices 1 2 3 4 5 6 
#
# 1 108.5453 48.7013 26.0025 16.5028 -4.5228 10.8954
# 2 48.7013 81.8211 29.5868 4.6435 -1.5111 7.2227
# 3 26.0025 29.5868 65.0227 4.6520 -8.9265 0.1309
# 4 16.5028 4.6435 4.6520 19.9549 5.2510 4.9175
# 5 -4.5228 -1.5111 -8.9265 5.2510 30.1027 6.0991
# 6 10.8954 7.2227 0.1309 4.9175 6.0991 29.9224
#
#
#
# Elastic Compliance Matrix: (Units=1/GPa)
#
#
# Indices 1 2 3 4 5 6 
#
# 1 0.014944 -0.007532 -0.001243 -0.010688 0.003901 -0.002657
# 2 -0.007532 0.018828 -0.006195 0.004416 -0.002386 -0.002014
# 3 -0.001243 -0.006195 0.019773 -0.003994 0.005791 0.001337
# 4 -0.010688 0.004416 -0.003994 0.063409 -0.012615 -0.005006
# 5 0.003901 -0.002386 0.005791 -0.012615 0.038970 -0.006740
# 6 -0.002657 -0.002014 0.001337 -0.005006 -0.006740 0.037064
#
#
# Mechanical properties :
#
#
# Convention : Reuss Voigt Hill
#
# Bulk Modulus (GPa) = 42.36298 51.55225 46.95761
# Shear Modulus (GPa) = 21.66404 26.06922 23.86663
#
# Velocity S-wave (km/s) = 3.35430 3.67956 3.52068
# Velocity P-wave (km/s) = 6.08302 6.69522 6.39645
#
# Compressibility (1/GPa) = 0.02360552
#
# Stress axis : x y z
#
# Youngs Moduli (GPa) = 66.91458 53.11147 50.57369
#
# Poissons Ratio (x) = 0.40006 0.06287
# Poissons Ratio (y) = 0.50403 0.31328
# Poissons Ratio (z) = 0.08319 0.32900
#
# Static dielectric constant tensor:
#      x y z
#    x 3.858640 0.335420 -0.081970 
#    y 0.335420 3.397860 -0.028820 
#    z -0.081970 -0.028820 3.650270 
# 
# 
# High freq. dielectric constant tensor:
#      x y z
#    x 1.756640 0.030120 0.002420 
#    y 0.030120 1.709180 0.000220 
#    z 0.002420 0.000220 1.760170 
# 
# From -- ./inp_files/455576.got.cif
#   From: 2010.06.25/outbox.cif.g09.slc.cpg/sg2_228_cif.got.tgz:455576.got - 2010.06.27 13:26:56.
