data_PCOD8042807
_publ_section_title
;
Structure prediction by ZEFSAII (Michael W. Deem and Ramdas Pophale) SiO2 
 PCOD8042807
Probable space group: P -1
;
_chemical_formula_sum "Si O2"
_cell_formula_units_Z 16
_cell_length_a 16.788305
_cell_length_b 8.770593
_cell_length_c 10.948794
_cell_angle_alpha 61.622634
_cell_angle_beta 129.530995
_cell_angle_gamma 81.123351
_cell_volume 808.989350
_symmetry_space_group_name_H-M "P -1"
_symmetry_group_IT_number 2
_symmetry_cell_setting 'triclinic'
loop_
_space_group_symop_operation_xyz
x,y,z
-x,-y,-z
loop_
_atom_site_type_symbol
_atom_site_label
_atom_site_fract_x
_atom_site_fract_y
_atom_site_fract_z
Si Si1 0.986658 0.843907 0.466771
Si Si2 0.738273 0.051827 0.965375
Si Si3 0.221377 0.768506 0.296448
Si Si4 0.488722 0.279179 0.791378
Si Si5 0.992223 0.240139 0.014217
Si Si6 0.323790 0.135277 0.702054
Si Si7 0.948694 0.654509 0.727354
Si Si8 0.154219 0.405760 0.674490
O O1 0.964874 0.705427 0.587694
O O2 0.130945 0.630746 0.615498
O O3 0.000000 0.000000 0.500000
O O4 0.855227 0.006625 0.185157
O O5 0.747432 0.119960 0.814847
O O6 0.583334 0.260946 0.786590
O O7 0.753209 0.825151 0.061391
O O8 0.361970 0.555559 0.586228
O O9 0.114049 0.964165 0.215643
O O10 0.155984 0.672451 0.204111
O O11 0.426176 0.162960 0.734174
O O12 0.584787 0.132164 0.059859
O O13 0.988877 0.279403 0.140814
O O14 0.023989 0.382964 0.919001
O O15 0.218498 0.185566 0.475440
O O16 0.227098 0.330414 0.641333
O O17 0.000000 0.500000 0.500000
#
# Coordination Sequence:
#
# PCOD8042807 Si02
#       8
#     2   2   2   2   2   2   2   2
#     4  11  21  33  58  86 117 142 182 241 286 325
#     4  10  20  35  57  83 110 152 188 226 278 335
#     4  11  21  37  56  88 116 143 193 230 276 346
#     4  10  20  35  58  82 108 155 190 230 271 332
#     4  10  24  34  60  86 112 151 182 236 293 322
#     4  10  19  35  62  81 109 149 198 225 272 342
#     4  11  19  40  55  83 118 144 183 236 284 339
#     4   9  17  32  56  84 108 145 184 227 281 327
#
# _framework density 19.777764000000001
#
# number of rings (size 3 to 8) (size 9 to 14) (size 15 to 20)
#    0.000    1.750    5.000    1.875    1.750    1.000 
#    0.000    0.625    8.250    0.750    0.000    0.000 
#    0.000    0.000    0.000    0.000    0.000    0.000 
#
# Total GULP energy -198238.830975 kJ/mol
# GULP energy per Si atom -12389.926936 kJ/mol
# Density = 1.973275 g / cm^3
# Si number density = 19.777764 Si / 1000 Ang^3
#
#
#
# Elastic Constant Matrix: (Units=GPa)
#
#
# Indices 1 2 3 4 5 6 
#
# 1 51.3439 2.3511 1.9975 -2.3914 2.7164 1.2489
# 2 2.3511 86.6138 33.4028 -7.3635 8.2648 7.0209
# 3 1.9975 33.4028 104.4914 -14.3549 10.2115 -8.4612
# 4 -2.3914 -7.3635 -14.3549 23.0409 -3.1026 1.3838
# 5 2.7164 8.2648 10.2115 -3.1026 29.7115 0.6780
# 6 1.2489 7.0209 -8.4612 1.3838 0.6780 14.0660
#
#
#
# Elastic Compliance Matrix: (Units=1/GPa)
#
#
# Indices 1 2 3 4 5 6 
#
# 1 0.019696 -0.000031 -0.000117 0.001873 -0.001513 -0.001915
# 2 -0.000031 0.014709 -0.005107 0.001891 -0.001896 -0.010506
# 3 -0.000117 -0.005107 0.013035 0.005513 -0.002701 0.009988
# 4 0.001873 0.001891 0.005513 0.048130 0.002494 -0.002649
# 5 -0.001513 -0.001896 -0.002701 0.002494 0.035569 -0.002504
# 6 -0.001915 -0.010506 0.009988 -0.002649 -0.002504 0.082897
#
#
# Mechanical properties :
#
#
# Convention : Reuss Voigt Hill
#
# Bulk Modulus (GPa) = 27.07701 35.32799 31.20250
# Shear Modulus (GPa) = 21.10989 27.01019 24.06004
#
# Velocity S-wave (km/s) = 3.27058 3.69953 3.49165
# Velocity P-wave (km/s) = 5.28986 6.01248 5.66271
#
# Compressibility (1/GPa) = 0.03693170
#
# Stress axis : x y z
#
# Youngs Moduli (GPa) = 50.77093 67.98442 76.71567
#
# Poissons Ratio (x) = 0.00210 0.00894
# Poissons Ratio (y) = 0.00157 0.39179
# Poissons Ratio (z) = 0.00592 0.34720
#
# Static dielectric constant tensor:
#      x y z
#    x 3.614950 0.044010 0.060020 
#    y 0.044010 3.673570 -0.273900 
#    z 0.060020 -0.273900 3.851730 
# 
# 
# High freq. dielectric constant tensor:
#      x y z
#    x 1.768970 0.009040 -0.007520 
#    y 0.009040 1.736150 -0.016540 
#    z -0.007520 -0.016540 1.776620 
# 
# From -- ./inp_files/254891.got.cif
#   From: 2010.06.25/outbox.cif.g09.slc.cpg/sg2_128_cif.got.tgz:254891.got - 2010.06.27 13:26:56.
