data_PCOD8042286
_publ_section_title
;
Structure prediction by ZEFSAII (Michael W. Deem and Ramdas Pophale) SiO2 
 PCOD8042286
Probable space group: P -1
;
_chemical_formula_sum "Si O2"
_cell_formula_units_Z 14
_cell_length_a 12.101606
_cell_length_b 8.868164
_cell_length_c 13.612809
_cell_angle_alpha 44.821801
_cell_angle_beta 44.012792
_cell_angle_gamma 61.326057
_cell_volume 714.157192
_symmetry_space_group_name_H-M "P -1"
_symmetry_group_IT_number 2
_symmetry_cell_setting 'triclinic'
loop_
_space_group_symop_operation_xyz
x,y,z
-x,-y,-z
loop_
_atom_site_type_symbol
_atom_site_label
_atom_site_fract_x
_atom_site_fract_y
_atom_site_fract_z
Si Si1 0.445085 0.755168 0.169426
Si Si2 0.337582 0.524630 0.149286
Si Si3 0.220986 0.408972 0.948055
Si Si4 0.090680 0.603062 0.120652
Si Si5 0.133226 0.096836 0.506606
Si Si6 0.846753 0.260081 0.498741
Si Si7 0.934928 0.178916 0.152397
O O1 0.362447 0.652429 0.174176
O O2 0.593884 0.622415 0.167449
O O3 0.325770 0.728124 0.349007
O O4 0.500000 0.000000 0.000000
O O5 0.210772 0.659243 0.107423
O O6 0.267792 0.284604 0.323383
O O7 0.500000 0.500000 0.000000
O O8 0.171816 0.630743 0.826417
O O9 0.173017 0.416746 0.090914
O O10 0.118801 0.215404 0.050985
O O11 0.918761 0.499103 0.313009
O O12 0.072998 0.815800 0.965015
O O13 0.961776 0.165845 0.550049
O O14 0.176251 0.890482 0.511996
O O15 0.129467 0.039506 0.652607
#
# Coordination Sequence:
#
# PCOD8042286 Si02
#       7
#     2   2   2   2   2   2   2
#     4  12  24  36  56  87 119 146 190 249 287 322
#     4  11  21  37  57  84 116 148 191 241 282 334
#     4   9  17  34  60  83 112 148 189 226 275 337
#     4   9  18  35  62  81 113 147 192 224 276 342
#     4  10  19  34  62  84 112 153 193 227 281 347
#     4  10  20  34  58  89 113 148 194 234 280 334
#     4   9  16  35  63  86 106 155 193 222 275 355
#
# _framework density 19.603527
#
# number of rings (size 3 to 8) (size 9 to 14) (size 15 to 20)
#    0.857    1.143    2.857    1.714    2.000    2.286 
#    0.000    5.714    0.000    9.429    0.000    0.000 
#    0.000    0.000    0.000    0.000    0.000    0.000 
#
# Total GULP energy -173494.038250 kJ/mol
# GULP energy per Si atom -12392.431304 kJ/mol
# Density = 1.955891 g / cm^3
# Si number density = 19.603527 Si / 1000 Ang^3
#
#
#
# Elastic Constant Matrix: (Units=GPa)
#
#
# Indices 1 2 3 4 5 6 
#
# 1 120.0749 20.7032 60.4855 -5.0489 2.5824 5.8613
# 2 20.7032 32.5600 20.6588 9.3931 -6.6888 4.0569
# 3 60.4855 20.6588 137.3217 8.0040 7.8530 -7.6013
# 4 -5.0489 9.3931 8.0040 32.6121 -4.7984 -7.6281
# 5 2.5824 -6.6888 7.8530 -4.7984 40.7677 -1.9542
# 6 5.8613 4.0569 -7.6013 -7.6281 -1.9542 17.3548
#
#
#
# Elastic Compliance Matrix: (Units=1/GPa)
#
#
# Indices 1 2 3 4 5 6 
#
# 1 0.012032 -0.005295 -0.004884 0.003738 -0.000412 -0.003368
# 2 -0.005295 0.045026 -0.004813 -0.015723 0.005980 -0.017082
# 3 -0.004884 -0.004813 0.010712 -0.000726 -0.002299 0.006888
# 4 0.003738 -0.015723 -0.000726 0.041226 0.003162 0.020571
# 5 -0.000412 0.005980 -0.002299 0.003162 0.026452 0.002102
# 6 -0.003368 -0.017082 0.006888 0.020571 0.002102 0.075047
#
#
# Mechanical properties :
#
#
# Convention : Reuss Voigt Hill
#
# Bulk Modulus (GPa) = 26.46403 54.85017 40.65710
# Shear Modulus (GPa) = 19.75715 30.68752 25.22234
#
# Velocity S-wave (km/s) = 3.17809 3.96082 3.59084
# Velocity P-wave (km/s) = 5.19576 6.99699 6.16254
#
# Compressibility (1/GPa) = 0.03778714
#
# Stress axis : x y z
#
# Youngs Moduli (GPa) = 83.11468 22.20960 93.34997
#
# Poissons Ratio (x) = 0.11760 0.45589
# Poissons Ratio (y) = 0.44008 0.44926
# Poissons Ratio (z) = 0.40591 0.10689
#
# Static dielectric constant tensor:
#      x y z
#    x 3.646900 0.048170 0.044680 
#    y 0.048170 3.226640 0.032210 
#    z 0.044680 0.032210 3.557920 
# 
# 
# High freq. dielectric constant tensor:
#      x y z
#    x 1.767280 0.003250 0.003260 
#    y 0.003250 1.728020 0.003790 
#    z 0.003260 0.003790 1.765320 
# 
# From -- ./inp_files/515014.got.cif
#   From: 2010.06.25/outbox.cif.g09.slc.cpg/sg2_258_cif.got.tgz:515014.got - 2010.06.27 13:26:56.
