data_PCOD8042580
_publ_section_title
;
Structure prediction by ZEFSAII (Michael W. Deem and Ramdas Pophale) SiO2 
 PCOD8042580
Probable space group: P -1
;
_chemical_formula_sum "Si O2"
_cell_formula_units_Z 16
_cell_length_a 12.305545
_cell_length_b 13.978989
_cell_length_c 8.646403
_cell_angle_alpha 73.728809
_cell_angle_beta 118.101696
_cell_angle_gamma 147.273625
_cell_volume 687.973437
_symmetry_space_group_name_H-M "P -1"
_symmetry_group_IT_number 2
_symmetry_cell_setting 'triclinic'
loop_
_space_group_symop_operation_xyz
x,y,z
-x,-y,-z
loop_
_atom_site_type_symbol
_atom_site_label
_atom_site_fract_x
_atom_site_fract_y
_atom_site_fract_z
Si Si1 0.183442 0.766001 0.979620
Si Si2 0.799454 0.633448 0.248708
Si Si3 0.192890 0.931387 0.154944
Si Si4 0.159770 0.224901 0.218576
Si Si5 0.675664 0.354687 0.831667
Si Si6 0.363304 0.149037 0.449109
Si Si7 0.502931 0.605253 0.105355
Si Si8 0.956277 0.192048 0.384873
O O1 0.199682 0.832183 0.795199
O O2 0.919697 0.567566 0.928006
O O3 0.286110 0.905626 0.120280
O O4 0.326721 0.762486 0.067879
O O5 0.746099 0.716628 0.203578
O O6 0.009508 0.759002 0.222180
O O7 0.862276 0.630032 0.459859
O O8 0.585291 0.436007 0.111821
O O9 0.386495 0.107475 0.317867
O O10 0.072414 0.934363 0.965870
O O11 0.266258 0.190090 0.324468
O O12 0.337786 0.417850 0.169008
O O13 0.103045 0.227977 0.347862
O O14 0.605044 0.318878 0.620514
O O15 0.491367 0.286079 0.848199
O O16 0.197525 0.982013 0.533270
#
# Coordination Sequence:
#
# PCOD8042580 Si02
#       8
#     2   2   2   2   2   2   2   2
#     4  10  22  42  66  74 119 159 201 234 291 334
#     4   9  18  32  58  84 119 149 178 235 301 336
#     4   9  19  41  58  85 122 159 179 237 297 349
#     4  10  19  35  59  86 120 158 185 230 294 357
#     4  11  22  39  62  89 106 160 204 240 273 348
#     4  11  23  33  61  89 119 144 202 236 289 345
#     4  10  19  35  58  88 123 148 185 242 292 342
#     4  10  20  37  57  84 118 158 186 241 287 346
#
# _framework density 23.256713999999999
#
# number of rings (size 3 to 8) (size 9 to 14) (size 15 to 20)
#    0.000    2.000    3.750    1.500    1.750    3.000 
#    0.000    4.375    0.000    0.000    0.000    0.000 
#    0.000    0.000    0.000    0.000    0.000    0.000 
#
# Total GULP energy -198273.686835 kJ/mol
# GULP energy per Si atom -12392.105427 kJ/mol
# Density = 2.320378 g / cm^3
# Si number density = 23.256714 Si / 1000 Ang^3
#
#
#
# Elastic Constant Matrix: (Units=GPa)
#
#
# Indices 1 2 3 4 5 6 
#
# 1 112.6220 25.8400 67.0837 -10.2477 -2.7830 -34.3653
# 2 25.8400 27.2340 20.3129 -12.4632 -0.6983 -10.9276
# 3 67.0837 20.3129 154.7968 2.6480 -37.6403 -29.1527
# 4 -10.2477 -12.4632 2.6480 26.4903 -3.8262 0.4576
# 5 -2.7830 -0.6983 -37.6403 -3.8262 36.1615 -3.6293
# 6 -34.3653 -10.9276 -29.1527 0.4576 -3.6293 31.8635
#
#
#
# Elastic Compliance Matrix: (Units=1/GPa)
#
#
# Indices 1 2 3 4 5 6 
#
# 1 0.017078 -0.006282 -0.005202 0.003585 -0.002724 0.011144
# 2 -0.006282 0.062229 -0.003615 0.027154 0.000930 0.010975
# 3 -0.005202 -0.003615 0.014420 -0.003125 0.015022 0.008100
# 4 0.003585 0.027154 -0.003125 0.052647 0.004125 0.010034
# 5 -0.002724 0.000930 0.015022 0.004125 0.045162 0.016211
# 6 0.011144 0.010975 0.008100 0.010034 0.016211 0.056280
#
#
# Mechanical properties :
#
#
# Convention : Reuss Voigt Hill
#
# Bulk Modulus (GPa) = 15.74045 57.90290 36.82167
# Shear Modulus (GPa) = 16.71173 30.99746 23.85460
#
# Velocity S-wave (km/s) = 2.68354 3.65477 3.20614
# Velocity P-wave (km/s) = 4.04779 6.53920 5.43809
#
# Compressibility (1/GPa) = 0.06353059
#
# Stress axis : x y z
#
# Youngs Moduli (GPa) = 58.55339 16.06956 69.34665
#
# Poissons Ratio (x) = 0.10095 0.36072
# Poissons Ratio (y) = 0.36784 0.25069
# Poissons Ratio (z) = 0.30458 0.05809
#
# Static dielectric constant tensor:
#      x y z
#    x 4.120410 -0.136410 -0.235600 
#    y -0.136410 3.878130 0.119480 
#    z -0.235600 0.119480 5.027580 
# 
# 
# High freq. dielectric constant tensor:
#      x y z
#    x 1.906550 -0.001750 -0.017870 
#    y -0.001750 1.890710 0.000870 
#    z -0.017870 0.000870 1.938400 
# 
# From -- ./inp_files/272999.got.cif
#   From: 2010.06.25/outbox.cif.g09.slc.cpg/sg2_137_cif.got.tgz:272999.got - 2010.06.27 13:26:56.
