data_PCOD8042191
_publ_section_title
;
Structure prediction by ZEFSAII (Michael W. Deem and Ramdas Pophale) SiO2 
 PCOD8042191
Probable space group: P -1
;
_chemical_formula_sum "Si O2"
_cell_formula_units_Z 14
_cell_length_a 13.019403
_cell_length_b 13.335726
_cell_length_c 12.885508
_cell_angle_alpha 130.189067
_cell_angle_beta 128.766740
_cell_angle_gamma 22.382755
_cell_volume 647.450334
_symmetry_space_group_name_H-M "P -1"
_symmetry_group_IT_number 2
_symmetry_cell_setting 'triclinic'
loop_
_space_group_symop_operation_xyz
x,y,z
-x,-y,-z
loop_
_atom_site_type_symbol
_atom_site_label
_atom_site_fract_x
_atom_site_fract_y
_atom_site_fract_z
Si Si1 0.376537 0.026583 0.224958
Si Si2 0.859646 0.298096 0.545060
Si Si3 0.581567 0.067807 0.045980
Si Si4 0.657055 0.003323 0.601523
Si Si5 0.369529 0.734617 0.383366
Si Si6 0.964078 0.609784 0.368991
Si Si7 0.846563 0.336054 0.794850
O O1 0.143565 0.328480 0.315557
O O2 0.336319 0.955023 0.245384
O O3 0.672985 0.830547 0.283395
O O4 0.319639 0.025711 0.073331
O O5 0.627610 0.456362 0.424370
O O6 0.784022 0.334076 0.639241
O O7 0.882402 0.436824 0.650072
O O8 0.146056 0.984873 0.488281
O O9 0.322310 0.387807 0.099288
O O10 0.835329 0.909200 0.160166
O O11 0.500000 0.000000 0.000000
O O12 0.534350 0.234031 0.614356
O O13 0.500000 0.000000 0.500000
O O14 0.938648 0.718695 0.532206
O O15 0.246982 0.711850 0.230129
#
# Coordination Sequence:
#
# PCOD8042191 Si02
#       7
#     2   2   2   2   2   2   2
#     4  11  21  37  57  86 119 153 197 244 289 339
#     4  11  20  37  61  88 119 152 187 238 301 357
#     4  12  25  42  62  86 116 160 204 242 282 343
#     4   9  20  37  61  90 119 151 191 242 295 350
#     4  11  23  38  60  91 121 152 191 241 300 354
#     4  10  19  34  59  90 116 147 188 245 300 346
#     4  12  24  41  60  87 121 157 197 242 290 347
#
# _framework density 21.623280000000001
#
# number of rings (size 3 to 8) (size 9 to 14) (size 15 to 20)
#    0.000    1.143    0.000    8.571    0.000    3.429 
#    0.000    1.429    0.000    0.000    0.000    0.000 
#    0.000    0.000    0.000    0.000    0.000    0.000 
#
# Total GULP energy -173440.562531 kJ/mol
# GULP energy per Si atom -12388.611609 kJ/mol
# Density = 2.157406 g / cm^3
# Si number density = 21.623280 Si / 1000 Ang^3
#
#
#
# Elastic Constant Matrix: (Units=GPa)
#
#
# Indices 1 2 3 4 5 6 
#
# 1 112.2244 18.9182 47.7364 -3.1123 5.2979 11.8709
# 2 18.9182 92.6944 10.5042 -10.5901 5.4097 -7.4455
# 3 47.7364 10.5042 70.8014 -3.2836 -3.4642 10.2984
# 4 -3.1123 -10.5901 -3.2836 31.5449 -5.2382 3.1563
# 5 5.2979 5.4097 -3.4642 -5.2382 48.4711 -5.0845
# 6 11.8709 -7.4455 10.2984 3.1563 -5.0845 24.6742
#
#
#
# Elastic Compliance Matrix: (Units=1/GPa)
#
#
# Indices 1 2 3 4 5 6 
#
# 1 0.013247 -0.001989 -0.008173 -0.000185 -0.002250 -0.004002
# 2 -0.001989 0.012058 -0.000972 0.003237 -0.000375 0.004510
# 3 -0.008173 -0.000972 0.020666 0.001858 0.002179 -0.004776
# 4 -0.000185 0.003237 0.001858 0.033816 0.003090 -0.003399
# 5 -0.002250 -0.000375 0.002179 0.003090 0.021845 0.004166
# 6 -0.004002 0.004510 -0.004776 -0.003399 0.004166 0.047101
#
#
# Mechanical properties :
#
#
# Convention : Reuss Voigt Hill
#
# Bulk Modulus (GPa) = 42.18823 47.78198 44.98510
# Shear Modulus (GPa) = 27.94825 34.17546 31.06185
#
# Velocity S-wave (km/s) = 3.59905 3.97986 3.79423
# Velocity P-wave (km/s) = 6.06826 6.57757 6.32804
#
# Compressibility (1/GPa) = 0.02370330
#
# Stress axis : x y z
#
# Youngs Moduli (GPa) = 75.48961 82.93134 48.38850
#
# Poissons Ratio (x) = 0.16492 0.39547
# Poissons Ratio (y) = 0.15012 0.04705
# Poissons Ratio (z) = 0.61697 0.08064
#
# Static dielectric constant tensor:
#      x y z
#    x 4.531240 0.193670 -0.124930 
#    y 0.193670 3.839540 0.049120 
#    z -0.124930 0.049120 3.765120 
# 
# 
# High freq. dielectric constant tensor:
#      x y z
#    x 1.866480 -0.000540 0.003390 
#    y -0.000540 1.860940 0.002860 
#    z 0.003390 0.002860 1.813000 
# 
# From -- ./inp_files/82954.got.cif
#   From: 2010.06.25/outbox.cif.g09.slc.cpg/sg2_42_cif.got.tgz:82954.got - 2010.06.27 13:26:56.
