data_PCOD8042965
_publ_section_title
;
Structure prediction by ZEFSAII (Michael W. Deem and Ramdas Pophale) SiO2 
 PCOD8042965
Probable space group: P -1
;
_chemical_formula_sum "Si O2"
_cell_formula_units_Z 14
_cell_length_a 9.454264
_cell_length_b 11.168377
_cell_length_c 7.704093
_cell_angle_alpha 105.847614
_cell_angle_beta 127.365257
_cell_angle_gamma 89.030484
_cell_volume 610.060997
_symmetry_space_group_name_H-M "P -1"
_symmetry_group_IT_number 2
_symmetry_cell_setting 'triclinic'
loop_
_space_group_symop_operation_xyz
x,y,z
-x,-y,-z
loop_
_atom_site_type_symbol
_atom_site_label
_atom_site_fract_x
_atom_site_fract_y
_atom_site_fract_z
Si Si1 0.964001 0.755332 0.978468
Si Si2 0.746444 0.549042 0.296741
Si Si3 0.036672 0.503272 0.254124
Si Si4 0.216433 0.778466 0.477786
Si Si5 0.623227 0.851913 0.857406
Si Si6 0.499841 0.707756 0.044501
Si Si7 0.791258 0.145272 0.103285
O O1 0.084917 0.826766 0.256812
O O2 0.033353 0.818442 0.872290
O O3 0.977208 0.604055 0.950456
O O4 0.755322 0.768404 0.836769
O O5 0.898871 0.575208 0.567599
O O6 0.648654 0.670818 0.270920
O O7 0.843004 0.537463 0.176462
O O8 0.599238 0.421509 0.175555
O O9 0.189111 0.626648 0.383713
O O10 0.427002 0.832385 0.609813
O O11 0.163537 0.817053 0.647293
O O12 0.596803 0.810551 0.020352
O O13 0.714485 0.997649 0.974533
O O14 0.350904 0.774327 0.053694
#
# Coordination Sequence:
#
# PCOD8042965 Si02
#       7
#     2   2   2   2   2   2   2
#     4  12  26  42  68 104 134 181 225 270 343 401
#     4  10  19  35  70  97 131 172 222 271 336 404
#     4  11  20  41  63  98 144 171 212 287 340 397
#     4  11  24  45  69  99 136 177 225 281 336 393
#     4  11  25  45  67  99 138 178 230 276 326 403
#     4  10  19  39  66 100 124 174 227 267 333 396
#     4  11  23  48  71  92 141 180 222 281 329 396
#
# _framework density 22.948523999999999
#
# number of rings (size 3 to 8) (size 9 to 14) (size 15 to 20)
#    0.000    1.143    4.286    4.286    0.000    2.857 
#    0.000    5.714    0.000    0.000    0.000    0.000 
#    0.000    0.000    0.000    0.000    0.000    0.000 
#
# Total GULP energy -173576.964447 kJ/mol
# GULP energy per Si atom -12398.354603 kJ/mol
# Density = 2.289629 g / cm^3
# Si number density = 22.948524 Si / 1000 Ang^3
#
#
#
# Elastic Constant Matrix: (Units=GPa)
#
#
# Indices 1 2 3 4 5 6 
#
# 1 85.1839 -15.1147 24.0559 -6.0397 5.6677 -2.5193
# 2 -15.1147 59.3580 1.9308 15.8172 6.0619 1.1471
# 3 24.0559 1.9308 87.4216 3.9154 1.7638 -2.4600
# 4 -6.0397 15.8172 3.9154 37.2024 -1.7845 16.6719
# 5 5.6677 6.0619 1.7638 -1.7845 24.9055 6.0979
# 6 -2.5193 1.1471 -2.4600 16.6719 6.0979 36.9454
#
#
#
# Elastic Compliance Matrix: (Units=1/GPa)
#
#
# Indices 1 2 3 4 5 6 
#
# 1 0.013841 0.003979 -0.003793 0.000249 -0.004109 0.001133
# 2 0.003979 0.021763 -0.000701 -0.011746 -0.008526 0.006257
# 3 -0.003793 -0.000701 0.012670 -0.002484 -0.000484 0.001808
# 4 0.000249 -0.011746 -0.002484 0.041892 0.011000 -0.020503
# 5 -0.004109 -0.008526 -0.000484 0.011000 0.047116 -0.012788
# 6 0.001133 0.006257 0.001808 -0.020503 -0.012788 0.038433
#
#
# Mechanical properties :
#
#
# Convention : Reuss Voigt Hill
#
# Bulk Modulus (GPa) = 21.16707 28.18973 24.67840
# Shear Modulus (GPa) = 25.97504 34.55010 30.26257
#
# Velocity S-wave (km/s) = 3.36800 3.88435 3.63535
# Velocity P-wave (km/s) = 4.93642 5.69457 5.32900
#
# Compressibility (1/GPa) = 0.04724320
#
# Stress axis : x y z
#
# Youngs Moduli (GPa) = 72.24868 45.95017 78.92713
#
# Poissons Ratio (x) = -0.18284 0.29936
# Poissons Ratio (y) = -0.28749 0.05536
# Poissons Ratio (z) = 0.27403 0.03223
#
# Static dielectric constant tensor:
#      x y z
#    x 4.163120 -0.045430 0.075390 
#    y -0.045430 4.223980 -0.155850 
#    z 0.075390 -0.155850 4.146860 
# 
# 
# High freq. dielectric constant tensor:
#      x y z
#    x 1.905320 0.005920 0.013230 
#    y 0.005920 1.910320 -0.002870 
#    z 0.013230 -0.002870 1.893330 
# 
# From -- ./inp_files/182873.got.cif
#   From: 2010.06.25/outbox.cif.g09.slc.cpg/sg2_92_cif.got.tgz:182873.got - 2010.06.27 13:26:56.
