data_PCOD8042018
_publ_section_title
;
Structure prediction by ZEFSAII (Michael W. Deem and Ramdas Pophale) SiO2 
 PCOD8042018
Probable space group: P -1
;
_chemical_formula_sum "Si O2"
_cell_formula_units_Z 16
_cell_length_a 10.297482
_cell_length_b 16.248405
_cell_length_c 17.585935
_cell_angle_alpha 144.515274
_cell_angle_beta 142.058897
_cell_angle_gamma 32.351046
_cell_volume 864.560736
_symmetry_space_group_name_H-M "P -1"
_symmetry_group_IT_number 2
_symmetry_cell_setting 'triclinic'
loop_
_space_group_symop_operation_xyz
x,y,z
-x,-y,-z
loop_
_atom_site_type_symbol
_atom_site_label
_atom_site_fract_x
_atom_site_fract_y
_atom_site_fract_z
Si Si1 0.302118 0.211290 0.320437
Si Si2 0.004119 0.510029 0.121549
Si Si3 0.760841 0.346976 0.154467
Si Si4 0.799353 0.082082 0.537676
Si Si5 0.534833 0.147314 0.852079
Si Si6 0.764790 0.393322 0.816502
Si Si7 0.991414 0.481964 0.267909
Si Si8 0.340647 0.123870 0.589979
O O1 0.501032 0.205331 0.466126
O O2 0.018148 0.276595 0.271644
O O3 0.255476 0.344394 0.331809
O O4 0.413889 0.015474 0.198228
O O5 0.744636 0.697703 0.135663
O O6 0.074977 0.450034 0.195238
O O7 0.224771 0.520112 0.191854
O O8 0.964450 0.378572 0.959289
O O9 0.525389 0.490668 0.202699
O O10 0.786285 0.434330 0.155456
O O11 0.738273 0.192273 0.000834
O O12 0.855105 0.198767 0.700537
O O13 0.832626 0.932389 0.493592
O O14 0.000000 0.000000 0.500000
O O15 0.535863 0.113573 0.736100
O O16 0.860802 0.679506 0.382469
O O17 0.500000 0.000000 0.500000
#
# Coordination Sequence:
#
# PCOD8042018 Si02
#       8
#     2   2   2   2   2   2   2   2
#     4   9  20  35  56  80 110 141 180 225 266 329
#     4   9  19  35  59  81 108 137 180 232 258 318
#     4   9  19  32  58  79 107 140 180 224 270 318
#     4  11  22  38  60  75 105 152 185 213 269 337
#     4   9  17  34  56  79 107 149 182 215 268 324
#     4  10  19  34  56  84 104 141 187 217 265 322
#     4   9  19  35  54  80 111 140 176 228 275 300
#     4  10  20  34  52  82 114 141 181 227 261 314
#
# _framework density 18.506509000000001
#
# number of rings (size 3 to 8) (size 9 to 14) (size 15 to 20)
#    0.750    1.750    0.000    3.375    0.000    6.000 
#    2.250    2.500    0.000   10.500    0.000    0.000 
#    0.000    0.000    0.000    0.000    0.000    0.000 
#
# Total GULP energy -198216.508284 kJ/mol
# GULP energy per Si atom -12388.531768 kJ/mol
# Density = 1.846439 g / cm^3
# Si number density = 18.506509 Si / 1000 Ang^3
#
#
#
# Elastic Constant Matrix: (Units=GPa)
#
#
# Indices 1 2 3 4 5 6 
#
# 1 82.7179 0.6877 19.8809 6.6131 -3.7175 12.0975
# 2 0.6877 70.9953 20.7534 13.9624 2.5768 27.5526
# 3 19.8809 20.7534 100.8228 22.8513 -1.7745 7.8191
# 4 6.6131 13.9624 22.8513 27.0946 -1.2127 10.9237
# 5 -3.7175 2.5768 -1.7745 -1.2127 29.1092 3.0529
# 6 12.0975 27.5526 7.8191 10.9237 3.0529 24.2200
#
#
#
# Elastic Compliance Matrix: (Units=1/GPa)
#
#
# Indices 1 2 3 4 5 6 
#
# 1 0.014942 0.005951 -0.003497 0.002180 0.002773 -0.014437
# 2 0.005951 0.028568 -0.004773 0.002070 0.001705 -0.035079
# 3 -0.003497 -0.004773 0.013533 -0.011344 -0.000509 0.007987
# 4 0.002180 0.002070 -0.011344 0.055251 0.004354 -0.025250
# 5 0.002773 0.001705 -0.000509 0.004354 0.035717 -0.009626
# 6 -0.014437 -0.035079 0.007987 -0.025250 -0.009626 0.098428
#
#
# Mechanical properties :
#
#
# Convention : Reuss Voigt Hill
#
# Bulk Modulus (GPa) = 19.08199 37.46445 28.27322
# Shear Modulus (GPa) = 18.61898 30.29904 24.45901
#
# Velocity S-wave (km/s) = 3.17531 4.05063 3.63939
# Velocity P-wave (km/s) = 4.87615 6.49344 5.74202
#
# Compressibility (1/GPa) = 0.05240545
#
# Stress axis : x y z
#
# Youngs Moduli (GPa) = 66.92511 35.00464 73.89371
#
# Poissons Ratio (x) = -0.20831 0.25841
# Poissons Ratio (y) = -0.39827 0.35266
# Poissons Ratio (z) = 0.23404 0.16706
#
# Static dielectric constant tensor:
#      x y z
#    x 3.375860 0.037060 0.121460 
#    y 0.037060 3.300030 0.168640 
#    z 0.121460 0.168640 3.607640 
# 
# 
# High freq. dielectric constant tensor:
#      x y z
#    x 1.711000 -0.000150 0.011850 
#    y -0.000150 1.700080 0.019150 
#    z 0.011850 0.019150 1.722110 
# 
# From -- ./inp_files/561185.got.cif
#   From: 2010.06.25/outbox.cif.g09.slc.cpg/sg2_281_cif.got.tgz:561185.got - 2010.06.27 13:26:56.
