data_PCOD8042707
_publ_section_title
;
Structure prediction by ZEFSAII (Michael W. Deem and Ramdas Pophale) SiO2 
 PCOD8042707
Probable space group: P -1
;
_chemical_formula_sum "Si O2"
_cell_formula_units_Z 14
_cell_length_a 21.339186
_cell_length_b 11.409980
_cell_length_c 8.701710
_cell_angle_alpha 50.117159
_cell_angle_beta 79.517157
_cell_angle_gamma 38.345072
_cell_volume 744.932077
_symmetry_space_group_name_H-M "P -1"
_symmetry_group_IT_number 2
_symmetry_cell_setting 'triclinic'
loop_
_space_group_symop_operation_xyz
x,y,z
-x,-y,-z
loop_
_atom_site_type_symbol
_atom_site_label
_atom_site_fract_x
_atom_site_fract_y
_atom_site_fract_z
Si Si1 0.515362 0.572916 0.702242
Si Si2 0.019389 0.286957 0.116927
Si Si3 0.358002 0.253433 0.432088
Si Si4 0.749695 0.670903 0.866029
Si Si5 0.272848 0.691732 0.327801
Si Si6 0.536786 0.633804 0.984444
Si Si7 0.749871 0.367565 0.290505
O O1 0.639135 0.344739 0.721863
O O2 0.480678 0.467054 0.802084
O O3 0.387772 0.940012 0.389441
O O4 0.561267 0.520427 0.897248
O O5 0.875214 0.519748 0.944772
O O6 0.115124 0.078479 0.096193
O O7 0.095813 0.028599 0.435061
O O8 0.000000 0.500000 0.000000
O O9 0.247071 0.428019 0.212877
O O10 0.287218 0.541188 0.310262
O O11 0.500000 0.000000 0.500000
O O12 0.399724 0.028425 0.719465
O O13 0.755703 0.536136 0.114957
O O14 0.326782 0.499562 0.623861
O O15 0.669216 0.452805 0.119589
#
# Coordination Sequence:
#
# PCOD8042707 Si02
#       7
#     2   2   2   2   2   2   2
#     4  10  20  36  60  91 115 158 196 242 295 344
#     4  10  24  42  57  84 124 158 194 241 297 351
#     4  11  19  39  62  91 117 151 193 251 288 344
#     4  11  20  39  67  82 121 160 194 238 303 343
#     4  10  22  38  58  92 116 153 200 242 288 347
#     4  10  19  35  60  88 123 151 192 244 302 339
#     4  10  21  36  60  87 116 155 198 240 293 349
#
# _framework density 18.793659000000002
#
# number of rings (size 3 to 8) (size 9 to 14) (size 15 to 20)
#    0.857    0.857    4.286    1.286    0.000    3.429 
#    2.571    0.000    0.000   11.143    0.000    0.000 
#    0.000    0.000    0.000    0.000    0.000    0.000 
#
# Total GULP energy -173532.802483 kJ/mol
# GULP energy per Si atom -12395.200177 kJ/mol
# Density = 1.875088 g / cm^3
# Si number density = 18.793659 Si / 1000 Ang^3
#
#
#
# Elastic Constant Matrix: (Units=GPa)
#
#
# Indices 1 2 3 4 5 6 
#
# 1 137.0862 51.9885 47.4100 -6.0626 -3.0636 -12.5605
# 2 51.9885 89.3441 22.7191 -4.9468 -5.8605 -7.3371
# 3 47.4100 22.7191 83.8982 8.9035 -10.3932 -11.0334
# 4 -6.0626 -4.9468 8.9035 11.7257 0.0909 -1.7124
# 5 -3.0636 -5.8605 -10.3932 0.0909 48.3225 0.0675
# 6 -12.5605 -7.3371 -11.0334 -1.7124 0.0675 30.7314
#
#
#
# Elastic Compliance Matrix: (Units=1/GPa)
#
#
# Indices 1 2 3 4 5 6 
#
# 1 0.011793 -0.004679 -0.006258 0.009173 -0.001186 0.001970
# 2 -0.004679 0.014796 -0.001600 0.005224 0.001142 0.001334
# 3 -0.006258 -0.001600 0.018542 -0.017618 0.003426 0.002728
# 4 0.009173 0.005224 -0.017618 0.106301 -0.002781 0.004600
# 5 -0.001186 0.001142 0.003426 -0.002781 0.021499 0.000816
# 6 0.001970 0.001334 0.002728 0.004600 0.000816 0.034898
#
#
# Mechanical properties :
#
#
# Convention : Reuss Voigt Hill
#
# Bulk Modulus (GPa) = 49.86005 61.61820 55.73913
# Shear Modulus (GPa) = 20.86912 30.70330 25.78621
#
# Velocity S-wave (km/s) = 3.33593 4.04630 3.70816
# Velocity P-wave (km/s) = 6.43629 7.39513 6.93230
#
# Compressibility (1/GPa) = 0.02005614
#
# Stress axis : x y z
#
# Youngs Moduli (GPa) = 84.79427 67.58604 53.93171
#
# Poissons Ratio (x) = 0.31624 0.33753
# Poissons Ratio (y) = 0.39676 0.08629
# Poissons Ratio (z) = 0.53068 0.10813
#
# Static dielectric constant tensor:
#      x y z
#    x 3.633870 -0.028710 -0.214880 
#    y -0.028710 3.178420 0.079770 
#    z -0.214880 0.079770 3.582630 
# 
# 
# High freq. dielectric constant tensor:
#      x y z
#    x 1.742910 0.001250 -0.009850 
#    y 0.001250 1.699100 0.007280 
#    z -0.009850 0.007280 1.731780 
# 
# From -- ./inp_files/302429.got.cif
#   From: 2010.06.25/outbox.cif.g09.slc.cpg/sg2_152_cif.got.tgz:302429.got - 2010.06.27 13:26:56.
