data_PCOD8042067
_publ_section_title
;
Structure prediction by ZEFSAII (Michael W. Deem and Ramdas Pophale) SiO2 
 PCOD8042067
Probable space group: P -1
;
_chemical_formula_sum "Si O2"
_cell_formula_units_Z 16
_cell_length_a 11.681625
_cell_length_b 18.988524
_cell_length_c 7.555861
_cell_angle_alpha 38.313561
_cell_angle_beta 126.042903
_cell_angle_gamma 132.703773
_cell_volume 757.740415
_symmetry_space_group_name_H-M "P -1"
_symmetry_group_IT_number 2
_symmetry_cell_setting 'triclinic'
loop_
_space_group_symop_operation_xyz
x,y,z
-x,-y,-z
loop_
_atom_site_type_symbol
_atom_site_label
_atom_site_fract_x
_atom_site_fract_y
_atom_site_fract_z
Si Si1 0.468343 0.003380 0.671617
Si Si2 0.776003 0.903276 0.629925
Si Si3 0.811452 0.111498 0.772081
Si Si4 0.881142 0.651779 0.873737
Si Si5 0.778460 0.246040 0.131083
Si Si6 0.171545 0.509341 0.166529
Si Si7 0.107526 0.093493 0.653230
Si Si8 0.873967 0.694791 0.180936
O O1 0.357924 0.857256 0.911066
O O2 0.500000 0.000000 0.500000
O O3 0.385244 0.092925 0.466545
O O4 0.639033 0.061763 0.805832
O O5 0.789475 0.900329 0.437386
O O6 0.778343 0.777941 0.964204
O O7 0.921536 0.030379 0.574426
O O8 0.822743 0.178226 0.465500
O O9 0.940383 0.208951 0.830784
O O10 0.847723 0.990271 0.001449
O O11 0.779595 0.528434 0.904680
O O12 0.851600 0.764416 0.531460
O O13 0.064795 0.680856 0.983915
O O14 0.830207 0.631199 0.072360
O O15 0.718657 0.347227 0.956181
O O16 0.176287 0.414708 0.506435
O O17 0.000000 0.500000 0.000000
#
# Coordination Sequence:
#
# PCOD8042067 Si02
#       8
#     2   2   2   2   2   2   2   2
#     4  10  21  35  53  79 118 155 177 224 287 341
#     4   9  18  34  53  80 115 141 186 234 276 334
#     4  10  20  34  54  84 115 144 182 221 288 339
#     4  10  19  34  57  82 113 141 182 237 282 321
#     4  10  20  36  50  81 118 145 185 232 275 333
#     4  10  20  35  54  84 114 141 189 242 271 323
#     4   9  18  32  55  83 108 143 186 237 278 328
#     4  10  20  36  59  88 107 144 189 233 287 323
#
# _framework density 21.115411000000002
#
# number of rings (size 3 to 8) (size 9 to 14) (size 15 to 20)
#    0.000    2.250    3.750    0.750    0.000    5.000 
#    0.000    0.000    0.000    6.750    0.000    8.750 
#    0.000    0.000    0.000    0.000    0.000    0.000 
#
# Total GULP energy -198258.245908 kJ/mol
# GULP energy per Si atom -12391.140369 kJ/mol
# Density = 2.106735 g / cm^3
# Si number density = 21.115411 Si / 1000 Ang^3
#
#
#
# Elastic Constant Matrix: (Units=GPa)
#
#
# Indices 1 2 3 4 5 6 
#
# 1 71.0080 29.2534 5.0968 -1.3525 23.1870 -7.1007
# 2 29.2534 68.9206 38.4980 -8.3412 15.7647 -11.4349
# 3 5.0968 38.4980 79.2887 -5.8520 7.9118 -14.1968
# 4 -1.3525 -8.3412 -5.8520 16.9004 -5.6001 6.5315
# 5 23.1870 15.7647 7.9118 -5.6001 30.6718 0.0899
# 6 -7.1007 -11.4349 -14.1968 6.5315 0.0899 31.1971
#
#
#
# Elastic Compliance Matrix: (Units=1/GPa)
#
#
# Indices 1 2 3 4 5 6 
#
# 1 0.022910 -0.008901 0.004849 -0.008326 -0.015533 0.005946
# 2 -0.008901 0.026121 -0.011157 0.007096 -0.002526 0.000993
# 3 0.004849 -0.011157 0.018980 -0.001953 -0.003202 0.006069
# 4 -0.008326 0.007096 -0.001953 0.072768 0.016482 -0.015465
# 5 -0.015533 -0.002526 -0.003202 0.016482 0.049507 -0.009512
# 6 0.005946 0.000993 0.006069 -0.015465 -0.009512 0.039799
#
#
# Mechanical properties :
#
#
# Convention : Reuss Voigt Hill
#
# Bulk Modulus (GPa) = 26.60063 40.54598 33.57330
# Shear Modulus (GPa) = 18.31279 25.51179 21.91229
#
# Velocity S-wave (km/s) = 2.94814 3.47970 3.22489
# Velocity P-wave (km/s) = 4.92075 5.94880 5.45903
#
# Compressibility (1/GPa) = 0.03759309
#
# Stress axis : x y z
#
# Youngs Moduli (GPa) = 43.64909 38.28340 52.68774
#
# Poissons Ratio (x) = 0.34076 -0.25550
# Poissons Ratio (y) = 0.38852 0.58784
# Poissons Ratio (z) = -0.21167 0.42713
#
# Static dielectric constant tensor:
#      x y z
#    x 3.730760 -0.034530 0.268890 
#    y -0.034530 4.334110 -0.288400 
#    z 0.268890 -0.288400 4.000000 
# 
# 
# High freq. dielectric constant tensor:
#      x y z
#    x 1.807650 -0.025770 0.011970 
#    y -0.025770 1.800540 -0.010260 
#    z 0.011970 -0.010260 1.828430 
# 
# From -- ./inp_files/282644.got.cif
#   From: 2010.06.25/outbox.cif.g09.slc.cpg/sg2_142_cif.got.tgz:282644.got - 2010.06.27 13:26:56.
