data_PCOD8042294
_publ_section_title
;
Structure prediction by ZEFSAII (Michael W. Deem and Ramdas Pophale) SiO2 
 PCOD8042294
Probable space group: P -1
;
_chemical_formula_sum "Si O2"
_cell_formula_units_Z 16
_cell_length_a 8.657740
_cell_length_b 12.360831
_cell_length_c 14.401971
_cell_angle_alpha 70.497299
_cell_angle_beta 146.935695
_cell_angle_gamma 101.341880
_cell_volume 782.210110
_symmetry_space_group_name_H-M "P -1"
_symmetry_group_IT_number 2
_symmetry_cell_setting 'triclinic'
loop_
_space_group_symop_operation_xyz
x,y,z
-x,-y,-z
loop_
_atom_site_type_symbol
_atom_site_label
_atom_site_fract_x
_atom_site_fract_y
_atom_site_fract_z
Si Si1 0.115825 0.833116 0.327258
Si Si2 0.998860 0.035488 0.332675
Si Si3 0.513208 0.775804 0.029692
Si Si4 0.246463 0.794661 0.194522
Si Si5 0.361677 0.373869 0.684484
Si Si6 0.717591 0.366501 0.391108
Si Si7 0.383007 0.026572 0.692563
Si Si8 0.616663 0.759655 0.882670
O O1 0.256191 0.812001 0.304042
O O2 0.262197 0.721096 0.488529
O O3 0.769275 0.850973 0.147338
O O4 0.181510 0.953400 0.371048
O O5 0.216504 0.083742 0.500488
O O6 0.817581 0.951648 0.323711
O O7 0.795632 0.141850 0.149939
O O8 0.516916 0.684002 0.140675
O O9 0.579112 0.711542 0.981725
O O10 0.477314 0.687357 0.306215
O O11 0.335823 0.913883 0.163160
O O12 0.940203 0.769767 0.013575
O O13 0.413486 0.506339 0.673830
O O14 0.028564 0.366903 0.502664
O O15 0.500064 0.330708 0.216645
O O16 0.442416 0.888588 0.748012
#
# Coordination Sequence:
#
# PCOD8042294 Si02
#       8
#     2   2   2   2   2   2   2   2
#     4  10  20  38  58  86 124 158 190 240 301 351
#     4  10  19  34  62  89 118 158 194 243 291 352
#     4   9  20  35  59  90 119 153 195 241 295 347
#     4  11  24  37  57  88 127 154 194 244 296 352
#     4  10  23  41  63  89 114 157 205 247 283 350
#     4  10  21  43  67  82 116 159 204 243 289 350
#     4  10  20  35  60  91 120 156 196 240 293 354
#     4  10  21  39  61  88 123 157 186 246 305 350
#
# _framework density 20.454861999999999
#
# number of rings (size 3 to 8) (size 9 to 14) (size 15 to 20)
#    0.000    2.000    1.250    2.250    3.500    5.000 
#    2.250    0.000    0.000    0.000    0.000    0.000 
#    0.000    0.000    0.000    0.000    0.000    0.000 
#
# Total GULP energy -198364.247463 kJ/mol
# GULP energy per Si atom -12397.765466 kJ/mol
# Density = 2.040831 g / cm^3
# Si number density = 20.454862 Si / 1000 Ang^3
#
#
#
# Elastic Constant Matrix: (Units=GPa)
#
#
# Indices 1 2 3 4 5 6 
#
# 1 82.6730 33.4933 35.4387 7.0967 9.4648 -20.2393
# 2 33.4933 95.5231 32.3544 11.9912 9.7400 -11.0200
# 3 35.4387 32.3544 82.0247 7.3479 -1.6320 -2.4740
# 4 7.0967 11.9912 7.3479 34.3403 -3.2190 0.9295
# 5 9.4648 9.7400 -1.6320 -3.2190 20.9159 0.3974
# 6 -20.2393 -11.0200 -2.4740 0.9295 0.3974 27.8576
#
#
#
# Elastic Compliance Matrix: (Units=1/GPa)
#
#
# Indices 1 2 3 4 5 6 
#
# 1 0.021110 -0.001582 -0.007961 -0.003453 -0.010240 0.014266
# 2 -0.001582 0.014374 -0.004593 -0.004494 -0.007111 0.004380
# 3 -0.007961 -0.004593 0.017367 0.000382 0.007272 -0.006175
# 4 -0.003453 -0.004494 0.000382 0.032290 0.008758 -0.005455
# 5 -0.010240 -0.007111 0.007272 0.008758 0.057875 -0.010724
# 6 0.014266 0.004380 -0.006175 -0.005455 -0.010724 0.047780
#
#
# Mechanical properties :
#
#
# Convention : Reuss Voigt Hill
#
# Bulk Modulus (GPa) = 40.68494 51.42151 46.05322
# Shear Modulus (GPa) = 22.00117 27.21838 24.60977
#
# Velocity S-wave (km/s) = 3.28319 3.65177 3.47237
# Velocity P-wave (km/s) = 5.85711 6.55547 6.21610
#
# Compressibility (1/GPa) = 0.02457912
#
# Stress axis : x y z
#
# Youngs Moduli (GPa) = 47.36998 69.57200 57.58130
#
# Poissons Ratio (x) = 0.11009 0.45839
# Poissons Ratio (y) = 0.07496 0.26445
# Poissons Ratio (z) = 0.37710 0.31952
#
# Static dielectric constant tensor:
#      x y z
#    x 3.793300 -0.137310 -0.078820 
#    y -0.137310 3.547640 0.105970 
#    z -0.078820 0.105970 3.773980 
# 
# 
# High freq. dielectric constant tensor:
#      x y z
#    x 1.796590 -0.013170 -0.002990 
#    y -0.013170 1.783440 0.009080 
#    z -0.002990 0.009080 1.800460 
# 
# From -- ./inp_files/181824.got.cif
#   From: 2010.06.25/outbox.cif.g09.slc.cpg/sg2_91_cif.got.tgz:181824.got - 2010.06.27 13:26:56.
