data_PCOD8042315
_publ_section_title
;
Structure prediction by ZEFSAII (Michael W. Deem and Ramdas Pophale) SiO2 
 PCOD8042315
Probable space group: P -1
;
_chemical_formula_sum "Si O2"
_cell_formula_units_Z 16
_cell_length_a 18.813702
_cell_length_b 10.315377
_cell_length_c 8.839471
_cell_angle_alpha 54.783270
_cell_angle_beta 115.738322
_cell_angle_gamma 73.431466
_cell_volume 865.809525
_symmetry_space_group_name_H-M "P -1"
_symmetry_group_IT_number 2
_symmetry_cell_setting 'triclinic'
loop_
_space_group_symop_operation_xyz
x,y,z
-x,-y,-z
loop_
_atom_site_type_symbol
_atom_site_label
_atom_site_fract_x
_atom_site_fract_y
_atom_site_fract_z
Si Si1 0.351120 0.081476 0.169898
Si Si2 0.763062 0.358559 0.891056
Si Si3 0.440337 0.115366 0.710669
Si Si4 0.579957 0.153928 0.291561
Si Si5 0.195265 0.609984 0.745217
Si Si6 0.249370 0.906950 0.125073
Si Si7 0.663505 0.351126 0.316373
Si Si8 0.959580 0.978068 0.132009
O O1 0.460162 0.980245 0.247135
O O2 0.405612 0.928232 0.471298
O O3 0.279247 0.048776 0.037283
O O4 0.265970 0.348931 0.949293
O O5 0.659194 0.610277 0.555163
O O6 0.727588 0.223751 0.923319
O O7 0.785960 0.367167 0.079684
O O8 0.877888 0.220836 0.987849
O O9 0.377945 0.043461 0.650865
O O10 0.500000 0.000000 0.000000
O O11 0.652016 0.209816 0.296931
O O12 0.445954 0.377342 0.988240
O O13 0.228212 0.707999 0.601307
O O14 0.062592 0.772734 0.475283
O O15 0.326803 0.711930 0.457835
O O16 0.115204 0.072862 0.937373
O O17 0.000000 0.000000 0.000000
#
# Coordination Sequence:
#
# PCOD8042315 Si02
#       8
#     2   2   2   2   2   2   2   2
#     4  11  23  38  63  91 123 159 192 248 304 356
#     4  10  23  38  59  93 118 155 201 246 295 351
#     4  12  23  36  61  91 129 153 198 241 306 357
#     4  10  20  37  55  91 121 155 196 238 296 365
#     4  12  20  38  68  85 120 157 204 244 300 350
#     4   9  22  41  57  92 118 158 205 240 299 352
#     4  10  19  34  63  85 118 161 197 233 296 364
#     4  10  22  41  66  83 115 163 210 243 293 352
#
# _framework density 18.479814999999999
#
# number of rings (size 3 to 8) (size 9 to 14) (size 15 to 20)
#    0.750    0.750    3.750    2.250    1.750    2.000 
#    0.000    0.000    0.000    1.500    0.000    0.000 
#    0.000    0.000    0.000    0.000    0.000    0.000 
#
# Total GULP energy -198272.137240 kJ/mol
# GULP energy per Si atom -12392.008577 kJ/mol
# Density = 1.843775 g / cm^3
# Si number density = 18.479815 Si / 1000 Ang^3
#
#
#
# Elastic Constant Matrix: (Units=GPa)
#
#
# Indices 1 2 3 4 5 6 
#
# 1 58.4142 36.3958 30.1454 -18.0100 2.3711 20.1438
# 2 36.3958 112.1533 42.5758 -16.0289 -0.4506 13.3766
# 3 30.1454 42.5758 109.9145 0.6510 12.4377 -3.3868
# 4 -18.0100 -16.0289 0.6510 21.8454 -4.8293 7.3154
# 5 2.3711 -0.4506 12.4377 -4.8293 25.2846 4.4539
# 6 20.1438 13.3766 -3.3868 7.3154 4.4539 29.9346
#
#
#
# Elastic Compliance Matrix: (Units=1/GPa)
#
#
# Indices 1 2 3 4 5 6 
#
# 1 -0.364957 -0.099502 0.187305 -0.604358 -0.262846 0.498045
# 2 -0.099502 -0.010419 0.042799 -0.144907 -0.060886 0.120927
# 3 0.187305 0.042799 -0.082196 0.297918 0.123811 -0.245693
# 4 -0.604358 -0.144907 0.297918 -0.922924 -0.408138 0.791417
# 5 -0.262846 -0.060886 0.123811 -0.408138 -0.135274 0.337958
# 6 0.498045 0.120927 -0.245693 0.791417 0.337958 -0.627265
#
#
# Mechanical properties :
#
#
# Convention : Reuss Voigt Hill
#
# Bulk Modulus (GPa) = -5.09248 55.41289 25.16021
# Shear Modulus (GPa) = -2.02454 26.83725 12.40635
#
# Velocity S-wave (km/s) = -1.04782 3.81497 2.59385
# Velocity P-wave (km/s) = 2.05562 7.03250 4.75555
#
# Compressibility (1/GPa) = -0.19636814
#
# Stress axis : x y z
#
# Youngs Moduli (GPa) = -2.74005 -95.98263 -12.16604
#
# Poissons Ratio (x) = -9.55049 2.27876
# Poissons Ratio (y) = -0.27264 0.52070
# Poissons Ratio (z) = 0.51322 4.10799
#
# Static dielectric constant tensor:
#      x y z
#    x 3.572330 0.303910 0.066160 
#    y 0.303910 3.495580 0.026760 
#    z 0.066160 0.026760 3.444320 
# 
# 
# High freq. dielectric constant tensor:
#      x y z
#    x 1.704900 0.014380 0.004020 
#    y 0.014380 1.717300 0.010200 
#    z 0.004020 0.010200 1.726340 
# 
# From -- ./inp_files/217295.got.cif
#   From: 2010.06.25/outbox.cif.g09.slc.cpg/sg2_109_cif.got.tgz:217295.got - 2010.06.27 13:26:56.
