data_PCOD8042973
_publ_section_title
;
Structure prediction by ZEFSAII (Michael W. Deem and Ramdas Pophale) SiO2 
 PCOD8042973
Probable space group: P -1
;
_chemical_formula_sum "Si O2"
_cell_formula_units_Z 16
_cell_length_a 14.024716
_cell_length_b 12.667884
_cell_length_c 9.466464
_cell_angle_alpha 64.144658
_cell_angle_beta 40.850127
_cell_angle_gamma 88.763536
_cell_volume 843.292865
_symmetry_space_group_name_H-M "P -1"
_symmetry_group_IT_number 2
_symmetry_cell_setting 'triclinic'
loop_
_space_group_symop_operation_xyz
x,y,z
-x,-y,-z
loop_
_atom_site_type_symbol
_atom_site_label
_atom_site_fract_x
_atom_site_fract_y
_atom_site_fract_z
Si Si1 0.731700 0.653798 0.347103
Si Si2 0.194993 0.573615 0.692119
Si Si3 0.821820 0.894351 0.934921
Si Si4 0.900471 0.806854 0.611688
Si Si5 0.216932 0.617342 0.110827
Si Si6 0.468351 0.722212 0.532942
Si Si7 0.922175 0.358323 0.476745
Si Si8 0.699811 0.593541 0.732203
O O1 0.749909 0.535950 0.326913
O O2 0.537659 0.618523 0.548319
O O3 0.774454 0.668035 0.456224
O O4 0.867140 0.802520 0.038899
O O5 0.323184 0.675984 0.605821
O O6 0.215507 0.660374 0.476331
O O7 0.000000 0.500000 0.000000
O O8 0.812375 0.842706 0.814924
O O9 0.960894 0.053769 0.704491
O O10 0.634452 0.866364 0.209684
O O11 0.994233 0.730026 0.610157
O O12 0.753236 0.710684 0.722112
O O13 0.167149 0.694789 0.237425
O O14 0.230868 0.504744 0.252224
O O15 0.065208 0.522865 0.225344
O O16 0.385248 0.729921 0.770781
O O17 0.500000 0.500000 0.000000
#
# Coordination Sequence:
#
# PCOD8042973 Si02
#       8
#     2   2   2   2   2   2   2   2
#     4  10  22  35  55  87 117 147 194 239 290 343
#     4  12  21  32  56  91 117 148 187 246 299 338
#     4   9  22  41  58  78 118 160 200 229 285 342
#     4  10  22  40  59  82 117 159 194 239 283 352
#     4  10  19  36  51  85 120 149 181 245 292 351
#     4  10  22  36  57  82 121 153 196 237 287 341
#     4  10  21  33  56  83 119 149 191 231 305 341
#     4  11  20  32  59  88 113 141 189 241 294 333
#
# _framework density 18.973241999999999
#
# number of rings (size 3 to 8) (size 9 to 14) (size 15 to 20)
#    0.750    1.000    3.750    1.125    3.500    0.500 
#    0.000    1.250    0.000    1.500    0.000    0.000 
#    0.000    0.000    0.000    0.000    0.000    0.000 
#
# Total GULP energy -198254.771487 kJ/mol
# GULP energy per Si atom -12390.923218 kJ/mol
# Density = 1.893006 g / cm^3
# Si number density = 18.973242 Si / 1000 Ang^3
#
#
#
# Elastic Constant Matrix: (Units=GPa)
#
#
# Indices 1 2 3 4 5 6 
#
# 1 93.3915 14.3825 21.7679 -8.4564 2.7050 17.8607
# 2 14.3825 50.3301 26.6748 -5.3963 -0.0017 10.5313
# 3 21.7679 26.6748 129.1833 1.9528 6.3199 9.4442
# 4 -8.4564 -5.3963 1.9528 26.2025 -2.7149 -2.0221
# 5 2.7050 -0.0017 6.3199 -2.7149 31.7262 3.1606
# 6 17.8607 10.5313 9.4442 -2.0221 3.1606 19.6517
#
#
#
# Elastic Compliance Matrix: (Units=1/GPa)
#
#
# Indices 1 2 3 4 5 6 
#
# 1 0.013546 -0.000377 -0.001473 0.003603 0.000555 -0.011120
# 2 -0.000377 0.025167 -0.004531 0.004812 0.002430 -0.010862
# 3 -0.001473 -0.004531 0.009089 -0.002318 -0.001829 -0.000545
# 4 0.003603 0.004812 -0.002318 0.040792 0.003760 -0.001147
# 5 0.000555 0.002430 -0.001829 0.003760 0.032737 -0.005806
# 6 -0.011120 -0.010862 -0.000545 -0.001147 -0.005806 0.067891
#
#
# Mechanical properties :
#
#
# Convention : Reuss Voigt Hill
#
# Bulk Modulus (GPa) = 28.53899 44.28394 36.41147
# Shear Modulus (GPa) = 23.40123 29.52137 26.46130
#
# Velocity S-wave (km/s) = 3.51576 3.94883 3.73857
# Velocity P-wave (km/s) = 5.61740 6.64695 6.15374
#
# Compressibility (1/GPa) = 0.03503978
#
# Stress axis : x y z
#
# Youngs Moduli (GPa) = 73.82327 39.73505 110.02174
#
# Poissons Ratio (x) = 0.01498 0.16210
# Poissons Ratio (y) = 0.02783 0.49847
# Poissons Ratio (z) = 0.10877 0.18002
#
# Static dielectric constant tensor:
#      x y z
#    x 4.740400 0.046170 -0.590910 
#    y 0.046170 3.116470 0.172400 
#    z -0.590910 0.172400 3.869320 
# 
# 
# High freq. dielectric constant tensor:
#      x y z
#    x 1.741050 0.008490 0.006810 
#    y 0.008490 1.700530 0.026330 
#    z 0.006810 0.026330 1.741610 
# 
# From -- ./inp_files/307478.got.cif
#   From: 2010.06.25/outbox.cif.g09.slc.cpg/sg2_154_cif.got.tgz:307478.got - 2010.06.27 13:26:56.
