data_PCOD8042910
_publ_section_title
;
Structure prediction by ZEFSAII (Michael W. Deem and Ramdas Pophale) SiO2 
 PCOD8042910
Probable space group: P -1
;
_chemical_formula_sum "Si O2"
_cell_formula_units_Z 16
_cell_length_a 9.280984
_cell_length_b 7.593571
_cell_length_c 13.123936
_cell_angle_alpha 45.692015
_cell_angle_beta 95.934907
_cell_angle_gamma 94.953093
_cell_volume 658.191445
_symmetry_space_group_name_H-M "P -1"
_symmetry_group_IT_number 2
_symmetry_cell_setting 'triclinic'
loop_
_space_group_symop_operation_xyz
x,y,z
-x,-y,-z
loop_
_atom_site_type_symbol
_atom_site_label
_atom_site_fract_x
_atom_site_fract_y
_atom_site_fract_z
Si Si1 0.048569 0.178402 0.840394
Si Si2 0.359949 0.419800 0.087126
Si Si3 0.279823 0.927051 0.843653
Si Si4 0.685225 0.722884 0.068231
Si Si5 0.323407 0.067763 0.576123
Si Si6 0.224779 0.586008 0.373570
Si Si7 0.652410 0.061528 0.591874
Si Si8 0.544799 0.225286 0.833152
O O1 0.177505 0.355147 0.823532
O O2 0.922841 0.343077 0.721052
O O3 0.121442 0.031323 0.812342
O O4 0.000000 0.000000 0.000000
O O5 0.285086 0.672569 0.012544
O O6 0.269760 0.288873 0.040897
O O7 0.500000 0.500000 0.000000
O O8 0.358486 0.220552 0.256169
O O9 0.297016 0.868206 0.746388
O O10 0.414893 0.113439 0.799251
O O11 0.531219 0.601529 0.151769
O O12 0.645101 0.011015 0.975314
O O13 0.222528 0.294671 0.513648
O O14 0.278002 0.945828 0.513652
O O15 0.490109 0.161941 0.539897
O O16 0.358183 0.603243 0.298672
O O17 0.247769 0.756003 0.406196
#
# Coordination Sequence:
#
# PCOD8042910 Si02
#       8
#     2   2   2   2   2   2   2   2
#     4  11  24  42  65  96 133 173 224 267 328 400
#     4  12  20  38  68  99 134 163 215 291 328 377
#     4  11  24  43  64 101 134 168 218 275 333 390
#     4  10  20  35  61  97 130 160 215 272 334 382
#     4  11  25  42  69  97 137 174 221 269 338 391
#     4  12  23  44  69  92 136 181 218 271 328 395
#     4  11  24  42  66 107 130 167 227 276 330 391
#     4  10  19  35  64  95 124 164 222 269 322 386
#
# _framework density 24.309035999999999
#
# number of rings (size 3 to 8) (size 9 to 14) (size 15 to 20)
#    0.000    1.000    6.250    0.375    3.500    0.500 
#    4.500    1.875    0.000    0.000    0.000    0.000 
#    0.000    0.000    0.000    0.000    0.000    0.000 
#
# Total GULP energy -198233.499921 kJ/mol
# GULP energy per Si atom -12389.593745 kJ/mol
# Density = 2.425371 g / cm^3
# Si number density = 24.309036 Si / 1000 Ang^3
#
#
#
# Elastic Constant Matrix: (Units=GPa)
#
#
# Indices 1 2 3 4 5 6 
#
# 1 90.9537 24.1550 33.7765 5.2113 20.9801 -10.2051
# 2 24.1550 73.3506 18.1636 13.0085 11.6157 -17.1563
# 3 33.7765 18.1636 92.5935 5.5953 23.7541 -5.3554
# 4 5.2113 13.0085 5.5953 41.8412 -9.3647 -0.6884
# 5 20.9801 11.6157 23.7541 -9.3647 37.9724 8.0995
# 6 -10.2051 -17.1563 -5.3554 -0.6884 8.0995 26.1329
#
#
#
# Elastic Compliance Matrix: (Units=1/GPa)
#
#
# Indices 1 2 3 4 5 6 
#
# 1 0.015247 -0.000507 -0.002424 -0.003362 -0.009269 0.007909
# 2 -0.000507 0.021457 0.000894 -0.009332 -0.012949 0.017839
# 3 -0.002424 0.000894 0.014779 -0.004196 -0.010450 0.005797
# 4 -0.003362 -0.009332 -0.004196 0.031573 0.017899 -0.013015
# 5 -0.009269 -0.012949 -0.010450 0.017899 0.052801 -0.030155
# 6 0.007909 0.017839 0.005797 -0.013015 -0.030155 0.063257
#
#
# Mechanical properties :
#
#
# Convention : Reuss Voigt Hill
#
# Bulk Modulus (GPa) = 21.09366 45.45420 33.27393
# Shear Modulus (GPa) = 22.83191 33.24282 28.03736
#
# Velocity S-wave (km/s) = 3.06802 3.70200 3.39982
# Velocity P-wave (km/s) = 4.60939 6.08376 5.39715
#
# Compressibility (1/GPa) = 0.04740762
#
# Stress axis : x y z
#
# Youngs Moduli (GPa) = 65.58463 46.60490 67.66540
#
# Poissons Ratio (x) = 0.02363 0.16403
# Poissons Ratio (y) = 0.03326 -0.06046
# Poissons Ratio (z) = 0.15899 -0.04164
#
# Static dielectric constant tensor:
#      x y z
#    x 4.246760 -0.168330 0.032430 
#    y -0.168330 5.376900 0.493650 
#    z 0.032430 0.493650 4.441710 
# 
# 
# High freq. dielectric constant tensor:
#      x y z
#    x 1.928520 -0.013900 0.007530 
#    y -0.013900 1.980360 0.022310 
#    z 0.007530 0.022310 1.969400 
# 
# From -- ./inp_files/494285.got.cif
#   From: 2010.06.25/outbox.cif.g09.slc.cpg/sg2_248_cif.got.tgz:494285.got - 2010.06.27 13:26:56.
