data_PCOD8042594
_publ_section_title
;
Structure prediction by ZEFSAII (Michael W. Deem and Ramdas Pophale) SiO2 
 PCOD8042594
Probable space group: P -1
;
_chemical_formula_sum "Si O2"
_cell_formula_units_Z 16
_cell_length_a 12.069536
_cell_length_b 13.758462
_cell_length_c 8.546437
_cell_angle_alpha 83.128924
_cell_angle_beta 56.366441
_cell_angle_gamma 127.096552
_cell_volume 688.231409
_symmetry_space_group_name_H-M "P -1"
_symmetry_group_IT_number 2
_symmetry_cell_setting 'triclinic'
loop_
_space_group_symop_operation_xyz
x,y,z
-x,-y,-z
loop_
_atom_site_type_symbol
_atom_site_label
_atom_site_fract_x
_atom_site_fract_y
_atom_site_fract_z
Si Si1 0.140713 0.816424 0.898592
Si Si2 0.197406 0.542298 0.813044
Si Si3 0.716260 0.332255 0.608066
Si Si4 0.681172 0.893499 0.837936
Si Si5 0.511920 0.875229 0.660727
Si Si6 0.935134 0.782122 0.367695
Si Si7 0.919364 0.592475 0.646499
Si Si8 0.521466 0.608573 0.862191
O O1 0.309322 0.833476 0.830921
O O2 0.279448 0.966775 0.641706
O O3 0.044582 0.830235 0.105081
O O4 0.915579 0.631877 0.032733
O O5 0.273387 0.589499 0.562655
O O6 0.414462 0.709174 0.714589
O O7 0.000000 0.500000 0.000000
O O8 0.811775 0.436448 0.671486
O O9 0.849647 0.309114 0.471660
O O10 0.457844 0.155038 0.888463
O O11 0.615192 0.926479 0.741415
O O12 0.648299 0.761636 0.843905
O O13 0.938319 0.059702 0.660110
O O14 0.958814 0.698759 0.468331
O O15 0.675406 0.669989 0.579109
O O16 0.739907 0.512579 0.942740
O O17 0.500000 0.500000 0.000000
#
# Coordination Sequence:
#
# PCOD8042594 Si02
#       8
#     2   2   2   2   2   2   2   2
#     4  10  21  39  59  88 128 164 197 239 310 374
#     4  10  21  35  59  85 126 167 190 236 310 372
#     4  10  19  35  58  94 117 152 198 249 306 357
#     4  11  23  37  63  91 121 153 202 260 304 353
#     4  10  23  40  56  93 129 160 198 247 308 366
#     4  11  20  37  61  86 118 161 201 251 300 359
#     4   9  19  32  60  87 121 143 202 256 293 354
#     4   9  21  39  57  86 117 156 200 254 301 356
#
# _framework density 23.247995
#
# number of rings (size 3 to 8) (size 9 to 14) (size 15 to 20)
#    0.000    2.000    1.250    1.875    8.750    5.000 
#    2.250    0.625    0.000    0.750    0.000    0.000 
#    0.000    0.000    0.000    0.000    0.000    0.000 
#
# Total GULP energy -198215.448278 kJ/mol
# GULP energy per Si atom -12388.465517 kJ/mol
# Density = 2.319508 g / cm^3
# Si number density = 23.247995 Si / 1000 Ang^3
#
#
#
# Elastic Constant Matrix: (Units=GPa)
#
#
# Indices 1 2 3 4 5 6 
#
# 1 30.0543 24.1421 34.8513 -1.5883 -6.7053 -6.4020
# 2 24.1421 86.9045 43.5603 -3.7938 0.8196 -4.6228
# 3 34.8513 43.5603 180.1925 9.7884 -7.5891 -4.7213
# 4 -1.5883 -3.7938 9.7884 33.5588 -10.0220 3.3990
# 5 -6.7053 0.8196 -7.5891 -10.0220 31.4114 2.0022
# 6 -6.4020 -4.6228 -4.7213 3.3990 2.0022 30.9372
#
#
#
# Elastic Compliance Matrix: (Units=1/GPa)
#
#
# Indices 1 2 3 4 5 6 
#
# 1 0.055657 -0.011016 -0.007763 0.006477 0.011900 0.007205
# 2 -0.011016 0.015528 -0.001798 0.000910 -0.002892 -0.000147
# 3 -0.007763 -0.001798 0.007608 -0.002963 -0.000696 -0.000344
# 4 0.006477 0.000910 -0.002963 0.035036 0.012051 -0.003605
# 5 0.011900 -0.002892 -0.000696 0.012051 0.038248 -0.001875
# 6 0.007205 -0.000147 -0.000344 -0.003605 -0.001875 0.034257
#
#
# Mechanical properties :
#
#
# Convention : Reuss Voigt Hill
#
# Bulk Modulus (GPa) = 26.56935 55.80650 41.18793
# Shear Modulus (GPa) = 20.83017 32.15467 26.49242
#
# Velocity S-wave (km/s) = 2.99657 3.72306 3.37940
# Velocity P-wave (km/s) = 4.84005 6.52216 5.74302
#
# Compressibility (1/GPa) = 0.03763736
#
# Stress axis : x y z
#
# Youngs Moduli (GPa) = 17.96718 64.40100 131.43218
#
# Poissons Ratio (x) = 0.70947 1.02037
# Poissons Ratio (y) = 0.19793 0.23632
# Poissons Ratio (z) = 0.13949 0.11580
#
# Static dielectric constant tensor:
#      x y z
#    x 4.075920 -0.108930 -0.343760 
#    y -0.108930 4.593470 -0.479750 
#    z -0.343760 -0.479750 5.261220 
# 
# 
# High freq. dielectric constant tensor:
#      x y z
#    x 1.883720 -0.008210 -0.000200 
#    y -0.008210 1.914810 -0.009870 
#    z -0.000200 -0.009870 1.945860 
# 
# From -- ./inp_files/315181.got.cif
#   From: 2010.06.25/outbox.cif.g09.slc.cpg/sg2_158_cif.got.tgz:315181.got - 2010.06.27 13:26:56.
