data_PCOD8042403
_publ_section_title
;
Structure prediction by ZEFSAII (Michael W. Deem and Ramdas Pophale) SiO2 
 PCOD8042403
Probable space group: P -1
;
_chemical_formula_sum "Si O2"
_cell_formula_units_Z 12
_cell_length_a 10.682601
_cell_length_b 11.688108
_cell_length_c 5.239667
_cell_angle_alpha 58.112968
_cell_angle_beta 100.076251
_cell_angle_gamma 122.372207
_cell_volume 463.825036
_symmetry_space_group_name_H-M "P -1"
_symmetry_group_IT_number 2
_symmetry_cell_setting 'triclinic'
loop_
_space_group_symop_operation_xyz
x,y,z
-x,-y,-z
loop_
_atom_site_type_symbol
_atom_site_label
_atom_site_fract_x
_atom_site_fract_y
_atom_site_fract_z
Si Si1 0.227502 0.680207 0.021707
Si Si2 0.690781 0.141759 0.647446
Si Si3 0.950977 0.141760 0.069034
Si Si4 0.468706 0.186314 0.242511
Si Si5 0.047295 0.319794 0.382119
Si Si6 0.782393 0.813686 0.615139
O O1 0.244108 0.803386 0.106384
O O2 0.106542 0.500000 0.266198
O O3 0.190850 0.726305 0.673306
O O4 0.390802 0.698566 0.026997
O O5 0.532601 0.131968 0.566556
O O6 0.657664 0.967459 0.778040
O O7 0.964546 0.273697 0.125913
O O8 0.099366 0.131969 0.169505
O O9 0.940719 0.196613 0.713155
O O10 0.809795 0.967460 0.287041
O O11 0.386112 0.272226 0.227773
O O12 0.192236 0.301434 0.424129
#
# Coordination Sequence:
#
# PCOD8042403 Si02
#       6
#     2   2   2   2   2   2
#     4  10  19  35  55  77 108 136 167 213 265 306
#     4   9  20  36  52  79 102 141 173 205 259 303
#     4   9  20  36  52  79 102 141 173 205 259 303
#     4   9  20  35  56  79 103 135 177 213 253 305
#     4  10  19  35  55  77 108 136 167 213 265 306
#     4   9  20  35  56  79 103 135 177 213 253 305
#
# _framework density 25.871825999999999
#
# number of rings (size 3 to 8) (size 9 to 14) (size 15 to 20)
#    2.000    0.667    0.000    2.000    0.000    2.000 
#    0.000    1.667    0.000    6.000    0.000    0.000 
#    0.000    0.000    0.000    0.000    0.000    0.000 
#
# Total GULP energy -148744.746806 kJ/mol
# GULP energy per Si atom -12395.395567 kJ/mol
# Density = 2.581294 g / cm^3
# Si number density = 25.871826 Si / 1000 Ang^3
#
#
#
# Elastic Constant Matrix: (Units=GPa)
#
#
# Indices 1 2 3 4 5 6 
#
# 1 128.4451 24.7133 48.0751 24.8564 -11.4290 -8.9154
# 2 24.7133 124.6835 59.8212 8.0462 14.7712 2.1055
# 3 48.0751 59.8212 148.8792 16.9724 8.7813 13.8267
# 4 24.8564 8.0462 16.9724 45.3728 2.4547 -3.0388
# 5 -11.4290 14.7712 8.7813 2.4547 45.1585 9.1763
# 6 -8.9154 2.1055 13.8267 -3.0388 9.1763 37.6593
#
#
#
# Elastic Compliance Matrix: (Units=1/GPa)
#
#
# Indices 1 2 3 4 5 6 
#
# 1 0.010346 -0.000773 -0.002938 -0.004441 0.003189 0.002436
# 2 -0.000773 0.010375 -0.003905 0.000313 -0.003144 0.001462
# 3 -0.002938 -0.003905 0.009828 -0.001625 -0.000455 -0.004106
# 4 -0.004441 0.000313 -0.001625 0.025323 -0.002742 0.002239
# 5 0.003189 -0.003144 -0.000455 -0.002742 0.025291 -0.005286
# 6 0.002436 0.001462 -0.004106 0.002239 -0.005286 0.030025
#
#
# Mechanical properties :
#
#
# Convention : Reuss Voigt Hill
#
# Bulk Modulus (GPa) = 65.29118 74.13633 69.71375
# Shear Modulus (GPa) = 38.01504 43.59800 40.80652
#
# Velocity S-wave (km/s) = 3.83738 4.10952 3.97578
# Velocity P-wave (km/s) = 6.70263 7.15786 6.93398
#
# Compressibility (1/GPa) = 0.01531600
#
# Stress axis : x y z
#
# Youngs Moduli (GPa) = 96.65334 96.38819 101.74969
#
# Poissons Ratio (x) = 0.07454 0.29897
# Poissons Ratio (y) = 0.07475 0.39732
# Poissons Ratio (z) = 0.28399 0.37639
#
# Static dielectric constant tensor:
#      x y z
#    x 5.118910 -0.056020 -0.031480 
#    y -0.056020 4.031090 0.229830 
#    z -0.031480 0.229830 4.243640 
# 
# 
# High freq. dielectric constant tensor:
#      x y z
#    x 2.097080 -0.006250 -0.004630 
#    y -0.006250 1.997820 0.021880 
#    z -0.004630 0.021880 2.017950 
# 
# From -- ./inp_files/79832.got.cif
#   From: 2010.06.25/outbox.cif.g09.slc.cpg/sg2_40_cif.got.tgz:79832.got - 2010.06.27 13:26:56.
