data_PCOD8042310
_publ_section_title
;
Structure prediction by ZEFSAII (Michael W. Deem and Ramdas Pophale) SiO2 
 PCOD8042310
Probable space group: P -1
;
_chemical_formula_sum "Si O2"
_cell_formula_units_Z 16
_cell_length_a 9.487184
_cell_length_b 11.489500
_cell_length_c 12.638707
_cell_angle_alpha 90.454406
_cell_angle_beta 34.035754
_cell_angle_gamma 91.020905
_cell_volume 770.908685
_symmetry_space_group_name_H-M "P -1"
_symmetry_group_IT_number 2
_symmetry_cell_setting 'triclinic'
loop_
_space_group_symop_operation_xyz
x,y,z
-x,-y,-z
loop_
_atom_site_type_symbol
_atom_site_label
_atom_site_fract_x
_atom_site_fract_y
_atom_site_fract_z
Si Si1 0.191267 0.440289 0.713323
Si Si2 0.386693 0.529004 0.959358
Si Si3 0.403531 0.761822 0.846065
Si Si4 0.720511 0.660362 0.120756
Si Si5 0.478403 0.856226 0.397210
Si Si6 0.254125 0.696297 0.703884
Si Si7 0.799913 0.941495 0.545882
Si Si8 0.889254 0.809798 0.286829
O O1 0.168825 0.411111 0.850427
O O2 0.350414 0.565044 0.605098
O O3 0.274457 0.316473 0.604887
O O4 0.913541 0.461677 0.841786
O O5 0.507808 0.647921 0.838096
O O6 0.463695 0.425866 0.831070
O O7 0.500000 0.500000 0.000000
O O8 0.374761 0.741766 0.738662
O O9 0.608116 0.865232 0.736054
O O10 0.144966 0.796069 0.063677
O O11 0.570225 0.774420 0.244505
O O12 0.955274 0.692139 0.901596
O O13 0.281843 0.786543 0.591961
O O14 0.715887 0.894731 0.324641
O O15 0.355612 0.966214 0.422277
O O16 0.940695 0.860131 0.371856
O O17 0.000000 0.000000 0.500000
#
# Coordination Sequence:
#
# PCOD8042310 Si02
#       8
#     2   2   2   2   2   2   2   2
#     4   9  18  35  61  95 125 151 195 248 311 369
#     4  10  19  34  62  95 129 159 197 240 306 390
#     4  11  22  41  69  90 122 168 199 255 320 350
#     4  10  19  38  61  97 126 153 201 258 304 367
#     4  11  24  38  64  96 115 162 216 257 295 359
#     4  11  18  36  68  96 128 152 193 257 317 358
#     4  12  29  46  58  84 131 167 213 258 299 366
#     4  10  22  41  67  96 116 157 214 259 303 361
#
# _framework density 20.754726999999999
#
# number of rings (size 3 to 8) (size 9 to 14) (size 15 to 20)
#    0.000    1.500    6.250    1.125    0.000    9.000 
#    0.000    0.000    0.000    7.500    0.000    0.000 
#    0.000    0.000    0.000    0.000    0.000    0.000 
#
# Total GULP energy -198334.967999 kJ/mol
# GULP energy per Si atom -12395.935500 kJ/mol
# Density = 2.070749 g / cm^3
# Si number density = 20.754727 Si / 1000 Ang^3
#
#
#
# Elastic Constant Matrix: (Units=GPa)
#
#
# Indices 1 2 3 4 5 6 
#
# 1 123.0413 60.5039 35.6036 1.3507 9.4603 22.8062
# 2 60.5039 116.7552 45.5126 -14.2491 7.4814 18.1476
# 3 35.6036 45.5126 62.2502 -3.2387 15.5709 9.4928
# 4 1.3507 -14.2491 -3.2387 36.1131 8.3046 1.8122
# 5 9.4603 7.4814 15.5709 8.3046 22.2375 -2.0099
# 6 22.8062 18.1476 9.4928 1.8122 -2.0099 32.9515
#
#
#
# Elastic Compliance Matrix: (Units=1/GPa)
#
#
# Indices 1 2 3 4 5 6 
#
# 1 0.012269 -0.004719 -0.002457 -0.001897 -0.001671 -0.005182
# 2 -0.004719 0.015163 -0.007536 0.005701 -0.000239 -0.003242
# 3 -0.002457 -0.007536 0.028238 0.003970 -0.017999 -0.003600
# 4 -0.001897 0.005701 0.003970 0.034660 -0.017372 -0.005937
# 5 -0.001671 -0.000239 -0.017999 -0.017372 0.065886 0.011448
# 6 -0.005182 -0.003242 -0.003600 -0.005937 0.011448 0.037781
#
#
# Mechanical properties :
#
#
# Convention : Reuss Voigt Hill
#
# Bulk Modulus (GPa) = 38.10401 65.03187 51.56794
# Shear Modulus (GPa) = 21.53597 28.95554 25.24575
#
# Velocity S-wave (km/s) = 3.22474 3.73920 3.49146
# Velocity P-wave (km/s) = 5.68017 7.07415 6.41514
#
# Compressibility (1/GPa) = 0.02624396
#
# Stress axis : x y z
#
# Youngs Moduli (GPa) = 81.50835 65.94995 35.41385
#
# Poissons Ratio (x) = 0.31120 0.08703
# Poissons Ratio (y) = 0.38462 0.26689
# Poissons Ratio (z) = 0.20030 0.49703
#
# Static dielectric constant tensor:
#      x y z
#    x 3.562440 0.277960 0.032370 
#    y 0.277960 4.167250 0.031490 
#    z 0.032370 0.031490 3.828100 
# 
# 
# High freq. dielectric constant tensor:
#      x y z
#    x 1.786270 0.012600 0.003160 
#    y 0.012600 1.825830 0.004800 
#    z 0.003160 0.004800 1.822770 
# 
# From -- ./inp_files/390146.got.cif
#   From: 2010.06.25/outbox.cif.g09.slc.cpg/sg2_196_cif.got.tgz:390146.got - 2010.06.27 13:26:56.
