data_PCOD8042499
_publ_section_title
;
Structure prediction by ZEFSAII (Michael W. Deem and Ramdas Pophale) SiO2 
 PCOD8042499
Probable space group: P -1
;
_chemical_formula_sum "Si O2"
_cell_formula_units_Z 16
_cell_length_a 12.053116
_cell_length_b 19.526954
_cell_length_c 6.278659
_cell_angle_alpha 77.684666
_cell_angle_beta 104.210690
_cell_angle_gamma 147.098058
_cell_volume 778.081828
_symmetry_space_group_name_H-M "P -1"
_symmetry_group_IT_number 2
_symmetry_cell_setting 'triclinic'
loop_
_space_group_symop_operation_xyz
x,y,z
-x,-y,-z
loop_
_atom_site_type_symbol
_atom_site_label
_atom_site_fract_x
_atom_site_fract_y
_atom_site_fract_z
Si Si1 0.789421 0.651378 0.731888
Si Si2 0.578385 0.207701 0.319969
Si Si3 0.428467 0.369384 0.700156
Si Si4 0.723049 0.934725 0.098660
Si Si5 0.550773 0.744186 0.491500
Si Si6 0.778135 0.202055 0.150685
Si Si7 0.510569 0.938279 0.256602
Si Si8 0.182001 0.199262 0.088237
O O1 0.605900 0.504987 0.806790
O O2 0.730800 0.661112 0.479080
O O3 0.820274 0.721512 0.889253
O O4 0.996160 0.712307 0.760102
O O5 0.624696 0.297941 0.440478
O O6 0.766649 0.271105 0.227540
O O7 0.491053 0.100936 0.494220
O O8 0.407205 0.148628 0.116945
O O9 0.542587 0.371563 0.594836
O O10 0.299718 0.258316 0.880560
O O11 0.679016 0.855609 0.311987
O O12 0.668908 0.983253 0.135285
O O13 0.955759 0.053347 0.049355
O O14 0.711898 0.798552 0.700857
O O15 0.600325 0.061318 0.258603
O O16 0.717299 0.179664 0.885744
#
# Coordination Sequence:
#
# PCOD8042499 Si02
#       8
#     2   2   2   2   2   2   2   2
#     4  10  22  40  59  85 115 146 193 242 277 326
#     4  10  21  34  56  83 116 151 183 225 287 346
#     4  10  23  39  59  83 113 155 195 231 276 330
#     4  10  20  34  57  89 115 147 184 231 293 341
#     4  10  22  38  54  81 122 149 188 234 275 338
#     4  10  19  35  57  82 115 149 184 233 287 331
#     4   9  19  34  53  86 119 144 182 233 285 341
#     4  11  21  36  61  84 113 150 189 235 289 338
#
# _framework density 20.563388
#
# number of rings (size 3 to 8) (size 9 to 14) (size 15 to 20)
#    0.000    2.000    1.250    1.875    1.750    4.000 
#    0.000    0.625    0.000   10.500    0.000    0.000 
#    0.000    0.000    0.000    0.000    0.000    0.000 
#
# Total GULP energy -198285.649888 kJ/mol
# GULP energy per Si atom -12392.853118 kJ/mol
# Density = 2.051658 g / cm^3
# Si number density = 20.563388 Si / 1000 Ang^3
#
#
#
# Elastic Constant Matrix: (Units=GPa)
#
#
# Indices 1 2 3 4 5 6 
#
# 1 130.3028 34.8581 34.5751 11.8467 -9.0325 0.6733
# 2 34.8581 46.4844 18.8446 3.3979 0.3073 8.1911
# 3 34.5751 18.8446 95.9375 -7.3471 8.9088 5.7827
# 4 11.8467 3.3979 -7.3471 18.3591 -7.0041 2.8792
# 5 -9.0325 0.3073 8.9088 -7.0041 33.5432 1.4296
# 6 0.6733 8.1911 5.7827 2.8792 1.4296 21.7701
#
#
#
# Elastic Compliance Matrix: (Units=1/GPa)
#
#
# Indices 1 2 3 4 5 6 
#
# 1 0.011410 -0.007272 -0.003715 -0.007226 0.002439 0.004166
# 2 -0.007272 0.029860 -0.002573 -0.000759 -0.001275 -0.010143
# 3 -0.003715 -0.002573 0.013309 0.007656 -0.002773 -0.003283
# 4 -0.007226 -0.000759 0.007656 0.068201 0.010748 -0.011250
# 5 0.002439 -0.001275 -0.002773 0.010748 0.033567 -0.002485
# 6 0.004166 -0.010143 -0.003283 -0.011250 -0.002485 0.052145
#
#
# Mechanical properties :
#
#
# Convention : Reuss Voigt Hill
#
# Bulk Modulus (GPa) = 36.41658 49.92003 43.16831
# Shear Modulus (GPa) = 20.42768 27.03094 23.72931
#
# Velocity S-wave (km/s) = 3.15525 3.62956 3.40068
# Velocity P-wave (km/s) = 5.56974 6.47254 6.03804
#
# Compressibility (1/GPa) = 0.02746002
#
# Stress axis : x y z
#
# Youngs Moduli (GPa) = 87.64179 33.48931 75.13571
#
# Poissons Ratio (x) = 0.24355 0.27910
# Poissons Ratio (y) = 0.63736 0.19331
# Poissons Ratio (z) = 0.32555 0.08616
#
# Static dielectric constant tensor:
#      x y z
#    x 4.153640 -0.208930 -0.083140 
#    y -0.208930 3.247690 0.144550 
#    z -0.083140 0.144550 3.869320 
# 
# 
# High freq. dielectric constant tensor:
#      x y z
#    x 1.829050 -0.017040 0.001100 
#    y -0.017040 1.751980 0.007510 
#    z 0.001100 0.007510 1.814330 
# 
# From -- ./inp_files/69872.got.cif
#   From: 2010.06.25/outbox.cif.g09.slc.cpg/sg2_35_cif.got.tgz:69872.got - 2010.06.27 13:26:56.
