data_PCOD8042893
_publ_section_title
;
Structure prediction by ZEFSAII (Michael W. Deem and Ramdas Pophale) SiO2 
 PCOD8042893
Probable space group: P -1
;
_chemical_formula_sum "Si O2"
_cell_formula_units_Z 16
_cell_length_a 14.943592
_cell_length_b 9.307941
_cell_length_c 14.153566
_cell_angle_alpha 100.925185
_cell_angle_beta 152.311924
_cell_angle_gamma 88.929805
_cell_volume 848.832138
_symmetry_space_group_name_H-M "P -1"
_symmetry_group_IT_number 2
_symmetry_cell_setting 'triclinic'
loop_
_space_group_symop_operation_xyz
x,y,z
-x,-y,-z
loop_
_atom_site_type_symbol
_atom_site_label
_atom_site_fract_x
_atom_site_fract_y
_atom_site_fract_z
Si Si1 0.879176 0.621597 0.583610
Si Si2 0.076160 0.768322 0.287142
Si Si3 0.668456 0.915791 0.140546
Si Si4 0.231901 0.427071 0.152031
Si Si5 0.079286 0.061115 0.432747
Si Si6 0.466221 0.561172 0.875770
Si Si7 0.319828 0.561409 0.446638
Si Si8 0.216548 0.519062 0.952649
O O1 0.879564 0.788672 0.573880
O O2 0.770809 0.497601 0.384151
O O3 0.758028 0.569129 0.562008
O O4 0.115164 0.630961 0.817731
O O5 0.278370 0.719623 0.456241
O O6 0.940284 0.657062 0.228519
O O7 0.130253 0.942281 0.394015
O O8 0.945833 0.733660 0.062377
O O9 0.761458 0.905290 0.328566
O O10 0.556532 0.744969 0.974495
O O11 0.847478 0.004724 0.246665
O O12 0.500000 0.000000 0.000000
O O13 0.191049 0.491748 0.222636
O O14 0.442610 0.390355 0.345790
O O15 0.240031 0.553397 0.092096
O O16 0.500000 0.500000 0.000000
O O17 0.568604 0.471942 0.888120
#
# Coordination Sequence:
#
# PCOD8042893 Si02
#       8
#     2   2   2   2   2   2   2   2
#     4  11  23  36  61  87 117 153 190 245 288 335
#     4   9  19  35  58  79 116 149 187 233 285 345
#     4  11  26  40  60  79 116 160 198 237 294 342
#     4   9  18  35  63  88 112 146 202 236 275 357
#     4  11  24  41  53  88 119 151 194 244 288 349
#     4  12  23  41  58  87 115 153 199 242 282 344
#     4  10  19  35  64  88 111 151 197 235 289 341
#     4   9  21  36  61  84 114 153 193 235 286 340
#
# _framework density 18.849429000000001
#
# number of rings (size 3 to 8) (size 9 to 14) (size 15 to 20)
#    0.750    1.000    3.750    0.375    5.250    0.500 
#    0.000    0.625    0.000    1.500    0.000    0.000 
#    0.000    0.000    0.000    0.000    0.000    0.000 
#
# Total GULP energy -198266.902901 kJ/mol
# GULP energy per Si atom -12391.681431 kJ/mol
# Density = 1.880653 g / cm^3
# Si number density = 18.849429 Si / 1000 Ang^3
#
#
#
# Elastic Constant Matrix: (Units=GPa)
#
#
# Indices 1 2 3 4 5 6 
#
# 1 92.6453 51.8821 29.3908 -5.4743 -17.3700 -2.9635
# 2 51.8821 122.7168 50.9677 -3.6093 -8.8958 -4.9473
# 3 29.3908 50.9677 76.4914 -12.9170 -15.1710 -1.8638
# 4 -5.4743 -3.6093 -12.9170 29.2300 -1.6043 -1.0881
# 5 -17.3700 -8.8958 -15.1710 -1.6043 33.8447 -6.1771
# 6 -2.9635 -4.9473 -1.8638 -1.0881 -6.1771 26.7577
#
#
#
# Elastic Compliance Matrix: (Units=1/GPa)
#
#
# Indices 1 2 3 4 5 6 
#
# 1 0.015680 -0.005847 -0.000261 0.002568 0.006943 0.002344
# 2 -0.005847 0.013630 -0.007943 -0.003071 -0.003035 0.000494
# 3 -0.000261 -0.007943 0.021722 0.009115 0.008371 0.002319
# 4 0.002568 -0.003071 0.009115 0.038863 0.007090 0.003569
# 5 0.006943 -0.003035 0.008371 0.007090 0.038208 0.009900
# 6 0.002344 0.000494 0.002319 0.003569 0.009900 0.040315
#
#
# Mechanical properties :
#
#
# Convention : Reuss Voigt Hill
#
# Bulk Modulus (GPa) = 43.61322 61.81499 52.71410
# Shear Modulus (GPa) = 24.49016 28.60732 26.54874
#
# Velocity S-wave (km/s) = 3.60842 3.89996 3.75702
# Velocity P-wave (km/s) = 6.36780 7.29005 6.84448
#
# Compressibility (1/GPa) = 0.02292883
#
# Stress axis : x y z
#
# Youngs Moduli (GPa) = 63.77721 73.36926 46.03564
#
# Poissons Ratio (x) = 0.42902 0.01200
# Poissons Ratio (y) = 0.37293 0.36567
# Poissons Ratio (z) = 0.01663 0.58279
#
# Static dielectric constant tensor:
#      x y z
#    x 3.513890 0.006810 -0.104040 
#    y 0.006810 3.228230 -0.171320 
#    z -0.104040 -0.171320 3.649220 
# 
# 
# High freq. dielectric constant tensor:
#      x y z
#    x 1.728920 -0.006330 -0.003890 
#    y -0.006330 1.705060 -0.022730 
#    z -0.003890 -0.022730 1.746090 
# 
# From -- ./inp_files/527634.got.cif
#   From: 2010.06.25/outbox.cif.g09.slc.cpg/sg2_264_cif.got.tgz:527634.got - 2010.06.27 13:26:56.
