data_PCOD8042466
_publ_section_title
;
Structure prediction by ZEFSAII (Michael W. Deem and Ramdas Pophale) SiO2 
 PCOD8042466
Probable space group: P -1
;
_chemical_formula_sum "Si O2"
_cell_formula_units_Z 16
_cell_length_a 13.228611
_cell_length_b 12.353652
_cell_length_c 11.946668
_cell_angle_alpha 54.587848
_cell_angle_beta 80.361820
_cell_angle_gamma 38.830114
_cell_volume 829.457314
_symmetry_space_group_name_H-M "P -1"
_symmetry_group_IT_number 2
_symmetry_cell_setting 'triclinic'
loop_
_space_group_symop_operation_xyz
x,y,z
-x,-y,-z
loop_
_atom_site_type_symbol
_atom_site_label
_atom_site_fract_x
_atom_site_fract_y
_atom_site_fract_z
Si Si1 0.085854 0.475293 0.164151
Si Si2 0.537037 0.685225 0.149846
Si Si3 0.545142 0.603825 0.447792
Si Si4 0.888060 0.921056 0.046899
Si Si5 0.791825 0.937140 0.604524
Si Si6 0.826783 0.554535 0.070831
Si Si7 0.841408 0.138695 0.354511
Si Si8 0.946295 0.099549 0.770512
O O1 0.207235 0.217142 0.348119
O O2 0.046390 0.631170 0.169906
O O3 0.879685 0.645102 0.051292
O O4 0.205547 0.407096 0.079628
O O5 0.543933 0.682913 0.283954
O O6 0.632428 0.715940 0.068564
O O7 0.648575 0.434784 0.231883
O O8 0.321432 0.915086 0.003988
O O9 0.500000 0.500000 0.500000
O O10 0.755648 0.387437 0.594145
O O11 0.389956 0.841800 0.414140
O O12 0.936529 0.937139 0.144347
O O13 0.887904 0.024768 0.882444
O O14 0.991465 0.743034 0.754216
O O15 0.784623 0.045807 0.436312
O O16 0.000000 0.000000 0.500000
O O17 0.916243 0.082625 0.250085
#
# Coordination Sequence:
#
# PCOD8042466 Si02
#       8
#     2   2   2   2   2   2   2   2
#     4   9  20  39  57  81 124 162 187 240 298 350
#     4  12  22  33  64  93 113 155 196 252 286 346
#     4  12  20  35  63  93 117 146 204 247 295 338
#     4  11  24  41  58  86 127 157 194 234 309 352
#     4  10  19  35  56  88 115 150 193 247 287 345
#     4   9  19  34  58  87 117 152 196 242 286 341
#     4  12  19  35  61  88 116 147 199 248 296 328
#     4  11  24  40  61  88 121 157 190 253 294 354
#
# _framework density 19.289719999999999
#
# number of rings (size 3 to 8) (size 9 to 14) (size 15 to 20)
#    0.750    0.500    5.000    1.500    0.000    1.000 
#    0.000    2.500    0.000    0.000    0.000    0.000 
#    0.000    0.000    0.000    0.000    0.000    0.000 
#
# Total GULP energy -198383.843183 kJ/mol
# GULP energy per Si atom -12398.990199 kJ/mol
# Density = 1.924582 g / cm^3
# Si number density = 19.289720 Si / 1000 Ang^3
#
#
#
# Elastic Constant Matrix: (Units=GPa)
#
#
# Indices 1 2 3 4 5 6 
#
# 1 65.1952 35.9231 22.0430 8.1438 -8.3449 -6.9725
# 2 35.9231 102.5292 21.7623 5.1163 3.3684 -6.1777
# 3 22.0430 21.7623 45.3700 6.9668 5.3187 -5.4239
# 4 8.1438 5.1163 6.9668 32.8563 -2.1820 -9.0736
# 5 -8.3449 3.3684 5.3187 -2.1820 24.9607 -0.5146
# 6 -6.9725 -6.1777 -5.4239 -9.0736 -0.5146 38.5871
#
#
#
# Elastic Compliance Matrix: (Units=1/GPa)
#
#
# Indices 1 2 3 4 5 6 
#
# 1 0.023839 -0.006558 -0.009219 -0.001755 0.010701 0.001692
# 2 -0.006558 0.012711 -0.002472 0.000078 -0.003364 0.000476
# 3 -0.009219 -0.002472 0.029531 -0.003926 -0.009363 0.001041
# 4 -0.001755 0.000078 -0.003926 0.033890 0.003349 0.007157
# 5 0.010701 -0.003364 -0.009363 0.003349 0.046413 0.001485
# 6 0.001692 0.000476 0.001041 0.007157 0.001485 0.028147
#
#
# Mechanical properties :
#
#
# Convention : Reuss Voigt Hill
#
# Bulk Modulus (GPa) = 33.80292 41.39457 37.59875
# Shear Modulus (GPa) = 22.63590 28.17187 25.40388
#
# Velocity S-wave (km/s) = 3.42931 3.82574 3.63294
# Velocity P-wave (km/s) = 5.76559 6.40477 6.09357
#
# Compressibility (1/GPa) = 0.02958324
#
# Stress axis : x y z
#
# Youngs Moduli (GPa) = 41.94837 78.67310 33.86305
#
# Poissons Ratio (x) = 0.51591 0.31220
# Poissons Ratio (y) = 0.27508 0.08369
# Poissons Ratio (z) = 0.38674 0.19445
#
# Static dielectric constant tensor:
#      x y z
#    x 3.550700 0.088730 -0.350960 
#    y 0.088730 3.813560 -0.120000 
#    z -0.350960 -0.120000 3.470700 
# 
# 
# High freq. dielectric constant tensor:
#      x y z
#    x 1.733130 -0.008800 -0.025580 
#    y -0.008800 1.759090 -0.000690 
#    z -0.025580 -0.000690 1.731680 
# 
# From -- ./inp_files/455550.got.cif
#   From: 2010.06.25/outbox.cif.g09.slc.cpg/sg2_228_cif.got.tgz:455550.got - 2010.06.27 13:26:56.
