data_PCOD8042830
_publ_section_title
;
Structure prediction by ZEFSAII (Michael W. Deem and Ramdas Pophale) SiO2 
 PCOD8042830
Probable space group: P -1
;
_chemical_formula_sum "Si O2"
_cell_formula_units_Z 16
_cell_length_a 11.449055
_cell_length_b 11.964393
_cell_length_c 8.621744
_cell_angle_alpha 52.977724
_cell_angle_beta 99.100238
_cell_angle_gamma 117.693084
_cell_volume 822.454296
_symmetry_space_group_name_H-M "P -1"
_symmetry_group_IT_number 2
_symmetry_cell_setting 'triclinic'
loop_
_space_group_symop_operation_xyz
x,y,z
-x,-y,-z
loop_
_atom_site_type_symbol
_atom_site_label
_atom_site_fract_x
_atom_site_fract_y
_atom_site_fract_z
Si Si1 0.002227 0.767155 0.192653
Si Si2 0.725352 0.879793 0.751203
Si Si3 0.197579 0.107128 0.892956
Si Si4 0.163841 0.303179 0.292724
Si Si5 0.606866 0.644882 0.497734
Si Si6 0.092347 0.768655 0.534068
Si Si7 0.164388 0.507022 0.855306
Si Si8 0.526291 0.369753 0.205933
O O1 0.907660 0.826924 0.208091
O O2 0.924352 0.625793 0.176453
O O3 0.060910 0.710916 0.396308
O O4 0.123314 0.917236 0.004758
O O5 0.798298 0.806304 0.717510
O O6 0.564673 0.793695 0.767465
O O7 0.776370 0.062514 0.571195
O O8 0.752074 0.851204 0.956233
O O9 0.320706 0.195824 0.725334
O O10 0.279941 0.392284 0.370811
O O11 0.024254 0.203402 0.434697
O O12 0.145499 0.434819 0.082046
O O13 0.500000 0.500000 0.500000
O O14 0.523919 0.668270 0.597425
O O15 0.119036 0.641860 0.738939
O O16 0.320360 0.584238 0.785004
O O17 0.500000 0.500000 0.000000
#
# Coordination Sequence:
#
# PCOD8042830 Si02
#       8
#     2   2   2   2   2   2   2   2
#     4  10  20  37  59  85 120 155 192 242 294 351
#     4  10  21  39  63  86 118 151 200 249 288 354
#     4  10  19  35  62  91 111 153 198 248 289 336
#     4  11  22  37  61  89 117 155 195 246 292 352
#     4  11  21  34  61  91 116 146 201 248 284 349
#     4  11  24  38  59  91 118 157 196 242 304 348
#     4  12  23  39  59  86 126 156 191 244 302 354
#     4  11  21  38  60  87 114 157 197 242 296 344
#
# _framework density 19.453969000000001
#
# number of rings (size 3 to 8) (size 9 to 14) (size 15 to 20)
#    0.000    1.250    5.000    2.625    0.000    2.500 
#    0.000    0.000    0.000    3.000    0.000    0.000 
#    0.000    0.000    0.000    0.000    0.000    0.000 
#
# Total GULP energy -198320.094379 kJ/mol
# GULP energy per Si atom -12395.005899 kJ/mol
# Density = 1.940969 g / cm^3
# Si number density = 19.453969 Si / 1000 Ang^3
#
#
#
# Elastic Constant Matrix: (Units=GPa)
#
#
# Indices 1 2 3 4 5 6 
#
# 1 62.4188 49.9192 29.4537 -4.6212 -11.9988 16.1550
# 2 49.9192 130.0360 58.1329 -2.5784 0.9641 35.6747
# 3 29.4537 58.1329 113.0709 -0.9119 -7.2565 7.4434
# 4 -4.6212 -2.5784 -0.9119 23.4945 3.0999 -2.9775
# 5 -11.9988 0.9641 -7.2565 3.0999 40.3675 -4.3914
# 6 16.1550 35.6747 7.4434 -2.9775 -4.3914 30.8476
#
#
#
# Elastic Compliance Matrix: (Units=1/GPa)
#
#
# Indices 1 2 3 4 5 6 
#
# 1 0.025783 -0.008658 -0.001664 0.002886 0.007155 -0.001791
# 2 -0.008658 0.018348 -0.006505 -0.001208 -0.005836 -0.016062
# 3 -0.001664 -0.006505 0.012405 -0.000165 0.002528 0.005745
# 4 0.002886 -0.001208 -0.000165 0.043755 -0.002084 0.003852
# 5 0.007155 -0.005836 0.002528 -0.002084 0.028330 0.006223
# 6 -0.001791 -0.016062 0.005745 0.003852 0.006223 0.051802
#
#
# Mechanical properties :
#
#
# Convention : Reuss Voigt Hill
#
# Bulk Modulus (GPa) = 43.70459 64.50411 54.10435
# Shear Modulus (GPa) = 22.55255 30.14324 26.34789
#
# Velocity S-wave (km/s) = 3.40851 3.94059 3.68417
# Velocity P-wave (km/s) = 6.16482 7.34395 6.78007
#
# Compressibility (1/GPa) = 0.02288089
#
# Stress axis : x y z
#
# Youngs Moduli (GPa) = 38.78498 54.50254 80.61589
#
# Poissons Ratio (x) = 0.47190 0.13418
# Poissons Ratio (y) = 0.33581 0.52437
# Poissons Ratio (z) = 0.06456 0.35452
#
# Static dielectric constant tensor:
#      x y z
#    x 3.552540 0.575140 -0.123540 
#    y 0.575140 3.935800 0.147090 
#    z -0.123540 0.147090 3.802270 
# 
# 
# High freq. dielectric constant tensor:
#      x y z
#    x 1.732980 0.032020 -0.015280 
#    y 0.032020 1.757450 0.009950 
#    z -0.015280 0.009950 1.774480 
# 
# From -- ./inp_files/176514.got.cif
#   From: 2010.06.25/outbox.cif.g09.slc.cpg/sg2_89_cif.got.tgz:176514.got - 2010.06.27 13:26:56.
