data_PCOD8042208
_publ_section_title
;
Structure prediction by ZEFSAII (Michael W. Deem and Ramdas Pophale) SiO2 
 PCOD8042208
Probable space group: P -1
;
_chemical_formula_sum "Si O2"
_cell_formula_units_Z 16
_cell_length_a 9.110589
_cell_length_b 11.875623
_cell_length_c 9.083697
_cell_angle_alpha 101.570541
_cell_angle_beta 98.563208
_cell_angle_gamma 52.557741
_cell_volume 763.994461
_symmetry_space_group_name_H-M "P -1"
_symmetry_group_IT_number 2
_symmetry_cell_setting 'triclinic'
loop_
_space_group_symop_operation_xyz
x,y,z
-x,-y,-z
loop_
_atom_site_type_symbol
_atom_site_label
_atom_site_fract_x
_atom_site_fract_y
_atom_site_fract_z
Si Si1 0.375090 0.883981 0.843053
Si Si2 0.186193 0.872399 0.065644
Si Si3 0.408894 0.796204 0.501462
Si Si4 0.194078 0.056682 0.356488
Si Si5 0.193770 0.445420 0.443127
Si Si6 0.130011 0.725185 0.428585
Si Si7 0.770270 0.758883 0.827057
Si Si8 0.035055 0.214219 0.885032
O O1 0.378170 0.808721 0.675470
O O2 0.564564 0.866392 0.888947
O O3 0.206259 0.048962 0.865958
O O4 0.354645 0.805969 0.957933
O O5 0.155243 0.754517 0.074959
O O6 0.212559 0.935333 0.229928
O O7 0.000000 0.000000 0.000000
O O8 0.627549 0.679047 0.468010
O O9 0.284987 0.746709 0.409087
O O10 0.352477 0.949520 0.471914
O O11 0.218624 0.158472 0.288270
O O12 0.000597 0.153630 0.438629
O O13 0.220442 0.569854 0.470079
O O14 0.195902 0.384638 0.266819
O O15 0.000000 0.500000 0.500000
O O16 0.007963 0.731628 0.275144
O O17 0.914254 0.709869 0.969955
#
# Coordination Sequence:
#
# PCOD8042208 Si02
#       8
#     2   2   2   2   2   2   2   2
#     4  10  21  37  58  94 133 158 200 259 320 366
#     4  10  19  34  59  97 126 159 197 265 317 362
#     4  11  24  40  68  97 121 160 218 262 311 366
#     4  12  21  36  70  99 124 155 212 264 314 361
#     4  11  26  46  61  89 131 173 207 251 314 377
#     4  12  23  42  67  93 128 167 207 261 309 368
#     4  11  24  40  62  91 130 170 204 250 318 378
#     4  11  21  37  63  94 126 162 207 257 314 365
#
# _framework density 20.942561999999999
#
# number of rings (size 3 to 8) (size 9 to 14) (size 15 to 20)
#    0.000    1.000    6.250    2.625    0.000    3.500 
#    0.000    0.000    0.000    3.750    0.000    0.000 
#    0.000    0.000    0.000    0.000    0.000    0.000 
#
# Total GULP energy -198242.039811 kJ/mol
# GULP energy per Si atom -12390.127488 kJ/mol
# Density = 2.089490 g / cm^3
# Si number density = 20.942562 Si / 1000 Ang^3
#
#
#
# Elastic Constant Matrix: (Units=GPa)
#
#
# Indices 1 2 3 4 5 6 
#
# 1 102.1714 18.2721 33.5471 2.1427 -8.1644 -16.4020
# 2 18.2721 58.5396 15.7577 7.9065 -2.3154 -11.7773
# 3 33.5471 15.7577 104.5655 1.5592 3.3925 -9.3478
# 4 2.1427 7.9065 1.5592 18.1072 3.6540 0.2290
# 5 -8.1644 -2.3154 3.3925 3.6540 33.0009 4.6031
# 6 -16.4020 -11.7773 -9.3478 0.2290 4.6031 30.0930
#
#
#
# Elastic Compliance Matrix: (Units=1/GPa)
#
#
# Indices 1 2 3 4 5 6 
#
# 1 0.012145 -0.001756 -0.003302 -0.000988 0.002703 0.004501
# 2 -0.001756 0.020702 -0.001890 -0.009015 0.001314 0.006425
# 3 -0.003302 -0.001890 0.011085 0.000719 -0.002344 0.001257
# 4 -0.000988 -0.009015 0.000719 0.060717 -0.007227 -0.003200
# 5 0.002703 0.001314 -0.002344 -0.007227 0.032617 -0.003675
# 6 0.004501 0.006425 0.001257 -0.003200 -0.003675 0.039175
#
#
# Mechanical properties :
#
#
# Convention : Reuss Voigt Hill
#
# Bulk Modulus (GPa) = 33.29460 44.49225 38.89342
# Shear Modulus (GPa) = 24.95636 29.42019 27.18827
#
# Velocity S-wave (km/s) = 3.45578 3.75214 3.60701
# Velocity P-wave (km/s) = 5.64410 6.32949 5.99659
#
# Compressibility (1/GPa) = 0.03003490
#
# Stress axis : x y z
#
# Youngs Moduli (GPa) = 82.33817 48.30543 90.20880
#
# Poissons Ratio (x) = 0.08483 0.29790
# Poissons Ratio (y) = 0.14459 0.17050
# Poissons Ratio (z) = 0.27191 0.09130
#
# Static dielectric constant tensor:
#      x y z
#    x 4.428150 0.006850 -0.493860 
#    y 0.006850 3.589610 -0.061330 
#    z -0.493860 -0.061330 4.419930 
# 
# 
# High freq. dielectric constant tensor:
#      x y z
#    x 1.826180 -0.001670 0.001530 
#    y -0.001670 1.788260 0.000360 
#    z 0.001530 0.000360 1.828790 
# 
# From -- ./inp_files/188654.got.cif
#   From: 2010.06.25/outbox.cif.g09.slc.cpg/sg2_95_cif.got.tgz:188654.got - 2010.06.27 13:26:56.
