data_PCOD8042401
_publ_section_title
;
Structure prediction by ZEFSAII (Michael W. Deem and Ramdas Pophale) SiO2 
 PCOD8042401
Probable space group: P -1
;
_chemical_formula_sum "Si O2"
_cell_formula_units_Z 14
_cell_length_a 10.936738
_cell_length_b 12.090574
_cell_length_c 12.245430
_cell_angle_alpha 100.054800
_cell_angle_beta 54.182752
_cell_angle_gamma 55.603243
_cell_volume 710.408771
_symmetry_space_group_name_H-M "P -1"
_symmetry_group_IT_number 2
_symmetry_cell_setting 'triclinic'
loop_
_space_group_symop_operation_xyz
x,y,z
-x,-y,-z
loop_
_atom_site_type_symbol
_atom_site_label
_atom_site_fract_x
_atom_site_fract_y
_atom_site_fract_z
Si Si1 0.327621 0.347360 0.051287
Si Si2 0.557095 0.262331 0.315648
Si Si3 0.044881 0.803153 0.992083
Si Si4 0.427644 0.502903 0.918611
Si Si5 0.815869 0.432268 0.623416
Si Si6 0.749662 0.916863 0.815390
Si Si7 0.928612 0.389364 0.226769
O O1 0.175946 0.509270 0.255402
O O2 0.131172 0.369843 0.119294
O O3 0.389535 0.392119 0.924850
O O4 0.629323 0.116054 0.891580
O O5 0.768119 0.233325 0.187409
O O6 0.349086 0.384866 0.342903
O O7 0.380298 0.383831 0.540007
O O8 0.730404 0.039692 0.196400
O O9 0.152522 0.728773 0.048294
O O10 0.064726 0.665864 0.907282
O O11 0.676579 0.394458 0.695018
O O12 0.500000 0.500000 0.000000
O O13 0.124189 0.217515 0.383546
O O14 0.978390 0.768466 0.765261
O O15 0.500000 0.000000 0.000000
#
# Coordination Sequence:
#
# PCOD8042401 Si02
#       7
#     2   2   2   2   2   2   2
#     4  10  20  34  52  77 110 141 172 212 254 302
#     4   9  19  34  55  77 101 136 170 213 263 302
#     4  10  19  35  55  75 103 134 171 216 259 305
#     4   9  20  38  55  74 102 140 181 212 250 311
#     4   9  18  35  55  76 106 139 174 215 253 301
#     4   9  19  32  52  82 106 133 172 211 259 311
#     4  10  20  32  52  81 106 131 170 215 261 309
#
# _framework density 19.706962999999998
#
# number of rings (size 3 to 8) (size 9 to 14) (size 15 to 20)
#    0.000    2.571    0.000    1.286    0.000    9.714 
#    0.000    3.571    0.000    0.000    0.000    0.000 
#    0.000    0.000    0.000    0.000    0.000    0.000 
#
# Total GULP energy -173495.643649 kJ/mol
# GULP energy per Si atom -12392.545975 kJ/mol
# Density = 1.966211 g / cm^3
# Si number density = 19.706963 Si / 1000 Ang^3
#
#
#
# Elastic Constant Matrix: (Units=GPa)
#
#
# Indices 1 2 3 4 5 6 
#
# 1 84.9052 32.6909 40.2426 -0.5102 8.8488 4.9161
# 2 32.6909 110.5734 54.5471 -0.9865 -2.9518 8.6629
# 3 40.2426 54.5471 126.6547 20.6556 3.8623 2.7442
# 4 -0.5102 -0.9865 20.6556 18.2208 0.2783 0.9948
# 5 8.8488 -2.9518 3.8623 0.2783 24.7171 -3.3371
# 6 4.9161 8.6629 2.7442 0.9948 -3.3371 25.5480
#
#
#
# Elastic Compliance Matrix: (Units=1/GPa)
#
#
# Indices 1 2 3 4 5 6 
#
# 1 0.015649 -0.002139 -0.004801 0.005999 -0.005543 -0.002728
# 2 -0.002139 0.013197 -0.006314 0.007951 0.002789 -0.003330
# 3 -0.004801 -0.006314 0.014988 -0.017564 -0.000907 0.002020
# 4 0.005999 0.007951 -0.017564 0.075659 0.000032 -0.004906
# 5 -0.005543 0.002789 -0.000907 0.000032 0.043717 0.005928
# 6 -0.002728 -0.003330 0.002020 -0.004906 0.005928 0.041545
#
#
# Mechanical properties :
#
#
# Convention : Reuss Voigt Hill
#
# Bulk Modulus (GPa) = 57.71381 64.12160 60.91770
# Shear Modulus (GPa) = 21.09364 26.67401 23.88383
#
# Velocity S-wave (km/s) = 3.27519 3.68303 3.48508
# Velocity P-wave (km/s) = 6.60697 7.12000 6.86828
#
# Compressibility (1/GPa) = 0.01732688
#
# Stress axis : x y z
#
# Youngs Moduli (GPa) = 63.90323 75.77460 66.71796
#
# Poissons Ratio (x) = 0.16207 0.32032
# Poissons Ratio (y) = 0.13667 0.42124
# Poissons Ratio (z) = 0.30681 0.47842
#
# Static dielectric constant tensor:
#      x y z
#    x 3.353490 0.077150 -0.121370 
#    y 0.077150 4.223730 0.121010 
#    z -0.121370 0.121010 3.730310 
# 
# 
# High freq. dielectric constant tensor:
#      x y z
#    x 1.751810 0.001280 -0.007620 
#    y 0.001280 1.759610 0.004050 
#    z -0.007620 0.004050 1.761840 
# 
# From -- ./inp_files/66191.got.cif
#   From: 2010.06.25/outbox.cif.g09.slc.cpg/sg2_34_cif.got.tgz:66191.got - 2010.06.27 13:26:56.
