data_PCOD8042299
_publ_section_title
;
Structure prediction by ZEFSAII (Michael W. Deem and Ramdas Pophale) SiO2 
 PCOD8042299
Probable space group: P -1
;
_chemical_formula_sum "Si O2"
_cell_formula_units_Z 14
_cell_length_a 17.239073
_cell_length_b 12.464579
_cell_length_c 11.479878
_cell_angle_alpha 44.156661
_cell_angle_beta 157.636547
_cell_angle_gamma 132.613227
_cell_volume 652.963842
_symmetry_space_group_name_H-M "P -1"
_symmetry_group_IT_number 2
_symmetry_cell_setting 'triclinic'
loop_
_space_group_symop_operation_xyz
x,y,z
-x,-y,-z
loop_
_atom_site_type_symbol
_atom_site_label
_atom_site_fract_x
_atom_site_fract_y
_atom_site_fract_z
Si Si1 0.597285 0.158733 0.965478
Si Si2 0.047786 0.674364 0.551406
Si Si3 0.582412 0.261128 0.617347
Si Si4 0.077634 0.699781 0.100151
Si Si5 0.687851 0.580002 0.267570
Si Si6 0.686645 0.616656 0.489662
Si Si7 0.124440 0.323360 0.932037
O O1 0.623727 0.150539 0.869511
O O2 0.455556 0.299429 0.683551
O O3 0.814700 0.189770 0.304868
O O4 0.500000 0.000000 0.000000
O O5 0.147401 0.508876 0.837965
O O6 0.819547 0.686329 0.278169
O O7 0.032484 0.710806 0.364642
O O8 0.721758 0.202371 0.748107
O O9 0.662866 0.435166 0.622939
O O10 0.343387 0.257954 0.256090
O O11 0.153392 0.537280 0.372679
O O12 0.969800 0.766404 0.014322
O O13 0.918260 0.676614 0.791075
O O14 0.619399 0.663333 0.227055
O O15 0.500000 0.500000 0.000000
#
# Coordination Sequence:
#
# PCOD8042299 Si02
#       7
#     2   2   2   2   2   2   2
#     4  12  25  39  59  87 125 168 207 244 297 368
#     4  10  20  36  56  91 127 153 194 253 309 346
#     4  11  19  38  62  87 118 154 202 255 304 351
#     4  10  20  32  58  92 117 151 196 248 307 361
#     4  10  20  33  59  98 124 145 196 261 316 353
#     4  11  20  37  61  88 118 158 204 253 299 358
#     4  10  19  34  62  92 116 152 195 254 309 355
#
# _framework density 21.440697
#
# number of rings (size 3 to 8) (size 9 to 14) (size 15 to 20)
#    0.000    1.429    2.857    6.429    4.000    0.000 
#    0.000    3.571    0.000    0.857    0.000    0.000 
#    0.000    0.000    0.000    0.000    0.000    0.000 
#
# Total GULP energy -173510.894998 kJ/mol
# GULP energy per Si atom -12393.635357 kJ/mol
# Density = 2.139190 g / cm^3
# Si number density = 21.440697 Si / 1000 Ang^3
#
#
#
# Elastic Constant Matrix: (Units=GPa)
#
#
# Indices 1 2 3 4 5 6 
#
# 1 139.1022 30.7547 55.7417 16.1032 -11.0818 37.5168
# 2 30.7547 62.7418 29.4842 15.5892 -7.1719 23.7632
# 3 55.7417 29.4842 118.4700 35.9747 -7.7562 11.6304
# 4 16.1032 15.5892 35.9747 24.4313 5.3483 1.6410
# 5 -11.0818 -7.1719 -7.7562 5.3483 41.4939 6.5897
# 6 37.5168 23.7632 11.6304 1.6410 6.5897 24.8534
#
#
#
# Elastic Compliance Matrix: (Units=1/GPa)
#
#
# Indices 1 2 3 4 5 6 
#
# 1 0.025534 0.023630 0.000631 -0.034072 0.025903 -0.066051
# 2 0.023630 0.064591 0.008121 -0.071403 0.045437 -0.108561
# 3 0.000631 0.008121 0.019949 -0.036546 0.013045 -0.019099
# 4 -0.034072 -0.071403 -0.036546 0.169022 -0.073089 0.145023
# 5 0.025903 0.045437 0.013045 -0.073089 0.066858 -0.101550
# 6 -0.066051 -0.108561 -0.019099 0.145023 -0.101550 0.270028
#
#
# Mechanical properties :
#
#
# Convention : Reuss Voigt Hill
#
# Bulk Modulus (GPa) = 5.71951 61.36389 33.54170
# Shear Modulus (GPa) = 8.20350 31.77797 19.99074
#
# Velocity S-wave (km/s) = 1.95817 3.85403 3.05679
# Velocity P-wave (km/s) = 2.79034 6.96327 5.30439
#
# Compressibility (1/GPa) = 0.17484028
#
# Stress axis : x y z
#
# Youngs Moduli (GPa) = 39.16390 15.48200 50.12679
#
# Poissons Ratio (x) = -0.36585 -0.03165
# Poissons Ratio (y) = -0.92546 -0.40708
# Poissons Ratio (z) = -0.02473 -0.12573
#
# Static dielectric constant tensor:
#      x y z
#    x 5.189600 0.388840 0.021640 
#    y 0.388840 3.208950 0.200800 
#    z 0.021640 0.200800 3.888240 
# 
# 
# High freq. dielectric constant tensor:
#      x y z
#    x 1.864060 0.028440 -0.003040 
#    y 0.028440 1.764230 0.025260 
#    z -0.003040 0.025260 1.849330 
# 
# From -- ./inp_files/153800.got.cif
#   From: 2010.06.25/outbox.cif.g09.slc.cpg/sg2_77_cif.got.tgz:153800.got - 2010.06.27 13:26:56.
