data_PCOD8042268
_publ_section_title
;
Structure prediction by ZEFSAII (Michael W. Deem and Ramdas Pophale) SiO2 
 PCOD8042268
Probable space group: P -1
;
_chemical_formula_sum "Si O2"
_cell_formula_units_Z 14
_cell_length_a 9.059999
_cell_length_b 9.171690
_cell_length_c 10.751805
_cell_angle_alpha 52.468155
_cell_angle_beta 108.014157
_cell_angle_gamma 121.086311
_cell_volume 606.734713
_symmetry_space_group_name_H-M "P -1"
_symmetry_group_IT_number 2
_symmetry_cell_setting 'triclinic'
loop_
_space_group_symop_operation_xyz
x,y,z
-x,-y,-z
loop_
_atom_site_type_symbol
_atom_site_label
_atom_site_fract_x
_atom_site_fract_y
_atom_site_fract_z
Si Si1 0.303769 0.175977 0.741800
Si Si2 0.145816 0.293475 0.854733
Si Si3 0.656881 0.251813 0.362627
Si Si4 0.225751 0.840117 0.077010
Si Si5 0.436688 0.205489 0.093651
Si Si6 0.651387 0.461533 0.805631
Si Si7 0.347123 0.153774 0.479465
O O1 0.158351 0.216505 0.758455
O O2 0.483748 0.363500 0.725733
O O3 0.283093 0.164880 0.595363
O O4 0.285100 0.957075 0.899583
O O5 0.185626 0.531053 0.731888
O O6 0.277350 0.264058 0.000862
O O7 0.954046 0.167694 0.920620
O O8 0.497179 0.205904 0.249169
O O9 0.556445 0.239540 0.473366
O O10 0.732744 0.083667 0.461519
O O11 0.210347 0.612801 0.174300
O O12 0.376397 0.975980 0.143040
O O13 0.600784 0.378553 0.975226
O O14 0.723162 0.707432 0.691063
#
# Coordination Sequence:
#
# PCOD8042268 Si02
#       7
#     2   2   2   2   2   2   2
#     4  10  19  38  62  88 115 156 199 242 284 349
#     4  10  21  38  66  88 118 149 200 244 295 338
#     4  11  22  38  62  91 115 155 198 247 287 343
#     4  10  20  38  64  90 116 152 196 247 290 344
#     4  10  19  38  63  90 112 153 203 242 284 345
#     4  10  19  34  61  90 114 155 201 239 281 349
#     4  11  22  36  60  86 122 154 201 237 289 346
#
# _framework density 23.074335000000001
#
# number of rings (size 3 to 8) (size 9 to 14) (size 15 to 20)
#    0.000    2.000    2.857    6.000    0.000    0.000 
#    0.000    4.286    9.429    0.000    0.000    0.000 
#    0.000    0.000    0.000    0.000    0.000    0.000 
#
# Total GULP energy -173456.383671 kJ/mol
# GULP energy per Si atom -12389.741691 kJ/mol
# Density = 2.302182 g / cm^3
# Si number density = 23.074335 Si / 1000 Ang^3
#
#
#
# Elastic Constant Matrix: (Units=GPa)
#
#
# Indices 1 2 3 4 5 6 
#
# 1 105.8044 25.4417 37.0074 2.3511 -5.1011 -26.8004
# 2 25.4417 69.1795 48.7620 -24.0333 7.9894 -23.3030
# 3 37.0074 48.7620 86.6411 -16.8399 -5.1327 -20.2661
# 4 2.3511 -24.0333 -16.8399 35.3379 -18.4342 9.8350
# 5 -5.1011 7.9894 -5.1327 -18.4342 27.4471 -15.6724
# 6 -26.8004 -23.3030 -20.2661 9.8350 -15.6724 31.1435
#
#
#
# Elastic Compliance Matrix: (Units=1/GPa)
#
#
# Indices 1 2 3 4 5 6 
#
# 1 0.015469 0.000411 -0.001288 0.000514 0.014124 0.019727
# 2 0.000411 0.032432 -0.010050 0.018052 0.011155 0.017994
# 3 -0.001288 -0.010050 0.026903 0.016095 0.029038 0.018408
# 4 0.000514 0.018052 0.016095 0.073541 0.067253 0.035043
# 5 0.014124 0.011155 0.029038 0.067253 0.135801 0.086498
# 6 0.019727 0.017994 0.018408 0.035043 0.086498 0.106990
#
#
# Mechanical properties :
#
#
# Convention : Reuss Voigt Hill
#
# Bulk Modulus (GPa) = 18.88563 53.78303 36.33433
# Shear Modulus (GPa) = 11.61060 28.81328 20.21194
#
# Velocity S-wave (km/s) = 2.24561 3.53755 2.96285
# Velocity P-wave (km/s) = 3.86343 6.32810 5.24266
#
# Compressibility (1/GPa) = 0.05295031
#
# Stress axis : x y z
#
# Youngs Moduli (GPa) = 64.64385 30.83358 37.17091
#
# Poissons Ratio (x) = -0.01268 0.04788
# Poissons Ratio (y) = -0.02659 0.37358
# Poissons Ratio (z) = 0.08326 0.30988
#
# Static dielectric constant tensor:
#      x y z
#    x 3.871840 -0.479750 -0.102150 
#    y -0.479750 4.024210 -0.324850 
#    z -0.102150 -0.324850 4.153720 
# 
# 
# High freq. dielectric constant tensor:
#      x y z
#    x 1.890340 -0.044400 -0.015060 
#    y -0.044400 1.890150 -0.029690 
#    z -0.015060 -0.029690 1.910100 
# 
# From -- ./inp_files/381365.got.cif
#   From: 2010.06.25/outbox.cif.g09.slc.cpg/sg2_191_cif.got.tgz:381365.got - 2010.06.27 13:26:56.
