data_PCOD8042929
_publ_section_title
;
Structure prediction by ZEFSAII (Michael W. Deem and Ramdas Pophale) SiO2 
 PCOD8042929
Probable space group: P -1
;
_chemical_formula_sum "Si O2"
_cell_formula_units_Z 16
_cell_length_a 5.309898
_cell_length_b 21.513946
_cell_length_c 22.051543
_cell_angle_alpha 42.051517
_cell_angle_beta 61.546782
_cell_angle_gamma 68.562512
_cell_volume 1483.181934
_symmetry_space_group_name_H-M "P -1"
_symmetry_group_IT_number 2
_symmetry_cell_setting 'triclinic'
loop_
_space_group_symop_operation_xyz
x,y,z
-x,-y,-z
loop_
_atom_site_type_symbol
_atom_site_label
_atom_site_fract_x
_atom_site_fract_y
_atom_site_fract_z
Si Si1 0.508256 0.411254 0.688963
Si Si2 0.717705 0.175553 0.758498
Si Si3 0.398897 0.225664 0.882465
Si Si4 0.870015 0.127818 0.970281
Si Si5 0.838990 0.559953 0.410293
Si Si6 0.189099 0.076885 0.846830
Si Si7 0.913228 0.342114 0.535320
Si Si8 0.517978 0.612195 0.533632
O O1 0.387795 0.338057 0.804699
O O2 0.339968 0.395336 0.656837
O O3 0.441988 0.515844 0.645753
O O4 0.850358 0.394010 0.656477
O O5 0.557796 0.197848 0.822668
O O6 0.509794 0.116794 0.781485
O O7 0.790758 0.271308 0.648692
O O8 0.010179 0.117630 0.780750
O O9 0.576850 0.185513 0.948382
O O10 0.078288 0.186063 0.947907
O O11 0.029849 0.103854 0.907244
O O12 0.788134 0.034024 0.082357
O O13 0.859033 0.448515 0.485872
O O14 0.674045 0.585235 0.471879
O O15 0.766016 0.328817 0.495469
O O16 0.257757 0.327258 0.497642
#
# Coordination Sequence:
#
# PCOD8042929 Si02
#       8
#     2   2   2   2   2   2   2   2
#     4  10  17  22  28  37  43  51  57  60  66  72
#     4  10  16  22  31  37  41  47  57  63  66  78
#     4  10  16  22  31  37  41  47  57  63  66  78
#     4   9  17  25  30  35  41  47  53  64  75  77
#     4  10  16  22  28  34  47  53  54  60  66  72
#     4   9  17  25  30  35  41  47  53  64  75  77
#     4  10  17  22  28  37  43  51  57  60  66  72
#     4  10  16  22  28  34  47  53  54  60  66  72
#
# _framework density 10.787616999999999
#
# number of rings (size 3 to 8) (size 9 to 14) (size 15 to 20)
#    0.000    2.250    0.000    8.250    0.000    5.000 
#    0.000    0.000    0.000    0.000    0.000    0.000 
#    0.000    0.000    0.000    0.000    0.000    0.000 
#
# Total GULP energy -198250.297071 kJ/mol
# GULP energy per Si atom -12390.643567 kJ/mol
# Density = 1.076306 g / cm^3
# Si number density = 10.787617 Si / 1000 Ang^3
#
#
#
# Elastic Constant Matrix: (Units=GPa)
#
#
# Indices 1 2 3 4 5 6 
#
# 1 118.4081 8.7720 29.7977 -15.8830 -6.4719 -2.5521
# 2 8.7720 4.0121 13.4754 -7.3327 -0.0082 -0.4452
# 3 29.7977 13.4754 45.6140 -24.7230 -1.9444 -0.4697
# 4 -15.8830 -7.3327 -24.7230 13.4271 0.5200 0.5313
# 5 -6.4719 -0.0082 -1.9444 0.5200 10.4655 -5.3611
# 6 -2.5521 -0.4452 -0.4697 0.5313 -5.3611 3.0469
#
#
#
# Elastic Compliance Matrix: (Units=1/GPa)
#
#
# Indices 1 2 3 4 5 6 
#
# 1 -6.890382 -6.903327 4.415536 4.364660-72.764097**********
# 2 -6.903327**********195.515747**********-54.621169**********
# 3 4.415536195.515747********************-40.248280 96.195983
# 4 4.364660**************************************** 30.738262
# 5 -72.764097-54.621168-40.248280******************************
# 6 ******************** 96.195983 30.738263********************
#
#
# Mechanical properties :
#
#
# Convention : Reuss Voigt Hill
#
# Bulk Modulus (GPa) = -0.00032 30.23605 15.11787
# Shear Modulus (GPa) = -0.00042 13.12050 6.56004
#
# Velocity S-wave (km/s) = -0.01976 3.49127 2.46866
# Velocity P-wave (km/s) = 0.02855 6.65892 4.70853
#
# Compressibility (1/GPa) = *************
#
# Stress axis : x y z
#
# Youngs Moduli (GPa) = -0.14513 -0.00038 -0.00108
#
# Poissons Ratio (x) = -0.00264 0.00479
# Poissons Ratio (y) = -1.00188 0.21205
# Poissons Ratio (z) = 0.64083 0.07486
#
# Static dielectric constant tensor:
#      x y z
#    x 3.429440 -0.082670 -0.041550 
#    y -0.082670 1.716310 -0.475340 
#    z -0.041550 -0.475340 2.315520 
# 
# 
# High freq. dielectric constant tensor:
#      x y z
#    x 1.445810 -0.007190 -0.003900 
#    y -0.007190 1.302090 -0.068740 
#    z -0.003900 -0.068740 1.392840 
# 
# From -- ./inp_files/96398.got.cif
#   From: 2010.06.25/outbox.cif.g09.slc.cpg/sg2_49_cif.got.tgz:96398.got - 2010.06.27 13:26:56.
