data_PCOD8042865
_publ_section_title
;
Structure prediction by ZEFSAII (Michael W. Deem and Ramdas Pophale) SiO2 
 PCOD8042865
Probable space group: P -1
;
_chemical_formula_sum "Si O2"
_cell_formula_units_Z 16
_cell_length_a 9.231330
_cell_length_b 7.732895
_cell_length_c 11.783606
_cell_angle_alpha 94.880634
_cell_angle_beta 115.140898
_cell_angle_gamma 81.682323
_cell_volume 753.211935
_symmetry_space_group_name_H-M "P -1"
_symmetry_group_IT_number 2
_symmetry_cell_setting 'triclinic'
loop_
_space_group_symop_operation_xyz
x,y,z
-x,-y,-z
loop_
_atom_site_type_symbol
_atom_site_label
_atom_site_fract_x
_atom_site_fract_y
_atom_site_fract_z
Si Si1 0.307604 0.225968 0.582360
Si Si2 0.192840 0.719994 0.770956
Si Si3 0.846636 0.797699 0.708993
Si Si4 0.343915 0.867073 0.237294
Si Si5 0.796817 0.678256 0.211229
Si Si6 0.535174 0.181604 0.975819
Si Si7 0.861525 0.389610 0.726074
Si Si8 0.163936 0.587932 0.534257
O O1 0.211445 0.164298 0.438329
O O2 0.489461 0.131481 0.638827
O O3 0.224247 0.194679 0.676777
O O4 0.314112 0.434166 0.583683
O O5 0.165455 0.518215 0.744646
O O6 0.195424 0.750822 0.636909
O O7 0.035643 0.827583 0.780961
O O8 0.356621 0.741706 0.889203
O O9 0.825134 0.602041 0.735862
O O10 0.754905 0.942721 0.768198
O O11 0.371338 0.835951 0.111825
O O12 0.254827 0.703399 0.237042
O O13 0.635743 0.698572 0.082843
O O14 0.954580 0.697712 0.187879
O O15 0.500000 0.000000 0.000000
O O16 0.837640 0.329647 0.585954
O O17 0.000000 0.500000 0.500000
#
# Coordination Sequence:
#
# PCOD8042865 Si02
#       8
#     2   2   2   2   2   2   2   2
#     4   9  17  37  63  92 133 159 198 260 308 374
#     4  10  19  39  67  93 118 169 212 253 308 375
#     4  10  20  39  64  93 133 160 203 256 324 374
#     4  11  25  41  60  93 131 166 210 258 310 378
#     4   9  18  40  67  89 120 162 214 257 303 372
#     4  11  26  45  59  86 126 169 216 264 305 366
#     4  10  20  40  69  97 123 165 202 261 323 365
#     4  10  15  36  70  97 124 157 204 258 308 381
#
# _framework density 21.242360999999999
#
# number of rings (size 3 to 8) (size 9 to 14) (size 15 to 20)
#    0.000    2.000    5.000    0.750    1.750    2.500 
#   15.750    2.500    0.000    0.000    0.000    0.000 
#    0.000    0.000    0.000    0.000    0.000    0.000 
#
# Total GULP energy -198215.855151 kJ/mol
# GULP energy per Si atom -12388.490947 kJ/mol
# Density = 2.119401 g / cm^3
# Si number density = 21.242361 Si / 1000 Ang^3
#
#
#
# Elastic Constant Matrix: (Units=GPa)
#
#
# Indices 1 2 3 4 5 6 
#
# 1 70.2182 31.2547 39.1316 -18.8520 -0.9270 -13.6387
# 2 31.2547 80.0496 19.2520 -2.8767 1.5357 -21.0892
# 3 39.1316 19.2520 116.5740 0.0998 15.3404 -2.8339
# 4 -18.8520 -2.8767 0.0998 18.0539 -4.3733 1.3409
# 5 -0.9270 1.5357 15.3404 -4.3733 32.0382 -12.3613
# 6 -13.6387 -21.0892 -2.8339 1.3409 -12.3613 37.5044
#
#
#
# Elastic Compliance Matrix: (Units=1/GPa)
#
#
# Indices 1 2 3 4 5 6 
#
# 1 0.041654 -0.007359 -0.015203 0.046372 0.021003 0.015126
# 2 -0.007359 0.017255 -0.000371 -0.005166 0.001379 0.007638
# 3 -0.015203 -0.000371 0.015338 -0.018679 -0.013547 -0.008376
# 4 0.046372 -0.005166 -0.018679 0.109643 0.033028 0.019513
# 5 0.021003 0.001379 -0.013547 0.033028 0.051723 0.023257
# 6 0.015126 0.007638 -0.008376 0.019513 0.023257 0.042794
#
#
# Mechanical properties :
#
#
# Convention : Reuss Voigt Hill
#
# Bulk Modulus (GPa) = 35.23419 49.56872 42.40145
# Shear Modulus (GPa) = 14.98207 29.33284 22.15745
#
# Velocity S-wave (km/s) = 2.65861 3.72003 3.23318
# Velocity P-wave (km/s) = 5.10363 6.46815 5.82598
#
# Compressibility (1/GPa) = 0.02838153
#
# Stress axis : x y z
#
# Youngs Moduli (GPa) = 24.00717 57.95524 65.19749
#
# Poissons Ratio (x) = 0.42648 0.99120
# Poissons Ratio (y) = 0.17666 0.02417
# Poissons Ratio (z) = 0.36498 0.02149
#
# Static dielectric constant tensor:
#      x y z
#    x 4.064810 -0.391850 0.106370 
#    y -0.391850 3.768090 -0.170050 
#    z 0.106370 -0.170050 3.716520 
# 
# 
# High freq. dielectric constant tensor:
#      x y z
#    x 1.821450 -0.027210 0.008650 
#    y -0.027210 1.819460 -0.009850 
#    z 0.008650 -0.009850 1.831460 
# 
# From -- ./inp_files/382701.got.cif
#   From: 2010.06.25/outbox.cif.g09.slc.cpg/sg2_192_cif.got.tgz:382701.got - 2010.06.27 13:26:56.
