data_PCOD8042181
_publ_section_title
;
Structure prediction by ZEFSAII (Michael W. Deem and Ramdas Pophale) SiO2 
 PCOD8042181
Probable space group: P -1
;
_chemical_formula_sum "Si O2"
_cell_formula_units_Z 16
_cell_length_a 11.447325
_cell_length_b 19.026231
_cell_length_c 7.471625
_cell_angle_alpha 58.102509
_cell_angle_beta 90.651903
_cell_angle_gamma 42.845444
_cell_volume 679.349900
_symmetry_space_group_name_H-M "P -1"
_symmetry_group_IT_number 2
_symmetry_cell_setting 'triclinic'
loop_
_space_group_symop_operation_xyz
x,y,z
-x,-y,-z
loop_
_atom_site_type_symbol
_atom_site_label
_atom_site_fract_x
_atom_site_fract_y
_atom_site_fract_z
Si Si1 0.741022 0.232570 0.884615
Si Si2 0.612646 0.137193 0.099594
Si Si3 0.102516 0.204043 0.495597
Si Si4 0.006345 0.710693 0.014729
Si Si5 0.286074 0.264783 0.446438
Si Si6 0.873460 0.611464 0.124752
Si Si7 0.293307 0.583250 0.520998
Si Si8 0.250395 0.970958 0.360225
O O1 0.551501 0.382445 0.831521
O O2 0.701170 0.319030 0.597054
O O3 0.685676 0.170207 0.931254
O O4 0.015958 0.067811 0.165270
O O5 0.751193 0.971104 0.255037
O O6 0.678274 0.116296 0.334908
O O7 0.328016 0.301161 0.864893
O O8 0.289231 0.162848 0.592475
O O9 0.946851 0.313457 0.165620
O O10 0.903771 0.332749 0.469957
O O11 0.786626 0.908235 0.773651
O O12 0.227779 0.603378 0.283597
O O13 0.932815 0.664500 0.132864
O O14 0.109556 0.408887 0.401794
O O15 0.542035 0.153544 0.621611
O O16 0.215102 0.331981 0.154378
#
# Coordination Sequence:
#
# PCOD8042181 Si02
#       8
#     2   2   2   2   2   2   2   2
#     4  10  21  39  56  80 121 158 193 239 283 335
#     4  10  19  34  59  87 117 154 193 235 288 345
#     4  10  20  37  63  89 115 150 190 239 294 343
#     4   9  19  38  60  88 116 148 191 237 294 342
#     4   9  17  32  58  90 117 148 190 236 292 346
#     4   9  17  32  58  89 119 147 186 241 290 344
#     4  10  22  41  61  83 117 154 194 242 285 337
#     4   9  18  35  58  85 120 155 190 237 288 342
#
# _framework density 23.551928
#
# number of rings (size 3 to 8) (size 9 to 14) (size 15 to 20)
#    0.000    2.500    0.000    1.875    0.000    4.500 
#    0.000   24.375    0.000    0.000    0.000    0.000 
#    0.000    0.000    0.000    0.000    0.000    0.000 
#
# Total GULP energy -198211.614953 kJ/mol
# GULP energy per Si atom -12388.225935 kJ/mol
# Density = 2.349832 g / cm^3
# Si number density = 23.551928 Si / 1000 Ang^3
#
#
#
# Elastic Constant Matrix: (Units=GPa)
#
#
# Indices 1 2 3 4 5 6 
#
# 1 155.5832 44.0730 49.6511 -13.6563 -19.5579 -17.1819
# 2 44.0730 64.5711 27.1206 -20.7092 17.5644 -21.9781
# 3 49.6511 27.1206 72.9052 -13.6777 -4.2196 -5.5597
# 4 -13.6563 -20.7092 -13.6777 29.9332 -4.2300 5.1844
# 5 -19.5579 17.5644 -4.2196 -4.2300 30.2416 -14.4577
# 6 -17.1819 -21.9781 -5.5597 5.1844 -14.4577 33.2067
#
#
#
# Elastic Compliance Matrix: (Units=1/GPa)
#
#
# Indices 1 2 3 4 5 6 
#
# 1 0.013491 -0.010221 -0.004124 -0.001618 0.017369 0.007340
# 2 -0.010221 0.038271 -0.005462 0.014784 -0.024616 0.006102
# 3 -0.004124 -0.005462 0.019307 0.003890 0.002841 -0.001886
# 4 -0.001618 0.014784 0.003890 0.044069 -0.002054 0.001825
# 5 0.017369 -0.024616 0.002841 -0.002054 0.070207 0.024058
# 6 0.007340 0.006102 -0.001886 0.001825 0.024058 0.047824
#
#
# Mechanical properties :
#
#
# Convention : Reuss Voigt Hill
#
# Bulk Modulus (GPa) = 31.79084 59.41653 45.60369
# Shear Modulus (GPa) = 17.65102 30.15728 23.90415
#
# Velocity S-wave (km/s) = 2.74058 3.58223 3.18929
# Velocity P-wave (km/s) = 4.85200 6.51095 5.74171
#
# Compressibility (1/GPa) = 0.03145560
#
# Stress axis : x y z
#
# Youngs Moduli (GPa) = 74.12418 26.12912 51.79402
#
# Poissons Ratio (x) = 0.26707 0.21360
# Poissons Ratio (y) = 0.75765 0.28288
# Poissons Ratio (z) = 0.30569 0.14271
#
# Static dielectric constant tensor:
#      x y z
#    x 4.193620 -0.190930 -0.077810 
#    y -0.190930 4.103130 -0.222420 
#    z -0.077810 -0.222420 4.263690 
# 
# 
# High freq. dielectric constant tensor:
#      x y z
#    x 1.937600 -0.017310 -0.008090 
#    y -0.017310 1.912990 -0.015520 
#    z -0.008090 -0.015520 1.925570 
# 
# From -- ./inp_files/226477.got.cif
#   From: 2010.06.25/outbox.cif.g09.slc.cpg/sg2_114_cif.got.tgz:226477.got - 2010.06.27 13:26:56.
