data_PCOD8042933
_publ_section_title
;
Structure prediction by ZEFSAII (Michael W. Deem and Ramdas Pophale) SiO2 
 PCOD8042933
Probable space group: P -1
;
_chemical_formula_sum "Si O2"
_cell_formula_units_Z 14
_cell_length_a 14.322176
_cell_length_b 8.274837
_cell_length_c 7.321157
_cell_angle_alpha 128.485141
_cell_angle_beta 113.388374
_cell_angle_gamma 88.579289
_cell_volume 592.797606
_symmetry_space_group_name_H-M "P -1"
_symmetry_group_IT_number 2
_symmetry_cell_setting 'triclinic'
loop_
_space_group_symop_operation_xyz
x,y,z
-x,-y,-z
loop_
_atom_site_type_symbol
_atom_site_label
_atom_site_fract_x
_atom_site_fract_y
_atom_site_fract_z
Si Si1 0.201116 0.539110 0.809492
Si Si2 0.835481 0.266169 0.429031
Si Si3 0.704692 0.963898 0.720474
Si Si4 0.970714 0.747372 0.255570
Si Si5 0.898073 0.911948 0.985124
Si Si6 0.610505 0.657068 0.130163
Si Si7 0.610757 0.953006 0.025044
O O1 0.163420 0.531925 0.561242
O O2 0.105379 0.385802 0.741536
O O3 0.304564 0.467078 0.864900
O O4 0.231957 0.783750 0.080314
O O5 0.920038 0.326630 0.708346
O O6 0.878400 0.101404 0.226764
O O7 0.713433 0.148414 0.316662
O O8 0.637246 0.874919 0.425492
O O9 0.791132 0.830340 0.720225
O O10 0.623786 0.920450 0.797710
O O11 0.914111 0.718543 0.991061
O O12 0.000000 0.000000 0.500000
O O13 0.000000 0.000000 0.000000
O O14 0.606119 0.730853 0.969596
O O15 0.500000 0.500000 0.000000
O O16 0.500000 0.000000 0.000000
#
# Coordination Sequence:
#
# PCOD8042933 Si02
#       7
#     2   2   2   2   2   2   2
#     4  10  21  42  65  95 137 174 220 274 336 392
#     4   9  20  37  61  94 128 175 219 270 325 393
#     4  10  25  45  65 101 136 169 227 280 321 410
#     4  10  19  35  65  91 129 178 215 266 333 390
#     4   9  19  35  62  91 134 171 211 269 328 384
#     4  12  25  42  75  98 126 182 223 273 348 389
#     4  10  22  44  68  95 137 175 221 276 337 390
#
# _framework density 23.616831000000001
#
# number of rings (size 3 to 8) (size 9 to 14) (size 15 to 20)
#    0.000    2.286    0.000    4.714    6.000    2.857 
#    0.000   10.000    0.000    0.000    0.000    0.000 
#    0.000    0.000    0.000    0.000    0.000    0.000 
#
# Total GULP energy -173532.448170 kJ/mol
# GULP energy per Si atom -12395.174869 kJ/mol
# Density = 2.356308 g / cm^3
# Si number density = 23.616831 Si / 1000 Ang^3
#
#
#
# Elastic Constant Matrix: (Units=GPa)
#
#
# Indices 1 2 3 4 5 6 
#
# 1 155.0764 58.0036 23.5777 -5.5679 49.4930 0.6191
# 2 58.0036 187.6081 29.9639 -3.6687 28.0125 5.9256
# 3 23.5777 29.9639 57.9994 -5.5592 24.9918 0.6473
# 4 -5.5679 -3.6687 -5.5592 28.9382 -3.5129 14.3872
# 5 49.4930 28.0125 24.9918 -3.5129 36.7835 -0.1609
# 6 0.6191 5.9256 0.6473 14.3872 -0.1609 51.6446
#
#
#
# Elastic Compliance Matrix: (Units=1/GPa)
#
#
# Indices 1 2 3 4 5 6 
#
# 1 0.012096 -0.001692 0.003483 0.000823 -0.017276 -0.000278
# 2 -0.001692 0.006388 -0.002076 0.000336 -0.001149 -0.000784
# 3 0.003483 -0.002076 0.026079 0.003512 -0.020493 -0.001173
# 4 0.000823 0.000336 0.003512 0.041200 0.000135 -0.011570
# 5 -0.017276 -0.001149 -0.020493 0.000135 0.065247 0.000761
# 6 -0.000278 -0.000784 -0.001173 -0.011570 0.000761 0.022696
#
#
# Mechanical properties :
#
#
# Convention : Reuss Voigt Hill
#
# Bulk Modulus (GPa) = 22.73123 69.30826 46.01974
# Shear Modulus (GPa) = 26.46340 42.74919 34.60630
#
# Velocity S-wave (km/s) = 3.35107 4.25916 3.83211
# Velocity P-wave (km/s) = 4.96173 7.32106 6.25367
#
# Compressibility (1/GPa) = 0.04399235
#
# Stress axis : x y z
#
# Youngs Moduli (GPa) = 82.67199 156.54869 38.34564
#
# Poissons Ratio (x) = 0.26482 -0.13355
# Poissons Ratio (y) = 0.13985 0.07962
# Poissons Ratio (z) = -0.28794 0.32504
#
# Static dielectric constant tensor:
#      x y z
#    x 4.236020 -0.142820 0.248240 
#    y -0.142820 5.848040 -1.365590 
#    z 0.248240 -1.365590 5.193890 
# 
# 
# High freq. dielectric constant tensor:
#      x y z
#    x 1.934790 -0.006960 0.015510 
#    y -0.006960 1.960350 -0.013850 
#    z 0.015510 -0.013850 1.925620 
# 
# From -- ./inp_files/296482.got.cif
#   From: 2010.06.25/outbox.cif.g09.slc.cpg/sg2_149_cif.got.tgz:296482.got - 2010.06.27 13:26:56.
