data_PCOD8042237
_publ_section_title
;
Structure prediction by ZEFSAII (Michael W. Deem and Ramdas Pophale) SiO2 
 PCOD8042237
Probable space group: P -1
;
_chemical_formula_sum "Si O2"
_cell_formula_units_Z 16
_cell_length_a 12.377358
_cell_length_b 18.466011
_cell_length_c 20.870341
_cell_angle_alpha 153.693823
_cell_angle_beta 22.520988
_cell_angle_gamma 142.155915
_cell_volume 788.713850
_symmetry_space_group_name_H-M "P -1"
_symmetry_group_IT_number 2
_symmetry_cell_setting 'triclinic'
loop_
_space_group_symop_operation_xyz
x,y,z
-x,-y,-z
loop_
_atom_site_type_symbol
_atom_site_label
_atom_site_fract_x
_atom_site_fract_y
_atom_site_fract_z
Si Si1 0.227876 0.652931 0.452352
Si Si2 0.389867 0.454535 0.436323
Si Si3 0.448466 0.777419 0.719270
Si Si4 0.771884 0.061212 0.482850
Si Si5 0.141437 0.970335 0.329541
Si Si6 0.582340 0.637197 0.795441
Si Si7 0.171067 0.029645 0.761152
Si Si8 0.775070 0.424100 0.747170
O O1 0.426498 0.540903 0.308438
O O2 0.296966 0.834613 0.555049
O O3 0.310510 0.550130 0.259764
O O4 0.890026 0.679249 0.674556
O O5 0.505294 0.624813 0.515898
O O6 0.539964 0.307091 0.284604
O O7 0.473373 0.375864 0.259227
O O8 0.043731 0.508188 0.681643
O O9 0.682838 0.887561 0.668670
O O10 0.129222 0.895767 0.979665
O O11 0.866919 0.946685 0.276497
O O12 0.893804 0.227688 0.540928
O O13 0.420151 0.116583 0.721222
O O14 0.902195 0.971678 0.406118
O O15 0.343509 0.785763 0.074169
O O16 0.000000 0.000000 0.500000
O O17 0.500000 0.500000 0.000000
#
# Coordination Sequence:
#
# PCOD8042237 Si02
#       8
#     2   2   2   2   2   2   2   2
#     4   9  20  36  62  88 120 163 213 248 308 376
#     4  10  22  38  65  93 120 165 212 260 311 373
#     4  11  22  41  64  94 125 159 218 261 312 375
#     4  10  22  38  60  95 126 158 213 251 323 372
#     4  12  26  42  63  93 130 171 208 264 319 377
#     4  10  21  41  61  89 122 166 210 255 314 376
#     4  10  20  40  65  93 123 165 209 267 308 373
#     4  10  19  34  60  89 124 164 198 258 309 367
#
# _framework density 20.286190999999999
#
# number of rings (size 3 to 8) (size 9 to 14) (size 15 to 20)
#    0.000    1.750    2.500    1.500    1.750    2.000 
#    2.250    5.000    0.000    0.000    0.000    0.000 
#    0.000    0.000    0.000    0.000    0.000    0.000 
#
# Total GULP energy -198397.195373 kJ/mol
# GULP energy per Si atom -12399.824711 kJ/mol
# Density = 2.024002 g / cm^3
# Si number density = 20.286191 Si / 1000 Ang^3
#
#
#
# Elastic Constant Matrix: (Units=GPa)
#
#
# Indices 1 2 3 4 5 6 
#
# 1 95.2529 38.1246 48.0815 5.2402 -4.1710 -4.7675
# 2 38.1246 77.1630 28.9704 6.9734 -5.8484 0.6877
# 3 48.0815 28.9704 111.0357 -1.8384 10.4748 -4.9511
# 4 5.2402 6.9734 -1.8384 27.9061 -4.3257 -1.8941
# 5 -4.1710 -5.8484 10.4748 -4.3257 22.2226 -2.2906
# 6 -4.7675 0.6877 -4.9511 -1.8941 -2.2906 27.5399
#
#
#
# Elastic Compliance Matrix: (Units=1/GPa)
#
#
# Indices 1 2 3 4 5 6 
#
# 1 0.015920 -0.005241 -0.005863 -0.001249 0.004347 0.002108
# 2 -0.005241 0.017159 -0.002715 -0.002968 0.004060 -0.001690
# 3 -0.005863 -0.002715 0.013032 0.001523 -0.007571 0.000871
# 4 -0.001249 -0.002968 0.001523 0.038063 0.006010 0.003250
# 5 0.004347 0.004060 -0.007571 0.006010 0.052038 0.004031
# 6 0.002108 -0.001690 0.000871 0.003250 0.004031 0.037433
#
#
# Mechanical properties :
#
#
# Convention : Reuss Voigt Hill
#
# Bulk Modulus (GPa) = 54.13358 57.08941 55.61149
# Shear Modulus (GPa) = 24.10307 26.75204 25.42756
#
# Velocity S-wave (km/s) = 3.45070 3.63537 3.54424
# Velocity P-wave (km/s) = 6.52834 6.76937 6.64995
#
# Compressibility (1/GPa) = 0.01847282
#
# Stress axis : x y z
#
# Youngs Moduli (GPa) = 62.81310 58.27701 76.73565
#
# Poissons Ratio (x) = 0.30543 0.44992
# Poissons Ratio (y) = 0.32920 0.20835
# Poissons Ratio (z) = 0.36829 0.15823
#
# Static dielectric constant tensor:
#      x y z
#    x 3.705530 -0.004280 -0.060560 
#    y -0.004280 3.757320 0.023220 
#    z -0.060560 0.023220 3.451580 
# 
# 
# High freq. dielectric constant tensor:
#      x y z
#    x 1.789280 0.002000 -0.002980 
#    y 0.002000 1.793070 0.003210 
#    z -0.002980 0.003210 1.784900 
# 
# From -- ./inp_files/436335.got.cif
#   From: 2010.06.25/outbox.cif.g09.slc.cpg/sg2_219_cif.got.tgz:436335.got - 2010.06.27 13:26:56.
