data_PCOD8042658
_publ_section_title
;
Structure prediction by ZEFSAII (Michael W. Deem and Ramdas Pophale) SiO2 
 PCOD8042658
Probable space group: P -1
;
_chemical_formula_sum "Si O2"
_cell_formula_units_Z 14
_cell_length_a 12.938808
_cell_length_b 11.692814
_cell_length_c 12.668634
_cell_angle_alpha 91.369852
_cell_angle_beta 36.688553
_cell_angle_gamma 120.405624
_cell_volume 662.955817
_symmetry_space_group_name_H-M "P -1"
_symmetry_group_IT_number 2
_symmetry_cell_setting 'triclinic'
loop_
_space_group_symop_operation_xyz
x,y,z
-x,-y,-z
loop_
_atom_site_type_symbol
_atom_site_label
_atom_site_fract_x
_atom_site_fract_y
_atom_site_fract_z
Si Si1 0.101642 0.917669 0.522938
Si Si2 0.797926 0.662598 0.959672
Si Si3 0.293118 0.772017 0.853149
Si Si4 0.890598 0.745806 0.250992
Si Si5 0.808939 0.332285 0.298927
Si Si6 0.612321 0.706507 0.298645
Si Si7 0.857048 0.792445 0.505499
O O1 0.031625 0.827449 0.461733
O O2 0.412970 0.043005 0.317106
O O3 0.118529 0.060729 0.500043
O O4 0.835118 0.735556 0.814774
O O5 0.796238 0.769127 0.045080
O O6 0.490436 0.428025 0.212767
O O7 0.082815 0.731615 0.747308
O O8 0.354378 0.770375 0.682225
O O9 0.121560 0.798899 0.993789
O O10 0.102642 0.569004 0.058268
O O11 0.822198 0.820733 0.234913
O O12 0.603743 0.515073 0.504824
O O13 0.016616 0.847558 0.265183
O O14 0.563153 0.266972 0.571437
#
# Coordination Sequence:
#
# PCOD8042658 Si02
#       7
#     2   2   2   2   2   2   2
#     4  11  23  38  61  86 115 160 202 235 292 350
#     4  11  21  40  63  88 119 154 194 246 293 346
#     4  10  19  35  59  90 119 153 196 238 297 353
#     4   9  17  34  60  84 118 155 192 241 293 345
#     4  10  19  35  63  87 122 154 186 247 298 345
#     4   9  18  33  59  92 115 151 195 235 299 354
#     4  10  22  41  60  82 118 160 199 242 284 347
#
# _framework density 21.117547999999999
#
# number of rings (size 3 to 8) (size 9 to 14) (size 15 to 20)
#    0.000    2.000    2.857    1.286    4.000    1.143 
#    2.571    1.429    0.000    3.429    0.000    0.000 
#    0.000    0.000    0.000    0.000    0.000    0.000 
#
# Total GULP energy -173478.837830 kJ/mol
# GULP energy per Si atom -12391.345559 kJ/mol
# Density = 2.106948 g / cm^3
# Si number density = 21.117548 Si / 1000 Ang^3
#
#
#
# Elastic Constant Matrix: (Units=GPa)
#
#
# Indices 1 2 3 4 5 6 
#
# 1 101.9212 44.0598 32.6105 18.1994 -0.5708 11.0019
# 2 44.0598 76.7628 33.1158 28.4911 -0.7901 8.2683
# 3 32.6105 33.1158 68.1535 -0.3003 2.5215 21.3566
# 4 18.1994 28.4911 -0.3003 48.0266 -1.3046 -21.6597
# 5 -0.5708 -0.7901 2.5215 -1.3046 30.2143 10.0088
# 6 11.0019 8.2683 21.3566 -21.6597 10.0088 61.1445
#
#
#
# Elastic Compliance Matrix: (Units=1/GPa)
#
#
# Indices 1 2 3 4 5 6 
#
# 1 0.013925 -0.005058 -0.003699 -0.003070 0.000891 -0.001763
# 2 -0.005058 0.026452 -0.008774 -0.016388 0.002550 -0.005825
# 3 -0.003699 -0.008774 0.021999 0.004930 -0.000602 -0.003987
# 4 -0.003070 -0.016388 0.004930 0.038575 -0.004341 0.015422
# 5 0.000891 0.002550 -0.000602 -0.004341 0.035580 -0.007657
# 6 -0.001763 -0.005825 -0.003987 0.015422 -0.007657 0.025569
#
#
# Mechanical properties :
#
#
# Convention : Reuss Voigt Hill
#
# Bulk Modulus (GPa) = 36.61188 51.82330 44.21759
# Shear Modulus (GPa) = 24.24044 37.01384 30.62714
#
# Velocity S-wave (km/s) = 3.39172 4.19113 3.81243
# Velocity P-wave (km/s) = 5.71954 6.92925 6.35325
#
# Compressibility (1/GPa) = 0.02731354
#
# Stress axis : x y z
#
# Youngs Moduli (GPa) = 71.81177 37.80486 45.45586
#
# Poissons Ratio (x) = 0.19123 0.16815
# Poissons Ratio (y) = 0.36324 0.39882
# Poissons Ratio (z) = 0.26565 0.33169
#
# Static dielectric constant tensor:
#      x y z
#    x 4.238150 0.418300 -0.050760 
#    y 0.418300 3.965470 0.059740 
#    z -0.050760 0.059740 3.760250 
# 
# 
# High freq. dielectric constant tensor:
#      x y z
#    x 1.820860 0.002710 0.002850 
#    y 0.002710 1.823870 0.001550 
#    z 0.002850 0.001550 1.817230 
# 
# From -- ./inp_files/202053.got.cif
#   From: 2010.06.25/outbox.cif.g09.slc.cpg/sg2_102_cif.got.tgz:202053.got - 2010.06.27 13:26:56.
