data_PCOD8042121
_publ_section_title
;
Structure prediction by ZEFSAII (Michael W. Deem and Ramdas Pophale) SiO2 
 PCOD8042121
Probable space group: P -1
;
_chemical_formula_sum "Si O2"
_cell_formula_units_Z 14
_cell_length_a 8.723993
_cell_length_b 9.288189
_cell_length_c 17.307780
_cell_angle_alpha 140.976410
_cell_angle_beta 125.056175
_cell_angle_gamma 66.513383
_cell_volume 719.745605
_symmetry_space_group_name_H-M "P -1"
_symmetry_group_IT_number 2
_symmetry_cell_setting 'triclinic'
loop_
_space_group_symop_operation_xyz
x,y,z
-x,-y,-z
loop_
_atom_site_type_symbol
_atom_site_label
_atom_site_fract_x
_atom_site_fract_y
_atom_site_fract_z
Si Si1 0.815014 0.245453 0.806387
Si Si2 0.134247 0.653238 0.316713
Si Si3 0.444232 0.025656 0.582726
Si Si4 0.804199 0.850326 0.891747
Si Si5 0.702536 0.644318 0.215259
Si Si6 0.789334 0.759732 0.025634
Si Si7 0.503428 0.169090 0.910610
O O1 0.854749 0.292240 0.747675
O O2 0.647795 0.045939 0.692560
O O3 0.760802 0.488359 0.927448
O O4 0.993040 0.154004 0.861248
O O5 0.176822 0.396777 0.243178
O O6 0.926503 0.696860 0.300925
O O7 0.293254 0.817055 0.477213
O O8 0.357909 0.265988 0.680197
O O9 0.500000 0.000000 0.500000
O O10 0.743192 0.818113 0.949509
O O11 0.633261 0.963040 0.847794
O O12 0.000000 0.000000 0.000000
O O13 0.599788 0.787760 0.181094
O O14 0.643499 0.377959 0.072190
O O15 0.656646 0.895695 0.098753
#
# Coordination Sequence:
#
# PCOD8042121 Si02
#       7
#     2   2   2   2   2   2   2
#     4   9  18  33  59  88 108 146 194 238 284 333
#     4  10  20  38  57  84 116 154 190 234 289 341
#     4  10  21  36  59  86 116 150 195 237 282 342
#     4  11  23  36  57  87 120 153 189 240 291 342
#     4  11  21  36  62  88 115 147 196 241 285 339
#     4  10  19  34  58  83 120 148 186 238 292 334
#     4  11  22  36  59  91 117 147 189 244 296 334
#
# _framework density 19.451318000000001
#
# number of rings (size 3 to 8) (size 9 to 14) (size 15 to 20)
#    0.000    1.714    4.286    0.857    2.000    0.000 
#    0.000    0.714    0.000    0.857    0.000    0.000 
#    0.000    0.000    0.000    0.000    0.000    0.000 
#
# Total GULP energy -173504.045743 kJ/mol
# GULP energy per Si atom -12393.146125 kJ/mol
# Density = 1.940705 g / cm^3
# Si number density = 19.451318 Si / 1000 Ang^3
#
#
#
# Elastic Constant Matrix: (Units=GPa)
#
#
# Indices 1 2 3 4 5 6 
#
# 1 110.7274 30.9310 45.9579 -0.3892 6.4016 -26.6272
# 2 30.9310 85.7565 28.4421 3.0510 8.4759 -23.8012
# 3 45.9579 28.4421 113.9637 4.8118 25.3883 -18.0031
# 4 -0.3892 3.0510 4.8118 17.7322 -3.2275 2.0255
# 5 6.4016 8.4759 25.3883 -3.2275 40.3303 -4.7479
# 6 -26.6272 -23.8012 -18.0031 2.0255 -4.7479 30.8357
#
#
#
# Elastic Compliance Matrix: (Units=1/GPa)
#
#
# Indices 1 2 3 4 5 6 
#
# 1 0.012897 -0.001309 -0.004062 0.001029 0.001805 0.007966
# 2 -0.001309 0.015680 -0.001302 -0.003793 -0.001365 0.010252
# 3 -0.004062 -0.001302 0.012941 -0.004972 -0.007363 0.002236
# 4 0.001029 -0.003793 -0.004972 0.060707 0.007711 -0.007743
# 5 0.001805 -0.001365 -0.007363 0.007711 0.030087 0.000332
# 6 0.007966 0.010252 0.002236 -0.007743 0.000332 0.049087
#
#
# Mechanical properties :
#
#
# Convention : Reuss Voigt Hill
#
# Bulk Modulus (GPa) = 35.49402 57.90108 46.69755
# Shear Modulus (GPa) = 24.49361 31.45408 27.97384
#
# Velocity S-wave (km/s) = 3.55241 4.02564 3.79640
# Velocity P-wave (km/s) = 5.92565 7.17213 6.57848
#
# Compressibility (1/GPa) = 0.02817376
#
# Stress axis : x y z
#
# Youngs Moduli (GPa) = 77.53444 63.77602 77.27372
#
# Poissons Ratio (x) = 0.08348 0.31385
# Poissons Ratio (y) = 0.10149 0.10059
# Poissons Ratio (z) = 0.31491 0.08302
#
# Static dielectric constant tensor:
#      x y z
#    x 3.785660 -0.152500 0.149350 
#    y -0.152500 3.235450 0.000700 
#    z 0.149350 0.000700 3.857090 
# 
# 
# High freq. dielectric constant tensor:
#      x y z
#    x 1.783290 -0.015690 0.008740 
#    y -0.015690 1.717100 -0.006180 
#    z 0.008740 -0.006180 1.751280 
# 
# From -- ./inp_files/166360.got.cif
#   From: 2010.06.25/outbox.cif.g09.slc.cpg/sg2_84_cif.got.tgz:166360.got - 2010.06.27 13:26:56.
