data_PCOD8042852
_publ_section_title
;
Structure prediction by ZEFSAII (Michael W. Deem and Ramdas Pophale) SiO2 
 PCOD8042852
Probable space group: P -1
;
_chemical_formula_sum "Si O2"
_cell_formula_units_Z 16
_cell_length_a 15.869140
_cell_length_b 17.379108
_cell_length_c 12.179630
_cell_angle_alpha 28.603637
_cell_angle_beta 32.397960
_cell_angle_gamma 31.017988
_cell_volume 768.989024
_symmetry_space_group_name_H-M "P -1"
_symmetry_group_IT_number 2
_symmetry_cell_setting 'triclinic'
loop_
_space_group_symop_operation_xyz
x,y,z
-x,-y,-z
loop_
_atom_site_type_symbol
_atom_site_label
_atom_site_fract_x
_atom_site_fract_y
_atom_site_fract_z
Si Si1 0.427197 0.712352 0.817552
Si Si2 0.093809 0.994386 0.715899
Si Si3 0.844288 0.836680 0.875590
Si Si4 0.815476 0.183376 0.390308
Si Si5 0.381247 0.114140 0.741478
Si Si6 0.448500 0.446569 0.738201
Si Si7 0.304673 0.852180 0.009769
Si Si8 0.721766 0.795869 0.835543
O O1 0.228739 0.823316 0.851238
O O2 0.566049 0.744997 0.550259
O O3 0.500000 0.500000 0.000000
O O4 0.422917 0.780336 0.861093
O O5 0.083233 0.922651 0.696411
O O6 0.153328 0.154114 0.443784
O O7 0.900976 0.081687 0.872844
O O8 0.803768 0.741613 0.935175
O O9 0.053574 0.770349 0.736996
O O10 0.752143 0.054748 0.688361
O O11 0.778793 0.782562 0.127371
O O12 0.646200 0.371032 0.314014
O O13 0.537558 0.975424 0.819742
O O14 0.329021 0.018866 0.820624
O O15 0.500000 0.500000 0.500000
O O16 0.625622 0.309679 0.775725
O O17 0.309082 0.364960 0.980197
#
# Coordination Sequence:
#
# PCOD8042852 Si02
#       8
#     2   2   2   2   2   2   2   2
#     4  11  24  41  63  91 119 153 207 263 299 348
#     4  10  21  42  65  87 120 162 204 246 301 369
#     4  10  19  35  63  87 121 164 202 238 301 366
#     4  10  20  36  61  90 124 157 199 249 299 357
#     4  10  20  39  61  87 116 164 204 242 302 366
#     4  11  24  38  59  93 129 159 197 252 304 352
#     4  11  22  42  64  85 119 165 204 241 308 364
#     4   9  21  35  59  88 125 157 199 243 300 364
#
# _framework density 20.806539000000001
#
# number of rings (size 3 to 8) (size 9 to 14) (size 15 to 20)
#    0.000    1.750    1.250    3.375    3.500    3.500 
#    2.250    0.625    0.000    0.000    0.000    0.000 
#    0.000    0.000    0.000    0.000    0.000    0.000 
#
# Total GULP energy -198401.411515 kJ/mol
# GULP energy per Si atom -12400.088220 kJ/mol
# Density = 2.075918 g / cm^3
# Si number density = 20.806539 Si / 1000 Ang^3
#
#
#
# Elastic Constant Matrix: (Units=GPa)
#
#
# Indices 1 2 3 4 5 6 
#
# 1 80.6537 13.3488 27.6402 2.5102 7.7838 -11.3607
# 2 13.3488 75.8876 43.4184 -7.6285 1.8616 -5.2971
# 3 27.6402 43.4184 108.3973 -0.8686 5.1338 -7.6887
# 4 2.5102 -7.6285 -0.8686 31.5996 -1.8575 6.3913
# 5 7.7838 1.8616 5.1338 -1.8575 31.0097 6.7601
# 6 -11.3607 -5.2971 -7.6887 6.3913 6.7601 27.7063
#
#
#
# Elastic Compliance Matrix: (Units=1/GPa)
#
#
# Indices 1 2 3 4 5 6 
#
# 1 0.015096 -0.000730 -0.002830 -0.003214 -0.005047 0.007238
# 2 -0.000730 0.017644 -0.006864 0.004138 0.000488 0.000095
# 3 -0.002830 -0.006864 0.012884 -0.001535 -0.001500 0.001823
# 4 -0.003214 0.004138 -0.001535 0.035256 0.005180 -0.010349
# 5 -0.005047 0.000488 -0.001500 0.005180 0.036783 -0.012562
# 6 0.007238 0.000095 0.001823 -0.010349 -0.012562 0.045037
#
#
# Mechanical properties :
#
#
# Convention : Reuss Voigt Hill
#
# Bulk Modulus (GPa) = 40.36289 48.19482 44.27886
# Shear Modulus (GPa) = 26.06774 30.09851 28.08312
#
# Velocity S-wave (km/s) = 3.54342 3.80753 3.67785
# Velocity P-wave (km/s) = 6.01518 6.52252 6.27398
#
# Compressibility (1/GPa) = 0.02477523
#
# Stress axis : x y z
#
# Youngs Moduli (GPa) = 66.24221 56.67717 77.61288
#
# Poissons Ratio (x) = 0.04139 0.21966
# Poissons Ratio (y) = 0.04837 0.53275
# Poissons Ratio (z) = 0.18748 0.38904
#
# Static dielectric constant tensor:
#      x y z
#    x 3.822860 -0.093170 -0.048420 
#    y -0.093170 3.537280 0.015470 
#    z -0.048420 0.015470 3.910760 
# 
# 
# High freq. dielectric constant tensor:
#      x y z
#    x 1.818790 -0.003560 -0.002720 
#    y -0.003560 1.796050 0.004740 
#    z -0.002720 0.004740 1.812500 
# 
# From -- ./inp_files/456333.got.cif
#   From: 2010.06.25/outbox.cif.g09.slc.cpg/sg2_229_cif.got.tgz:456333.got - 2010.06.27 13:26:56.
