data_PCOD8042509
_publ_section_title
;
Structure prediction by ZEFSAII (Michael W. Deem and Ramdas Pophale) SiO2 
 PCOD8042509
Probable space group: P -1
;
_chemical_formula_sum "Si O2"
_cell_formula_units_Z 16
_cell_length_a 21.399750
_cell_length_b 21.271035
_cell_length_c 13.728862
_cell_angle_alpha 147.593148
_cell_angle_beta 147.259101
_cell_angle_gamma 13.318356
_cell_volume 761.769157
_symmetry_space_group_name_H-M "P -1"
_symmetry_group_IT_number 2
_symmetry_cell_setting 'triclinic'
loop_
_space_group_symop_operation_xyz
x,y,z
-x,-y,-z
loop_
_atom_site_type_symbol
_atom_site_label
_atom_site_fract_x
_atom_site_fract_y
_atom_site_fract_z
Si Si1 0.246046 0.800034 0.487628
Si Si2 0.503056 0.062967 0.848585
Si Si3 0.685829 0.005833 0.205503
Si Si4 0.069722 0.521791 0.384743
Si Si5 0.728292 0.272922 0.316680
Si Si6 0.224853 0.510369 0.384848
Si Si7 0.573746 0.168571 0.905857
Si Si8 0.032914 0.606074 0.661088
O O1 0.524134 0.461472 0.394853
O O2 0.349585 0.836173 0.686972
O O3 0.000000 0.000000 0.500000
O O4 0.058348 0.961293 0.354625
O O5 0.537114 0.147574 0.937960
O O6 0.182934 0.327622 0.780388
O O7 0.668082 0.802937 0.677699
O O8 0.617515 0.974092 0.991760
O O9 0.991132 0.705982 0.253057
O O10 0.472869 0.196362 0.265898
O O11 0.125184 0.567357 0.435118
O O12 0.010920 0.647260 0.570471
O O13 0.667368 0.454336 0.423008
O O14 0.639309 0.245893 0.099596
O O15 0.312985 0.396838 0.795440
O O16 0.805977 0.887511 0.786115
O O17 0.000000 0.500000 0.500000
#
# Coordination Sequence:
#
# PCOD8042509 Si02
#       8
#     2   2   2   2   2   2   2   2
#     4  10  19  35  57  85 123 160 200 237 295 350
#     4  12  23  37  61  94 118 154 204 245 300 353
#     4  10  22  37  59  87 124 163 196 242 288 352
#     4  12  25  40  63  85 119 163 200 249 299 358
#     4  10  22  38  60  86 120 160 193 247 297 349
#     4  10  23  43  58  85 125 164 201 234 291 359
#     4  12  23  40  65  93 122 148 200 258 305 359
#     4  12  23  43  63  90 122 153 196 252 320 355
#
# _framework density 21.003737000000001
#
# number of rings (size 3 to 8) (size 9 to 14) (size 15 to 20)
#    0.000    1.000    2.500    4.500    0.000    6.000 
#    0.000    1.250    0.000    0.000    0.000    0.000 
#    0.000    0.000    0.000    0.000    0.000    0.000 
#
# Total GULP energy -198375.794783 kJ/mol
# GULP energy per Si atom -12398.487174 kJ/mol
# Density = 2.095593 g / cm^3
# Si number density = 21.003737 Si / 1000 Ang^3
#
#
#
# Elastic Constant Matrix: (Units=GPa)
#
#
# Indices 1 2 3 4 5 6 
#
# 1 102.5876 -13.6763 29.9783 10.8333 -7.4595 -24.1958
# 2 -13.6763 73.7723 8.5795 20.5109 4.7963 -31.4680
# 3 29.9783 8.5795 110.9187 3.4825 -5.0737 -15.8041
# 4 10.8333 20.5109 3.4825 22.3446 -0.8520 -1.2274
# 5 -7.4595 4.7963 -5.0737 -0.8520 20.7108 4.7497
# 6 -24.1958 -31.4680 -15.8041 -1.2274 4.7497 24.6332
#
#
#
# Elastic Compliance Matrix: (Units=1/GPa)
#
#
# Indices 1 2 3 4 5 6 
#
# 1 -0.005185 -0.027726 -0.002859 0.026570 0.015018 -0.043918
# 2 -0.027726 -0.040563 -0.001563 0.047193 0.019655 -0.081492
# 3 -0.002859 -0.001563 0.010147 0.001379 0.001536 0.001478
# 4 0.026570 0.047193 0.001379 -0.007503 -0.022242 0.091185
# 5 0.015018 0.019655 0.001536 -0.022242 0.041317 0.031770
# 6 -0.043918 -0.081492 0.001478 0.091185 0.031770 -0.107280
#
#
# Mechanical properties :
#
#
# Convention : Reuss Voigt Hill
#
# Bulk Modulus (GPa) = -10.01040 37.44908 13.71934
# Shear Modulus (GPa) = -64.04409 31.03086 -16.50662
#
# Velocity S-wave (km/s) = -5.52793 3.84786 -2.80641
# Velocity P-wave (km/s) = 6.74687 6.13268 1.98878
#
# Compressibility (1/GPa) = -0.09989610
#
# Stress axis : x y z
#
# Youngs Moduli (GPa) = -192.86366 -24.65307 98.55432
#
# Poissons Ratio (x) = -0.68352 0.28175
# Poissons Ratio (y) = -5.34727 0.15403
# Poissons Ratio (z) = -0.55137 -0.03853
#
# Static dielectric constant tensor:
#      x y z
#    x 3.933190 1.585300 -0.359260 
#    y 1.585300 21.120160 -3.094060 
#    z -0.359260 -3.094060 4.353100 
# 
# 
# High freq. dielectric constant tensor:
#      x y z
#    x 1.811540 -0.012170 0.000900 
#    y -0.012170 1.847870 -0.004000 
#    z 0.000900 -0.004000 1.813920 
# 
# From -- ./inp_files/542982.got.cif
#   From: 2010.06.25/outbox.cif.g09.slc.cpg/sg2_272_cif.got.tgz:542982.got - 2010.06.27 13:26:56.
