data_PCOD8042527
_publ_section_title
;
Structure prediction by ZEFSAII (Michael W. Deem and Ramdas Pophale) SiO2 
 PCOD8042527
Probable space group: P -1
;
_chemical_formula_sum "Si O2"
_cell_formula_units_Z 14
_cell_length_a 14.581908
_cell_length_b 26.662495
_cell_length_c 25.878502
_cell_angle_alpha 168.939678
_cell_angle_beta 20.915692
_cell_angle_gamma 159.194346
_cell_volume 664.744912
_symmetry_space_group_name_H-M "P -1"
_symmetry_group_IT_number 2
_symmetry_cell_setting 'triclinic'
loop_
_space_group_symop_operation_xyz
x,y,z
-x,-y,-z
loop_
_atom_site_type_symbol
_atom_site_label
_atom_site_fract_x
_atom_site_fract_y
_atom_site_fract_z
Si Si1 0.190692 0.605252 0.693562
Si Si2 0.839042 0.242499 0.431720
Si Si3 0.587824 0.012783 0.525506
Si Si4 0.311470 0.618048 0.450567
Si Si5 0.473237 0.796495 0.903136
Si Si6 0.073178 0.399637 0.064375
Si Si7 0.642895 0.840972 0.970914
O O1 0.002503 0.614579 0.850119
O O2 0.007743 0.510058 0.643289
O O3 0.383785 0.896720 0.876110
O O4 0.365576 0.396366 0.403441
O O5 0.636285 0.323026 0.578584
O O6 0.673023 0.023133 0.337689
O O7 0.044626 0.106755 0.156065
O O8 0.798939 0.294357 0.711569
O O9 0.500000 0.000000 0.500000
O O10 0.711095 0.766803 0.225522
O O11 0.000000 0.500000 0.500000
O O12 0.414052 0.890261 0.704782
O O13 0.449324 0.396319 0.177384
O O14 0.460958 0.752435 0.926627
O O15 0.177143 0.726815 0.967454
#
# Coordination Sequence:
#
# PCOD8042527 Si02
#       7
#     2   2   2   2   2   2   2
#     4  11  22  37  62  89 119 154 201 253 297 349
#     4  10  22  37  63  88 124 154 196 240 308 352
#     4  12  26  42  59  86 126 167 198 237 283 365
#     4  10  19  35  57  91 117 147 188 251 308 349
#     4  11  22  39  62  89 116 159 198 251 304 339
#     4  12  25  41  60  84 125 162 204 238 287 358
#     4  10  21  36  60  90 117 145 194 256 301 345
#
# _framework density 21.06071
#
# number of rings (size 3 to 8) (size 9 to 14) (size 15 to 20)
#    0.000    1.143    1.429    7.286    2.000    4.571 
#    0.000    0.000    0.000    5.143    0.000    0.000 
#    0.000    0.000    0.000    0.000    0.000    0.000 
#
# Total GULP energy -173644.196716 kJ/mol
# GULP energy per Si atom -12403.156908 kJ/mol
# Density = 2.101277 g / cm^3
# Si number density = 21.060710 Si / 1000 Ang^3
#
#
#
# Elastic Constant Matrix: (Units=GPa)
#
#
# Indices 1 2 3 4 5 6 
#
# 1 85.7291 40.3857 39.5746 3.1885 -9.7128 -18.7103
# 2 40.3857 88.0039 26.2626 22.3010 -0.3405 -3.3680
# 3 39.5746 26.2626 82.1517 22.8605 7.7595 20.7079
# 4 3.1885 22.3010 22.8605 35.0524 3.1294 -3.4966
# 5 -9.7128 -0.3405 7.7595 3.1294 15.0207 0.7158
# 6 -18.7103 -3.3680 20.7079 -3.4966 0.7158 18.9807
#
#
#
# Elastic Compliance Matrix: (Units=1/GPa)
#
#
# Indices 1 2 3 4 5 6 
#
# 1 -0.021731 0.004034 0.034941 -0.027589 -0.023259 -0.063031
# 2 0.004034 0.013890 -0.011876 -0.000293 0.008213 0.019035
# 3 0.034941 -0.011876 -0.027552 0.026462 0.027889 0.066218
# 4 -0.027589 -0.000293 0.026462 0.011501 -0.031396 -0.052815
# 5 -0.023259 0.008213 0.027889 -0.031396 0.046688 -0.059441
# 6 -0.063031 0.019035 0.066218 -0.052815 -0.059441 -0.085803
#
#
# Mechanical properties :
#
#
# Convention : Reuss Voigt Hill
#
# Bulk Modulus (GPa) = 53.17510 52.03674 52.60592
# Shear Modulus (GPa) = -45.07093 23.78821 -10.64136
#
# Velocity S-wave (km/s) = -4.63108 3.36446 -2.25026
# Velocity P-wave (km/s) = 1.81456 6.31303 4.27562
#
# Compressibility (1/GPa) = 0.01880579
#
# Stress axis : x y z
#
# Youngs Moduli (GPa) = -46.01712 71.99175 -36.29476
#
# Poissons Ratio (x) = -0.29044 1.26818
# Poissons Ratio (y) = 0.18565 -0.43104
# Poissons Ratio (z) = 1.60788 0.85498
#
# Static dielectric constant tensor:
#      x y z
#    x 4.440870 -0.245780 -0.182190 
#    y -0.245780 3.616370 0.240570 
#    z -0.182190 0.240570 3.973300 
# 
# 
# High freq. dielectric constant tensor:
#      x y z
#    x 1.841720 -0.006750 -0.000170 
#    y -0.006750 1.791960 0.022850 
#    z -0.000170 0.022850 1.831060 
# 
# From -- ./inp_files/519616.got.cif
#   From: 2010.06.25/outbox.cif.g09.slc.cpg/sg2_260_cif.got.tgz:519616.got - 2010.06.27 13:26:56.
