data_PCOD8042183
_publ_section_title
;
Structure prediction by ZEFSAII (Michael W. Deem and Ramdas Pophale) SiO2 
 PCOD8042183
Probable space group: P -1
;
_chemical_formula_sum "Si O2"
_cell_formula_units_Z 16
_cell_length_a 11.457111
_cell_length_b 15.103257
_cell_length_c 14.863483
_cell_angle_alpha 138.195669
_cell_angle_beta 151.096573
_cell_angle_gamma 41.164342
_cell_volume 787.514903
_symmetry_space_group_name_H-M "P -1"
_symmetry_group_IT_number 2
_symmetry_cell_setting 'triclinic'
loop_
_space_group_symop_operation_xyz
x,y,z
-x,-y,-z
loop_
_atom_site_type_symbol
_atom_site_label
_atom_site_fract_x
_atom_site_fract_y
_atom_site_fract_z
Si Si1 0.593228 0.644285 0.982883
Si Si2 0.056846 0.192490 0.617049
Si Si3 0.112803 0.345233 0.420198
Si Si4 0.087590 0.798608 0.672511
Si Si5 0.668583 0.342953 0.006708
Si Si6 0.659016 0.060445 0.280286
Si Si7 0.335295 0.678822 0.210652
Si Si8 0.862554 0.916181 0.122387
O O1 0.385136 0.704391 0.809745
O O2 0.455639 0.714584 0.036772
O O3 0.682367 0.477325 0.916425
O O4 0.842971 0.693615 0.176597
O O5 0.024585 0.233400 0.521727
O O6 0.784455 0.186129 0.466395
O O7 0.264158 0.038404 0.654784
O O8 0.403463 0.315027 0.564270
O O9 0.000000 0.500000 0.500000
O O10 0.086625 0.235504 0.394185
O O11 0.958794 0.331997 0.217175
O O12 0.068099 0.960659 0.789736
O O13 0.500000 0.500000 0.000000
O O14 0.672475 0.265506 0.855772
O O15 0.777756 0.961333 0.200338
O O16 0.357326 0.122469 0.111423
O O17 0.104306 0.778538 0.186275
#
# Coordination Sequence:
#
# PCOD8042183 Si02
#       8
#     2   2   2   2   2   2   2   2
#     4  10  19  34  59  88 112 149 190 224 282 346
#     4  10  19  35  66  83 100 147 204 231 281 353
#     4  11  19  35  57  86 121 153 186 221 276 339
#     4  10  20  35  62  84 112 154 191 226 276 350
#     4   9  18  33  55  83 117 156 182 217 277 339
#     4   9  20  40  63  79 108 151 192 246 296 333
#     4  11  22  36  58  86 121 153 184 236 279 335
#     4  10  21  41  60  82 114 149 193 242 291 329
#
# _framework density 20.317076
#
# number of rings (size 3 to 8) (size 9 to 14) (size 15 to 20)
#    0.000    2.000    5.000    0.750    1.750    0.500 
#    6.750    3.750    0.000    0.000    0.000    0.000 
#    0.000    0.000    0.000    0.000    0.000    0.000 
#
# Total GULP energy -198328.151265 kJ/mol
# GULP energy per Si atom -12395.509454 kJ/mol
# Density = 2.027083 g / cm^3
# Si number density = 20.317076 Si / 1000 Ang^3
#
#
#
# Elastic Constant Matrix: (Units=GPa)
#
#
# Indices 1 2 3 4 5 6 
#
# 1 42.5791 32.3604 26.9879 -5.8540 7.7141 4.0498
# 2 32.3604 94.2732 47.2534 -10.4216 14.7889 -0.1705
# 3 26.9879 47.2534 131.9665 -17.8590 30.6288 4.4985
# 4 -5.8540 -10.4216 -17.8590 36.7104 8.3013 3.8560
# 5 7.7141 14.7889 30.6288 8.3013 37.2389 -5.7377
# 6 4.0498 -0.1705 4.4985 3.8560 -5.7377 32.9540
#
#
#
# Elastic Compliance Matrix: (Units=1/GPa)
#
#
# Indices 1 2 3 4 5 6 
#
# 1 0.033554 -0.009700 -0.002327 0.002499 -0.002447 -0.004575
# 2 -0.009700 0.016000 -0.003047 0.001868 -0.002084 0.001109
# 3 -0.002327 -0.003047 0.013112 0.008245 -0.011626 -0.004509
# 4 0.002499 0.001868 0.008245 0.037106 -0.017675 -0.008842
# 5 -0.002447 -0.002084 -0.011626 -0.017675 0.043464 0.011513
# 6 -0.004575 0.001109 -0.004509 -0.008842 0.011513 0.034568
#
#
# Mechanical properties :
#
#
# Convention : Reuss Voigt Hill
#
# Bulk Modulus (GPa) = 30.75051 53.55803 42.15427
# Shear Modulus (GPa) = 22.85290 32.19515 27.52403
#
# Velocity S-wave (km/s) = 3.35746 3.98507 3.68465
# Velocity P-wave (km/s) = 5.49529 6.89874 6.23662
#
# Compressibility (1/GPa) = 0.03251978
#
# Stress axis : x y z
#
# Youngs Moduli (GPa) = 29.80233 62.50154 76.26497
#
# Poissons Ratio (x) = 0.60626 0.17745
# Poissons Ratio (y) = 0.28908 0.23235
# Poissons Ratio (z) = 0.06934 0.19041
#
# Static dielectric constant tensor:
#      x y z
#    x 3.647680 0.416900 0.021970 
#    y 0.416900 3.468920 -0.244280 
#    z 0.021970 -0.244280 4.187240 
# 
# 
# High freq. dielectric constant tensor:
#      x y z
#    x 1.761550 0.036390 0.011530 
#    y 0.036390 1.769980 -0.022030 
#    z 0.011530 -0.022030 1.816260 
# 
# From -- ./inp_files/423564.got.cif
#   From: 2010.06.25/outbox.cif.g09.slc.cpg/sg2_212_cif.got.tgz:423564.got - 2010.06.27 13:26:56.
