data_PCOD8042169
_publ_section_title
;
Structure prediction by ZEFSAII (Michael W. Deem and Ramdas Pophale) SiO2 
 PCOD8042169
Probable space group: P -1
;
_chemical_formula_sum "Si O2"
_cell_formula_units_Z 12
_cell_length_a 10.035163
_cell_length_b 10.035005
_cell_length_c 20.529487
_cell_angle_alpha 145.657368
_cell_angle_beta 145.660257
_cell_angle_gamma 45.204572
_cell_volume 656.212284
_symmetry_space_group_name_H-M "P -1"
_symmetry_group_IT_number 2
_symmetry_cell_setting 'triclinic'
loop_
_space_group_symop_operation_xyz
x,y,z
-x,-y,-z
loop_
_atom_site_type_symbol
_atom_site_label
_atom_site_fract_x
_atom_site_fract_y
_atom_site_fract_z
Si Si1 0.380279 0.489993 0.842189
Si Si2 0.009985 0.119678 0.157786
Si Si3 0.389752 0.889730 0.312979
Si Si4 0.773336 0.655835 0.147460
Si Si5 0.155890 0.273292 0.147475
Si Si6 0.262271 0.762190 0.354829
O O1 0.492969 0.342004 0.768191
O O2 0.323160 0.304112 0.801643
O O3 0.143835 0.643866 0.785028
O O4 0.563756 0.676011 0.018090
O O5 0.157929 0.006889 0.231728
O O6 0.195917 0.176786 0.198360
O O7 0.823922 0.936273 0.981881
O O8 0.306880 0.806762 0.315814
O O9 0.582790 0.082883 0.474096
O O10 0.982297 0.828455 0.284631
O O11 0.882420 0.382379 0.078347
O O12 0.328528 0.482237 0.284651
#
# Coordination Sequence:
#
# PCOD8042169 Si02
#       6
#     2   2   2   2   2   2
#     4  10  19  34  59  85 106 140 186 232 271 320
#     4  10  19  34  59  85 106 140 186 232 271 320
#     4  11  21  37  59  77 116 151 180 221 275 328
#     4   8  17  36  55  78 110 140 178 225 272 319
#     4   8  17  36  55  78 110 140 178 225 272 319
#     4   9  21  39  55  77 116 157 174 219 281 326
#
# _framework density 18.286764999999999
#
# number of rings (size 3 to 8) (size 9 to 14) (size 15 to 20)
#    1.000    1.667    1.667    0.000    2.333    4.000 
#    0.000    8.333    0.000    0.000    0.000    0.000 
#    0.000    0.000    0.000    0.000    0.000    0.000 
#
# Total GULP energy -148677.110713 kJ/mol
# GULP energy per Si atom -12389.759226 kJ/mol
# Density = 1.824514 g / cm^3
# Si number density = 18.286765 Si / 1000 Ang^3
#
#
#
# Elastic Constant Matrix: (Units=GPa)
#
#
# Indices 1 2 3 4 5 6 
#
# 1 43.3025 7.4183 10.9988 -3.7407 6.8334 -7.2483
# 2 7.4183 67.3689 14.0661 2.1620 -10.2715 -7.1227
# 3 10.9988 14.0661 50.8596 3.6774 7.8658 -1.8410
# 4 -3.7407 2.1620 3.6774 13.7509 9.8514 8.0465
# 5 6.8334 -10.2715 7.8658 9.8514 30.2699 4.8042
# 6 -7.2483 -7.1227 -1.8410 8.0465 4.8042 23.9339
#
#
#
# Elastic Compliance Matrix: (Units=1/GPa)
#
#
# Indices 1 2 3 4 5 6 
#
# 1 0.029098 -0.004432 -0.004092 0.016612 -0.013086 0.004220
# 2 -0.004432 0.019695 -0.005090 -0.016573 0.013284 0.007033
# 3 -0.004092 -0.005090 0.023145 -0.002851 -0.006081 0.001206
# 4 0.016612 -0.016573 -0.002851 0.135463 -0.046969 -0.036235
# 5 -0.013086 0.013284 -0.006081 -0.046969 0.056741 0.003924
# 6 0.004220 0.007033 0.001206 -0.036235 0.003924 0.056640
#
#
# Mechanical properties :
#
#
# Convention : Reuss Voigt Hill
#
# Bulk Modulus (GPa) = 22.36577 25.16637 23.76607
# Shear Modulus (GPa) = 13.77738 22.19412 17.98575
#
# Velocity S-wave (km/s) = 2.74780 3.48756 3.13954
# Velocity P-wave (km/s) = 4.72487 5.47808 5.11536
#
# Compressibility (1/GPa) = 0.04471118
#
# Stress axis : x y z
#
# Youngs Moduli (GPa) = 34.36611 50.77354 43.20605
#
# Poissons Ratio (x) = 0.22502 0.17678
# Poissons Ratio (y) = 0.15231 0.21993
# Poissons Ratio (z) = 0.14061 0.25845
#
# Static dielectric constant tensor:
#      x y z
#    x 3.226510 0.021410 0.044800 
#    y 0.021410 3.190470 0.020980 
#    z 0.044800 0.020980 3.188320 
# 
# 
# High freq. dielectric constant tensor:
#      x y z
#    x 1.700750 0.003870 -0.000890 
#    y 0.003870 1.694260 -0.000400 
#    z -0.000890 -0.000400 1.691940 
# 
# From -- ./inp_files/209642.got.cif
#   From: 2010.06.25/outbox.cif.g09.slc.cpg/sg2_105_cif.got.tgz:209642.got - 2010.06.27 13:26:56.
