data_PCOD8042060
_publ_section_title
;
Structure prediction by ZEFSAII (Michael W. Deem and Ramdas Pophale) SiO2 
 PCOD8042060
Probable space group: P -1
;
_chemical_formula_sum "Si O2"
_cell_formula_units_Z 14
_cell_length_a 18.303921
_cell_length_b 12.299716
_cell_length_c 25.324825
_cell_angle_alpha 154.522486
_cell_angle_beta 17.724159
_cell_angle_gamma 145.725344
_cell_volume 721.704482
_symmetry_space_group_name_H-M "P -1"
_symmetry_group_IT_number 2
_symmetry_cell_setting 'triclinic'
loop_
_space_group_symop_operation_xyz
x,y,z
-x,-y,-z
loop_
_atom_site_type_symbol
_atom_site_label
_atom_site_fract_x
_atom_site_fract_y
_atom_site_fract_z
Si Si1 0.728462 0.322921 0.035770
Si Si2 0.453422 0.710736 0.744658
Si Si3 0.201405 0.442426 0.715619
Si Si4 0.651915 0.403854 0.668521
Si Si5 0.901642 0.359200 0.243287
Si Si6 0.399613 0.035720 0.741610
Si Si7 0.205882 0.189303 0.182536
O O1 0.630290 0.432931 0.209713
O O2 0.521948 0.419022 0.176446
O O3 0.972334 0.415697 0.896597
O O4 0.789011 0.006021 0.856648
O O5 0.338457 0.629923 0.734762
O O6 0.755403 0.614809 0.489174
O O7 0.363545 0.025620 0.953427
O O8 0.104969 0.574044 0.784890
O O9 0.395903 0.158208 0.447430
O O10 0.541371 0.166396 0.658365
O O11 0.674640 0.577273 0.780474
O O12 0.919630 0.298911 0.410609
O O13 0.759824 0.133737 0.254090
O O14 0.194046 0.256626 0.012926
#
# Coordination Sequence:
#
# PCOD8042060 Si02
#       7
#     2   2   2   2   2   2   2
#     4  10  20  35  58  83 107 143 186 227 277 314
#     4   9  20  37  52  84 117 137 184 228 269 324
#     4  11  19  38  58  79 113 150 178 226 277 326
#     4  11  19  38  59  82 107 148 185 225 276 322
#     4  10  21  37  56  79 115 150 179 220 279 327
#     4  10  19  34  57  81 104 146 190 217 262 337
#     4   9  22  37  57  79 115 140 187 229 268 325
#
# _framework density 19.398522
#
# number of rings (size 3 to 8) (size 9 to 14) (size 15 to 20)
#    0.857    1.143    2.857    2.571    0.000    0.000 
#   10.286    4.286    0.000    3.429    0.000    0.000 
#    0.000    0.000    0.000    0.000    0.000    0.000 
#
# Total GULP energy -173461.197400 kJ/mol
# GULP energy per Si atom -12390.085529 kJ/mol
# Density = 1.935437 g / cm^3
# Si number density = 19.398522 Si / 1000 Ang^3
#
#
#
# Elastic Constant Matrix: (Units=GPa)
#
#
# Indices 1 2 3 4 5 6 
#
# 1 38.5845 12.6107 31.0269 0.4005 -8.2246 -2.7698
# 2 12.6107 39.3300 -2.1705 1.5002 3.0963 -5.6798
# 3 31.0269 -2.1705 152.4765 6.8389 2.0305 8.9744
# 4 0.4005 1.5002 6.8389 25.0035 -3.1010 1.7947
# 5 -8.2246 3.0963 2.0305 -3.1010 36.6506 0.2255
# 6 -2.7698 -5.6798 8.9744 1.7947 0.2255 13.5771
#
#
#
# Elastic Compliance Matrix: (Units=1/GPa)
#
#
# Indices 1 2 3 4 5 6 
#
# 1 0.040595 -0.013344 -0.009232 0.003453 0.010991 0.008163
# 2 -0.013344 0.031850 0.002879 -0.003927 -0.006234 0.009321
# 3 -0.009232 0.002879 0.008994 -0.002405 -0.002978 -0.006256
# 4 0.003453 -0.003927 -0.002405 0.041784 0.004806 -0.004952
# 5 0.010991 -0.006234 -0.002978 0.004806 0.030847 0.000455
# 6 0.008163 0.009321 -0.006256 -0.004952 0.000455 0.084001
#
#
# Mechanical properties :
#
#
# Convention : Reuss Voigt Hill
#
# Bulk Modulus (GPa) = 23.78398 34.81394 29.29896
# Shear Modulus (GPa) = 17.15387 27.64115 22.39751
#
# Velocity S-wave (km/s) = 2.97692 3.77889 3.40163
# Velocity P-wave (km/s) = 4.90952 6.08488 5.52852
#
# Compressibility (1/GPa) = 0.04204511
#
# Stress axis : x y z
#
# Youngs Moduli (GPa) = 24.63352 31.39706 111.18814
#
# Poissons Ratio (x) = 0.41896 1.02651
# Poissons Ratio (y) = 0.32871 -0.32014
# Poissons Ratio (z) = 0.22742 -0.09040
#
# Static dielectric constant tensor:
#      x y z
#    x 3.077600 -0.094360 -0.192930 
#    y -0.094360 3.400560 -0.010630 
#    z -0.192930 -0.010630 4.058530 
# 
# 
# High freq. dielectric constant tensor:
#      x y z
#    x 1.711380 -0.013630 -0.019540 
#    y -0.013630 1.739800 -0.002280 
#    z -0.019540 -0.002280 1.780660 
# 
# From -- ./inp_files/454517.got.cif
#   From: 2010.06.25/outbox.cif.g09.slc.cpg/sg2_228_cif.got.tgz:454517.got - 2010.06.27 13:26:56.
