data_PCOD8042090
_publ_section_title
;
Structure prediction by ZEFSAII (Michael W. Deem and Ramdas Pophale) SiO2 
 PCOD8042090
Probable space group: P -1
;
_chemical_formula_sum "Si O2"
_cell_formula_units_Z 16
_cell_length_a 9.815963
_cell_length_b 14.562512
_cell_length_c 11.754163
_cell_angle_alpha 73.934364
_cell_angle_beta 101.562822
_cell_angle_gamma 151.835815
_cell_volume 758.563648
_symmetry_space_group_name_H-M "P -1"
_symmetry_group_IT_number 2
_symmetry_cell_setting 'triclinic'
loop_
_space_group_symop_operation_xyz
x,y,z
-x,-y,-z
loop_
_atom_site_type_symbol
_atom_site_label
_atom_site_fract_x
_atom_site_fract_y
_atom_site_fract_z
Si Si1 0.449267 0.725978 0.325265
Si Si2 0.742907 0.726244 0.479837
Si Si3 0.074681 0.890540 0.105673
Si Si4 0.571453 0.738611 0.087033
Si Si5 0.771073 0.074951 0.638548
Si Si6 0.216482 0.376928 0.045303
Si Si7 0.939202 0.155601 0.304294
Si Si8 0.139884 0.713369 0.594743
O O1 0.605324 0.744542 0.426141
O O2 0.486310 0.725750 0.199466
O O3 0.106886 0.517664 0.370087
O O4 0.603551 0.919305 0.315492
O O5 0.500000 0.500000 0.500000
O O6 0.866728 0.799459 0.603534
O O7 0.010877 0.873049 0.389118
O O8 0.790856 0.781844 0.125744
O O9 0.199353 0.906723 0.227083
O O10 0.018886 0.773679 0.043074
O O11 0.312303 0.106718 0.024290
O O12 0.287272 0.527694 0.044797
O O13 0.446106 0.848324 0.625801
O O14 0.847243 0.224307 0.545876
O O15 0.093630 0.245743 0.177714
O O16 0.500000 0.500000 0.000000
O O17 0.937307 0.257714 0.328277
#
# Coordination Sequence:
#
# PCOD8042090 Si02
#       8
#     2   2   2   2   2   2   2   2
#     4  12  20  37  64  88 120 157 199 249 303 348
#     4  11  20  37  63  91 119 152 195 253 300 349
#     4  10  20  35  56  88 119 149 198 244 297 353
#     4  10  19  34  57  88 121 150 190 248 302 346
#     4  10  21  41  64  86 119 164 198 243 303 354
#     4  10  20  32  56  87 118 154 189 246 298 346
#     4  11  22  37  59  92 122 155 205 241 301 359
#     4  10  23  42  62  83 125 162 197 248 297 354
#
# _framework density 21.092495
#
# number of rings (size 3 to 8) (size 9 to 14) (size 15 to 20)
#    0.000    1.500    6.250    0.375    1.750    0.000 
#    0.000   10.625    0.000    0.000    0.000    0.000 
#    0.000    0.000    0.000    0.000    0.000    0.000 
#
# Total GULP energy -198341.059702 kJ/mol
# GULP energy per Si atom -12396.316231 kJ/mol
# Density = 2.104449 g / cm^3
# Si number density = 21.092495 Si / 1000 Ang^3
#
#
#
# Elastic Constant Matrix: (Units=GPa)
#
#
# Indices 1 2 3 4 5 6 
#
# 1 19.6211 19.2241 12.3995 3.2607 -0.0572 3.5906
# 2 19.2241 153.8220 67.5477 1.2641 -3.4781 -10.3755
# 3 12.3995 67.5477 149.9234 7.4038 -2.5419 2.1488
# 4 3.2607 1.2641 7.4038 31.7628 0.8435 -7.4267
# 5 -0.0572 -3.4781 -2.5419 0.8435 13.0376 -1.2230
# 6 3.5906 -10.3755 2.1488 -7.4267 -1.2230 32.5060
#
#
#
# Elastic Compliance Matrix: (Units=1/GPa)
#
#
# Indices 1 2 3 4 5 6 
#
# 1 0.063198 -0.008246 -0.000966 -0.008578 -0.002645 -0.011608
# 2 -0.008246 0.009540 -0.003770 0.002422 0.002071 0.004836
# 3 -0.000966 -0.003770 0.008602 -0.002278 0.000612 -0.002163
# 4 -0.008578 0.002422 -0.002278 0.035134 -0.001184 0.009854
# 5 -0.002645 0.002071 0.000612 -0.001184 0.077773 0.003568
# 6 -0.011608 0.004836 -0.002163 0.009854 0.003568 0.036118
#
#
# Mechanical properties :
#
#
# Convention : Reuss Voigt Hill
#
# Bulk Modulus (GPa) = 18.05864 57.96766 38.01315
# Shear Modulus (GPa) = 18.19578 30.40762 24.30170
#
# Velocity S-wave (km/s) = 2.94030 3.80100 3.39801
# Velocity P-wave (km/s) = 4.48413 6.84147 5.78417
#
# Compressibility (1/GPa) = 0.05537515
#
# Stress axis : x y z
#
# Youngs Moduli (GPa) = 15.82338 104.81815 116.24529
#
# Poissons Ratio (x) = 0.86435 0.11233
# Poissons Ratio (y) = 0.13048 0.43826
# Poissons Ratio (z) = 0.01529 0.39518
#
# Static dielectric constant tensor:
#      x y z
#    x 3.439170 -0.154840 -0.146420 
#    y -0.154840 4.419490 0.036830 
#    z -0.146420 0.036830 3.950380 
# 
# 
# High freq. dielectric constant tensor:
#      x y z
#    x 1.777920 -0.004550 -0.018020 
#    y -0.004550 1.845680 -0.003170 
#    z -0.018020 -0.003170 1.835650 
# 
# From -- ./inp_files/426078.got.cif
#   From: 2010.06.25/outbox.cif.g09.slc.cpg/sg2_214_cif.got.tgz:426078.got - 2010.06.27 13:26:56.
