data_PCOD8042467
_publ_section_title
;
Structure prediction by ZEFSAII (Michael W. Deem and Ramdas Pophale) SiO2 
 PCOD8042467
Probable space group: P -1
;
_chemical_formula_sum "Si O2"
_cell_formula_units_Z 14
_cell_length_a 19.079376
_cell_length_b 10.094567
_cell_length_c 15.512248
_cell_angle_alpha 124.342328
_cell_angle_beta 17.781312
_cell_angle_gamma 125.962451
_cell_volume 738.331913
_symmetry_space_group_name_H-M "P -1"
_symmetry_group_IT_number 2
_symmetry_cell_setting 'triclinic'
loop_
_space_group_symop_operation_xyz
x,y,z
-x,-y,-z
loop_
_atom_site_type_symbol
_atom_site_label
_atom_site_fract_x
_atom_site_fract_y
_atom_site_fract_z
Si Si1 0.072953 0.988333 0.781839
Si Si2 0.966150 0.482330 0.636108
Si Si3 0.613147 0.020360 0.745994
Si Si4 0.154612 0.883540 0.315737
Si Si5 0.290535 0.876663 0.655971
Si Si6 0.442741 0.666698 0.163839
Si Si7 0.648650 0.706338 0.115634
O O1 0.248909 0.044891 0.517837
O O2 0.233601 0.940845 0.652298
O O3 0.946872 0.139025 0.014428
O O4 0.864022 0.840043 0.947123
O O5 0.983528 0.303079 0.583230
O O6 0.000000 0.500000 0.500000
O O7 0.169526 0.615924 0.492920
O O8 0.719485 0.528119 0.972330
O O9 0.784198 0.045937 0.635647
O O10 0.532819 0.192206 0.884718
O O11 0.383007 0.886172 0.989671
O O12 0.000000 0.000000 0.500000
O O13 0.400908 0.711691 0.456313
O O14 0.500000 0.000000 0.500000
O O15 0.610444 0.741663 0.072645
O O16 0.500000 0.500000 0.000000
#
# Coordination Sequence:
#
# PCOD8042467 Si02
#       7
#     2   2   2   2   2   2   2
#     4  10  19  35  56  88 119 148 197 244 295 348
#     4  12  21  36  55  83 112 153 201 241 281 352
#     4  11  22  37  54  83 117 154 195 240 288 356
#     4  11  25  38  54  81 122 159 196 237 293 347
#     4   9  19  32  56  90 117 147 190 252 297 339
#     4  12  21  32  58  83 113 155 196 232 289 339
#     4  11  19  33  57  84 119 147 192 243 290 334
#
# _framework density 18.961662
#
# number of rings (size 3 to 8) (size 9 to 14) (size 15 to 20)
#    0.000    1.143    5.714    0.857    2.000    1.143 
#    0.000    0.000    0.000    0.857    0.000   15.000 
#    0.000    0.000    0.000    0.000    0.000    0.000 
#
# Total GULP energy -173435.591667 kJ/mol
# GULP energy per Si atom -12388.256548 kJ/mol
# Density = 1.891850 g / cm^3
# Si number density = 18.961662 Si / 1000 Ang^3
#
#
#
# Elastic Constant Matrix: (Units=GPa)
#
#
# Indices 1 2 3 4 5 6 
#
# 1 120.9604 28.4614 44.9006 -0.5592 -12.1971 -1.5134
# 2 28.4614 70.9329 21.6434 9.4009 -2.7247 -14.4606
# 3 44.9006 21.6434 112.6813 31.8857 15.3151 -2.4335
# 4 -0.5592 9.4009 31.8857 45.0638 2.7014 -4.2728
# 5 -12.1971 -2.7247 15.3151 2.7014 41.9507 -0.0255
# 6 -1.5134 -14.4606 -2.4335 -4.2728 -0.0255 23.6849
#
#
#
# Elastic Compliance Matrix: (Units=1/GPa)
#
#
# Indices 1 2 3 4 5 6 
#
# 1 0.011927 -0.003590 -0.006159 0.004832 0.005171 -0.001185
# 2 -0.003590 0.018408 -0.001447 -0.001912 0.000810 0.010517
# 3 -0.006159 -0.001447 0.015463 -0.010454 -0.006858 -0.001582
# 4 0.004832 -0.001912 -0.010454 0.030191 0.003155 0.003517
# 5 0.005171 0.000810 -0.006858 0.003155 0.027694 0.000719
# 6 -0.001185 0.010517 -0.001582 0.003517 0.000719 0.049039
#
#
# Mechanical properties :
#
#
# Convention : Reuss Voigt Hill
#
# Bulk Modulus (GPa) = 42.72343 54.95393 48.83868
# Shear Modulus (GPa) = 27.33485 36.11118 31.72301
#
# Velocity S-wave (km/s) = 3.80094 4.36871 4.09468
# Velocity P-wave (km/s) = 6.46864 7.38187 6.94029
#
# Compressibility (1/GPa) = 0.02340636
#
# Stress axis : x y z
#
# Youngs Moduli (GPa) = 83.84351 54.32335 64.67067
#
# Poissons Ratio (x) = 0.19501 0.39830
# Poissons Ratio (y) = 0.30098 0.09359
# Poissons Ratio (z) = 0.51639 0.07862
#
# Static dielectric constant tensor:
#      x y z
#    x 3.756760 0.149000 -0.144840 
#    y 0.149000 3.282290 0.351900 
#    z -0.144840 0.351900 4.385720 
# 
# 
# High freq. dielectric constant tensor:
#      x y z
#    x 1.743630 0.014650 -0.020930 
#    y 0.014650 1.689860 0.026130 
#    z -0.020930 0.026130 1.761420 
# 
# From -- ./inp_files/83004.got.cif
#   From: 2010.06.25/outbox.cif.g09.slc.cpg/sg2_42_cif.got.tgz:83004.got - 2010.06.27 13:26:56.
