data_PCOD8042680
_publ_section_title
;
Structure prediction by ZEFSAII (Michael W. Deem and Ramdas Pophale) SiO2 
 PCOD8042680
Probable space group: P -1
;
_chemical_formula_sum "Si O2"
_cell_formula_units_Z 16
_cell_length_a 11.345926
_cell_length_b 17.309613
_cell_length_c 24.043671
_cell_angle_alpha 17.520971
_cell_angle_beta 42.111642
_cell_angle_gamma 36.858707
_cell_volume 846.857791
_symmetry_space_group_name_H-M "P -1"
_symmetry_group_IT_number 2
_symmetry_cell_setting 'triclinic'
loop_
_space_group_symop_operation_xyz
x,y,z
-x,-y,-z
loop_
_atom_site_type_symbol
_atom_site_label
_atom_site_fract_x
_atom_site_fract_y
_atom_site_fract_z
Si Si1 0.153066 0.558949 0.273458
Si Si2 0.843123 0.855597 0.527354
Si Si3 0.200145 0.919299 0.914068
Si Si4 0.484649 0.667050 0.625801
Si Si5 0.410432 0.118871 0.245663
Si Si6 0.085974 0.605233 0.085155
Si Si7 0.675815 0.681928 0.146091
Si Si8 0.863758 0.113229 0.526799
O O1 0.147380 0.269139 0.452153
O O2 0.290550 0.515168 0.308443
O O3 0.234048 0.673412 0.115680
O O4 0.932558 0.773154 0.222596
O O5 0.898676 0.617803 0.719521
O O6 0.009930 0.957351 0.411924
O O7 0.630522 0.129383 0.421679
O O8 0.410908 0.897585 0.841852
O O9 0.092998 0.880312 0.922866
O O10 0.486975 0.868358 0.436981
O O11 0.386781 0.456655 0.789179
O O12 0.259335 0.061558 0.299637
O O13 0.285302 0.444867 0.088802
O O14 0.883800 0.701588 0.053507
O O15 0.713208 0.457169 0.337877
O O16 0.500000 0.000000 0.000000
O O17 0.000000 0.000000 0.500000
#
# Coordination Sequence:
#
# PCOD8042680 Si02
#       8
#     2   2   2   2   2   2   2   2
#     4  10  21  34  48  71 110 145 168 205 263 324
#     4   9  16  31  54  74  97 137 180 206 251 320
#     4  10  21  34  49  74 107 142 172 210 265 311
#     4  10  18  32  54  79  99 131 178 218 262 302
#     4  10  18  32  57  79  97 131 182 225 253 299
#     4   9  16  31  51  76 103 131 174 220 258 299
#     4  10  17  27  51  82 105 127 168 220 264 300
#     4  10  15  33  55  80  99 130 176 220 256 306
#
# _framework density 18.893374000000001
#
# number of rings (size 3 to 8) (size 9 to 14) (size 15 to 20)
#    0.000    2.250    5.000    1.500    0.000    1.500 
#    0.000    0.625    0.000    4.500    0.000    0.000 
#    0.000    0.000    0.000    0.000    0.000    0.000 
#
# Total GULP energy -198213.839466 kJ/mol
# GULP energy per Si atom -12388.364967 kJ/mol
# Density = 1.885037 g / cm^3
# Si number density = 18.893374 Si / 1000 Ang^3
#
#
#
# Elastic Constant Matrix: (Units=GPa)
#
#
# Indices 1 2 3 4 5 6 
#
# 1 103.6549 45.0073 16.8442 1.0415 -20.7574 -16.5180
# 2 45.0073 119.1917 40.8929 -5.3821 -16.8018 -15.5679
# 3 16.8442 40.8929 56.0195 -21.0281 -13.2699 1.7643
# 4 1.0415 -5.3821 -21.0281 21.8558 -4.3072 -4.3171
# 5 -20.7574 -16.8018 -13.2699 -4.3072 31.1442 -4.7740
# 6 -16.5180 -15.5679 1.7643 -4.3171 -4.7740 22.9051
#
#
#
# Elastic Compliance Matrix: (Units=1/GPa)
#
#
# Indices 1 2 3 4 5 6 
#
# 1 0.014745 -0.002775 0.001906 0.005123 0.011691 0.012003
# 2 -0.002775 0.014462 -0.011907 -0.005955 0.001265 0.007887
# 3 0.001906 -0.011907 0.051010 0.051682 0.024369 0.004173
# 4 0.005123 -0.005955 0.051682 0.106571 0.040675 0.024230
# 5 0.011691 0.001265 0.024369 0.040675 0.060847 0.027762
# 6 0.012003 0.007887 0.004173 0.024230 0.027762 0.067707
#
#
# Mechanical properties :
#
#
# Convention : Reuss Voigt Hill
#
# Bulk Modulus (GPa) = 18.29259 53.81723 36.05491
# Shear Modulus (GPa) = 13.92311 26.92246 20.42279
#
# Velocity S-wave (km/s) = 2.71759 3.77897 3.29135
# Velocity P-wave (km/s) = 4.42155 6.89836 5.79385
#
# Compressibility (1/GPa) = 0.05466694
#
# Stress axis : x y z
#
# Youngs Moduli (GPa) = 67.82037 69.14588 19.60381
#
# Poissons Ratio (x) = 0.19186 -0.03737
# Poissons Ratio (y) = 0.18818 0.23342
# Poissons Ratio (z) = -0.12928 0.82331
#
# Static dielectric constant tensor:
#      x y z
#    x 3.786210 -0.199050 -0.390470 
#    y -0.199050 3.160750 -0.269760 
#    z -0.390470 -0.269760 3.420380 
# 
# 
# High freq. dielectric constant tensor:
#      x y z
#    x 1.741730 -0.025470 -0.025620 
#    y -0.025470 1.701610 -0.033580 
#    z -0.025620 -0.033580 1.716280 
# 
# From -- ./inp_files/338865.got.cif
#   From: 2010.06.25/outbox.cif.g09.slc.cpg/sg2_170_cif.got.tgz:338865.got - 2010.06.27 13:26:56.
