data_PCOD8042278
_publ_section_title
;
Structure prediction by ZEFSAII (Michael W. Deem and Ramdas Pophale) SiO2 
 PCOD8042278
Probable space group: P -1
;
_chemical_formula_sum "Si O2"
_cell_formula_units_Z 16
_cell_length_a 8.664805
_cell_length_b 6.786602
_cell_length_c 14.476020
_cell_angle_alpha 119.921102
_cell_angle_beta 89.177407
_cell_angle_gamma 84.568656
_cell_volume 732.610135
_symmetry_space_group_name_H-M "P -1"
_symmetry_group_IT_number 2
_symmetry_cell_setting 'triclinic'
loop_
_space_group_symop_operation_xyz
x,y,z
-x,-y,-z
loop_
_atom_site_type_symbol
_atom_site_label
_atom_site_fract_x
_atom_site_fract_y
_atom_site_fract_z
Si Si1 0.294188 0.660509 0.982730
Si Si2 0.044109 0.771067 0.155851
Si Si3 0.212044 0.880348 0.849252
Si Si4 0.132260 0.511759 0.425748
Si Si5 0.819033 0.019500 0.481884
Si Si6 0.541347 0.820053 0.149831
Si Si7 0.097109 0.417983 0.719074
Si Si8 0.723417 0.977510 0.672433
O O1 0.226278 0.846592 0.951532
O O2 0.346453 0.411164 0.878627
O O3 0.167795 0.624281 0.054576
O O4 0.440486 0.765231 0.049650
O O5 0.952109 0.596256 0.175465
O O6 0.126576 0.921122 0.264037
O O7 0.934767 0.938124 0.129970
O O8 0.191287 0.632382 0.748887
O O9 0.365247 0.968992 0.827058
O O10 0.224285 0.728193 0.502610
O O11 0.258222 0.291486 0.368108
O O12 0.000000 0.500000 0.500000
O O13 0.058051 0.551189 0.334144
O O14 0.792699 0.816458 0.363127
O O15 0.713800 0.002394 0.568647
O O16 0.000000 0.000000 0.500000
O O17 0.435145 0.896066 0.256053
#
# Coordination Sequence:
#
# PCOD8042278 Si02
#       8
#     2   2   2   2   2   2   2   2
#     4  10  24  47  66  87 121 169 217 258 309 368
#     4  11  22  39  66  97 124 158 213 267 311 359
#     4  12  24  40  63  93 129 165 205 262 318 367
#     4  11  18  34  63  96 126 159 206 255 303 361
#     4  10  19  34  61  94 130 158 201 258 304 363
#     4  10  25  45  65  86 128 167 211 253 309 387
#     4  11  22  35  61  98 131 158 196 264 319 358
#     4  11  20  39  65  98 121 166 213 252 306 372
#
# _framework density 21.839718999999999
#
# number of rings (size 3 to 8) (size 9 to 14) (size 15 to 20)
#    0.000    1.250    6.250    1.500    0.000    4.000 
#    2.250    0.625    0.000    3.750    0.000    0.000 
#    0.000    0.000    0.000    0.000    0.000    0.000 
#
# Total GULP energy -198410.891093 kJ/mol
# GULP energy per Si atom -12400.680693 kJ/mol
# Density = 2.179001 g / cm^3
# Si number density = 21.839719 Si / 1000 Ang^3
#
#
#
# Elastic Constant Matrix: (Units=GPa)
#
#
# Indices 1 2 3 4 5 6 
#
# 1 80.1821 51.0621 41.7951 3.8106 -16.2674 9.6324
# 2 51.0621 158.0287 52.9649 10.4241 -17.8508 8.6833
# 3 41.7951 52.9649 97.9883 8.0387 -32.8208 0.3959
# 4 3.8106 10.4241 8.0387 45.9293 -1.5654 4.6806
# 5 -16.2674 -17.8508 -32.8208 -1.5654 26.2869 1.0935
# 6 9.6324 8.6833 0.3959 4.6806 1.0935 35.0567
#
#
#
# Elastic Compliance Matrix: (Units=1/GPa)
#
#
# Indices 1 2 3 4 5 6 
#
# 1 0.018541 -0.003831 -0.004871 0.000723 0.003012 -0.004281
# 2 -0.003831 0.008679 -0.003088 -0.001030 -0.000356 -0.000914
# 3 -0.004871 -0.003088 0.021210 -0.002035 0.021188 0.001475
# 4 0.000723 -0.001030 -0.002035 0.022552 -0.001331 -0.002890
# 5 0.003012 -0.000356 0.021188 -0.001331 0.066158 -0.002865
# 6 -0.004281 -0.000914 0.001475 -0.002890 -0.002865 0.030386
#
#
# Mechanical properties :
#
#
# Convention : Reuss Voigt Hill
#
# Bulk Modulus (GPa) = 40.24105 69.76037 55.00071
# Shear Modulus (GPa) = 25.07660 34.14638 29.61149
#
# Velocity S-wave (km/s) = 3.39220 3.95840 3.68619
# Velocity P-wave (km/s) = 5.81449 7.27346 6.58451
#
# Compressibility (1/GPa) = 0.02485025
#
# Stress axis : x y z
#
# Youngs Moduli (GPa) = 53.93429 115.22458 47.14766
#
# Poissons Ratio (x) = 0.44138 0.22965
# Poissons Ratio (y) = 0.20660 0.14560
# Poissons Ratio (z) = 0.26271 0.35584
#
# Static dielectric constant tensor:
#      x y z
#    x 3.696770 0.097960 0.131700 
#    y 0.097960 4.414360 0.230690 
#    z 0.131700 0.230690 4.041050 
# 
# 
# High freq. dielectric constant tensor:
#      x y z
#    x 1.830510 0.007440 0.003370 
#    y 0.007440 1.871310 0.005310 
#    z 0.003370 0.005310 1.863710 
# 
# From -- ./inp_files/135326.got.cif
#   From: 2010.06.25/outbox.cif.g09.slc.cpg/sg2_68_cif.got.tgz:135326.got - 2010.06.27 13:26:56.
