data_PCOD8042323
_publ_section_title
;
Structure prediction by ZEFSAII (Michael W. Deem and Ramdas Pophale) SiO2 
 PCOD8042323
Probable space group: P -1
;
_chemical_formula_sum "Si O2"
_cell_formula_units_Z 16
_cell_length_a 15.022955
_cell_length_b 9.060922
_cell_length_c 15.077856
_cell_angle_alpha 50.434969
_cell_angle_beta 140.199147
_cell_angle_gamma 141.812154
_cell_volume 809.400508
_symmetry_space_group_name_H-M "P -1"
_symmetry_group_IT_number 2
_symmetry_cell_setting 'triclinic'
loop_
_space_group_symop_operation_xyz
x,y,z
-x,-y,-z
loop_
_atom_site_type_symbol
_atom_site_label
_atom_site_fract_x
_atom_site_fract_y
_atom_site_fract_z
Si Si1 0.567953 0.482878 0.740787
Si Si2 0.689147 0.910714 0.971222
Si Si3 0.441211 0.040521 0.704696
Si Si4 0.157262 0.532797 0.660035
Si Si5 0.607700 0.949817 0.541827
Si Si6 0.052333 0.242892 0.034771
Si Si7 0.034759 0.791480 0.206907
Si Si8 0.575907 0.535478 0.174700
O O1 0.449473 0.255780 0.672517
O O2 0.571108 0.697105 0.622846
O O3 0.758613 0.537475 0.867451
O O4 0.471608 0.413407 0.787538
O O5 0.603381 0.702168 0.910432
O O6 0.601663 0.045203 0.857595
O O7 0.658675 0.780126 0.090721
O O8 0.892261 0.126152 0.025770
O O9 0.438017 0.045466 0.594981
O O10 0.261150 0.789099 0.690530
O O11 0.279962 0.515719 0.692100
O O12 0.000000 0.500000 0.500000
O O13 0.114011 0.351613 0.777475
O O14 0.500000 0.000000 0.500000
O O15 0.802170 0.170790 0.634404
O O16 0.083008 0.044390 0.118181
O O17 0.016389 0.335695 0.880799
#
# Coordination Sequence:
#
# PCOD8042323 Si02
#       8
#     2   2   2   2   2   2   2   2
#     4  11  25  39  60  92 130 161 192 253 318 371
#     4  10  20  38  63  87 118 161 211 255 289 357
#     4  11  24  39  60  91 129 161 195 251 318 364
#     4  11  21  39  65  88 119 160 215 254 296 360
#     4  11  21  40  66  88 117 160 216 249 294 361
#     4  10  20  37  61  91 121 154 206 252 305 352
#     4  10  19  34  63  91 112 153 210 264 290 341
#     4  10  21  38  61  90 119 160 210 252 299 356
#
# _framework density 19.767717000000001
#
# number of rings (size 3 to 8) (size 9 to 14) (size 15 to 20)
#    0.000    1.500    2.500    4.875    3.500    1.000 
#    0.000    0.625    0.000    0.000    0.000    0.000 
#    0.000    0.000    0.000    0.000    0.000    0.000 
#
# Total GULP energy -198258.106661 kJ/mol
# GULP energy per Si atom -12391.131666 kJ/mol
# Density = 1.972272 g / cm^3
# Si number density = 19.767717 Si / 1000 Ang^3
#
#
#
# Elastic Constant Matrix: (Units=GPa)
#
#
# Indices 1 2 3 4 5 6 
#
# 1 82.8291 42.6935 29.0780 3.3350 0.8235 15.7423
# 2 42.6935 77.7872 36.1490 9.2944 2.5088 -0.3824
# 3 29.0780 36.1490 90.6573 -2.0975 7.3791 5.7897
# 4 3.3350 9.2944 -2.0975 24.3687 9.5105 2.4871
# 5 0.8235 2.5088 7.3791 9.5105 35.3344 -0.3479
# 6 15.7423 -0.3824 5.7897 2.4871 -0.3479 32.7356
#
#
#
# Elastic Compliance Matrix: (Units=1/GPa)
#
#
# Indices 1 2 3 4 5 6 
#
# 1 0.019680 -0.010403 -0.001503 0.002143 -0.000076 -0.009483
# 2 -0.010403 0.022743 -0.006630 -0.009596 0.002666 0.007199
# 3 -0.001503 -0.006630 0.014792 0.005896 -0.004194 -0.002463
# 4 0.002143 -0.009596 0.005896 0.051181 -0.014437 -0.006227
# 5 -0.000076 0.002666 -0.004194 -0.014437 0.032897 0.002256
# 6 -0.009483 0.007199 -0.002463 -0.006227 0.002256 0.036125
#
#
# Mechanical properties :
#
#
# Convention : Reuss Voigt Hill
#
# Bulk Modulus (GPa) = 49.64888 51.90162 50.77525
# Shear Modulus (GPa) = 22.60370 28.04461 25.32416
#
# Velocity S-wave (km/s) = 3.38519 3.77066 3.58311
# Velocity P-wave (km/s) = 6.36003 6.72829 6.54675
#
# Compressibility (1/GPa) = 0.02014144
#
# Stress axis : x y z
#
# Youngs Moduli (GPa) = 50.81425 43.97033 67.60638
#
# Poissons Ratio (x) = 0.45742 0.10158
# Poissons Ratio (y) = 0.52862 0.44826
# Poissons Ratio (z) = 0.07635 0.29154
#
# Static dielectric constant tensor:
#      x y z
#    x 3.390820 0.245260 0.034150 
#    y 0.245260 3.647930 0.034350 
#    z 0.034150 0.034350 3.458600 
# 
# 
# High freq. dielectric constant tensor:
#      x y z
#    x 1.759340 0.025280 0.001750 
#    y 0.025280 1.757370 -0.006620 
#    z 0.001750 -0.006620 1.783850 
# 
# From -- ./inp_files/239526.got.cif
#   From: 2010.06.25/outbox.cif.g09.slc.cpg/sg2_120_cif.got.tgz:239526.got - 2010.06.27 13:26:56.
