data_PCOD8042201
_publ_section_title
;
Structure prediction by ZEFSAII (Michael W. Deem and Ramdas Pophale) SiO2 
 PCOD8042201
Probable space group: P -1
;
_chemical_formula_sum "Si O2"
_cell_formula_units_Z 16
_cell_length_a 11.230433
_cell_length_b 9.950746
_cell_length_c 12.143339
_cell_angle_alpha 145.293458
_cell_angle_beta 102.828878
_cell_angle_gamma 85.634127
_cell_volume 739.402427
_symmetry_space_group_name_H-M "P -1"
_symmetry_group_IT_number 2
_symmetry_cell_setting 'triclinic'
loop_
_space_group_symop_operation_xyz
x,y,z
-x,-y,-z
loop_
_atom_site_type_symbol
_atom_site_label
_atom_site_fract_x
_atom_site_fract_y
_atom_site_fract_z
Si Si1 0.483488 0.381196 0.798299
Si Si2 0.083865 0.717745 0.894058
Si Si3 0.546389 0.767626 0.642844
Si Si4 0.238360 0.451486 0.499432
Si Si5 0.350516 0.753497 0.911056
Si Si6 0.989655 0.132877 0.257491
Si Si7 0.637740 0.136742 0.520539
Si Si8 0.865027 0.310910 0.546385
O O1 0.435548 0.562257 0.828384
O O2 0.612915 0.324777 0.736614
O O3 0.386045 0.130403 0.615080
O O4 0.500000 0.500000 0.000000
O O5 0.228679 0.704881 0.932949
O O6 0.075276 0.825335 0.842537
O O7 0.994219 0.459972 0.720325
O O8 0.043218 0.889844 0.095022
O O9 0.500000 0.500000 0.500000
O O10 0.682174 0.759209 0.614752
O O11 0.455765 0.847382 0.589008
O O12 0.570684 0.975032 0.881311
O O13 0.306856 0.696619 0.737982
O O14 0.217409 0.511662 0.407733
O O15 0.102047 0.357451 0.460194
O O16 0.892923 0.120993 0.331137
O O17 0.781381 0.184597 0.544097
#
# Coordination Sequence:
#
# PCOD8042201 Si02
#       8
#     2   2   2   2   2   2   2   2
#     4  11  25  46  67  86 117 176 222 255 313 371
#     4  10  20  34  61  95 123 174 204 245 311 386
#     4  12  24  39  61 100 132 158 204 266 319 377
#     4  11  20  36  61  97 131 165 201 253 316 383
#     4  12  22  40  68  89 125 172 216 250 309 379
#     4  10  19  34  59  92 135 166 200 244 319 386
#     4  11  25  44  64  92 127 164 211 268 314 371
#     4  11  21  38  61  93 136 158 201 259 322 375
#
# _framework density 21.639097
#
# number of rings (size 3 to 8) (size 9 to 14) (size 15 to 20)
#    0.000    1.000    7.500    0.750    0.000    1.500 
#    2.250    0.625    0.000    1.500    0.000    0.000 
#    0.000    0.000    0.000    0.000    0.000    0.000 
#
# Total GULP energy -198328.207580 kJ/mol
# GULP energy per Si atom -12395.512974 kJ/mol
# Density = 2.158985 g / cm^3
# Si number density = 21.639097 Si / 1000 Ang^3
#
#
#
# Elastic Constant Matrix: (Units=GPa)
#
#
# Indices 1 2 3 4 5 6 
#
# 1 100.4811 7.0946 27.2780 13.2277 -15.2506 21.8336
# 2 7.0946 36.1956 20.9761 12.3667 2.6574 7.3016
# 3 27.2780 20.9761 133.4792 6.5367 -13.7637 7.8335
# 4 13.2277 12.3667 6.5367 30.9318 -0.5489 -3.7081
# 5 -15.2506 2.6574 -13.7637 -0.5489 34.8449 -2.5124
# 6 21.8336 7.3016 7.8335 -3.7081 -2.5124 34.1664
#
#
#
# Elastic Compliance Matrix: (Units=1/GPa)
#
#
# Indices 1 2 3 4 5 6 
#
# 1 0.014054 0.002594 -0.001884 -0.007724 0.004394 -0.009619
# 2 0.002594 0.038698 -0.005682 -0.016768 -0.005105 -0.010820
# 3 -0.001884 -0.005682 0.008995 0.001322 0.003236 0.000737
# 4 -0.007724 -0.016768 0.001322 0.043611 0.000041 0.012953
# 5 0.004394 -0.005105 0.003236 0.000041 0.032284 -0.000080
# 6 -0.009619 -0.010820 0.000737 0.012953 -0.000080 0.038958
#
#
# Mechanical properties :
#
#
# Convention : Reuss Voigt Hill
#
# Bulk Modulus (GPa) = 19.30328 42.31700 30.81014
# Shear Modulus (GPa) = 24.53232 34.30911 29.42071
#
# Velocity S-wave (km/s) = 3.37070 3.98617 3.69129
# Velocity P-wave (km/s) = 4.90803 6.38626 5.69531
#
# Compressibility (1/GPa) = 0.05180466
#
# Stress axis : x y z
#
# Youngs Moduli (GPa) = 71.15295 25.84080 111.16865
#
# Poissons Ratio (x) = -0.06703 0.20943
# Poissons Ratio (y) = -0.18456 0.63163
# Poissons Ratio (z) = 0.13405 0.14682
#
# Static dielectric constant tensor:
#      x y z
#    x 4.406080 -0.225820 -0.149770 
#    y -0.225820 3.547090 -0.011110 
#    z -0.149770 -0.011110 4.114020 
# 
# 
# High freq. dielectric constant tensor:
#      x y z
#    x 1.865110 -0.007990 -0.015120 
#    y -0.007990 1.793290 0.000260 
#    z -0.015120 0.000260 1.859710 
# 
# From -- ./inp_files/519387.got.cif
#   From: 2010.06.25/outbox.cif.g09.slc.cpg/sg2_260_cif.got.tgz:519387.got - 2010.06.27 13:26:56.
