data_PCOD8042184
_publ_section_title
;
Structure prediction by ZEFSAII (Michael W. Deem and Ramdas Pophale) SiO2 
 PCOD8042184
Probable space group: P -1
;
_chemical_formula_sum "Si O2"
_cell_formula_units_Z 16
_cell_length_a 9.251936
_cell_length_b 12.788902
_cell_length_c 14.560830
_cell_angle_alpha 75.520744
_cell_angle_beta 51.111542
_cell_angle_gamma 42.867105
_cell_volume 837.409864
_symmetry_space_group_name_H-M "P -1"
_symmetry_group_IT_number 2
_symmetry_cell_setting 'triclinic'
loop_
_space_group_symop_operation_xyz
x,y,z
-x,-y,-z
loop_
_atom_site_type_symbol
_atom_site_label
_atom_site_fract_x
_atom_site_fract_y
_atom_site_fract_z
Si Si1 0.021624 0.738041 0.649542
Si Si2 0.190849 0.513830 0.894365
Si Si3 0.463623 0.582229 0.375504
Si Si4 0.153015 0.573684 0.362507
Si Si5 0.638869 0.375166 0.889325
Si Si6 0.021153 0.008575 0.881657
Si Si7 0.320082 0.257509 0.346926
Si Si8 0.832376 0.876283 0.885078
O O1 0.171688 0.747878 0.509188
O O2 0.283274 0.548662 0.623677
O O3 0.780218 0.768137 0.695158
O O4 0.889011 0.868004 0.755370
O O5 0.419798 0.379982 0.751442
O O6 0.354341 0.467049 0.931081
O O7 0.007176 0.697080 0.892893
O O8 0.000000 0.500000 0.000000
O O9 0.385929 0.510272 0.359884
O O10 0.152285 0.648493 0.255566
O O11 0.236760 0.418376 0.328065
O O12 0.834144 0.715897 0.503979
O O13 0.807012 0.197709 0.897692
O O14 0.500000 0.500000 0.000000
O O15 0.337472 0.904227 0.745916
O O16 0.926272 0.941353 0.885190
O O17 0.000000 0.000000 0.000000
O O18 0.500000 0.000000 0.000000
#
# Coordination Sequence:
#
# PCOD8042184 Si02
#       8
#     2   2   2   2   2   2   2   2
#     4   9  17  31  55  82 109 141 181 223 269 327
#     4  10  20  36  57  82 112 146 186 231 280 335
#     4   8  16  32  53  79 110 144 182 224 267 324
#     4   9  19  36  58  84 116 149 187 231 283 343
#     4  11  23  39  58  80 110 149 191 239 290 340
#     4  12  24  39  58  81 113 149 192 242 291 341
#     4  10  19  34  59  88 115 148 186 230 283 341
#     4  11  22  37  58  84 113 147 187 232 284 340
#
# _framework density 19.106534
#
# number of rings (size 3 to 8) (size 9 to 14) (size 15 to 20)
#    0.000    2.000    0.000    5.250    0.000    4.500 
#    0.000    0.000    0.000   13.500    0.000    0.000 
#    0.000    0.000    0.000    0.000    0.000    0.000 
#
# Total GULP energy -198279.663707 kJ/mol
# GULP energy per Si atom -12392.478982 kJ/mol
# Density = 1.906305 g / cm^3
# Si number density = 19.106534 Si / 1000 Ang^3
#
#
#
# Elastic Constant Matrix: (Units=GPa)
#
#
# Indices 1 2 3 4 5 6 
#
# 1 132.8994 41.8670 87.4482 1.1621 2.0655 0.6425
# 2 41.8670 89.1983 55.9063 -4.5449 4.8978 2.9468
# 3 87.4482 55.9063 181.3965 -3.6890 -1.0007 5.7753
# 4 1.1621 -4.5449 -3.6890 32.5863 -1.1522 -4.4887
# 5 2.0655 4.8978 -1.0007 -1.1522 38.6314 3.3693
# 6 0.6425 2.9468 5.7753 -4.4887 3.3693 28.4495
#
#
#
# Elastic Compliance Matrix: (Units=1/GPa)
#
#
# Indices 1 2 3 4 5 6 
#
# 1 0.011491 -0.002413 -0.004850 -0.001197 -0.000544 0.000851
# 2 -0.002413 0.014603 -0.003303 0.001643 -0.001731 -0.000323
# 3 -0.004850 -0.003303 0.008931 0.000568 0.001048 -0.001396
# 4 -0.001197 0.001643 0.000568 0.031685 0.000406 0.004693
# 5 -0.000544 -0.001731 0.001048 0.000406 0.026443 -0.003089
# 6 0.000851 -0.000323 -0.001396 0.004693 -0.003089 0.036554
#
#
# Mechanical properties :
#
#
# Convention : Reuss Voigt Hill
#
# Bulk Modulus (GPa) = 71.98314 85.99301 78.98807
# Shear Modulus (GPa) = 32.16042 34.48496 33.32269
#
# Velocity S-wave (km/s) = 4.10715 4.25299 4.18071
# Velocity P-wave (km/s) = 7.76196 8.31998 8.04581
#
# Compressibility (1/GPa) = 0.01389214
#
# Stress axis : x y z
#
# Youngs Moduli (GPa) = 87.02488 68.47741 111.96935
#
# Poissons Ratio (x) = 0.16521 0.54310
# Poissons Ratio (y) = 0.20996 0.36989
# Poissons Ratio (z) = 0.42211 0.22621
#
# Static dielectric constant tensor:
#      x y z
#    x 3.547170 -0.156370 -0.015540 
#    y -0.156370 3.176950 -0.000910 
#    z -0.015540 -0.000910 4.157660 
# 
# 
# High freq. dielectric constant tensor:
#      x y z
#    x 1.755960 -0.010990 -0.000060 
#    y -0.010990 1.701090 0.002800 
#    z -0.000060 0.002800 1.775780 
# 
# From -- ./inp_files/226283.got.cif
#   From: 2010.06.25/outbox.cif.g09.slc.cpg/sg2_114_cif.got.tgz:226283.got - 2010.06.27 13:26:56.
