data_PCOD8042096
_publ_section_title
;
Structure prediction by ZEFSAII (Michael W. Deem and Ramdas Pophale) SiO2 
 PCOD8042096
Probable space group: P -1
;
_chemical_formula_sum "Si O2"
_cell_formula_units_Z 14
_cell_length_a 11.615098
_cell_length_b 6.307760
_cell_length_c 13.132852
_cell_angle_alpha 128.437121
_cell_angle_beta 84.624453
_cell_angle_gamma 81.689321
_cell_volume 724.542781
_symmetry_space_group_name_H-M "P -1"
_symmetry_group_IT_number 2
_symmetry_cell_setting 'triclinic'
loop_
_space_group_symop_operation_xyz
x,y,z
-x,-y,-z
loop_
_atom_site_type_symbol
_atom_site_label
_atom_site_fract_x
_atom_site_fract_y
_atom_site_fract_z
Si Si1 0.762676 0.987012 0.650765
Si Si2 0.136160 0.135744 0.606767
Si Si3 0.916102 0.907595 0.060986
Si Si4 0.537442 0.264322 0.621674
Si Si5 0.286684 0.559276 0.726983
Si Si6 0.707811 0.439479 0.511773
Si Si7 0.067536 0.707003 0.182694
O O1 0.859419 0.874880 0.519059
O O2 0.742559 0.718574 0.632332
O O3 0.637226 0.173553 0.673258
O O4 0.816337 0.173460 0.780073
O O5 0.216544 0.334032 0.701456
O O6 0.001466 0.266018 0.695448
O O7 0.182438 0.826692 0.556067
O O8 0.979776 0.886160 0.158732
O O9 0.787774 0.132218 0.143031
O O10 0.887657 0.616700 0.948108
O O11 0.000000 0.000000 0.000000
O O12 0.418804 0.478261 0.743708
O O13 0.588683 0.416580 0.571899
O O14 0.500000 0.000000 0.500000
O O15 0.315984 0.528249 0.596051
#
# Coordination Sequence:
#
# PCOD8042096 Si02
#       7
#     2   2   2   2   2   2   2
#     4  10  23  36  57  93 124 152 183 246 302 350
#     4  10  19  35  61  90 119 149 187 245 301 353
#     4  11  24  40  63  81 113 166 202 245 278 339
#     4  11  20  35  60  91 120 151 191 238 295 359
#     4  11  20  36  59  90 115 150 201 236 288 345
#     4  10  19  34  57  90 119 153 181 237 306 338
#     4  11  23  41  58  86 120 154 206 237 289 350
#
# _framework density 19.32253
#
# number of rings (size 3 to 8) (size 9 to 14) (size 15 to 20)
#    0.000    1.429    7.143    0.857    0.000    2.857 
#    0.000    0.714    0.000    1.714    0.000    0.000 
#    0.000    0.000    0.000    0.000    0.000    0.000 
#
# Total GULP energy -173602.677363 kJ/mol
# GULP energy per Si atom -12400.191240 kJ/mol
# Density = 1.927855 g / cm^3
# Si number density = 19.322530 Si / 1000 Ang^3
#
#
#
# Elastic Constant Matrix: (Units=GPa)
#
#
# Indices 1 2 3 4 5 6 
#
# 1 131.5694 54.0831 66.6577 26.2945 1.7522 1.0379
# 2 54.0831 108.3225 38.8220 24.6012 2.0849 12.3590
# 3 66.6577 38.8220 79.3887 25.9083 3.3824 -3.4592
# 4 26.2945 24.6012 25.9083 24.6587 -2.0404 -4.8294
# 5 1.7522 2.0849 3.3824 -2.0404 32.7134 8.9626
# 6 1.0379 12.3590 -3.4592 -4.8294 8.9626 35.2299
#
#
#
# Elastic Compliance Matrix: (Units=1/GPa)
#
#
# Indices 1 2 3 4 5 6 
#
# 1 0.014255 -0.003084 -0.009934 -0.001777 0.000539 -0.000694
# 2 -0.003084 0.014505 -0.001144 -0.011266 0.000515 -0.006785
# 3 -0.009934 -0.001144 0.027227 -0.016789 -0.003815 0.002036
# 4 -0.001777 -0.011266 -0.016789 0.073907 0.004018 0.011465
# 5 0.000539 0.000515 -0.003815 0.004018 0.033492 -0.008541
# 6 -0.000694 -0.006785 0.002036 0.011465 -0.008541 0.034730
#
#
# Mechanical properties :
#
#
# Convention : Reuss Voigt Hill
#
# Bulk Modulus (GPa) = 36.15104 70.93404 53.54254
# Shear Modulus (GPa) = 21.21702 29.16824 25.19263
#
# Velocity S-wave (km/s) = 3.31727 3.88950 3.61473
# Velocity P-wave (km/s) = 5.78120 7.54726 6.72248
#
# Compressibility (1/GPa) = 0.02766172
#
# Stress axis : x y z
#
# Youngs Moduli (GPa) = 70.15238 68.94374 36.72837
#
# Poissons Ratio (x) = 0.21265 0.36485
# Poissons Ratio (y) = 0.21638 0.04202
# Poissons Ratio (z) = 0.69687 0.07888
#
# Static dielectric constant tensor:
#      x y z
#    x 3.599530 0.085330 -0.116790 
#    y 0.085330 3.856380 0.206660 
#    z -0.116790 0.206660 3.336280 
# 
# 
# High freq. dielectric constant tensor:
#      x y z
#    x 1.751140 0.009280 -0.007740 
#    y 0.009280 1.765660 0.015860 
#    z -0.007740 0.015860 1.718850 
# 
# From -- ./inp_files/53151.got.cif
#   From: 2010.06.25/outbox.cif.g09.slc.cpg/sg2_27_cif.got.tgz:53151.got - 2010.06.27 13:26:56.
