data_PCOD8042438
_publ_section_title
;
Structure prediction by ZEFSAII (Michael W. Deem and Ramdas Pophale) SiO2 
 PCOD8042438
Probable space group: P -1
;
_chemical_formula_sum "Si O2"
_cell_formula_units_Z 16
_cell_length_a 22.795205
_cell_length_b 8.504265
_cell_length_c 12.817017
_cell_angle_alpha 54.949645
_cell_angle_beta 154.061945
_cell_angle_gamma 131.906772
_cell_volume 806.170995
_symmetry_space_group_name_H-M "P -1"
_symmetry_group_IT_number 2
_symmetry_cell_setting 'triclinic'
loop_
_space_group_symop_operation_xyz
x,y,z
-x,-y,-z
loop_
_atom_site_type_symbol
_atom_site_label
_atom_site_fract_x
_atom_site_fract_y
_atom_site_fract_z
Si Si1 0.931540 0.187549 0.217908
Si Si2 0.611622 0.449011 0.270433
Si Si3 0.990660 0.783235 0.226672
Si Si4 0.193919 0.550849 0.595684
Si Si5 0.499074 0.225983 0.389019
Si Si6 0.207906 0.511807 0.145805
Si Si7 0.113249 0.252815 0.286549
Si Si8 0.788077 0.736002 0.110328
O O1 0.068075 0.316295 0.461056
O O2 0.977849 0.216087 0.159717
O O3 0.860456 0.939127 0.226781
O O4 0.811083 0.282418 0.002540
O O5 0.699372 0.353879 0.369798
O O6 0.528243 0.276811 0.292149
O O7 0.731141 0.664897 0.432428
O O8 0.500000 0.500000 0.000000
O O9 0.913947 0.732186 0.236086
O O10 0.119043 0.701925 0.453573
O O11 0.857630 0.675894 0.972045
O O12 0.080161 0.033840 0.257207
O O13 0.277827 0.489726 0.847386
O O14 0.618581 0.409789 0.582325
O O15 0.500000 0.000000 0.500000
O O16 0.345229 0.233226 0.172907
O O17 0.118308 0.423633 0.143560
#
# Coordination Sequence:
#
# PCOD8042438 Si02
#       8
#     2   2   2   2   2   2   2   2
#     4   9  18  32  56  86 108 148 193 246 285 328
#     4  10  20  39  64  85 113 152 194 244 286 337
#     4  10  22  37  55  86 117 154 190 236 288 339
#     4  10  20  37  60  85 114 148 198 240 285 339
#     4  11  22  38  60  88 117 152 195 237 290 346
#     4  10  19  35  56  80 118 152 194 233 286 342
#     4   9  19  34  57  84 114 149 193 238 287 338
#     4  11  20  36  58  82 122 151 191 235 289 343
#
# _framework density 19.846903999999999
#
# number of rings (size 3 to 8) (size 9 to 14) (size 15 to 20)
#    0.000    2.000    2.500    1.500    0.000    1.500 
#    2.250    1.875    0.000    0.000    0.000    0.000 
#    0.000    0.000    0.000    0.000    0.000    0.000 
#
# Total GULP energy -198272.822409 kJ/mol
# GULP energy per Si atom -12392.051401 kJ/mol
# Density = 1.980173 g / cm^3
# Si number density = 19.846904 Si / 1000 Ang^3
#
#
#
# Elastic Constant Matrix: (Units=GPa)
#
#
# Indices 1 2 3 4 5 6 
#
# 1 69.5919 33.8383 22.3256 -8.5292 9.2648 -6.9822
# 2 33.8383 80.0311 28.8967 -4.5429 -0.6443 -5.9353
# 3 22.3256 28.8967 81.7177 -6.4135 4.7316 -11.0825
# 4 -8.5292 -4.5429 -6.4135 29.4268 -1.3690 -4.1794
# 5 9.2648 -0.6443 4.7316 -1.3690 32.2582 -1.9898
# 6 -6.9822 -5.9353 -11.0825 -4.1794 -1.9898 31.3313
#
#
#
# Elastic Compliance Matrix: (Units=1/GPa)
#
#
# Indices 1 2 3 4 5 6 
#
# 1 0.020082 -0.007418 -0.001849 0.004405 -0.005293 0.002667
# 2 -0.007418 0.017184 -0.004210 -0.000231 0.003099 0.000279
# 3 -0.001849 -0.004210 0.015118 0.002670 -0.001385 0.004406
# 4 0.004405 -0.000231 0.002670 0.036788 0.000320 0.006810
# 5 -0.005293 0.003099 -0.001385 0.000320 0.032863 0.001047
# 6 0.002667 0.000279 0.004406 0.006810 0.001047 0.035098
#
#
# Mechanical properties :
#
#
# Convention : Reuss Voigt Hill
#
# Bulk Modulus (GPa) = 39.32284 44.60687 41.96485
# Shear Modulus (GPa) = 25.96538 28.35525 27.16032
#
# Velocity S-wave (km/s) = 3.62094 3.78391 3.70333
# Velocity P-wave (km/s) = 6.11046 6.45096 6.28302
#
# Compressibility (1/GPa) = 0.02543052
#
# Stress axis : x y z
#
# Youngs Moduli (GPa) = 49.79630 58.19354 66.14415
#
# Poissons Ratio (x) = 0.43167 0.12233
# Poissons Ratio (y) = 0.36938 0.27844
# Poissons Ratio (z) = 0.09209 0.24497
#
# Static dielectric constant tensor:
#      x y z
#    x 3.526900 0.017350 -0.047850 
#    y 0.017350 3.562320 0.113570 
#    z -0.047850 0.113570 3.636950 
# 
# 
# High freq. dielectric constant tensor:
#      x y z
#    x 1.761660 0.006730 -0.003200 
#    y 0.006730 1.765710 -0.001990 
#    z -0.003200 -0.001990 1.777390 
# 
# From -- ./inp_files/200851.got.cif
#   From: 2010.06.25/outbox.cif.g09.slc.cpg/sg2_101_cif.got.tgz:200851.got - 2010.06.27 13:26:56.
