data_PCOD8042762
_publ_section_title
;
Structure prediction by ZEFSAII (Michael W. Deem and Ramdas Pophale) SiO2 
 PCOD8042762
Probable space group: P -1
;
_chemical_formula_sum "Si O2"
_cell_formula_units_Z 16
_cell_length_a 11.543365
_cell_length_b 11.635807
_cell_length_c 15.390599
_cell_angle_alpha 150.664303
_cell_angle_beta 130.253206
_cell_angle_gamma 69.007938
_cell_volume 646.333010
_symmetry_space_group_name_H-M "P -1"
_symmetry_group_IT_number 2
_symmetry_cell_setting 'triclinic'
loop_
_space_group_symop_operation_xyz
x,y,z
-x,-y,-z
loop_
_atom_site_type_symbol
_atom_site_label
_atom_site_fract_x
_atom_site_fract_y
_atom_site_fract_z
Si Si1 0.878541 0.142327 0.938476
Si Si2 0.776199 0.595126 0.618542
Si Si3 0.240127 0.114630 0.602848
Si Si4 0.122699 0.799561 0.673005
Si Si5 0.742307 0.431265 0.185423
Si Si6 0.192107 0.186508 0.812336
Si Si7 0.812139 0.300222 0.823827
Si Si8 0.563759 0.961538 0.912715
O O1 0.842545 0.163981 0.833920
O O2 0.762277 0.822736 0.706050
O O3 0.824789 0.327896 0.086410
O O4 0.091733 0.268103 0.143352
O O5 0.851463 0.454106 0.500357
O O6 0.572298 0.356803 0.395848
O O7 0.341519 0.422245 0.811334
O O8 0.282832 0.134715 0.738921
O O9 0.305385 0.942957 0.465523
O O10 0.024308 0.974098 0.401948
O O11 0.906766 0.664191 0.482129
O O12 0.234575 0.050478 0.822844
O O13 0.224975 0.947115 0.911449
O O14 0.575539 0.179555 0.991715
O O15 0.278350 0.522674 0.084332
O O16 0.000000 0.500000 0.000000
O O17 0.500000 0.000000 0.000000
#
# Coordination Sequence:
#
# PCOD8042762 Si02
#       8
#     2   2   2   2   2   2   2   2
#     4  10  20  39  60  89 121 149 206 245 295 360
#     4   9  21  37  59  84 118 161 188 252 300 348
#     4   9  18  30  57  87 118 152 194 244 299 343
#     4   9  19  35  61  88 122 153 198 245 292 363
#     4  10  19  35  61  86 118 162 193 247 296 354
#     4   9  17  35  53  90 123 148 195 251 292 349
#     4  10  20  32  59  93 118 150 198 252 293 351
#     4  10  21  37  56  86 120 155 203 242 301 355
#
# _framework density 24.755040999999999
#
# number of rings (size 3 to 8) (size 9 to 14) (size 15 to 20)
#    0.000    2.500    1.250    0.375    8.750    0.500 
#   13.500    0.000    0.000    5.250    0.000    0.000 
#    0.000    0.000    0.000    0.000    0.000    0.000 
#
# Total GULP energy -198237.712073 kJ/mol
# GULP energy per Si atom -12389.857005 kJ/mol
# Density = 2.469870 g / cm^3
# Si number density = 24.755041 Si / 1000 Ang^3
#
#
#
# Elastic Constant Matrix: (Units=GPa)
#
#
# Indices 1 2 3 4 5 6 
#
# 1 41.1792 18.4497 28.4533 3.0937 -15.0736 19.2150
# 2 18.4497 130.2708 59.9082 36.9018 -8.6706 23.2053
# 3 28.4533 59.9082 117.4178 31.7876 -0.1250 10.5953
# 4 3.0937 36.9018 31.7876 38.5030 -0.4480 1.3716
# 5 -15.0736 -8.6706 -0.1250 -0.4480 44.0239 6.9387
# 6 19.2150 23.2053 10.5953 1.3716 6.9387 31.5398
#
#
#
# Elastic Compliance Matrix: (Units=1/GPa)
#
#
# Indices 1 2 3 4 5 6 
#
# 1 0.065259 0.008019 -0.016314 0.002585 0.031340 -0.047184
# 2 0.008019 0.015265 -0.005612 -0.009992 0.008089 -0.015576
# 3 -0.016314 -0.005612 0.016321 -0.007266 -0.008413 0.010752
# 4 0.002585 -0.009992 -0.007266 0.041076 -0.001760 0.006818
# 5 0.031340 0.008089 -0.008413 -0.001760 0.039870 -0.030914
# 6 -0.047184 -0.015576 0.010752 0.006818 -0.030914 0.074805
#
#
# Mechanical properties :
#
#
# Convention : Reuss Voigt Hill
#
# Bulk Modulus (GPa) = 14.48653 55.83224 35.15938
# Shear Modulus (GPa) = 16.47881 34.95043 25.71462
#
# Velocity S-wave (km/s) = 2.58287 3.76154 3.22648
# Velocity P-wave (km/s) = 3.84182 6.43960 5.30226
#
# Compressibility (1/GPa) = 0.06902964
#
# Stress axis : x y z
#
# Youngs Moduli (GPa) = 15.32366 65.50867 61.27031
#
# Poissons Ratio (x) = -0.52529 0.99955
# Poissons Ratio (y) = -0.12287 0.34387
# Poissons Ratio (z) = 0.24999 0.36766
#
# Static dielectric constant tensor:
#      x y z
#    x 4.220340 -0.018050 -0.069790 
#    y -0.018050 4.716440 0.011440 
#    z -0.069790 0.011440 5.374230 
# 
# 
# High freq. dielectric constant tensor:
#      x y z
#    x 1.952150 0.011730 -0.003040 
#    y 0.011730 1.991830 0.016450 
#    z -0.003040 0.016450 1.984710 
# 
# From -- ./inp_files/281661.got.cif
#   From: 2010.06.25/outbox.cif.g09.slc.cpg/sg2_141_cif.got.tgz:281661.got - 2010.06.27 13:26:56.
