data_PCOD8042440
_publ_section_title
;
Structure prediction by ZEFSAII (Michael W. Deem and Ramdas Pophale) SiO2 
 PCOD8042440
Probable space group: P -1
;
_chemical_formula_sum "Si O2"
_cell_formula_units_Z 16
_cell_length_a 11.629392
_cell_length_b 9.951462
_cell_length_c 8.898194
_cell_angle_alpha 93.287782
_cell_angle_beta 126.537875
_cell_angle_gamma 109.038086
_cell_volume 737.992284
_symmetry_space_group_name_H-M "P -1"
_symmetry_group_IT_number 2
_symmetry_cell_setting 'triclinic'
loop_
_space_group_symop_operation_xyz
x,y,z
-x,-y,-z
loop_
_atom_site_type_symbol
_atom_site_label
_atom_site_fract_x
_atom_site_fract_y
_atom_site_fract_z
Si Si1 0.349145 0.911859 0.978159
Si Si2 0.257266 0.875006 0.205645
Si Si3 0.178423 0.126137 0.169519
Si Si4 0.350803 0.650559 0.810469
Si Si5 0.097762 0.321890 0.634321
Si Si6 0.946255 0.691833 0.748335
Si Si7 0.175191 0.646536 0.387147
Si Si8 0.721529 0.824943 0.076608
O O1 0.272810 0.738794 0.853779
O O2 0.400346 0.920674 0.196481
O O3 0.500000 0.000000 0.000000
O O4 0.238585 0.998360 0.871916
O O5 0.258968 0.765162 0.327587
O O6 0.268974 0.030187 0.295531
O O7 0.108355 0.794157 0.968493
O O8 0.186940 0.253346 0.302173
O O9 0.254492 0.212733 0.079026
O O10 0.000000 0.000000 0.000000
O O11 0.258908 0.478690 0.780062
O O12 0.317335 0.669161 0.611896
O O13 0.541152 0.714702 0.984212
O O14 0.029037 0.290498 0.410553
O O15 0.963585 0.325259 0.640319
O O16 0.148576 0.194973 0.719382
O O17 0.893455 0.520318 0.746049
#
# Coordination Sequence:
#
# PCOD8042440 Si02
#       8
#     2   2   2   2   2   2   2   2
#     4   9  19  37  58  79 110 147 184 225 275 331
#     4  10  19  35  56  81 110 145 183 229 276 324
#     4   9  19  36  55  79 113 145 182 230 279 327
#     4  10  21  39  57  82 115 147 184 230 275 330
#     4  11  21  36  58  84 111 147 187 228 276 329
#     4  10  20  35  55  83 113 142 183 232 273 326
#     4  11  22  36  58  85 111 146 187 229 277 328
#     4  10  21  38  58  81 112 147 184 229 279 329
#
# _framework density 21.680444999999999
#
# number of rings (size 3 to 8) (size 9 to 14) (size 15 to 20)
#    0.000    2.000    0.000    5.250    0.000    2.000 
#    0.000   17.500    0.000    0.000    0.000    0.000 
#    0.000    0.000    0.000    0.000    0.000    0.000 
#
# Total GULP energy -198261.641188 kJ/mol
# GULP energy per Si atom -12391.352574 kJ/mol
# Density = 2.163110 g / cm^3
# Si number density = 21.680445 Si / 1000 Ang^3
#
#
#
# Elastic Constant Matrix: (Units=GPa)
#
#
# Indices 1 2 3 4 5 6 
#
# 1 107.0114 42.3234 9.0139 -6.2620 -22.3178 -7.5595
# 2 42.3234 95.0579 19.7389 -26.8802 -21.2599 -19.4543
# 3 9.0139 19.7389 39.0588 -14.9372 -1.5223 -7.3873
# 4 -6.2620 -26.8802 -14.9372 35.4237 3.8567 -12.4362
# 5 -22.3178 -21.2599 -1.5223 3.8567 29.2237 -0.1798
# 6 -7.5595 -19.4543 -7.3873 -12.4362 -0.1798 38.8443
#
#
#
# Elastic Compliance Matrix: (Units=1/GPa)
#
#
# Indices 1 2 3 4 5 6 
#
# 1 0.012507 -0.005257 -0.001768 -0.003795 0.006125 -0.001722
# 2 -0.005257 0.027295 0.002400 0.027097 0.012525 0.021837
# 3 -0.001768 0.002400 0.035918 0.021868 -0.000529 0.014688
# 4 -0.003795 0.027097 0.021868 0.070245 0.008927 0.039522
# 5 0.006125 0.012525 -0.000529 0.008927 0.046867 0.010439
# 6 -0.001722 0.021837 0.014688 0.039522 0.010439 0.051840
#
#
# Mechanical properties :
#
#
# Convention : Reuss Voigt Hill
#
# Bulk Modulus (GPa) = 15.04427 42.58674 28.81551
# Shear Modulus (GPa) = 18.11085 32.03512 25.07298
#
# Velocity S-wave (km/s) = 2.89338 3.84813 3.40439
# Velocity P-wave (km/s) = 4.25634 6.27931 5.36405
#
# Compressibility (1/GPa) = 0.06647047
#
# Stress axis : x y z
#
# Youngs Moduli (GPa) = 79.95818 36.63672 27.84133
#
# Poissons Ratio (x) = 0.19260 0.04922
# Poissons Ratio (y) = 0.42034 -0.06683
# Poissons Ratio (z) = 0.14135 -0.08794
#
# Static dielectric constant tensor:
#      x y z
#    x 2.501700 0.919250 1.103620 
#    y 0.919250 3.521790 -0.814440 
#    z 1.103620 -0.814440 2.560820 
# 
# 
# High freq. dielectric constant tensor:
#      x y z
#    x 1.865520 -0.003960 -0.013640 
#    y -0.003960 1.867680 -0.003600 
#    z -0.013640 -0.003600 1.813500 
# 
# From -- ./inp_files/177873.got.cif
#   From: 2010.06.25/outbox.cif.g09.slc.cpg/sg2_89_cif.got.tgz:177873.got - 2010.06.27 13:26:56.
