data_PCOD8042521
_publ_section_title
;
Structure prediction by ZEFSAII (Michael W. Deem and Ramdas Pophale) SiO2 
 PCOD8042521
Probable space group: P -1
;
_chemical_formula_sum "Si O2"
_cell_formula_units_Z 16
_cell_length_a 9.038056
_cell_length_b 9.642617
_cell_length_c 13.646782
_cell_angle_alpha 136.277253
_cell_angle_beta 106.624812
_cell_angle_gamma 82.215344
_cell_volume 783.082882
_symmetry_space_group_name_H-M "P -1"
_symmetry_group_IT_number 2
_symmetry_cell_setting 'triclinic'
loop_
_space_group_symop_operation_xyz
x,y,z
-x,-y,-z
loop_
_atom_site_type_symbol
_atom_site_label
_atom_site_fract_x
_atom_site_fract_y
_atom_site_fract_z
Si Si1 0.065951 0.884443 0.175593
Si Si2 0.182005 0.559474 0.538410
Si Si3 0.956149 0.190804 0.648183
Si Si4 0.701410 0.743894 0.826211
Si Si5 0.192271 0.892160 0.855088
Si Si6 0.650186 0.822368 0.639624
Si Si7 0.039694 0.639773 0.862153
Si Si8 0.329635 0.687017 0.429060
O O1 0.994357 0.825940 0.238023
O O2 0.242876 0.979744 0.273055
O O3 0.064036 0.687524 0.006497
O O4 0.969654 0.046767 0.187137
O O5 0.259109 0.748776 0.714095
O O6 0.276993 0.373529 0.486411
O O7 0.210886 0.621732 0.463005
O O8 0.000000 0.500000 0.500000
O O9 0.769377 0.195066 0.605972
O O10 0.042861 0.399333 0.727730
O O11 0.000000 0.000000 0.500000
O O12 0.631353 0.822422 0.753285
O O13 0.619697 0.517775 0.717690
O O14 0.883171 0.720927 0.834574
O O15 0.688023 0.907642 0.994909
O O16 0.171960 0.762060 0.884659
O O17 0.480533 0.829220 0.564004
#
# Coordination Sequence:
#
# PCOD8042521 Si02
#       8
#     2   2   2   2   2   2   2   2
#     4  11  20  35  60  85 113 154 192 231 289 343
#     4  11  19  32  58  90 116 147 186 240 285 327
#     4  11  24  38  58  84 115 146 198 248 283 328
#     4   9  16  33  56  84 113 148 184 232 277 340
#     4  11  18  32  61  92 111 140 196 244 278 328
#     4  11  20  36  57  83 122 154 188 228 289 351
#     4  10  19  35  57  88 113 143 191 243 284 334
#     4  10  23  39  54  82 124 157 186 232 291 346
#
# _framework density 20.432065999999999
#
# number of rings (size 3 to 8) (size 9 to 14) (size 15 to 20)
#    0.000    1.500    3.750    4.875    1.750    0.500 
#    0.000    2.500    0.000    0.750    0.000    0.000 
#    0.000    0.000    0.000    0.000    0.000    0.000 
#
# Total GULP energy -198301.983248 kJ/mol
# GULP energy per Si atom -12393.873953 kJ/mol
# Density = 2.038556 g / cm^3
# Si number density = 20.432066 Si / 1000 Ang^3
#
#
#
# Elastic Constant Matrix: (Units=GPa)
#
#
# Indices 1 2 3 4 5 6 
#
# 1 44.3232 11.1803 19.1373 -1.3740 10.3701 -1.2597
# 2 11.1803 79.4683 35.2684 -4.2645 -1.7636 -6.0725
# 3 19.1373 35.2684 161.1202 5.3082 -1.3772 -9.9381
# 4 -1.3740 -4.2645 5.3082 28.5312 -0.3453 -3.6553
# 5 10.3701 -1.7636 -1.3772 -0.3453 30.8815 2.2267
# 6 -1.2597 -6.0725 -9.9381 -3.6553 2.2267 13.3241
#
#
#
# Elastic Compliance Matrix: (Units=1/GPa)
#
#
# Indices 1 2 3 4 5 6 
#
# 1 0.026609 -0.002602 -0.002637 0.001438 -0.009280 0.001308
# 2 -0.002602 0.014742 -0.002697 0.003254 0.001261 0.005143
# 3 -0.002637 -0.002697 0.007380 -0.001446 0.000792 0.003497
# 4 0.001438 0.003254 -0.001446 0.037260 -0.000730 0.010885
# 5 -0.009280 0.001261 0.000792 -0.000730 0.036025 -0.005932
# 6 0.001308 0.005143 0.003497 0.010885 -0.005932 0.084105
#
#
# Mechanical properties :
#
#
# Convention : Reuss Voigt Hill
#
# Bulk Modulus (GPa) = 30.43257 46.23151 38.33204
# Shear Modulus (GPa) = 21.46404 29.16909 25.31656
#
# Velocity S-wave (km/s) = 3.24467 3.78248 3.52385
# Velocity P-wave (km/s) = 5.38182 6.46160 5.94627
#
# Compressibility (1/GPa) = 0.03285953
#
# Stress axis : x y z
#
# Youngs Moduli (GPa) = 37.58063 67.83181 135.49647
#
# Poissons Ratio (x) = 0.17651 0.35730
# Poissons Ratio (y) = 0.09779 0.36545
# Poissons Ratio (z) = 0.09910 0.18295
#
# Static dielectric constant tensor:
#      x y z
#    x 3.260090 -0.059800 0.086550 
#    y -0.059800 3.506360 0.144920 
#    z 0.086550 0.144920 4.238530 
# 
# 
# High freq. dielectric constant tensor:
#      x y z
#    x 1.750040 -0.006260 0.009610 
#    y -0.006260 1.775990 0.004690 
#    z 0.009610 0.004690 1.827570 
# 
# From -- ./inp_files/383604.got.cif
#   From: 2010.06.25/outbox.cif.g09.slc.cpg/sg2_192_cif.got.tgz:383604.got - 2010.06.27 13:26:56.
