data_PCOD8042207
_publ_section_title
;
Structure prediction by ZEFSAII (Michael W. Deem and Ramdas Pophale) SiO2 
 PCOD8042207
Probable space group: P -1
;
_chemical_formula_sum "Si O2"
_cell_formula_units_Z 16
_cell_length_a 12.407497
_cell_length_b 9.893457
_cell_length_c 8.525069
_cell_angle_alpha 87.108947
_cell_angle_beta 134.324394
_cell_angle_gamma 91.041035
_cell_volume 747.479210
_symmetry_space_group_name_H-M "P -1"
_symmetry_group_IT_number 2
_symmetry_cell_setting 'triclinic'
loop_
_space_group_symop_operation_xyz
x,y,z
-x,-y,-z
loop_
_atom_site_type_symbol
_atom_site_label
_atom_site_fract_x
_atom_site_fract_y
_atom_site_fract_z
Si Si1 0.090471 0.970644 0.937738
Si Si2 0.189677 0.756898 0.613258
Si Si3 0.854864 0.784420 0.186920
Si Si4 0.305442 0.426106 0.154331
Si Si5 0.231901 0.307258 0.413780
Si Si6 0.875744 0.310748 0.093665
Si Si7 0.187068 0.059293 0.551912
Si Si8 0.410760 0.528072 0.748609
O O1 0.177524 0.825700 0.043833
O O2 0.986052 0.958963 0.675298
O O3 0.191968 0.099433 0.996403
O O4 0.000000 0.000000 0.000000
O O5 0.167498 0.699909 0.767805
O O6 0.310480 0.664160 0.651467
O O7 0.033362 0.750411 0.360045
O O8 0.256084 0.910238 0.668497
O O9 0.806279 0.837977 0.303024
O O10 0.767202 0.649849 0.063717
O O11 0.293409 0.336730 0.302492
O O12 0.478135 0.452767 0.287023
O O13 0.216467 0.566803 0.086072
O O14 0.270715 0.146610 0.496571
O O15 0.308118 0.400956 0.615299
O O16 0.052349 0.332484 0.244080
O O17 0.500000 0.500000 0.000000
#
# Coordination Sequence:
#
# PCOD8042207 Si02
#       8
#     2   2   2   2   2   2   2   2
#     4  10  19  34  59  96 129 153 194 261 322 362
#     4  11  21  40  66  98 121 161 213 262 301 367
#     4  11  19  38  66  94 120 162 210 258 308 359
#     4  12  26  41  62  94 132 167 205 253 317 373
#     4  11  24  43  63  92 127 162 206 263 314 366
#     4  11  21  40  67  97 125 159 211 257 313 366
#     4  10  20  38  64  94 121 158 211 260 309 361
#     4  12  26  43  63  90 127 173 210 252 308 373
#
# _framework density 21.405277000000002
#
# number of rings (size 3 to 8) (size 9 to 14) (size 15 to 20)
#    0.000    1.000    5.000    4.500    0.000    3.000 
#    0.000    4.375    0.000    0.000    0.000    0.000 
#    0.000    0.000    0.000    0.000    0.000    0.000 
#
# Total GULP energy -198361.841903 kJ/mol
# GULP energy per Si atom -12397.615119 kJ/mol
# Density = 2.135656 g / cm^3
# Si number density = 21.405277 Si / 1000 Ang^3
#
#
#
# Elastic Constant Matrix: (Units=GPa)
#
#
# Indices 1 2 3 4 5 6 
#
# 1 93.7541 18.9771 7.0999 -8.3350 2.5501 17.2777
# 2 18.9771 118.1962 15.4395 -4.5434 13.8137 5.7223
# 3 7.0999 15.4395 37.0326 -1.5350 0.6216 -2.6968
# 4 -8.3350 -4.5434 -1.5350 16.3941 2.8581 -16.8353
# 5 2.5501 13.8137 0.6216 2.8581 32.3076 -4.1572
# 6 17.2777 5.7223 -2.6968 -16.8353 -4.1572 31.4428
#
#
#
# Elastic Compliance Matrix: (Units=1/GPa)
#
#
# Indices 1 2 3 4 5 6 
#
# 1 0.012462 -0.001208 -0.002595 -0.002728 -0.001267 -0.008478
# 2 -0.001208 0.009765 -0.003840 0.000925 -0.004283 -0.001514
# 3 -0.002595 -0.003840 0.030373 0.011669 0.001671 0.011198
# 4 -0.002728 0.000925 0.011669 0.140984 -0.002913 0.077433
# 5 -0.001267 -0.004283 0.001671 -0.002913 0.033690 0.004513
# 6 -0.008478 -0.001514 0.011198 0.077433 0.004513 0.079755
#
#
# Mechanical properties :
#
#
# Convention : Reuss Voigt Hill
#
# Bulk Modulus (GPa) = 26.79919 36.89065 31.84492
# Shear Modulus (GPa) = 14.93646 29.85999 22.39823
#
# Velocity S-wave (km/s) = 2.64444 3.73900 3.23830
# Velocity P-wave (km/s) = 4.67666 5.99266 5.37509
#
# Compressibility (1/GPa) = 0.03731456
#
# Stress axis : x y z
#
# Youngs Moduli (GPa) = 80.24633 102.40213 32.92435
#
# Poissons Ratio (x) = 0.12372 0.08543
# Poissons Ratio (y) = 0.09695 0.12642
# Poissons Ratio (z) = 0.20821 0.39320
#
# Static dielectric constant tensor:
#      x y z
#    x 3.764340 0.147370 -0.126150 
#    y 0.147370 4.486420 0.032430 
#    z -0.126150 0.032430 3.702820 
# 
# 
# High freq. dielectric constant tensor:
#      x y z
#    x 1.830040 0.013660 -0.028050 
#    y 0.013660 1.866830 0.004260 
#    z -0.028050 0.004260 1.810770 
# 
# From -- ./inp_files/158705.got.cif
#   From: 2010.06.25/outbox.cif.g09.slc.cpg/sg2_80_cif.got.tgz:158705.got - 2010.06.27 13:26:56.
