data_PCOD8042335
_publ_section_title
;
Structure prediction by ZEFSAII (Michael W. Deem and Ramdas Pophale) SiO2 
 PCOD8042335
Probable space group: P -1
;
_chemical_formula_sum "Si O2"
_cell_formula_units_Z 16
_cell_length_a 11.477479
_cell_length_b 10.899163
_cell_length_c 12.689816
_cell_angle_alpha 34.817085
_cell_angle_beta 71.354462
_cell_angle_gamma 53.658454
_cell_volume 680.362797
_symmetry_space_group_name_H-M "P -1"
_symmetry_group_IT_number 2
_symmetry_cell_setting 'triclinic'
loop_
_space_group_symop_operation_xyz
x,y,z
-x,-y,-z
loop_
_atom_site_type_symbol
_atom_site_label
_atom_site_fract_x
_atom_site_fract_y
_atom_site_fract_z
Si Si1 0.921759 0.356307 0.101854
Si Si2 0.806790 0.729579 0.241526
Si Si3 0.824143 0.253132 0.604346
Si Si4 0.408499 0.838918 0.846441
Si Si5 0.369173 0.351215 0.902799
Si Si6 0.091780 0.695701 0.225771
Si Si7 0.693012 0.519205 0.870775
Si Si8 0.389858 0.863298 0.173900
O O1 0.813128 0.407863 0.196998
O O2 0.818614 0.494623 0.929251
O O3 0.047301 0.036556 0.278489
O O4 0.000000 0.500000 0.000000
O O5 0.796554 0.493108 0.370176
O O6 0.984629 0.602667 0.300742
O O7 0.709276 0.855760 0.290774
O O8 0.733151 0.958883 0.010663
O O9 0.875721 0.310408 0.657136
O O10 0.666190 0.285561 0.641362
O O11 0.516702 0.799505 0.743597
O O12 0.535508 0.637207 0.040038
O O13 0.308132 0.734553 0.923752
O O14 0.438517 0.366390 0.761654
O O15 0.400405 0.059678 0.107321
O O16 0.251922 0.497071 0.253485
O O17 0.000000 0.000000 0.000000
#
# Coordination Sequence:
#
# PCOD8042335 Si02
#       8
#     2   2   2   2   2   2   2   2
#     4  11  20  35  59  91 119 157 201 240 296 358
#     4  11  22  37  59  91 122 153 198 244 297 355
#     4  12  23  37  61  89 121 158 195 246 300 351
#     4   9  18  36  57  92 117 147 204 243 290 355
#     4   9  19  34  62  82 114 160 197 241 291 346
#     4  12  19  36  60  89 118 156 197 240 293 355
#     4  10  19  34  64  87 115 159 195 242 297 343
#     4  10  19  39  59  82 116 156 199 239 292 354
#
# _framework density 23.516867000000001
#
# number of rings (size 3 to 8) (size 9 to 14) (size 15 to 20)
#    0.000    1.500    5.000    1.125    0.000    0.000 
#    0.000    8.125    0.000    0.000    0.000    0.000 
#    0.000    0.000    0.000    0.000    0.000    0.000 
#
# Total GULP energy -198318.138892 kJ/mol
# GULP energy per Si atom -12394.883681 kJ/mol
# Density = 2.346334 g / cm^3
# Si number density = 23.516867 Si / 1000 Ang^3
#
#
#
# Elastic Constant Matrix: (Units=GPa)
#
#
# Indices 1 2 3 4 5 6 
#
# 1 116.9951 38.7340 13.8648 -1.3438 -29.8664 -11.3795
# 2 38.7340 184.5861 28.1529 -16.3844 -17.0847 -35.0552
# 3 13.8648 28.1529 49.3393 -9.3737 -32.5934 -12.4024
# 4 -1.3438 -16.3844 -9.3737 25.0474 2.3589 -5.1078
# 5 -29.8664 -17.0847 -32.5934 2.3589 30.3355 4.9451
# 6 -11.3795 -35.0552 -12.4024 -5.1078 4.9451 48.1322
#
#
#
# Elastic Compliance Matrix: (Units=1/GPa)
#
#
# Indices 1 2 3 4 5 6 
#
# 1 0.019574 -0.002252 0.034354 0.008937 0.053023 0.007340
# 2 -0.002252 0.007491 -0.003297 0.004791 -0.002705 0.004860
# 3 0.034354 -0.003297 0.152651 0.045403 0.187458 0.030614
# 4 0.008937 0.004791 0.045403 0.059272 0.052708 0.018177
# 5 0.053023 -0.002705 0.187458 0.052708 0.275054 0.036203
# 6 0.007340 0.004860 0.030614 0.018177 0.036203 0.032149
#
#
# Mechanical properties :
#
#
# Convention : Reuss Voigt Hill
#
# Bulk Modulus (GPa) = 4.21360 56.93599 30.57480
# Shear Modulus (GPa) = 8.80764 38.71429 23.76097
#
# Velocity S-wave (km/s) = 1.93736 4.06178 3.18210
# Velocity P-wave (km/s) = 2.60770 6.80152 5.15077
#
# Compressibility (1/GPa) = 0.23732670
#
# Stress axis : x y z
#
# Youngs Moduli (GPa) = 51.08836 133.49674 6.55090
#
# Poissons Ratio (x) = 0.30066 -0.22505
# Poissons Ratio (y) = 0.11506 0.02160
# Poissons Ratio (z) = -1.75511 0.44008
#
# Static dielectric constant tensor:
#      x y z
#    x 4.483230 -0.174150 -0.126980 
#    y -0.174150 4.853400 -0.076730 
#    z -0.126980 -0.076730 3.906730 
# 
# 
# High freq. dielectric constant tensor:
#      x y z
#    x 1.952850 -0.005550 -0.020040 
#    y -0.005550 1.951860 -0.004310 
#    z -0.020040 -0.004310 1.868640 
# 
# From -- ./inp_files/389367.got.cif
#   From: 2010.06.25/outbox.cif.g09.slc.cpg/sg2_195_cif.got.tgz:389367.got - 2010.06.27 13:26:56.
