data_PCOD8042354
_publ_section_title
;
Structure prediction by ZEFSAII (Michael W. Deem and Ramdas Pophale) SiO2 
 PCOD8042354
Probable space group: P -1
;
_chemical_formula_sum "Si O2"
_cell_formula_units_Z 12
_cell_length_a 13.421318
_cell_length_b 8.685780
_cell_length_c 10.743955
_cell_angle_alpha 63.941690
_cell_angle_beta 55.040353
_cell_angle_gamma 29.047881
_cell_volume 492.377659
_symmetry_space_group_name_H-M "P -1"
_symmetry_group_IT_number 2
_symmetry_cell_setting 'triclinic'
loop_
_space_group_symop_operation_xyz
x,y,z
-x,-y,-z
loop_
_atom_site_type_symbol
_atom_site_label
_atom_site_fract_x
_atom_site_fract_y
_atom_site_fract_z
Si Si1 0.862163 0.597327 0.737585
Si Si2 0.995628 0.313878 0.998840
Si Si3 0.636312 0.349314 0.131158
Si Si4 0.477122 0.809414 0.891513
Si Si5 0.696236 0.434205 0.319864
Si Si6 0.797408 0.971487 0.484505
O O1 0.627466 0.800626 0.775032
O O2 0.881193 0.773748 0.620005
O O3 0.862660 0.577734 0.893050
O O4 0.077815 0.242841 0.652429
O O5 0.106110 0.008643 0.969188
O O6 0.202085 0.185392 0.955572
O O7 0.830569 0.443945 0.180260
O O8 0.478415 0.375816 0.190019
O O9 0.618798 0.406696 0.268308
O O10 0.551648 0.625686 0.029620
O O11 0.468975 0.757534 0.440380
O O12 0.839181 0.127745 0.411263
#
# Coordination Sequence:
#
# PCOD8042354 Si02
#       6
#     2   2   2   2   2   2
#     4  11  20  42  58  85 114 156 186 233 286 345
#     4  10  19  34  68  82 107 148 199 235 274 328
#     4   9  17  31  59  91 104 145 192 236 273 328
#     4   9  19  32  62  90 106 146 201 235 269 337
#     4  11  19  39  59  88 112 152 192 235 278 342
#     4  10  24  34  60  83 123 153 181 230 300 335
#
# _framework density 24.371537
#
# number of rings (size 3 to 8) (size 9 to 14) (size 15 to 20)
#    1.000    1.000    3.333    1.500    0.000    0.667 
#    0.000    9.167    3.667    0.000    0.000    0.000 
#    0.000    0.000    0.000    0.000    0.000    0.000 
#
# Total GULP energy -148686.124614 kJ/mol
# GULP energy per Si atom -12390.510385 kJ/mol
# Density = 2.431607 g / cm^3
# Si number density = 24.371537 Si / 1000 Ang^3
#
#
#
# Elastic Constant Matrix: (Units=GPa)
#
#
# Indices 1 2 3 4 5 6 
#
# 1 82.8624 12.3167 39.6647 2.2963 -11.1972 -1.8378
# 2 12.3167 71.6681 44.6789 -14.9093 -19.0469 -19.2141
# 3 39.6647 44.6789 139.4312 -9.4885 -35.1688 -5.7947
# 4 2.2963 -14.9093 -9.4885 50.1760 0.2476 -4.7585
# 5 -11.1972 -19.0469 -35.1688 0.2476 16.1354 -1.6403
# 6 -1.8378 -19.2141 -5.7947 -4.7585 -1.6403 15.8947
#
#
#
# Elastic Compliance Matrix: (Units=1/GPa)
#
#
# Indices 1 2 3 4 5 6 
#
# 1 0.014103 0.000947 -0.003345 -0.000855 0.003800 0.001693
# 2 0.000947 0.127590 0.033800 0.063048 0.245409 0.210869
# 3 -0.003345 0.033800 0.028269 0.021481 0.105788 0.068126
# 4 -0.000855 0.063048 0.021481 0.052865 0.131361 0.113330
# 5 0.003800 0.245409 0.105788 0.131361 0.627568 0.439757
# 6 0.001693 0.210869 0.068126 0.113330 0.439757 0.422164
#
#
# Mechanical properties :
#
#
# Convention : Reuss Voigt Hill
#
# Bulk Modulus (GPa) = 4.29615 54.14248 29.21932
# Shear Modulus (GPa) = 3.88397 29.59465 16.73931
#
# Velocity S-wave (km/s) = 1.26377 3.48848 2.62360
# Velocity P-wave (km/s) = 1.97385 6.20400 4.60357
#
# Compressibility (1/GPa) = 0.23276651
#
# Stress axis : x y z
#
# Youngs Moduli (GPa) = 70.90560 7.83759 35.37445
#
# Poissons Ratio (x) = -0.00743 0.11833
# Poissons Ratio (y) = -0.06718 -1.19564
# Poissons Ratio (z) = 0.23718 -0.26491
#
# Static dielectric constant tensor:
#      x y z
#    x 3.879180 0.007490 -0.168410 
#    y 0.007490 4.631310 -0.144960 
#    z -0.168410 -0.144960 4.239860 
# 
# 
# High freq. dielectric constant tensor:
#      x y z
#    x 1.924500 0.009590 -0.008040 
#    y 0.009590 1.994090 -0.010420 
#    z -0.008040 -0.010420 1.963720 
# 
# From -- ./inp_files/170327.got.cif
#   From: 2010.06.25/outbox.cif.g09.slc.cpg/sg2_86_cif.got.tgz:170327.got - 2010.06.27 13:26:56.
