data_PCOD8042086
_publ_section_title
;
Structure prediction by ZEFSAII (Michael W. Deem and Ramdas Pophale) SiO2 
 PCOD8042086
Probable space group: P -1
;
_chemical_formula_sum "Si O2"
_cell_formula_units_Z 14
_cell_length_a 8.770043
_cell_length_b 13.760840
_cell_length_c 11.449472
_cell_angle_alpha 147.849992
_cell_angle_beta 99.728140
_cell_angle_gamma 70.641789
_cell_volume 676.337959
_symmetry_space_group_name_H-M "P -1"
_symmetry_group_IT_number 2
_symmetry_cell_setting 'triclinic'
loop_
_space_group_symop_operation_xyz
x,y,z
-x,-y,-z
loop_
_atom_site_type_symbol
_atom_site_label
_atom_site_fract_x
_atom_site_fract_y
_atom_site_fract_z
Si Si1 0.690268 0.972319 0.509046
Si Si2 0.216589 0.931684 0.629674
Si Si3 0.360614 0.603315 0.716834
Si Si4 0.403984 0.522419 0.187157
Si Si5 0.857491 0.206844 0.912254
Si Si6 0.295916 0.413367 0.832387
Si Si7 0.458847 0.823084 0.757921
O O1 0.772015 0.763057 0.372307
O O2 0.500000 0.000000 0.500000
O O3 0.770288 0.965225 0.385023
O O4 0.720004 0.132135 0.759951
O O5 0.236953 0.707603 0.379067
O O6 0.357364 0.925726 0.734712
O O7 0.036668 0.041631 0.773112
O O8 0.523583 0.597153 0.806733
O O9 0.346843 0.742528 0.745693
O O10 0.382634 0.376687 0.456031
O O11 0.195508 0.708723 0.878680
O O12 0.545218 0.606794 0.247854
O O13 0.359063 0.392454 0.953391
O O14 0.855863 0.387005 0.013010
O O15 0.500000 0.000000 0.000000
#
# Coordination Sequence:
#
# PCOD8042086 Si02
#       7
#     2   2   2   2   2   2   2
#     4  12  22  36  65  91 121 169 205 236 294 367
#     4  11  23  40  59  92 128 157 200 252 306 347
#     4   9  21  40  63  87 118 158 202 243 313 348
#     4   9  17  36  59  83 122 155 200 246 288 352
#     4  11  24  40  59  92 134 155 187 257 307 361
#     4  10  19  34  57  87 119 164 198 236 288 360
#     4  10  23  42  67  89 111 156 213 257 282 363
#
# _framework density 20.69971
#
# number of rings (size 3 to 8) (size 9 to 14) (size 15 to 20)
#    0.000    1.714    2.857    2.143    4.000    1.143 
#    0.000    0.714    0.000    0.000    0.000    0.000 
#    0.000    0.000    0.000    0.000    0.000    0.000 
#
# Total GULP energy -173463.232543 kJ/mol
# GULP energy per Si atom -12390.230896 kJ/mol
# Density = 2.065260 g / cm^3
# Si number density = 20.699710 Si / 1000 Ang^3
#
#
#
# Elastic Constant Matrix: (Units=GPa)
#
#
# Indices 1 2 3 4 5 6 
#
# 1 52.5065 2.8911 38.0918 5.0675 -19.3227 -2.5551
# 2 2.8911 57.0039 28.8754 3.0133 3.7383 8.0459
# 3 38.0918 28.8754 122.6567 1.2654 -9.1103 4.1150
# 4 5.0675 3.0133 1.2654 39.0740 -0.0618 -5.4072
# 5 -19.3227 3.7383 -9.1103 -0.0618 40.3976 6.2970
# 6 -2.5551 8.0459 4.1150 -5.4072 6.2970 22.6995
#
#
#
# Elastic Compliance Matrix: (Units=1/GPa)
#
#
# Indices 1 2 3 4 5 6 
#
# 1 0.030352 0.002462 -0.009051 -0.003832 0.012263 -0.000130
# 2 0.002462 0.021422 -0.005634 -0.002711 -0.001043 -0.006651
# 3 -0.009051 -0.005634 0.012233 0.001112 -0.000936 -0.000715
# 4 -0.003832 -0.002711 0.001112 0.027298 -0.002461 0.007513
# 5 0.012263 -0.001043 -0.000936 -0.002461 0.031663 -0.007450
# 6 -0.000130 -0.006651 -0.000715 0.007513 -0.007450 0.050383
#
#
# Mechanical properties :
#
#
# Convention : Reuss Voigt Hill
#
# Bulk Modulus (GPa) = 25.27700 41.32041 33.29871
# Shear Modulus (GPa) = 23.69842 31.25481 27.47661
#
# Velocity S-wave (km/s) = 3.38726 3.88998 3.64729
# Velocity P-wave (km/s) = 5.24746 6.33885 5.81880
#
# Compressibility (1/GPa) = 0.03956166
#
# Stress axis : x y z
#
# Youngs Moduli (GPa) = 32.94634 46.68043 81.74580
#
# Poissons Ratio (x) = -0.11493 0.73988
# Poissons Ratio (y) = -0.08112 0.46056
# Poissons Ratio (z) = 0.29820 0.26300
#
# Static dielectric constant tensor:
#      x y z
#    x 3.236500 0.146130 -0.070360 
#    y 0.146130 4.018260 0.141340 
#    z -0.070360 0.141340 4.290100 
# 
# 
# High freq. dielectric constant tensor:
#      x y z
#    x 1.753030 0.008670 -0.015910 
#    y 0.008670 1.815670 0.006310 
#    z -0.015910 0.006310 1.832250 
# 
# From -- ./inp_files/242019.got.cif
#   From: 2010.06.25/outbox.cif.g09.slc.cpg/sg2_122_cif.got.tgz:242019.got - 2010.06.27 13:26:56.
