data_PCOD8042661
_publ_section_title
;
Structure prediction by ZEFSAII (Michael W. Deem and Ramdas Pophale) SiO2 
 PCOD8042661
Probable space group: P -1
;
_chemical_formula_sum "Si O2"
_cell_formula_units_Z 16
_cell_length_a 9.007470
_cell_length_b 11.773132
_cell_length_c 9.342409
_cell_angle_alpha 75.527928
_cell_angle_beta 64.218942
_cell_angle_gamma 54.284326
_cell_volume 724.316260
_symmetry_space_group_name_H-M "P -1"
_symmetry_group_IT_number 2
_symmetry_cell_setting 'triclinic'
loop_
_space_group_symop_operation_xyz
x,y,z
-x,-y,-z
loop_
_atom_site_type_symbol
_atom_site_label
_atom_site_fract_x
_atom_site_fract_y
_atom_site_fract_z
Si Si1 0.734406 0.994425 0.632934
Si Si2 0.008011 0.998207 0.727574
Si Si3 0.141126 0.288058 0.444043
Si Si4 0.361755 0.441704 0.810554
Si Si5 0.392167 0.274934 0.595730
Si Si6 0.344427 0.713581 0.756888
Si Si7 0.293195 0.430193 0.155640
Si Si8 0.198113 0.692108 0.267497
O O1 0.728020 0.857570 0.650509
O O2 0.830924 0.984112 0.750135
O O3 0.862242 0.009214 0.455876
O O4 0.512378 0.128169 0.676910
O O5 0.150363 0.868954 0.813467
O O6 0.917407 0.149026 0.794395
O O7 0.227727 0.275238 0.570001
O O8 0.141076 0.406548 0.312851
O O9 0.920252 0.326814 0.547962
O O10 0.284933 0.399493 0.718781
O O11 0.277290 0.606068 0.792768
O O12 0.598573 0.348856 0.732343
O O13 0.287137 0.406030 0.997454
O O14 0.533685 0.297249 0.430512
O O15 0.483267 0.674923 0.849450
O O16 0.234603 0.588930 0.154116
#
# Coordination Sequence:
#
# PCOD8042661 Si02
#       8
#     2   2   2   2   2   2   2   2
#     4   9  17  33  58  88 120 148 190 249 299 331
#     4   9  17  32  59  93 113 142 201 258 279 327
#     4  10  21  36  61  90 118 150 199 244 290 348
#     4  11  21  39  62  84 124 157 196 236 295 351
#     4  10  19  35  59  91 116 154 198 241 292 350
#     4   9  19  34  59  90 113 153 201 244 282 343
#     4  10  22  40  58  87 125 161 184 238 306 352
#     4  10  19  37  64  87 114 154 199 244 284 345
#
# _framework density 22.089798999999999
#
# number of rings (size 3 to 8) (size 9 to 14) (size 15 to 20)
#    0.000    2.250    1.250    2.625    1.750    1.000 
#    2.250    3.750    2.750    0.000    0.000    0.000 
#    0.000    0.000    0.000    0.000    0.000    0.000 
#
# Total GULP energy -198400.046064 kJ/mol
# GULP energy per Si atom -12400.002879 kJ/mol
# Density = 2.203952 g / cm^3
# Si number density = 22.089799 Si / 1000 Ang^3
#
#
#
# Elastic Constant Matrix: (Units=GPa)
#
#
# Indices 1 2 3 4 5 6 
#
# 1 58.3502 34.9526 29.1474 7.5841 5.7015 8.3839
# 2 34.9526 147.8264 27.6423 0.3632 10.0742 -1.9707
# 3 29.1474 27.6423 71.1705 1.6936 14.7733 4.4937
# 4 7.5841 0.3632 1.6936 10.4023 0.2620 7.5233
# 5 5.7015 10.0742 14.7733 0.2620 22.1594 9.3065
# 6 8.3839 -1.9707 4.4937 7.5233 9.3065 30.8705
#
#
#
# Elastic Compliance Matrix: (Units=1/GPa)
#
#
# Indices 1 2 3 4 5 6 
#
# 1 0.026815 -0.004842 -0.009141 -0.015522 0.003001 -0.003383
# 2 -0.004842 0.008296 -0.000802 0.001656 -0.003052 0.002478
# 3 -0.009141 -0.000802 0.020390 0.001753 -0.012014 0.002658
# 4 -0.015522 0.001656 0.001753 0.129698 0.013861 -0.031720
# 5 0.003001 -0.003052 -0.012014 0.013861 0.062626 -0.021519
# 6 -0.003383 0.002478 0.002658 -0.031720 -0.021519 0.047301
#
#
# Mechanical properties :
#
#
# Convention : Reuss Voigt Hill
#
# Bulk Modulus (GPa) = 38.56287 51.20352 44.88319
# Shear Modulus (GPa) = 14.99968 25.06009 20.02989
#
# Velocity S-wave (km/s) = 2.60865 3.37184 3.01449
# Velocity P-wave (km/s) = 5.15448 6.19589 5.69902
#
# Compressibility (1/GPa) = 0.02593168
#
# Stress axis : x y z
#
# Youngs Moduli (GPa) = 37.29249 120.53340 49.04345
#
# Poissons Ratio (x) = 0.58367 0.44831
# Poissons Ratio (y) = 0.18059 0.03931
# Poissons Ratio (z) = 0.34089 0.09661
#
# Static dielectric constant tensor:
#      x y z
#    x 3.854500 -0.001090 0.078160 
#    y -0.001090 4.357980 0.009570 
#    z 0.078160 0.009570 3.532260 
# 
# 
# High freq. dielectric constant tensor:
#      x y z
#    x 1.852150 0.002660 0.007050 
#    y 0.002660 1.881970 0.005520 
#    z 0.007050 0.005520 1.832310 
# 
# From -- ./inp_files/178929.got.cif
#   From: 2010.06.25/outbox.cif.g09.slc.cpg/sg2_90_cif.got.tgz:178929.got - 2010.06.27 13:26:56.
