data_PCOD8042245
_publ_section_title
;
Structure prediction by ZEFSAII (Michael W. Deem and Ramdas Pophale) SiO2 
 PCOD8042245
Probable space group: P -1
;
_chemical_formula_sum "Si O2"
_cell_formula_units_Z 16
_cell_length_a 16.657890
_cell_length_b 14.490020
_cell_length_c 12.995155
_cell_angle_alpha 58.644460
_cell_angle_beta 153.252514
_cell_angle_gamma 140.037461
_cell_volume 746.434028
_symmetry_space_group_name_H-M "P -1"
_symmetry_group_IT_number 2
_symmetry_cell_setting 'triclinic'
loop_
_space_group_symop_operation_xyz
x,y,z
-x,-y,-z
loop_
_atom_site_type_symbol
_atom_site_label
_atom_site_fract_x
_atom_site_fract_y
_atom_site_fract_z
Si Si1 0.911399 0.348228 0.349301
Si Si2 0.445930 0.687780 0.442121
Si Si3 0.888344 0.464924 0.056712
Si Si4 0.861281 0.069383 0.698442
Si Si5 0.777931 0.704587 0.215897
Si Si6 0.393015 0.987047 0.272371
Si Si7 0.430268 0.733202 0.812553
Si Si8 0.165753 0.315601 0.100106
O O1 0.658129 0.236652 0.208401
O O2 0.995859 0.261678 0.481850
O O3 0.171896 0.543274 0.577376
O O4 0.809795 0.341682 0.126225
O O5 0.307812 0.657080 0.194119
O O6 0.525395 0.597040 0.580663
O O7 0.753159 0.894401 0.690930
O O8 0.225948 0.613323 0.325704
O O9 0.804453 0.541825 0.963004
O O10 0.084758 0.190756 0.793480
O O11 0.564176 0.994525 0.381989
O O12 0.023245 0.193372 0.909546
O O13 0.500000 0.500000 0.000000
O O14 0.675733 0.767144 0.116758
O O15 0.500000 0.000000 0.500000
O O16 0.454907 0.140325 0.224540
O O17 0.048717 0.804045 0.978165
#
# Coordination Sequence:
#
# PCOD8042245 Si02
#       8
#     2   2   2   2   2   2   2   2
#     4  10  21  36  58  83 124 163 202 252 303 365
#     4  11  25  42  62  93 130 165 207 258 312 376
#     4  11  25  42  62  91 129 172 207 248 314 380
#     4  11  21  39  64  95 124 158 209 263 316 357
#     4  10  22  35  58  94 124 156 203 261 308 367
#     4  10  19  34  60  90 123 156 194 254 317 356
#     4  10  20  34  58  88 123 155 201 259 308 359
#     4  11  23  38  67  92 123 163 207 264 313 367
#
# _framework density 21.43525
#
# number of rings (size 3 to 8) (size 9 to 14) (size 15 to 20)
#    0.000    1.500    2.500    3.000    8.750    0.000 
#    0.000    0.625    0.000    1.500    0.000    0.000 
#    0.000    0.000    0.000    0.000    0.000    0.000 
#
# Total GULP energy -198270.366135 kJ/mol
# GULP energy per Si atom -12391.897883 kJ/mol
# Density = 2.138646 g / cm^3
# Si number density = 21.435250 Si / 1000 Ang^3
#
#
#
# Elastic Constant Matrix: (Units=GPa)
#
#
# Indices 1 2 3 4 5 6 
#
# 1 62.5611 31.3237 38.1543 -17.5489 7.3728 4.1268
# 2 31.3237 100.6602 26.2927 -30.9493 10.4105 7.5435
# 3 38.1543 26.2927 75.5386 -30.9016 20.5260 -2.4175
# 4 -17.5489 -30.9493 -30.9016 45.0933 -7.7771 7.5028
# 5 7.3728 10.4105 20.5260 -7.7771 34.1795 -8.0530
# 6 4.1268 7.5435 -2.4175 7.5028 -8.0530 31.7136
#
#
#
# Elastic Compliance Matrix: (Units=1/GPa)
#
#
# Indices 1 2 3 4 5 6 
#
# 1 0.025684 -0.005294 -0.012535 -0.001412 0.002810 -0.001991
# 2 -0.005294 0.014952 0.002592 0.010298 -0.004073 -0.006141
# 3 -0.012535 0.002592 0.027785 0.014385 -0.012298 -0.003394
# 4 -0.001412 0.010298 0.014385 0.039623 -0.005254 -0.011877
# 5 0.002810 -0.004073 -0.012298 -0.005254 0.038606 0.010712
# 6 -0.001991 -0.006141 -0.003394 -0.011877 0.010712 0.038523
#
#
# Mechanical properties :
#
#
# Convention : Reuss Voigt Hill
#
# Bulk Modulus (GPa) = 26.35168 47.81126 37.08147
# Shear Modulus (GPa) = 21.90150 31.72990 26.81570
#
# Velocity S-wave (km/s) = 3.19995 3.85160 3.54080
# Velocity P-wave (km/s) = 5.09639 6.49100 5.83551
#
# Compressibility (1/GPa) = 0.03794825
#
# Stress axis : x y z
#
# Youngs Moduli (GPa) = 38.93508 66.87977 35.99021
#
# Poissons Ratio (x) = 0.35404 0.45114
# Poissons Ratio (y) = 0.20611 -0.09330
# Poissons Ratio (z) = 0.48805 -0.17337
#
# Static dielectric constant tensor:
#      x y z
#    x 4.006540 0.085060 0.740460 
#    y 0.085060 3.969600 -0.206850 
#    z 0.740460 -0.206850 4.085810 
# 
# 
# High freq. dielectric constant tensor:
#      x y z
#    x 1.826710 0.005760 0.041200 
#    y 0.005760 1.841550 -0.020390 
#    z 0.041200 -0.020390 1.828230 
# 
# From -- ./inp_files/439372.got.cif
#   From: 2010.06.25/outbox.cif.g09.slc.cpg/sg2_220_cif.got.tgz:439372.got - 2010.06.27 13:26:56.
