data_PCOD8042558
_publ_section_title
;
Structure prediction by ZEFSAII (Michael W. Deem and Ramdas Pophale) SiO2 
 PCOD8042558
Probable space group: P -1
;
_chemical_formula_sum "Si O2"
_cell_formula_units_Z 14
_cell_length_a 9.127528
_cell_length_b 14.863825
_cell_length_c 9.477268
_cell_angle_alpha 126.422348
_cell_angle_beta 44.668085
_cell_angle_gamma 125.031794
_cell_volume 700.667630
_symmetry_space_group_name_H-M "P -1"
_symmetry_group_IT_number 2
_symmetry_cell_setting 'triclinic'
loop_
_space_group_symop_operation_xyz
x,y,z
-x,-y,-z
loop_
_atom_site_type_symbol
_atom_site_label
_atom_site_fract_x
_atom_site_fract_y
_atom_site_fract_z
Si Si1 0.750555 0.529059 0.980798
Si Si2 0.406357 0.542114 0.462114
Si Si3 0.600534 0.280704 0.936685
Si Si4 0.185359 0.701273 0.899034
Si Si5 0.045868 0.856895 0.934285
Si Si6 0.194452 0.356519 0.251215
Si Si7 0.635980 0.940212 0.252474
O O1 0.576511 0.557159 0.233164
O O2 0.733015 0.391427 0.857628
O O3 0.716689 0.578283 0.895810
O O4 0.981552 0.590192 0.945803
O O5 0.500000 0.500000 0.500000
O O6 0.357797 0.664276 0.643721
O O7 0.180199 0.452054 0.470153
O O8 0.558379 0.160302 0.771732
O O9 0.724656 0.265079 0.977409
O O10 0.369446 0.300290 0.150955
O O11 0.122749 0.813289 0.986448
O O12 0.014000 0.751310 0.741033
O O13 0.233782 0.968185 0.865396
O O14 0.817610 0.886626 0.150569
O O15 0.500000 0.000000 0.500000
#
# Coordination Sequence:
#
# PCOD8042558 Si02
#       7
#     2   2   2   2   2   2   2
#     4  10  21  37  56  86 125 152 193 231 280 348
#     4  11  20  33  57  88 122 155 188 218 289 356
#     4  10  19  35  58  83 114 154 184 239 295 323
#     4  11  22  36  58  88 122 150 184 241 291 341
#     4   9  22  40  58  84 113 145 198 241 287 330
#     4   9  19  37  59  84 120 157 189 235 279 343
#     4  10  22  42  62  79 106 152 201 243 284 343
#
# _framework density 19.980941999999999
#
# number of rings (size 3 to 8) (size 9 to 14) (size 15 to 20)
#    0.000    2.000    2.857    2.143    0.000    8.571 
#    0.000    0.714    0.000    0.000    0.000    0.000 
#    0.000    0.000    0.000    0.000    0.000    0.000 
#
# Total GULP energy -173444.826452 kJ/mol
# GULP energy per Si atom -12388.916175 kJ/mol
# Density = 1.993546 g / cm^3
# Si number density = 19.980942 Si / 1000 Ang^3
#
#
#
# Elastic Constant Matrix: (Units=GPa)
#
#
# Indices 1 2 3 4 5 6 
#
# 1 142.9783 57.6689 46.1515 9.5429 10.3334 -14.3101
# 2 57.6689 130.1735 42.3580 17.1274 1.4880 -1.0376
# 3 46.1515 42.3580 99.1772 17.2200 5.6179 0.7989
# 4 9.5429 17.1274 17.2200 24.4038 3.5219 -2.5811
# 5 10.3334 1.4880 5.6179 3.5219 18.9917 2.5259
# 6 -14.3101 -1.0376 0.7989 -2.5811 2.5259 31.2425
#
#
#
# Elastic Compliance Matrix: (Units=1/GPa)
#
#
# Indices 1 2 3 4 5 6 
#
# 1 0.010343 -0.003680 -0.003368 0.002268 -0.005473 0.005331
# 2 -0.003680 0.010621 -0.002077 -0.005190 0.003006 -0.001951
# 3 -0.003368 -0.002077 0.013830 -0.007189 -0.000427 -0.002525
# 4 0.002268 -0.005190 -0.007189 0.050720 -0.008899 0.005960
# 5 -0.005473 0.003006 -0.000427 -0.008899 0.058216 -0.007838
# 6 0.005331 -0.001951 -0.002525 0.005960 -0.007838 0.035575
#
#
# Mechanical properties :
#
#
# Convention : Reuss Voigt Hill
#
# Bulk Modulus (GPa) = 60.44503 73.85398 67.14950
# Shear Modulus (GPa) = 24.62184 30.00429 27.31307
#
# Velocity S-wave (km/s) = 3.51417 3.87931 3.70125
# Velocity P-wave (km/s) = 6.83980 7.55697 7.20731
#
# Compressibility (1/GPa) = 0.01654396
#
# Stress axis : x y z
#
# Youngs Moduli (GPa) = 96.68233 94.15277 72.30397
#
# Poissons Ratio (x) = 0.34644 0.24355
# Poissons Ratio (y) = 0.35574 0.15021
# Poissons Ratio (z) = 0.32567 0.19560
#
# Static dielectric constant tensor:
#      x y z
#    x 3.894340 0.241060 0.009530 
#    y 0.241060 3.892490 0.267150 
#    z 0.009530 0.267150 3.521470 
# 
# 
# High freq. dielectric constant tensor:
#      x y z
#    x 1.794720 0.004450 -0.002380 
#    y 0.004450 1.775260 0.014920 
#    z -0.002380 0.014920 1.756930 
# 
# From -- ./inp_files/203978.got.cif
#   From: 2010.06.25/outbox.cif.g09.slc.cpg/sg2_102_cif.got.tgz:203978.got - 2010.06.27 13:26:56.
