data_PCOD8042485
_publ_section_title
;
Structure prediction by ZEFSAII (Michael W. Deem and Ramdas Pophale) SiO2 
 PCOD8042485
Probable space group: P -1
;
_chemical_formula_sum "Si O2"
_cell_formula_units_Z 16
_cell_length_a 22.072801
_cell_length_b 16.566766
_cell_length_c 7.587803
_cell_angle_alpha 48.517052
_cell_angle_beta 133.774698
_cell_angle_gamma 158.226458
_cell_volume 741.113963
_symmetry_space_group_name_H-M "P -1"
_symmetry_group_IT_number 2
_symmetry_cell_setting 'triclinic'
loop_
_space_group_symop_operation_xyz
x,y,z
-x,-y,-z
loop_
_atom_site_type_symbol
_atom_site_label
_atom_site_fract_x
_atom_site_fract_y
_atom_site_fract_z
Si Si1 0.115339 0.709535 0.036966
Si Si2 0.190436 0.904048 0.572852
Si Si3 0.176001 0.586773 0.554945
Si Si4 0.300626 0.510307 0.770226
Si Si5 0.050145 0.967439 0.289224
Si Si6 0.742818 0.624994 0.749567
Si Si7 0.535063 0.292291 0.531055
Si Si8 0.832432 0.509317 0.964415
O O1 0.222776 0.756942 0.323131
O O2 0.996974 0.664988 0.957799
O O3 0.234682 0.907521 0.853542
O O4 0.000000 0.500000 0.000000
O O5 0.023105 0.660340 0.515005
O O6 0.170942 0.011214 0.386356
O O7 0.342968 0.045090 0.543905
O O8 0.293379 0.627700 0.640453
O O9 0.206882 0.625154 0.772030
O O10 0.451572 0.658470 0.718821
O O11 0.331787 0.470829 0.062390
O O12 0.125873 0.284610 0.638298
O O13 0.153199 0.146598 0.390652
O O14 0.000000 0.000000 0.000000
O O15 0.592272 0.452338 0.550465
O O16 0.869854 0.664799 0.916364
O O17 0.663576 0.333887 0.757267
#
# Coordination Sequence:
#
# PCOD8042485 Si02
#       8
#     2   2   2   2   2   2   2   2
#     4  10  19  35  57  80 106 146 189 226 270 321
#     4  10  21  35  54  83 112 141 185 229 270 327
#     4   9  18  36  59  78 107 149 187 228 265 322
#     4   9  17  36  58  79 112 148 182 226 268 322
#     4   9  17  35  60  79 107 147 187 223 266 325
#     4   8  19  33  57  78 110 143 183 221 273 319
#     4  10  20  35  54  81 120 141 180 224 284 318
#     4   9  18  35  55  82 107 144 185 225 269 332
#
# _framework density 21.589123000000001
#
# number of rings (size 3 to 8) (size 9 to 14) (size 15 to 20)
#    0.750    2.000    0.000    3.375    0.000    1.000 
#    2.250    8.750    0.000    0.000    0.000    0.000 
#    0.000    0.000    0.000    0.000    0.000    0.000 
#
# Total GULP energy -198250.430286 kJ/mol
# GULP energy per Si atom -12390.651893 kJ/mol
# Density = 2.153998 g / cm^3
# Si number density = 21.589123 Si / 1000 Ang^3
#
#
#
# Elastic Constant Matrix: (Units=GPa)
#
#
# Indices 1 2 3 4 5 6 
#
# 1 78.0539 31.4791 26.4657 -18.6371 -15.3783 21.4356
# 2 31.4791 51.0642 8.6951 -15.1167 -4.3495 23.8042
# 3 26.4657 8.6951 54.0945 -17.7442 3.0450 11.5622
# 4 -18.6371 -15.1167 -17.7442 19.9262 2.9827 -11.1774
# 5 -15.3783 -4.3495 3.0450 2.9827 37.6262 -6.8545
# 6 21.4356 23.8042 11.5622 -11.1774 -6.8545 30.5194
#
#
#
# Elastic Compliance Matrix: (Units=1/GPa)
#
#
# Indices 1 2 3 4 5 6 
#
# 1 0.022635 -0.009775 -0.008184 0.004245 0.008120 -0.001795
# 2 -0.009775 0.038812 0.009101 0.016958 -0.005578 -0.021896
# 3 -0.008184 0.009101 0.030756 0.024578 -0.007777 -0.005747
# 4 0.004245 0.016958 0.024578 0.094006 -0.004299 0.007944
# 5 0.008120 -0.005578 -0.007777 -0.004299 0.031514 0.007098
# 6 -0.001795 -0.021896 -0.005747 0.007944 0.007098 0.057786
#
#
# Mechanical properties :
#
#
# Convention : Reuss Voigt Hill
#
# Bulk Modulus (GPa) = 13.42549 35.16580 24.29564
# Shear Modulus (GPa) = 15.72056 25.38589 20.55323
#
# Velocity S-wave (km/s) = 2.70139 3.43281 3.08883
# Velocity P-wave (km/s) = 3.99527 5.66006 4.89890
#
# Compressibility (1/GPa) = 0.07448519
#
# Stress axis : x y z
#
# Youngs Moduli (GPa) = 44.17882 25.76545 32.51444
#
# Poissons Ratio (x) = 0.25186 0.26610
# Poissons Ratio (y) = 0.43186 -0.29590
# Poissons Ratio (z) = 0.36156 -0.23448
#
# Static dielectric constant tensor:
#      x y z
#    x 3.952950 -0.126340 -0.012670 
#    y -0.126340 3.542390 -0.226460 
#    z -0.012670 -0.226460 4.225520 
# 
# 
# High freq. dielectric constant tensor:
#      x y z
#    x 1.841340 0.003360 -0.007200 
#    y 0.003360 1.802160 -0.008860 
#    z -0.007200 -0.008860 1.843870 
# 
# From -- ./inp_files/348873.got.cif
#   From: 2010.06.25/outbox.cif.g09.slc.cpg/sg2_175_cif.got.tgz:348873.got - 2010.06.27 13:26:56.
