data_PCOD8042042
_publ_section_title
;
Structure prediction by ZEFSAII (Michael W. Deem and Ramdas Pophale) SiO2 
 PCOD8042042
Probable space group: P -1
;
_chemical_formula_sum "Si O2"
_cell_formula_units_Z 16
_cell_length_a 9.917488
_cell_length_b 12.591598
_cell_length_c 9.760210
_cell_angle_alpha 63.902225
_cell_angle_beta 55.980024
_cell_angle_gamma 48.849326
_cell_volume 755.630798
_symmetry_space_group_name_H-M "P -1"
_symmetry_group_IT_number 2
_symmetry_cell_setting 'triclinic'
loop_
_space_group_symop_operation_xyz
x,y,z
-x,-y,-z
loop_
_atom_site_type_symbol
_atom_site_label
_atom_site_fract_x
_atom_site_fract_y
_atom_site_fract_z
Si Si1 0.917237 0.805761 0.769348
Si Si2 0.680865 0.665188 0.018393
Si Si3 0.358129 0.967264 0.020256
Si Si4 0.203414 0.133248 0.499814
Si Si5 0.601895 0.098896 0.269271
Si Si6 0.290462 0.537819 0.647794
Si Si7 0.879488 0.440468 0.548345
Si Si8 0.571944 0.594924 0.854775
O O1 0.821838 0.887104 0.634407
O O2 0.153019 0.702206 0.684498
O O3 0.855432 0.929481 0.847510
O O4 0.834557 0.710385 0.917705
O O5 0.455007 0.799743 0.081922
O O6 0.700966 0.561004 0.182490
O O7 0.713598 0.594939 0.889498
O O8 0.340446 0.993852 0.851181
O O9 0.500000 0.000000 0.000000
O O10 0.381138 0.153624 0.406068
O O11 0.006033 0.270647 0.592540
O O12 0.248274 0.998023 0.640547
O O13 0.602675 0.241351 0.172528
O O14 0.500000 0.500000 0.500000
O O15 0.175341 0.520014 0.601144
O O16 0.680131 0.514147 0.701664
O O17 0.000000 0.500000 0.500000
O O18 0.500000 0.500000 0.000000
#
# Coordination Sequence:
#
# PCOD8042042 Si02
#       8
#     2   2   2   2   2   2   2   2
#     4  10  19  38  60  88 114 155 200 253 300 361
#     4  10  20  38  58  88 120 155 206 252 301 362
#     4   9  17  32  56  86 115 147 196 250 304 348
#     4  10  19  34  58  87 124 144 200 258 297 356
#     4  10  19  34  56  90 120 152 194 252 309 358
#     4  11  24  39  58  87 127 162 200 249 309 366
#     4  11  22  39  60  92 120 160 210 256 303 360
#     4  11  21  38  60  85 124 163 199 249 309 365
#
# _framework density 21.174363
#
# number of rings (size 3 to 8) (size 9 to 14) (size 15 to 20)
#    0.000    1.750    5.000    1.875    0.000    4.000 
#    0.000    1.250    0.000    3.000    0.000    0.000 
#    0.000    0.000    0.000    0.000    0.000    0.000 
#
# Total GULP energy -198294.228559 kJ/mol
# GULP energy per Si atom -12393.389285 kJ/mol
# Density = 2.112617 g / cm^3
# Si number density = 21.174363 Si / 1000 Ang^3
#
#
#
# Elastic Constant Matrix: (Units=GPa)
#
#
# Indices 1 2 3 4 5 6 
#
# 1 41.0012 32.1923 23.6401 -4.7463 10.8650 -16.3714
# 2 32.1923 128.3558 69.9233 9.7149 16.0228 -15.8657
# 3 23.6401 69.9233 111.3360 -2.1309 30.1442 -17.1611
# 4 -4.7463 9.7149 -2.1309 53.1983 -7.9264 4.1978
# 5 10.8650 16.0228 30.1442 -7.9264 31.1279 -3.0531
# 6 -16.3714 -15.8657 -17.1611 4.1978 -3.0531 30.9938
#
#
#
# Elastic Compliance Matrix: (Units=1/GPa)
#
#
# Indices 1 2 3 4 5 6 
#
# 1 0.038493 -0.007539 0.001478 0.002284 -0.008825 0.016113
# 2 -0.007539 0.013843 -0.007857 -0.003131 0.002258 -0.000600
# 3 0.001478 -0.007857 0.018098 -0.000151 -0.013499 0.005470
# 4 0.002284 -0.003131 -0.000151 0.020668 0.005960 -0.002692
# 5 -0.008825 0.002258 -0.013499 0.005960 0.047941 -0.007064
# 6 0.016113 -0.000600 0.005470 -0.002692 -0.007064 0.043166
#
#
# Mechanical properties :
#
#
# Convention : Reuss Voigt Hill
#
# Bulk Modulus (GPa) = 23.47523 59.13385 41.30454
# Shear Modulus (GPa) = 22.29719 33.39316 27.84517
#
# Velocity S-wave (km/s) = 3.24856 3.97552 3.63028
# Velocity P-wave (km/s) = 5.01812 7.00434 6.09271
#
# Compressibility (1/GPa) = 0.04259809
#
# Stress axis : x y z
#
# Youngs Moduli (GPa) = 25.97847 72.23995 55.25597
#
# Poissons Ratio (x) = 0.54463 -0.08168
# Poissons Ratio (y) = 0.19586 0.43414
# Poissons Ratio (z) = -0.03840 0.56758
#
# Static dielectric constant tensor:
#      x y z
#    x 4.808910 -0.271110 0.555500 
#    y -0.271110 4.263240 0.164390 
#    z 0.555500 0.164390 3.991900 
# 
# 
# High freq. dielectric constant tensor:
#      x y z
#    x 1.799720 -0.010750 0.023090 
#    y -0.010750 1.838900 0.013570 
#    z 0.023090 0.013570 1.831060 
# 
# From -- ./inp_files/185690.got.cif
#   From: 2010.06.25/outbox.cif.g09.slc.cpg/sg2_93_cif.got.tgz:185690.got - 2010.06.27 13:26:56.
