data_PCOD8042894
_publ_section_title
;
Structure prediction by ZEFSAII (Michael W. Deem and Ramdas Pophale) SiO2 
 PCOD8042894
Probable space group: P -1
;
_chemical_formula_sum "Si O2"
_cell_formula_units_Z 14
_cell_length_a 17.740818
_cell_length_b 9.223446
_cell_length_c 5.064357
_cell_angle_alpha 68.275334
_cell_angle_beta 107.321291
_cell_angle_gamma 129.059591
_cell_volume 595.371762
_symmetry_space_group_name_H-M "P -1"
_symmetry_group_IT_number 2
_symmetry_cell_setting 'triclinic'
loop_
_space_group_symop_operation_xyz
x,y,z
-x,-y,-z
loop_
_atom_site_type_symbol
_atom_site_label
_atom_site_fract_x
_atom_site_fract_y
_atom_site_fract_z
Si Si1 0.046817 0.691963 0.258095
Si Si2 0.465634 0.552916 0.678148
Si Si3 0.143769 0.415201 0.024987
Si Si4 0.906309 0.960434 0.570538
Si Si5 0.353979 0.070950 0.429931
Si Si6 0.213751 0.662974 0.412266
Si Si7 0.714782 0.825373 0.208686
O O1 0.147962 0.740200 0.221491
O O2 0.000000 0.500000 0.500000
O O3 0.064840 0.860779 0.345561
O O4 0.966982 0.650202 0.980876
O O5 0.500000 0.500000 0.500000
O O6 0.526580 0.787180 0.572065
O O7 0.347117 0.410599 0.654992
O O8 0.500000 0.500000 0.000000
O O9 0.143376 0.227464 0.165928
O O10 0.219998 0.571811 0.211422
O O11 0.172698 0.501156 0.703796
O O12 0.829114 0.922560 0.291566
O O13 0.000000 0.000000 0.500000
O O14 0.319508 0.083246 0.677026
O O15 0.318705 0.852833 0.482004
O O16 0.304240 0.133502 0.131390
#
# Coordination Sequence:
#
# PCOD8042894 Si02
#       7
#     2   2   2   2   2   2   2
#     4  10  22  39  59  82 113 153 206 246 285 337
#     4   8  16  32  55  88 118 141 186 252 302 339
#     4  11  25  40  55  85 122 162 197 242 296 353
#     4  12  25  40  61  87 126 165 198 239 298 362
#     4  10  19  35  64  89 114 149 199 251 298 342
#     4  11  22  40  62  85 116 155 204 252 290 344
#     4  10  21  36  58  90 119 153 195 246 298 350
#
# _framework density 23.514721000000002
#
# number of rings (size 3 to 8) (size 9 to 14) (size 15 to 20)
#    0.000    1.714    1.429    3.429    4.000    2.286 
#    0.000    0.000    0.000    1.714    0.000    0.000 
#    0.000    0.000    0.000    0.000    0.000    0.000 
#
# Total GULP energy -173462.306654 kJ/mol
# GULP energy per Si atom -12390.164761 kJ/mol
# Density = 2.346120 g / cm^3
# Si number density = 23.514721 Si / 1000 Ang^3
#
#
#
# Elastic Constant Matrix: (Units=GPa)
#
#
# Indices 1 2 3 4 5 6 
#
# 1 32.5385 21.3529 -5.1809 2.9250 -3.7995 4.7990
# 2 21.3529 175.2710 7.4091 2.7850 7.7093 3.9866
# 3 -5.1809 7.4091 73.0148 9.1156 -5.5340 -16.8121
# 4 2.9250 2.7850 9.1156 34.9196 -3.7605 5.8052
# 5 -3.7995 7.7093 -5.5340 -3.7605 17.2524 -1.2729
# 6 4.7990 3.9866 -16.8121 5.8052 -1.2729 34.2971
#
#
#
# Elastic Compliance Matrix: (Units=1/GPa)
#
#
# Indices 1 2 3 4 5 6 
#
# 1 0.036334 -0.004982 0.003730 -0.002137 0.010818 -0.001913
# 2 -0.004982 0.006609 -0.001611 -0.000018 -0.004647 -0.001030
# 3 0.003730 -0.001611 0.017500 -0.005607 0.006629 0.009439
# 4 -0.002137 -0.000018 -0.005607 0.032010 0.004147 -0.007712
# 5 0.010818 -0.004647 0.006629 0.004147 0.065749 0.004014
# 6 -0.001913 -0.001030 0.009439 -0.007712 0.004014 0.035626
#
#
# Mechanical properties :
#
#
# Convention : Reuss Voigt Hill
#
# Bulk Modulus (GPa) = 18.27671 36.44294 27.35982
# Shear Modulus (GPa) = 22.95761 34.44336 28.70049
#
# Velocity S-wave (km/s) = 3.12798 3.83137 3.49740
# Velocity P-wave (km/s) = 4.56454 5.92487 5.28862
#
# Compressibility (1/GPa) = 0.05471445
#
# Stress axis : x y z
#
# Youngs Moduli (GPa) = 27.52260 151.31556 57.14329
#
# Poissons Ratio (x) = 0.75393 -0.21314
# Poissons Ratio (y) = 0.13713 0.09208
# Poissons Ratio (z) = -0.10266 0.24382
#
# Static dielectric constant tensor:
#      x y z
#    x 4.262830 0.684820 0.159120 
#    y 0.684820 5.162290 0.038600 
#    z 0.159120 0.038600 4.256950 
# 
# 
# High freq. dielectric constant tensor:
#      x y z
#    x 1.875410 0.025170 -0.013370 
#    y 0.025170 1.964020 0.006080 
#    z -0.013370 0.006080 1.933200 
# 
# From -- ./inp_files/115433.got.cif
#   From: 2010.06.25/outbox.cif.g09.slc.cpg/sg2_58_cif.got.tgz:115433.got - 2010.06.27 13:26:56.
