data_PCOD8042131
_publ_section_title
;
Structure prediction by ZEFSAII (Michael W. Deem and Ramdas Pophale) SiO2 
 PCOD8042131
Probable space group: P -1
;
_chemical_formula_sum "Si O2"
_cell_formula_units_Z 14
_cell_length_a 7.924295
_cell_length_b 21.495260
_cell_length_c 8.931027
_cell_angle_alpha 38.914378
_cell_angle_beta 77.821964
_cell_angle_gamma 52.575496
_cell_volume 645.887880
_symmetry_space_group_name_H-M "P -1"
_symmetry_group_IT_number 2
_symmetry_cell_setting 'triclinic'
loop_
_space_group_symop_operation_xyz
x,y,z
-x,-y,-z
loop_
_atom_site_type_symbol
_atom_site_label
_atom_site_fract_x
_atom_site_fract_y
_atom_site_fract_z
Si Si1 0.168290 0.277475 0.405654
Si Si2 0.595636 0.229006 0.336105
Si Si3 0.709140 0.477036 0.305984
Si Si4 0.982328 0.633140 0.046022
Si Si5 0.427331 0.839141 0.853452
Si Si6 0.932844 0.855768 0.525555
Si Si7 0.557186 0.604478 0.423113
O O1 0.445999 0.209177 0.501821
O O2 0.051635 0.388440 0.079549
O O3 0.003980 0.356978 0.436409
O O4 0.165394 0.161687 0.572191
O O5 0.679938 0.144826 0.320146
O O6 0.842195 0.159022 0.514672
O O7 0.433147 0.394167 0.025768
O O8 0.673974 0.523067 0.396055
O O9 0.610298 0.406462 0.439704
O O10 0.725955 0.722977 0.013344
O O11 0.036785 0.729515 0.859895
O O12 0.203223 0.475529 0.367171
O O13 0.381070 0.772613 0.111557
O O14 0.304712 0.991298 0.645117
#
# Coordination Sequence:
#
# PCOD8042131 Si02
#       7
#     2   2   2   2   2   2   2
#     4   9  21  35  60  85 113 145 192 238 274 327
#     4  10  19  34  58  85 112 147 194 232 277 325
#     4  10  19  37  54  86 117 145 188 238 277 335
#     4   9  19  35  58  86 108 145 193 233 271 327
#     4  10  20  35  56  87 118 147 183 237 281 334
#     4  10  20  36  58  88 113 146 191 233 277 333
#     4  10  20  34  59  84 114 150 184 230 290 332
#
# _framework density 21.675588000000001
#
# number of rings (size 3 to 8) (size 9 to 14) (size 15 to 20)
#    0.857    1.429    1.429    1.714    0.000    2.286 
#    0.000    2.143    0.000    1.714    0.000    0.000 
#    0.000    0.000    0.000    0.000    0.000    0.000 
#
# Total GULP energy -173452.756700 kJ/mol
# GULP energy per Si atom -12389.482621 kJ/mol
# Density = 2.162625 g / cm^3
# Si number density = 21.675588 Si / 1000 Ang^3
#
#
#
# Elastic Constant Matrix: (Units=GPa)
#
#
# Indices 1 2 3 4 5 6 
#
# 1 123.2927 21.8339 8.0373 0.5655 -2.7797 -30.9870
# 2 21.8339 66.2500 12.4970 -1.9387 -15.0304 -22.0075
# 3 8.0373 12.4970 37.4254 -2.2345 -11.2956 -3.0704
# 4 0.5655 -1.9387 -2.2345 7.0551 5.2227 0.7381
# 5 -2.7797 -15.0304 -11.2956 5.2227 23.7903 -6.6671
# 6 -30.9870 -22.0075 -3.0704 0.7381 -6.6671 26.1112
#
#
#
# Elastic Compliance Matrix: (Units=1/GPa)
#
#
# Indices 1 2 3 4 5 6 
#
# 1 0.014917 0.009861 0.001621 -0.017306 0.021566 0.032200
# 2 0.009861 0.045245 0.003517 -0.037174 0.058102 0.066136
# 3 0.001621 0.003517 0.033287 -0.008191 0.024283 0.015234
# 4 -0.017306 -0.037174 -0.008191 0.213019 -0.099796 -0.084336
# 5 0.021566 0.058102 0.024283 -0.099796 0.147760 0.117968
# 6 0.032200 0.066136 0.015234 -0.084336 0.117968 0.166549
#
#
# Mechanical properties :
#
#
# Convention : Reuss Voigt Hill
#
# Bulk Modulus (GPa) = 8.10069 34.63382 21.36726
# Shear Modulus (GPa) = 7.91228 23.69797 15.80512
#
# Velocity S-wave (km/s) = 1.91265 3.31010 2.70324
# Velocity P-wave (km/s) = 2.93650 5.53371 4.42973
#
# Compressibility (1/GPa) = 0.12344627
#
# Stress axis : x y z
#
# Youngs Moduli (GPa) = 67.03631 22.10201 30.04152
#
# Poissons Ratio (x) = -0.21794 -0.04870
# Poissons Ratio (y) = -0.66102 -0.10565
# Poissons Ratio (z) = -0.10867 -0.07773
#
# Static dielectric constant tensor:
#      x y z
#    x 4.173090 -0.202840 -0.382550 
#    y -0.202840 3.618680 0.035140 
#    z -0.382550 0.035140 3.595540 
# 
# 
# High freq. dielectric constant tensor:
#      x y z
#    x 1.866050 -0.014380 -0.016530 
#    y -0.014380 1.831210 -0.006660 
#    z -0.016530 -0.006660 1.807460 
# 
# From -- ./inp_files/167958.got.cif
#   From: 2010.06.25/outbox.cif.g09.slc.cpg/sg2_84_cif.got.tgz:167958.got - 2010.06.27 13:26:56.
