data_PCOD8042059
_publ_section_title
;
Structure prediction by ZEFSAII (Michael W. Deem and Ramdas Pophale) SiO2 
 PCOD8042059
Probable space group: P -1
;
_chemical_formula_sum "Si O2"
_cell_formula_units_Z 16
_cell_length_a 12.111372
_cell_length_b 10.958583
_cell_length_c 6.870524
_cell_angle_alpha 96.823901
_cell_angle_beta 76.447026
_cell_angle_gamma 90.199100
_cell_volume 879.926908
_symmetry_space_group_name_H-M "P -1"
_symmetry_group_IT_number 2
_symmetry_cell_setting 'triclinic'
loop_
_space_group_symop_operation_xyz
x,y,z
-x,-y,-z
loop_
_atom_site_type_symbol
_atom_site_label
_atom_site_fract_x
_atom_site_fract_y
_atom_site_fract_z
Si Si1 0.630512 0.530920 0.401544
Si Si2 0.145908 0.084374 0.305054
Si Si3 0.889896 0.129436 0.433532
Si Si4 0.249008 0.008367 0.846217
Si Si5 0.409911 0.598307 0.971385
Si Si6 0.328382 0.184822 0.522528
Si Si7 0.435631 0.810033 0.712693
Si Si8 0.704458 0.326184 0.578702
O O1 0.500000 0.500000 0.500000
O O2 0.665494 0.477628 0.164543
O O3 0.652560 0.673340 0.416913
O O4 0.711790 0.463231 0.513340
O O5 0.228174 0.171248 0.406930
O O6 0.023122 0.152153 0.363346
O O7 0.138040 0.950648 0.380266
O O8 0.191750 0.069729 0.067292
O O9 0.828222 0.261576 0.510435
O O10 0.847494 0.061185 0.245544
O O11 0.300950 0.117444 0.720752
O O12 0.349207 0.913464 0.851660
O O13 0.465441 0.708456 0.846476
O O14 0.500000 0.500000 0.000000
O O15 0.335092 0.662868 0.180656
O O16 0.445931 0.126710 0.377703
O O17 0.384129 0.751433 0.526323
#
# Coordination Sequence:
#
# PCOD8042059 Si02
#       8
#     2   2   2   2   2   2   2   2
#     4  11  20  37  52  78 112 143 178 218 261 321
#     4  10  21  37  57  81 105 144 182 220 271 318
#     4   9  20  39  59  78 107 137 184 232 261 310
#     4  10  21  35  57  80 107 147 177 219 272 322
#     4  11  18  30  56  80 104 146 180 213 264 321
#     4  11  21  35  51  79 117 142 172 220 273 319
#     4  10  20  34  50  81 117 137 174 223 265 322
#     4  10  19  34  57  81 103 141 184 222 263 312
#
# _framework density 18.183326999999998
#
# number of rings (size 3 to 8) (size 9 to 14) (size 15 to 20)
#    0.000    1.750    3.750    1.500    0.000    3.500 
#    0.000    0.625    0.000    1.500    0.000    0.000 
#    0.000    0.000    0.000    0.000    0.000    0.000 
#
# Total GULP energy -198386.604602 kJ/mol
# GULP energy per Si atom -12399.162788 kJ/mol
# Density = 1.814194 g / cm^3
# Si number density = 18.183327 Si / 1000 Ang^3
#
#
#
# Elastic Constant Matrix: (Units=GPa)
#
#
# Indices 1 2 3 4 5 6 
#
# 1 125.3701 54.6931 47.4364 -4.0315 -11.6656 -13.0842
# 2 54.6931 89.0207 40.3515 2.6889 -2.1657 -12.5828
# 3 47.4364 40.3515 134.9527 -3.9386 -8.9684 -6.2721
# 4 -4.0315 2.6889 -3.9386 20.9751 -6.9443 2.2374
# 5 -11.6656 -2.1657 -8.9684 -6.9443 17.8660 1.2876
# 6 -13.0842 -12.5828 -6.2721 2.2374 1.2876 29.9747
#
#
#
# Elastic Compliance Matrix: (Units=1/GPa)
#
#
# Indices 1 2 3 4 5 6 
#
# 1 0.012734 -0.006838 -0.001605 0.005776 0.008813 0.001542
# 2 -0.006838 0.017626 -0.003329 -0.007020 -0.007055 0.004545
# 3 -0.001605 -0.003329 0.009351 0.003473 0.004635 -0.000600
# 4 0.005776 -0.007020 0.003473 0.060357 0.028515 -0.005429
# 5 0.008813 -0.007055 0.004635 0.028515 0.074533 -0.003475
# 6 0.001542 0.004545 -0.000600 -0.005429 -0.003475 0.036372
#
#
# Mechanical properties :
#
#
# Convention : Reuss Voigt Hill
#
# Bulk Modulus (GPa) = 61.85743 70.47839 66.16791
# Shear Modulus (GPa) = 20.84146 27.55400 24.19773
#
# Velocity S-wave (km/s) = 3.38921 3.89697 3.65192
# Velocity P-wave (km/s) = 7.02910 7.68716 7.36549
#
# Compressibility (1/GPa) = 0.01616621
#
# Stress axis : x y z
#
# Youngs Moduli (GPa) = 78.53258 56.73361 106.93653
#
# Poissons Ratio (x) = 0.38792 0.17168
# Poissons Ratio (y) = 0.53698 0.35603
# Poissons Ratio (z) = 0.12608 0.18889
#
# Static dielectric constant tensor:
#      x y z
#    x 3.364820 -0.183620 0.081330 
#    y -0.183620 3.434400 -0.046990 
#    z 0.081330 -0.046990 3.514150 
# 
# 
# High freq. dielectric constant tensor:
#      x y z
#    x 1.685850 -0.019600 0.004110 
#    y -0.019600 1.703210 -0.002510 
#    z 0.004110 -0.002510 1.715530 
# 
# From -- ./inp_files/71170.got.cif
#   From: 2010.06.25/outbox.cif.g09.slc.cpg/sg2_36_cif.got.tgz:71170.got - 2010.06.27 13:26:56.
