data_PCOD8042952
_publ_section_title
;
Structure prediction by ZEFSAII (Michael W. Deem and Ramdas Pophale) SiO2 
 PCOD8042952
Probable space group: P -1
;
_chemical_formula_sum "Si O2"
_cell_formula_units_Z 14
_cell_length_a 12.109812
_cell_length_b 10.367467
_cell_length_c 14.657293
_cell_angle_alpha 136.170813
_cell_angle_beta 151.092615
_cell_angle_gamma 50.633170
_cell_volume 615.996056
_symmetry_space_group_name_H-M "P -1"
_symmetry_group_IT_number 2
_symmetry_cell_setting 'triclinic'
loop_
_space_group_symop_operation_xyz
x,y,z
-x,-y,-z
loop_
_atom_site_type_symbol
_atom_site_label
_atom_site_fract_x
_atom_site_fract_y
_atom_site_fract_z
Si Si1 0.889383 0.521622 0.289882
Si Si2 0.336793 0.185317 0.851138
Si Si3 0.992070 0.263362 0.784187
Si Si4 0.297068 0.776114 0.129677
Si Si5 0.892093 0.678174 0.898678
Si Si6 0.340395 0.501222 0.697613
Si Si7 0.517857 0.089913 0.333370
O O1 0.811643 0.703309 0.273017
O O2 0.795817 0.552181 0.338215
O O3 0.166454 0.504997 0.487622
O O4 0.776982 0.339668 0.072213
O O5 0.157614 0.133579 0.775414
O O6 0.447582 0.008952 0.790415
O O7 0.539994 0.299938 0.103472
O O8 0.952433 0.463491 0.807104
O O9 0.757106 0.160109 0.580246
O O10 0.114939 0.295793 0.985167
O O11 0.470469 0.660685 0.261593
O O12 0.409855 0.963199 0.269925
O O13 0.075853 0.814319 0.052433
O O14 0.644142 0.731775 0.708408
#
# Coordination Sequence:
#
# PCOD8042952 Si02
#       7
#     2   2   2   2   2   2   2
#     4  10  19  35  66  98 128 170 214 261 330 376
#     4  11  21  43  66  97 132 163 218 274 313 382
#     4  11  26  46  65  91 134 178 219 255 320 396
#     4  11  21  43  66  97 132 163 218 274 313 382
#     4  11  26  46  65  91 134 178 219 255 320 396
#     4  10  19  35  66  97 130 169 211 268 322 380
#     4  12  25  41  70  98 130 168 212 281 325 366
#
# _framework density 22.727419999999999
#
# number of rings (size 3 to 8) (size 9 to 14) (size 15 to 20)
#    0.000    1.143    5.714    2.143    0.000    5.714 
#    0.000    0.000    0.000    0.000    0.000    0.000 
#    0.000    0.000    0.000    0.000    0.000    0.000 
#
# Total GULP energy -173634.728135 kJ/mol
# GULP energy per Si atom -12402.480581 kJ/mol
# Density = 2.267569 g / cm^3
# Si number density = 22.727420 Si / 1000 Ang^3
#
#
#
# Elastic Constant Matrix: (Units=GPa)
#
#
# Indices 1 2 3 4 5 6 
#
# 1 75.5323 2.7137 -16.4378 8.1768 22.0279 -3.3025
# 2 2.7137 47.9632 19.5011 -2.2491 0.0304 -5.7173
# 3 -16.4378 19.5011 92.5034 -10.9603 16.6219 9.8816
# 4 8.1768 -2.2491 -10.9603 33.5242 0.5615 7.3449
# 5 22.0279 0.0304 16.6219 0.5615 24.5457 0.4984
# 6 -3.3025 -5.7173 9.8816 7.3449 0.4984 23.6826
#
#
#
# Elastic Compliance Matrix: (Units=1/GPa)
#
#
# Indices 1 2 3 4 5 6 
#
# 1 0.024454 -0.005971 0.010721 -0.002100 -0.029126 -0.001240
# 2 -0.005971 0.026451 -0.010225 -0.002586 0.012098 0.010367
# 3 0.010721 -0.010225 0.021129 0.006481 -0.023836 -0.011298
# 4 -0.002100 -0.002586 0.006481 0.035531 -0.003018 -0.014578
# 5 -0.029126 0.012098 -0.023836 -0.003018 0.082912 0.007996
# 6 -0.001240 0.010367 -0.011298 -0.014578 0.007996 0.053622
#
#
# Mechanical properties :
#
#
# Convention : Reuss Voigt Hill
#
# Bulk Modulus (GPa) = 16.37031 25.28366 20.82698
# Shear Modulus (GPa) = 18.15472 30.36529 24.26000
#
# Velocity S-wave (km/s) = 2.82938 3.65919 3.27070
# Velocity P-wave (km/s) = 4.22993 5.38533 4.84222
#
# Compressibility (1/GPa) = 0.06108621
#
# Stress axis : x y z
#
# Youngs Moduli (GPa) = 40.89253 37.80532 47.32784
#
# Poissons Ratio (x) = 0.22572 -0.50742
# Poissons Ratio (y) = 0.24416 0.48393
# Poissons Ratio (z) = -0.43843 0.38656
#
# Static dielectric constant tensor:
#      x y z
#    x 4.104780 -0.098410 0.147260 
#    y -0.098410 4.002010 -0.247830 
#    z 0.147260 -0.247830 4.220460 
# 
# 
# High freq. dielectric constant tensor:
#      x y z
#    x 1.901800 -0.000360 0.014060 
#    y -0.000360 1.880290 -0.014210 
#    z 0.014060 -0.014210 1.896320 
# 
# From -- ./inp_files/263125.got.cif
#   From: 2010.06.25/outbox.cif.g09.slc.cpg/sg2_132_cif.got.tgz:263125.got - 2010.06.27 13:26:56.
