data_PCOD8042435
_publ_section_title
;
Structure prediction by ZEFSAII (Michael W. Deem and Ramdas Pophale) SiO2 
 PCOD8042435
Probable space group: P -1
;
_chemical_formula_sum "Si O2"
_cell_formula_units_Z 16
_cell_length_a 20.186682
_cell_length_b 14.631322
_cell_length_c 8.852382
_cell_angle_alpha 81.268016
_cell_angle_beta 91.647631
_cell_angle_gamma 21.464814
_cell_volume 834.659158
_symmetry_space_group_name_H-M "P -1"
_symmetry_group_IT_number 2
_symmetry_cell_setting 'triclinic'
loop_
_space_group_symop_operation_xyz
x,y,z
-x,-y,-z
loop_
_atom_site_type_symbol
_atom_site_label
_atom_site_fract_x
_atom_site_fract_y
_atom_site_fract_z
Si Si1 0.760670 0.810549 0.388085
Si Si2 0.731381 0.316135 0.151202
Si Si3 0.510447 0.316929 0.244270
Si Si4 0.661592 0.286728 0.429183
Si Si5 0.631089 0.799003 0.200560
Si Si6 0.177903 0.665907 0.346771
Si Si7 0.508146 0.891207 0.459815
Si Si8 0.122408 0.704674 0.670709
O O1 0.711526 0.785094 0.291662
O O2 0.000000 0.500000 0.500000
O O3 0.646671 0.051659 0.253866
O O4 0.678453 0.919253 0.528658
O O5 0.617047 0.421233 0.261117
O O6 0.791361 0.343984 0.179045
O O7 0.581500 0.509897 0.950517
O O8 0.940571 0.984670 0.203000
O O9 0.662823 0.184885 0.374535
O O10 0.322988 0.541462 0.289913
O O11 0.500000 0.500000 0.500000
O O12 0.878075 0.024150 0.584632
O O13 0.485165 0.930555 0.268211
O O14 0.810629 0.490222 0.247156
O O15 0.500000 0.000000 0.000000
O O16 0.269951 0.441444 0.389361
O O17 0.192618 0.662659 0.530010
O O18 0.500000 0.000000 0.500000
#
# Coordination Sequence:
#
# PCOD8042435 Si02
#       8
#     2   2   2   2   2   2   2   2
#     4  10  20  36  55  77 106 141 174 210 262 320
#     4  11  21  35  54  81 106 135 176 221 260 303
#     4  11  21  35  55  81 107 134 172 224 266 301
#     4  11  22  37  53  75 108 144 173 205 258 324
#     4  10  19  35  56  80 103 132 176 225 259 297
#     4   9  18  33  55  75 102 138 175 211 256 313
#     4   8  17  33  53  75 101 138 177 209 253 313
#     4  10  20  36  56  76 103 142 178 209 256 319
#
# _framework density 19.169502000000001
#
# number of rings (size 3 to 8) (size 9 to 14) (size 15 to 20)
#    0.000    2.000    0.000    5.250    0.000    1.000 
#    0.000    1.875    0.000    0.000    0.000    0.000 
#    0.000    0.000    0.000    0.000    0.000    0.000 
#
# Total GULP energy -198217.930708 kJ/mol
# GULP energy per Si atom -12388.620669 kJ/mol
# Density = 1.912587 g / cm^3
# Si number density = 19.169502 Si / 1000 Ang^3
#
#
#
# Elastic Constant Matrix: (Units=GPa)
#
#
# Indices 1 2 3 4 5 6 
#
# 1 87.9578 40.7274 34.1604 2.1314 -4.2655 8.5024
# 2 40.7274 121.0106 46.1195 -7.7709 -10.9784 -0.7717
# 3 34.1604 46.1195 105.8316 -5.6107 -14.8016 -6.9274
# 4 2.1314 -7.7709 -5.6107 19.8711 4.1091 -2.8937
# 5 -4.2655 -10.9784 -14.8016 4.1091 30.7771 0.8910
# 6 8.5024 -0.7717 -6.9274 -2.8937 0.8910 33.4647
#
#
#
# Elastic Compliance Matrix: (Units=1/GPa)
#
#
# Indices 1 2 3 4 5 6 
#
# 1 0.015363 -0.004099 -0.003830 -0.005018 -0.000354 -0.005215
# 2 -0.004099 0.011201 -0.003099 0.003793 0.001403 0.000949
# 3 -0.003830 -0.003099 0.012995 0.002546 0.004167 0.003701
# 4 -0.005018 0.003793 0.002546 0.055234 -0.005690 0.006817
# 5 -0.000354 0.001403 0.004167 -0.005690 0.035720 -0.000458
# 6 -0.005215 0.000949 0.003701 0.006817 -0.000458 0.032597
#
#
# Mechanical properties :
#
#
# Convention : Reuss Voigt Hill
#
# Bulk Modulus (GPa) = 57.12540 61.86828 59.49684
# Shear Modulus (GPa) = 26.17811 29.74210 27.96010
#
# Velocity S-wave (km/s) = 3.69943 3.94322 3.82327
# Velocity P-wave (km/s) = 6.93632 7.28536 7.11298
#
# Compressibility (1/GPa) = 0.01750535
#
# Stress axis : x y z
#
# Youngs Moduli (GPa) = 65.09266 89.27680 76.94987
#
# Poissons Ratio (x) = 0.36591 0.29468
# Poissons Ratio (y) = 0.26679 0.23846
# Poissons Ratio (z) = 0.24928 0.27666
#
# Static dielectric constant tensor:
#      x y z
#    x 3.537360 0.236000 -0.179910 
#    y 0.236000 3.591720 -0.076110 
#    z -0.179910 -0.076110 3.229130 
# 
# 
# High freq. dielectric constant tensor:
#      x y z
#    x 1.748000 0.011460 -0.018950 
#    y 0.011460 1.753920 0.003270 
#    z -0.018950 0.003270 1.729460 
# 
# From -- ./inp_files/188392.got.cif
#   From: 2010.06.25/outbox.cif.g09.slc.cpg/sg2_95_cif.got.tgz:188392.got - 2010.06.27 13:26:56.
