data_PCOD8042379
_publ_section_title
;
Structure prediction by ZEFSAII (Michael W. Deem and Ramdas Pophale) SiO2 
 PCOD8042379
Probable space group: P -1
;
_chemical_formula_sum "Si O2"
_cell_formula_units_Z 16
_cell_length_a 13.057689
_cell_length_b 12.639751
_cell_length_c 15.090993
_cell_angle_alpha 87.647765
_cell_angle_beta 160.572932
_cell_angle_gamma 92.090435
_cell_volume 827.709201
_symmetry_space_group_name_H-M "P -1"
_symmetry_group_IT_number 2
_symmetry_cell_setting 'triclinic'
loop_
_space_group_symop_operation_xyz
x,y,z
-x,-y,-z
loop_
_atom_site_type_symbol
_atom_site_label
_atom_site_fract_x
_atom_site_fract_y
_atom_site_fract_z
Si Si1 0.192209 0.393821 0.147559
Si Si2 0.920959 0.382000 0.417567
Si Si3 0.249995 0.303812 0.857195
Si Si4 0.672883 0.941292 0.061810
Si Si5 0.922795 0.412532 0.747283
Si Si6 0.981172 0.341714 0.159403
Si Si7 0.185950 0.034396 0.562682
Si Si8 0.707257 0.730064 0.414662
O O1 0.554215 0.415760 0.446638
O O2 0.106081 0.318993 0.162648
O O3 0.000000 0.500000 0.000000
O O4 0.075744 0.350504 0.958698
O O5 0.000000 0.500000 0.500000
O O6 0.063381 0.307906 0.612946
O O7 0.079064 0.357449 0.454125
O O8 0.555507 0.373817 0.107345
O O9 0.363754 0.183894 0.964532
O O10 0.023909 0.345724 0.747171
O O11 0.028954 0.975694 0.353266
O O12 0.500000 0.000000 0.000000
O O13 0.530314 0.987622 0.853066
O O14 0.039842 0.533571 0.837818
O O15 0.217598 0.280095 0.419436
O O16 0.646189 0.290753 0.895554
O O17 0.189715 0.158889 0.546061
O O18 0.000000 0.000000 0.500000
#
# Coordination Sequence:
#
# PCOD8042379 Si02
#       8
#     2   2   2   2   2   2   2   2
#     4  10  20  37  60  84 115 151 187 237 283 328
#     4  12  23  36  50  78 121 160 185 217 270 345
#     4  12  23  37  57  82 113 155 193 232 279 333
#     4  10  19  35  54  75 103 139 187 239 272 312
#     4  11  21  37  58  87 118 151 189 231 280 341
#     4  11  21  36  56  86 116 147 187 231 283 347
#     4  10  20  35  53  75 104 140 187 239 276 316
#     4  12  22  35  56  83 114 153 189 232 285 336
#
# _framework density 19.330461
#
# number of rings (size 3 to 8) (size 9 to 14) (size 15 to 20)
#    0.000    1.000    0.000   11.625    0.000    0.000 
#    0.000    0.000    0.000    0.000    0.000   17.500 
#    0.000    0.000    0.000    0.000    0.000    0.000 
#
# Total GULP energy -198335.950845 kJ/mol
# GULP energy per Si atom -12395.996928 kJ/mol
# Density = 1.928646 g / cm^3
# Si number density = 19.330461 Si / 1000 Ang^3
#
#
#
# Elastic Constant Matrix: (Units=GPa)
#
#
# Indices 1 2 3 4 5 6 
#
# 1 75.3877 15.5803 39.7521 5.3697 -9.8300 12.9060
# 2 15.5803 84.8291 21.9481 8.8182 4.4511 13.7285
# 3 39.7521 21.9481 143.1010 10.6519 -14.9478 0.6467
# 4 5.3697 8.8182 10.6519 23.7179 8.1790 -5.6537
# 5 -9.8300 4.4511 -14.9478 8.1790 38.4325 -3.7259
# 6 12.9060 13.7285 0.6467 -5.6537 -3.7259 20.1872
#
#
#
# Elastic Compliance Matrix: (Units=1/GPa)
#
#
# Indices 1 2 3 4 5 6 
#
# 1 0.018651 0.000387 -0.004353 -0.006681 0.003162 -0.013335
# 2 0.000387 0.015204 -0.002081 -0.007125 -0.002208 -0.012923
# 3 -0.004353 -0.002081 0.009070 -0.002639 0.003588 0.003831
# 4 -0.006681 -0.007125 -0.002639 0.057069 -0.011825 0.023001
# 5 0.003162 -0.002208 0.003588 -0.011825 0.031171 0.001807
# 6 -0.013335 -0.012923 0.003831 0.023001 0.001807 0.073503
#
#
# Mechanical properties :
#
#
# Convention : Reuss Voigt Hill
#
# Bulk Modulus (GPa) = 32.43419 50.87544 41.65482
# Shear Modulus (GPa) = 22.02262 31.53667 26.77965
#
# Velocity S-wave (km/s) = 3.37897 4.04350 3.72608
# Velocity P-wave (km/s) = 5.66025 6.94088 6.33302
#
# Compressibility (1/GPa) = 0.03083166
#
# Stress axis : x y z
#
# Youngs Moduli (GPa) = 53.61671 65.77330 110.24924
#
# Poissons Ratio (x) = -0.02548 0.47988
# Poissons Ratio (y) = -0.02077 0.22947
# Poissons Ratio (z) = 0.23338 0.13690
#
# Static dielectric constant tensor:
#      x y z
#    x 4.682810 0.026290 -2.903360 
#    y 0.026290 3.302930 0.295050 
#    z -2.903360 0.295050 12.084380 
# 
# 
# High freq. dielectric constant tensor:
#      x y z
#    x 1.737830 0.010440 -0.024410 
#    y 0.010440 1.727500 0.004930 
#    z -0.024410 0.004930 1.783330 
# 
# From -- ./inp_files/473289.got.cif
#   From: 2010.06.25/outbox.cif.g09.slc.cpg/sg2_237_cif.got.tgz:473289.got - 2010.06.27 13:26:56.
