data_PCOD8042356
_publ_section_title
;
Structure prediction by ZEFSAII (Michael W. Deem and Ramdas Pophale) SiO2 
 PCOD8042356
Probable space group: P -1
;
_chemical_formula_sum "Si O2"
_cell_formula_units_Z 16
_cell_length_a 20.039395
_cell_length_b 31.347399
_cell_length_c 31.205725
_cell_angle_alpha 9.007831
_cell_angle_beta 19.455495
_cell_angle_gamma 18.839885
_cell_volume 978.170166
_symmetry_space_group_name_H-M "P -1"
_symmetry_group_IT_number 2
_symmetry_cell_setting 'triclinic'
loop_
_space_group_symop_operation_xyz
x,y,z
-x,-y,-z
loop_
_atom_site_type_symbol
_atom_site_label
_atom_site_fract_x
_atom_site_fract_y
_atom_site_fract_z
Si Si1 0.257069 0.397287 0.274290
Si Si2 0.351108 0.427618 0.930646
Si Si3 0.855377 0.649064 0.478663
Si Si4 0.385438 0.940175 0.929425
Si Si5 0.428610 0.741800 0.951051
Si Si6 0.493339 0.812782 0.746718
Si Si7 0.876443 0.430689 0.524721
Si Si8 0.206503 0.004777 0.394486
O O1 0.296738 0.330487 0.265887
O O2 0.016154 0.424834 0.403685
O O3 0.416313 0.150328 0.450680
O O4 0.305544 0.690131 0.966324
O O5 0.389034 0.424967 0.961074
O O6 0.572303 0.231079 0.971655
O O7 0.166277 0.285804 0.170267
O O8 0.293034 0.741017 0.635518
O O9 0.000000 0.500000 0.500000
O O10 0.984941 0.726255 0.363290
O O11 0.691870 0.944110 0.269762
O O12 0.734874 0.435110 0.781876
O O13 0.223578 0.247894 0.718201
O O14 0.613660 0.979684 0.765085
O O15 0.293053 0.739320 0.215669
O O16 0.544739 0.758418 0.819516
O O17 0.000000 0.000000 0.500000
#
# Coordination Sequence:
#
# PCOD8042356 Si02
#       8
#     2   2   2   2   2   2   2   2
#     4  10  20  32  49  64  91 128 180 212 237 267
#     4  10  20  33  50  73  98 126 153 206 226 287
#     4  12  23  30  44  65  99 142 170 192 221 290
#     4  10  20  31  49  69 100 122 153 204 231 285
#     4  12  20  35  46  68  97 133 170 202 237 264
#     4  10  19  35  47  65  88 132 178 214 234 267
#     4  12  18  32  45  70  96 132 167 199 239 263
#     4  10  20  37  54  70  95 129 153 188 246 301
#
# _framework density 16.357071000000001
#
# number of rings (size 3 to 8) (size 9 to 14) (size 15 to 20)
#    0.750    0.500    3.750    4.500    0.000    0.000 
#    0.000    0.000    0.000    0.000    0.000    0.000 
#    0.000    6.000    0.000    0.000    0.000    0.000 
#
# Total GULP energy -198265.669148 kJ/mol
# GULP energy per Si atom -12391.604322 kJ/mol
# Density = 1.631984 g / cm^3
# Si number density = 16.357071 Si / 1000 Ang^3
#
#
#
# Elastic Constant Matrix: (Units=GPa)
#
#
# Indices 1 2 3 4 5 6 
#
# 1 67.7890 43.4228 23.5391 16.2696 8.4634 8.7249
# 2 43.4228 57.6355 24.9273 17.0545 5.9189 5.1658
# 3 23.5391 24.9273 96.9121 9.0413 5.4299 1.7779
# 4 16.2696 17.0545 9.0413 30.3784 -0.2662 1.8266
# 5 8.4634 5.9189 5.4299 -0.2662 19.8860 2.9489
# 6 8.7249 5.1658 1.7779 1.8266 2.9489 14.5205
#
#
#
# Elastic Compliance Matrix: (Units=1/GPa)
#
#
# Indices 1 2 3 4 5 6 
#
# 1 0.031110 -0.020046 -0.001502 -0.004425 -0.005483 -0.009707
# 2 -0.020046 0.036764 -0.003683 -0.008874 -0.001653 0.000869
# 3 -0.001502 -0.003683 0.011769 -0.000718 -0.001666 0.001200
# 4 -0.004425 -0.008874 -0.000718 0.040546 0.005304 -0.000274
# 5 -0.005483 -0.001653 -0.001666 0.005304 0.054781 -0.007706
# 6 -0.009707 0.000869 0.001200 -0.000274 -0.007706 0.075844
#
#
# Mechanical properties :
#
#
# Convention : Reuss Voigt Hill
#
# Bulk Modulus (GPa) = 34.26906 45.12388 39.69647
# Shear Modulus (GPa) = 16.07706 21.65347 18.86526
#
# Velocity S-wave (km/s) = 3.13849 3.64235 3.39977
# Velocity P-wave (km/s) = 5.84206 6.73317 6.30338
#
# Compressibility (1/GPa) = 0.02918084
#
# Stress axis : x y z
#
# Youngs Moduli (GPa) = 32.14412 27.20074 84.96941
#
# Poissons Ratio (x) = 0.54527 0.12762
# Poissons Ratio (y) = 0.64437 0.31291
# Poissons Ratio (z) = 0.04828 0.10017
#
# Static dielectric constant tensor:
#      x y z
#    x 2.768800 0.245920 0.048870 
#    y 0.245920 2.965880 0.041570 
#    z 0.048870 0.041570 3.403090 
# 
# 
# High freq. dielectric constant tensor:
#      x y z
#    x 1.583030 0.021130 0.003360 
#    y 0.021130 1.600990 -0.006000 
#    z 0.003360 -0.006000 1.662680 
# 
# From -- ./inp_files/533323.got.cif
#   From: 2010.06.25/outbox.cif.g09.slc.cpg/sg2_267_cif.got.tgz:533323.got - 2010.06.27 13:26:56.
