data_PCOD8042732
_publ_section_title
;
Structure prediction by ZEFSAII (Michael W. Deem and Ramdas Pophale) SiO2 
 PCOD8042732
Probable space group: P -1
;
_chemical_formula_sum "Si O2"
_cell_formula_units_Z 16
_cell_length_a 14.449894
_cell_length_b 9.580159
_cell_length_c 15.802475
_cell_angle_alpha 37.130748
_cell_angle_beta 136.451336
_cell_angle_gamma 141.403076
_cell_volume 793.172932
_symmetry_space_group_name_H-M "P -1"
_symmetry_group_IT_number 2
_symmetry_cell_setting 'triclinic'
loop_
_space_group_symop_operation_xyz
x,y,z
-x,-y,-z
loop_
_atom_site_type_symbol
_atom_site_label
_atom_site_fract_x
_atom_site_fract_y
_atom_site_fract_z
Si Si1 0.533847 0.786349 0.669561
Si Si2 0.569730 0.155727 0.852572
Si Si3 0.654153 0.080165 0.770373
Si Si4 0.087532 0.416497 0.359026
Si Si5 0.995816 0.988600 0.365876
Si Si6 0.802677 0.733924 0.787403
Si Si7 0.656530 0.818236 0.189799
Si Si8 0.025285 0.809694 0.047802
O O1 0.691050 0.817082 0.720292
O O2 0.395247 0.489632 0.709796
O O3 0.500000 0.000000 0.500000
O O4 0.552306 0.836921 0.758442
O O5 0.550550 0.104548 0.763854
O O6 0.715429 0.440333 0.832780
O O7 0.413193 0.144796 0.785945
O O8 0.590843 0.922408 0.021243
O O9 0.792140 0.050155 0.921723
O O10 0.733886 0.347495 0.636023
O O11 0.042022 0.293750 0.482068
O O12 0.976974 0.535551 0.199473
O O13 0.080994 0.206990 0.388135
O O14 0.840150 0.984789 0.235099
O O15 0.109529 0.052492 0.331326
O O16 0.928018 0.741693 0.931406
O O17 0.000000 0.000000 0.000000
#
# Coordination Sequence:
#
# PCOD8042732 Si02
#       8
#     2   2   2   2   2   2   2   2
#     4  11  24  43  60  86 130 172 198 245 309 382
#     4  10  21  40  62  96 116 165 206 257 307 362
#     4  10  20  40  62  89 123 162 207 246 308 367
#     4   9  21  35  60  92 127 146 202 267 305 350
#     4  11  20  39  62  96 121 156 203 266 308 354
#     4  11  20  40  71  90 120 162 215 247 312 366
#     4  10  23  38  62  90 128 157 206 257 305 364
#     4  10  19  35  60  92 116 161 199 258 294 357
#
# _framework density 20.172143999999999
#
# number of rings (size 3 to 8) (size 9 to 14) (size 15 to 20)
#    0.750    1.000    2.500    2.250    0.000    2.000 
#    4.500    8.750    0.000    0.000    0.000    0.000 
#    0.000    0.000    0.000    0.000    0.000    0.000 
#
# Total GULP energy -198356.283388 kJ/mol
# GULP energy per Si atom -12397.267712 kJ/mol
# Density = 2.012623 g / cm^3
# Si number density = 20.172144 Si / 1000 Ang^3
#
#
#
# Elastic Constant Matrix: (Units=GPa)
#
#
# Indices 1 2 3 4 5 6 
#
# 1 100.7215 37.0127 25.0143 -1.3312 -19.2100 -18.1270
# 2 37.0127 53.0629 10.9263 -0.2573 -2.2036 -14.1445
# 3 25.0143 10.9263 99.0310 -12.3982 -6.3819 -13.0130
# 4 -1.3312 -0.2573 -12.3982 32.5846 2.8779 0.7470
# 5 -19.2100 -2.2036 -6.3819 2.8779 31.1256 0.3836
# 6 -18.1270 -14.1445 -13.0130 0.7470 0.3836 31.8430
#
#
#
# Elastic Compliance Matrix: (Units=1/GPa)
#
#
# Indices 1 2 3 4 5 6 
#
# 1 0.016424 -0.009540 -0.002101 -0.001101 0.009081 0.004170
# 2 -0.009540 0.027102 0.000041 0.000044 -0.004047 0.006672
# 3 -0.002101 0.000041 0.011650 0.004209 0.000663 0.003477
# 4 -0.001101 0.000044 0.004209 0.032487 -0.002822 0.000385
# 5 0.009081 -0.004047 0.000663 -0.002822 0.037802 0.003253
# 6 0.004170 0.006672 0.003477 0.000385 0.003253 0.038114
#
#
# Mechanical properties :
#
#
# Convention : Reuss Voigt Hill
#
# Bulk Modulus (GPa) = 31.27259 44.30244 37.78752
# Shear Modulus (GPa) = 25.32441 31.10146 28.21294
#
# Velocity S-wave (km/s) = 3.54703 3.93084 3.74385
# Velocity P-wave (km/s) = 5.68434 6.52778 6.12060
#
# Compressibility (1/GPa) = 0.03197688
#
# Stress axis : x y z
#
# Youngs Moduli (GPa) = 60.88813 36.89720 85.83336
#
# Poissons Ratio (x) = 0.35200 0.18031
# Poissons Ratio (y) = 0.58088 -0.00352
# Poissons Ratio (z) = 0.12790 -0.00151
#
# Static dielectric constant tensor:
#      x y z
#    x 3.695180 -0.010300 -0.192970 
#    y -0.010300 3.636720 -0.085650 
#    z -0.192970 -0.085650 3.816050 
# 
# 
# High freq. dielectric constant tensor:
#      x y z
#    x 1.778390 -0.006540 -0.003150 
#    y -0.006540 1.786390 -0.003990 
#    z -0.003150 -0.003990 1.785410 
# 
# From -- ./inp_files/528117.got.cif
#   From: 2010.06.25/outbox.cif.g09.slc.cpg/sg2_265_cif.got.tgz:528117.got - 2010.06.27 13:26:56.
