data_PCOD8042370
_publ_section_title
;
Structure prediction by ZEFSAII (Michael W. Deem and Ramdas Pophale) SiO2 
 PCOD8042370
Probable space group: P -1
;
_chemical_formula_sum "Si O2"
_cell_formula_units_Z 14
_cell_length_a 21.304196
_cell_length_b 8.891320
_cell_length_c 9.995642
_cell_angle_alpha 43.546985
_cell_angle_beta 50.580895
_cell_angle_gamma 37.949330
_cell_volume 793.150890
_symmetry_space_group_name_H-M "P -1"
_symmetry_group_IT_number 2
_symmetry_cell_setting 'triclinic'
loop_
_space_group_symop_operation_xyz
x,y,z
-x,-y,-z
loop_
_atom_site_type_symbol
_atom_site_label
_atom_site_fract_x
_atom_site_fract_y
_atom_site_fract_z
Si Si1 0.767314 0.724335 0.517345
Si Si2 0.406064 0.642595 0.635339
Si Si3 0.488448 0.662509 0.779251
Si Si4 0.868686 0.370317 0.860214
Si Si5 0.662874 0.687607 0.440587
Si Si6 0.243894 0.599603 0.775093
Si Si7 0.085951 0.142308 0.755649
O O1 0.797577 0.523802 0.729923
O O2 0.742050 0.609698 0.501963
O O3 0.864323 0.716190 0.349351
O O4 0.666285 0.027215 0.500432
O O5 0.500000 0.500000 0.500000
O O6 0.446047 0.573444 0.778340
O O7 0.345488 0.521066 0.763977
O O8 0.597572 0.582396 0.636862
O O9 0.410187 0.988732 0.705034
O O10 0.500000 0.500000 0.000000
O O11 0.966901 0.372405 0.723884
O O12 0.801426 0.518476 0.991845
O O13 0.909039 0.050930 0.008999
O O14 0.732603 0.524353 0.323067
O O15 0.157375 0.937127 0.667117
#
# Coordination Sequence:
#
# PCOD8042370 Si02
#       7
#     2   2   2   2   2   2   2
#     4  10  20  32  57  76 105 139 172 210 268 308
#     4  10  19  35  53  76 107 137 175 217 250 303
#     4  10  22  36  53  70 107 147 173 208 260 303
#     4   9  18  35  60  77  97 140 181 208 258 314
#     4  10  21  36  48  79 109 133 171 222 254 303
#     4   9  18  35  54  75 108 133 170 220 252 299
#     4   8  18  36  58  75 107 131 175 220 255 305
#
# _framework density 17.651118
#
# number of rings (size 3 to 8) (size 9 to 14) (size 15 to 20)
#    0.857    1.714    1.429    0.429    2.000    1.143 
#    0.000    2.857    0.000    0.000    0.000    0.000 
#    0.000    0.000    0.000    0.000    0.000    0.000 
#
# Total GULP energy -173507.871253 kJ/mol
# GULP energy per Si atom -12393.419375 kJ/mol
# Density = 1.761094 g / cm^3
# Si number density = 17.651118 Si / 1000 Ang^3
#
#
#
# Elastic Constant Matrix: (Units=GPa)
#
#
# Indices 1 2 3 4 5 6 
#
# 1 125.1947 59.8608 54.6928 22.0783 13.1077 -7.9363
# 2 59.8608 61.2777 42.3792 23.2593 8.1258 -5.3599
# 3 54.6928 42.3792 101.5969 15.4696 15.1706 -7.7541
# 4 22.0783 23.2593 15.4696 30.0927 -8.0722 -0.7042
# 5 13.1077 8.1258 15.1706 -8.0722 33.6386 1.6420
# 6 -7.9363 -5.3599 -7.7541 -0.7042 1.6420 23.3007
#
#
#
# Elastic Compliance Matrix: (Units=1/GPa)
#
#
# Indices 1 2 3 4 5 6 
#
# 1 0.015718 -0.012860 -0.002517 -0.000840 -0.002167 0.001685
# 2 -0.012860 0.043252 -0.006099 -0.023028 -0.008380 0.003434
# 3 -0.002517 -0.006099 0.015122 -0.002515 -0.005119 0.003057
# 4 -0.000840 -0.023028 -0.002515 0.058526 0.021369 -0.006157
# 5 -0.002167 -0.008380 -0.005119 0.021369 0.040353 -0.006567
# 6 0.001685 0.003434 0.003057 -0.006157 -0.006567 0.045575
#
#
# Mechanical properties :
#
#
# Convention : Reuss Voigt Hill
#
# Bulk Modulus (GPa) = 32.11311 66.88166 49.49739
# Shear Modulus (GPa) = 18.39046 26.14882 22.26964
#
# Velocity S-wave (km/s) = 3.23133 3.85311 3.55583
# Velocity P-wave (km/s) = 5.67051 7.60055 6.70534
#
# Compressibility (1/GPa) = 0.03113993
#
# Stress axis : x y z
#
# Youngs Moduli (GPa) = 63.62136 23.12007 66.12679
#
# Poissons Ratio (x) = 0.29733 0.16644
# Poissons Ratio (y) = 0.81819 0.40332
# Poissons Ratio (z) = 0.16014 0.14101
#
# Static dielectric constant tensor:
#      x y z
#    x 3.432260 -0.134690 -0.179380 
#    y -0.134690 3.097470 0.083730 
#    z -0.179380 0.083730 3.159080 
# 
# 
# High freq. dielectric constant tensor:
#      x y z
#    x 1.686900 -0.017240 -0.009850 
#    y -0.017240 1.661720 0.007340 
#    z -0.009850 0.007340 1.675640 
# 
# From -- ./inp_files/202434.got.cif
#   From: 2010.06.25/outbox.cif.g09.slc.cpg/sg2_102_cif.got.tgz:202434.got - 2010.06.27 13:26:56.
