data_PCOD8042653
_publ_section_title
;
Structure prediction by ZEFSAII (Michael W. Deem and Ramdas Pophale) SiO2 
 PCOD8042653
Probable space group: P -1
;
_chemical_formula_sum "Si O2"
_cell_formula_units_Z 14
_cell_length_a 5.458098
_cell_length_b 11.483008
_cell_length_c 12.728926
_cell_angle_alpha 81.724594
_cell_angle_beta 97.599029
_cell_angle_gamma 60.106511
_cell_volume 664.819541
_symmetry_space_group_name_H-M "P -1"
_symmetry_group_IT_number 2
_symmetry_cell_setting 'triclinic'
loop_
_space_group_symop_operation_xyz
x,y,z
-x,-y,-z
loop_
_atom_site_type_symbol
_atom_site_label
_atom_site_fract_x
_atom_site_fract_y
_atom_site_fract_z
Si Si1 0.376525 0.420432 0.944967
Si Si2 0.274032 0.366124 0.161902
Si Si3 0.004064 0.775619 0.362382
Si Si4 0.644732 0.082721 0.600471
Si Si5 0.680071 0.812887 0.637543
Si Si6 0.140503 0.567982 0.564699
Si Si7 0.354720 0.593790 0.236045
O O1 0.581022 0.334144 0.868255
O O2 0.070509 0.533338 0.863507
O O3 0.500000 0.500000 0.000000
O O4 0.358506 0.326398 0.048097
O O5 0.403519 0.220256 0.249183
O O6 0.397981 0.451705 0.213520
O O7 0.126386 0.878692 0.348916
O O8 0.200624 0.660841 0.476579
O O9 0.045757 0.704933 0.258103
O O10 0.664908 0.847056 0.364312
O O11 0.589320 0.120023 0.468340
O O12 0.795447 0.917438 0.644244
O O13 0.931159 0.663249 0.632767
O O14 0.426960 0.443114 0.649504
O O15 0.000000 0.500000 0.500000
#
# Coordination Sequence:
#
# PCOD8042653 Si02
#       7
#     2   2   2   2   2   2   2
#     4   9  20  35  54  90 114 146 191 242 322 358
#     4  10  19  35  59  89 114 147 196 250 305 358
#     4  11  23  38  56  83 127 156 201 236 284 357
#     4  10  24  39  56  87 117 170 204 233 278 353
#     4  10  20  37  61  81 121 157 200 242 288 347
#     4  11  21  35  58  93 124 156 194 241 304 365
#     4  11  20  33  60  84 121 155 186 251 310 352
#
# _framework density 21.058344999999999
#
# number of rings (size 3 to 8) (size 9 to 14) (size 15 to 20)
#    0.000    1.714    1.429    3.857    2.000    6.286 
#    0.000    0.000    0.000    1.714    0.000    0.000 
#    0.000    0.000    0.000    0.000    0.000    0.000 
#
# Total GULP energy -173469.700933 kJ/mol
# GULP energy per Si atom -12390.692924 kJ/mol
# Density = 2.101042 g / cm^3
# Si number density = 21.058345 Si / 1000 Ang^3
#
#
#
# Elastic Constant Matrix: (Units=GPa)
#
#
# Indices 1 2 3 4 5 6 
#
# 1 86.9846 17.9699 36.8573 -0.5035 -5.6026 11.3853
# 2 17.9699 72.2742 35.3614 -2.6588 -12.4213 15.8495
# 3 36.8573 35.3614 113.4383 -5.1884 -25.5229 -2.3475
# 4 -0.5035 -2.6588 -5.1884 24.1254 4.8441 -5.1388
# 5 -5.6026 -12.4213 -25.5229 4.8441 37.1442 3.5119
# 6 11.3853 15.8495 -2.3475 -5.1388 3.5119 27.0777
#
#
#
# Elastic Compliance Matrix: (Units=1/GPa)
#
#
# Indices 1 2 3 4 5 6 
#
# 1 0.014501 0.000339 -0.005124 -0.002230 -0.000255 -0.007130
# 2 0.000339 0.020255 -0.005828 -0.002813 0.004475 -0.013618
# 3 -0.005124 -0.005828 0.013864 0.002430 0.005876 0.006467
# 4 -0.002230 -0.002813 0.002430 0.045589 -0.006717 0.012318
# 5 -0.000255 0.004475 0.005876 -0.006717 0.034021 -0.007689
# 6 -0.007130 -0.013618 0.006467 0.012318 -0.007689 0.051796
#
#
# Mechanical properties :
#
#
# Convention : Reuss Voigt Hill
#
# Bulk Modulus (GPa) = 36.50349 50.34159 43.42254
# Shear Modulus (GPa) = 23.76608 29.83670 26.80139
#
# Velocity S-wave (km/s) = 3.36308 3.76820 3.57139
# Velocity P-wave (km/s) = 5.69671 6.54906 6.13770
#
# Compressibility (1/GPa) = 0.02739464
#
# Stress axis : x y z
#
# Youngs Moduli (GPa) = 68.95865 49.36990 72.12817
#
# Poissons Ratio (x) = -0.01676 0.36962
# Poissons Ratio (y) = -0.02340 0.42037
# Poissons Ratio (z) = 0.35338 0.28773
#
# Static dielectric constant tensor:
#      x y z
#    x 3.968620 0.048020 -0.579340 
#    y 0.048020 3.718420 0.079650 
#    z -0.579340 0.079650 4.393430 
# 
# 
# High freq. dielectric constant tensor:
#      x y z
#    x 1.830860 0.006270 -0.019670 
#    y 0.006270 1.787280 0.013440 
#    z -0.019670 0.013440 1.825230 
# 
# From -- ./inp_files/36266.got.cif
#   From: 2010.06.25/outbox.cif.g09.slc.cpg/sg2_19_cif.got.tgz:36266.got - 2010.06.27 13:26:56.
