data_PCOD8042547
_publ_section_title
;
Structure prediction by ZEFSAII (Michael W. Deem and Ramdas Pophale) SiO2 
 PCOD8042547
Probable space group: P -1
;
_chemical_formula_sum "Si O2"
_cell_formula_units_Z 16
_cell_length_a 20.535665
_cell_length_b 14.742145
_cell_length_c 8.930533
_cell_angle_alpha 42.259880
_cell_angle_beta 29.392123
_cell_angle_gamma 40.547473
_cell_volume 836.381314
_symmetry_space_group_name_H-M "P -1"
_symmetry_group_IT_number 2
_symmetry_cell_setting 'triclinic'
loop_
_space_group_symop_operation_xyz
x,y,z
-x,-y,-z
loop_
_atom_site_type_symbol
_atom_site_label
_atom_site_fract_x
_atom_site_fract_y
_atom_site_fract_z
Si Si1 0.357755 0.602331 0.594119
Si Si2 0.890722 0.385780 0.285954
Si Si3 0.540697 0.847845 0.681745
Si Si4 0.581261 0.131493 0.774495
Si Si5 0.869005 0.516799 0.843910
Si Si6 0.196415 0.301087 0.825981
Si Si7 0.677249 0.811285 0.977425
Si Si8 0.604628 0.368985 0.854668
O O1 0.500000 0.500000 0.500000
O O2 0.326552 0.766273 0.510136
O O3 0.382895 0.571824 0.405916
O O4 0.230751 0.551559 0.964072
O O5 0.842927 0.527847 0.310486
O O6 0.769650 0.315319 0.644729
O O7 0.909714 0.431814 0.021989
O O8 0.045681 0.273705 0.162335
O O9 0.709416 0.763547 0.430043
O O10 0.500000 0.000000 0.500000
O O11 0.512101 0.862882 0.897140
O O12 0.451366 0.763216 0.878714
O O13 0.477895 0.183372 0.774512
O O14 0.688371 0.968437 0.733366
O O15 0.000000 0.500000 0.500000
O O16 0.796288 0.688003 0.800581
O O17 0.299604 0.225727 0.848543
O O18 0.500000 0.500000 0.000000
#
# Coordination Sequence:
#
# PCOD8042547 Si02
#       8
#     2   2   2   2   2   2   2   2
#     4  10  20  36  57  85 112 144 188 240 277 329
#     4   9  20  36  57  83 113 150 188 236 284 334
#     4  11  21  34  59  87 112 146 191 234 278 343
#     4  10  21  35  59  85 115 148 190 235 289 327
#     4  10  21  36  59  83 113 150 190 233 285 340
#     4  10  19  35  58  81 114 146 190 234 282 333
#     4  10  20  37  57  81 114 151 187 233 285 335
#     4  10  20  36  58  84 113 145 189 235 280 334
#
# _framework density 19.130032
#
# number of rings (size 3 to 8) (size 9 to 14) (size 15 to 20)
#    0.000    2.000    3.750    0.000    1.750    0.000 
#    2.250    1.250    0.000    0.000    0.000    0.000 
#    0.000    0.000    0.000    0.000    0.000    0.000 
#
# Total GULP energy -198288.322535 kJ/mol
# GULP energy per Si atom -12393.020158 kJ/mol
# Density = 1.908649 g / cm^3
# Si number density = 19.130032 Si / 1000 Ang^3
#
#
#
# Elastic Constant Matrix: (Units=GPa)
#
#
# Indices 1 2 3 4 5 6 
#
# 1 87.8722 37.6631 39.4424 2.8154 -20.8169 -3.7602
# 2 37.6631 108.3072 58.6971 3.3731 -11.7236 7.5013
# 3 39.4424 58.6971 118.3646 9.6981 -27.4401 3.4037
# 4 2.8154 3.3731 9.6981 25.1043 -1.9245 -5.7040
# 5 -20.8169 -11.7236 -27.4401 -1.9245 26.2308 -2.0197
# 6 -3.7602 7.5013 3.4037 -5.7040 -2.0197 29.5542
#
#
#
# Elastic Compliance Matrix: (Units=1/GPa)
#
#
# Indices 1 2 3 4 5 6 
#
# 1 0.016285 -0.004254 -0.001144 0.000915 0.010213 0.004158
# 2 -0.004254 0.013961 -0.006332 -0.000092 -0.004048 -0.003650
# 3 -0.001144 -0.006332 0.015002 -0.003978 0.011646 -0.000238
# 4 0.000915 -0.000092 -0.003978 0.043354 0.000397 0.008993
# 5 0.010213 -0.004048 0.011646 0.000397 0.057013 0.004958
# 6 0.004158 -0.003650 -0.000238 0.008993 0.004958 0.037393
#
#
# Mechanical properties :
#
#
# Convention : Reuss Voigt Hill
#
# Bulk Modulus (GPa) = 45.89391 65.12768 55.51080
# Shear Modulus (GPa) = 23.39385 28.09395 25.74390
#
# Velocity S-wave (km/s) = 3.50077 3.83636 3.67240
# Velocity P-wave (km/s) = 6.35477 7.33091 6.86022
#
# Compressibility (1/GPa) = 0.02178938
#
# Stress axis : x y z
#
# Youngs Moduli (GPa) = 61.40587 71.62656 66.65733
#
# Poissons Ratio (x) = 0.30470 0.07625
# Poissons Ratio (y) = 0.26122 0.42205
# Poissons Ratio (z) = 0.07024 0.45351
#
# Static dielectric constant tensor:
#      x y z
#    x 5.523780 1.495660 -1.817460 
#    y 1.495660 4.695850 -1.226310 
#    z -1.817460 -1.226310 4.876810 
# 
# 
# High freq. dielectric constant tensor:
#      x y z
#    x 1.751110 0.008360 -0.008710 
#    y 0.008360 1.738670 0.002600 
#    z -0.008710 0.002600 1.724120 
# 
# From -- ./inp_files/346068.got.cif
#   From: 2010.06.25/outbox.cif.g09.slc.cpg/sg2_174_cif.got.tgz:346068.got - 2010.06.27 13:26:56.
