data_PCOD8042770
_publ_section_title
;
Structure prediction by ZEFSAII (Michael W. Deem and Ramdas Pophale) SiO2 
 PCOD8042770
Probable space group: P -1
;
_chemical_formula_sum "Si O2"
_cell_formula_units_Z 16
_cell_length_a 22.890398
_cell_length_b 9.032175
_cell_length_c 18.869644
_cell_angle_alpha 52.277452
_cell_angle_beta 163.360498
_cell_angle_gamma 119.715683
_cell_volume 809.995099
_symmetry_space_group_name_H-M "P -1"
_symmetry_group_IT_number 2
_symmetry_cell_setting 'triclinic'
loop_
_space_group_symop_operation_xyz
x,y,z
-x,-y,-z
loop_
_atom_site_type_symbol
_atom_site_label
_atom_site_fract_x
_atom_site_fract_y
_atom_site_fract_z
Si Si1 0.177876 0.590470 0.423703
Si Si2 0.999618 0.721978 0.426046
Si Si3 0.474566 0.658116 0.986813
Si Si4 0.208512 0.395515 0.370560
Si Si5 0.448248 0.039502 0.107787
Si Si6 0.627010 0.086451 0.449341
Si Si7 0.816883 0.884593 0.013571
Si Si8 0.058348 0.758118 0.994086
O O1 0.138124 0.471146 0.346025
O O2 0.303798 0.730424 0.502156
O O3 0.936945 0.724205 0.137998
O O4 0.329541 0.429350 0.703742
O O5 0.955084 0.798543 0.270902
O O6 0.000000 0.500000 0.500000
O O7 0.235628 0.714121 0.729040
O O8 0.818039 0.881917 0.219984
O O9 0.480403 0.868086 0.904276
O O10 0.500000 0.500000 0.000000
O O11 0.019441 0.326813 0.140775
O O12 0.447328 0.205227 0.702800
O O13 0.229108 0.571867 0.293247
O O14 0.526272 0.128452 0.241159
O O15 0.846471 0.876023 0.764832
O O16 0.441776 0.079732 0.291083
O O17 0.820616 0.101247 0.934043
#
# Coordination Sequence:
#
# PCOD8042770 Si02
#       8
#     2   2   2   2   2   2   2   2
#     4  11  21  35  56  87 120 142 183 239 284 329
#     4  11  18  31  57  86 108 142 188 228 270 328
#     4  12  18  33  57  85 108 148 184 222 280 331
#     4  10  22  40  57  79 118 154 179 236 291 328
#     4  10  20  36  55  81 114 148 189 222 271 342
#     4   9  18  35  60  87 109 143 194 236 271 325
#     4  10  19  35  61  88 108 147 198 234 272 329
#     4   9  20  42  61  75 108 156 198 225 278 342
#
# _framework density 19.753205000000001
#
# number of rings (size 3 to 8) (size 9 to 14) (size 15 to 20)
#    0.000    1.750    3.750    2.250    0.000    2.500 
#    0.000   19.375    0.000    0.000    0.000    0.000 
#    0.000    0.000    0.000    0.000    0.000    0.000 
#
# Total GULP energy -198415.332204 kJ/mol
# GULP energy per Si atom -12400.958263 kJ/mol
# Density = 1.970825 g / cm^3
# Si number density = 19.753205 Si / 1000 Ang^3
#
#
#
# Elastic Constant Matrix: (Units=GPa)
#
#
# Indices 1 2 3 4 5 6 
#
# 1 106.1145 67.9107 56.5181 -6.7988 12.2257 8.6332
# 2 67.9107 83.1150 69.9186 -21.5608 10.9315 14.0644
# 3 56.5181 69.9186 105.1206 -18.3002 15.3646 19.0448
# 4 -6.7988 -21.5608 -18.3002 30.8874 11.9001 -2.8790
# 5 12.2257 10.9315 15.3646 11.9001 33.9322 5.1033
# 6 8.6332 14.0644 19.0448 -2.8790 5.1033 39.7215
#
#
#
# Elastic Compliance Matrix: (Units=1/GPa)
#
#
# Indices 1 2 3 4 5 6 
#
# 1 0.022030 -0.021192 -0.000377 -0.011030 0.002665 0.001754
# 2 -0.021192 0.051570 -0.016646 0.025013 -0.009822 -0.002598
# 3 -0.000377 -0.016646 0.022982 0.003690 -0.005592 -0.004057
# 4 -0.011030 0.025013 0.003690 0.059824 -0.026665 -0.000466
# 5 0.002665 -0.009822 -0.005592 -0.026665 0.043857 -0.001988
# 6 0.001754 -0.002598 -0.004057 -0.000466 -0.001988 0.027881
#
#
# Mechanical properties :
#
#
# Convention : Reuss Voigt Hill
#
# Bulk Modulus (GPa) = 49.62097 75.89387 62.75742
# Shear Modulus (GPa) = 16.06212 27.57507 21.81859
#
# Velocity S-wave (km/s) = 2.85465 3.74033 3.32710
# Velocity P-wave (km/s) = 6.00337 7.56029 6.82636
#
# Compressibility (1/GPa) = 0.02015277
#
# Stress axis : x y z
#
# Youngs Moduli (GPa) = 45.39179 19.39111 43.51252
#
# Poissons Ratio (x) = 0.41094 0.01639
# Poissons Ratio (y) = 0.96195 0.72431
# Poissons Ratio (z) = 0.01710 0.32278
#
# Static dielectric constant tensor:
#      x y z
#    x 3.533470 0.134080 0.090960 
#    y 0.134080 3.455980 -0.142670 
#    z 0.090960 -0.142670 3.840440 
# 
# 
# High freq. dielectric constant tensor:
#      x y z
#    x 1.756640 0.016310 0.002870 
#    y 0.016310 1.754780 -0.018710 
#    z 0.002870 -0.018710 1.775250 
# 
# From -- ./inp_files/273301.got.cif
#   From: 2010.06.25/outbox.cif.g09.slc.cpg/sg2_137_cif.got.tgz:273301.got - 2010.06.27 13:26:56.
