data_PCOD8042881
_publ_section_title
;
Structure prediction by ZEFSAII (Michael W. Deem and Ramdas Pophale) SiO2 
 PCOD8042881
Probable space group: P -1
;
_chemical_formula_sum "Si O2"
_cell_formula_units_Z 16
_cell_length_a 14.342988
_cell_length_b 14.251444
_cell_length_c 8.011381
_cell_angle_alpha 66.615389
_cell_angle_beta 117.707607
_cell_angle_gamma 150.630433
_cell_volume 710.917778
_symmetry_space_group_name_H-M "P -1"
_symmetry_group_IT_number 2
_symmetry_cell_setting 'triclinic'
loop_
_space_group_symop_operation_xyz
x,y,z
-x,-y,-z
loop_
_atom_site_type_symbol
_atom_site_label
_atom_site_fract_x
_atom_site_fract_y
_atom_site_fract_z
Si Si1 0.744490 0.450961 0.259578
Si Si2 0.237666 0.387586 0.307516
Si Si3 0.421733 0.429465 0.719678
Si Si4 0.357570 0.244963 0.099751
Si Si5 0.952456 0.166616 0.946290
Si Si6 0.883152 0.517108 0.684589
Si Si7 0.278504 0.827369 0.241293
Si Si8 0.729167 0.212886 0.345908
O O1 0.527068 0.308442 0.130906
O O2 0.751465 0.439568 0.470931
O O3 0.786232 0.378549 0.253231
O O4 0.895385 0.661243 0.179693
O O5 0.246337 0.330867 0.527521
O O6 0.454311 0.555146 0.286647
O O7 0.182918 0.461667 0.237900
O O8 0.068767 0.208559 0.167341
O O9 0.575106 0.645312 0.749900
O O10 0.316800 0.297434 0.888236
O O11 0.162638 0.016586 0.120327
O O12 0.809441 0.137677 0.921221
O O13 0.831349 0.358208 0.806859
O O14 0.115535 0.720408 0.688217
O O15 0.243226 0.797624 0.432025
O O16 0.506951 0.006964 0.251453
#
# Coordination Sequence:
#
# PCOD8042881 Si02
#       8
#     2   2   2   2   2   2   2   2
#     4  11  19  39  66  97 128 168 218 261 308 383
#     4  11  25  43  65  94 137 167 207 267 336 375
#     4  10  24  48  67  92 125 170 218 276 319 369
#     4  11  23  44  75  90 120 170 225 270 312 372
#     4  12  23  40  68 101 126 167 213 262 321 391
#     4  11  21  39  63  93 136 177 198 259 322 378
#     4  10  20  35  63  99 128 167 218 253 305 391
#     4  10  19  35  63  96 132 166 217 261 300 374
#
# _framework density 22.506119999999999
#
# number of rings (size 3 to 8) (size 9 to 14) (size 15 to 20)
#    0.000    1.250    6.250    0.750    0.000    1.500 
#    2.250    1.875    0.000    0.000    0.000    0.000 
#    0.000    0.000    0.000    0.000    0.000    0.000 
#
# Total GULP energy -198390.083563 kJ/mol
# GULP energy per Si atom -12399.380223 kJ/mol
# Density = 2.245490 g / cm^3
# Si number density = 22.506120 Si / 1000 Ang^3
#
#
#
# Elastic Constant Matrix: (Units=GPa)
#
#
# Indices 1 2 3 4 5 6 
#
# 1 98.9289 22.1039 1.3282 -2.0750 10.3962 0.4150
# 2 22.1039 127.7100 24.0329 -7.8791 5.4748 -2.8700
# 3 1.3282 24.0329 75.4178 3.9068 17.7519 -5.1939
# 4 -2.0750 -7.8791 3.9068 24.3760 4.7947 4.4604
# 5 10.3962 5.4748 17.7519 4.7947 24.5332 5.6056
# 6 0.4150 -2.8700 -5.1939 4.4604 5.6056 24.9927
#
#
#
# Elastic Compliance Matrix: (Units=1/GPa)
#
#
# Indices 1 2 3 4 5 6 
#
# 1 0.011178 -0.001939 0.001896 0.001013 -0.006145 0.001183
# 2 -0.001939 0.008918 -0.003115 0.003163 0.000530 -0.000275
# 3 0.001896 -0.003115 0.018224 -0.002208 -0.014472 0.007038
# 4 0.001013 0.003163 -0.002208 0.045041 -0.006828 -0.006619
# 5 -0.006145 0.000530 -0.014472 -0.006828 0.058418 -0.014729
# 6 0.001183 -0.000275 0.007038 -0.006619 -0.014729 0.045908
#
#
# Mechanical properties :
#
#
# Convention : Reuss Voigt Hill
#
# Bulk Modulus (GPa) = 31.24546 44.10963 37.67755
# Shear Modulus (GPa) = 24.42936 31.75315 28.09126
#
# Velocity S-wave (km/s) = 3.29820 3.76023 3.53676
# Velocity P-wave (km/s) = 5.33080 6.20435 5.78408
#
# Compressibility (1/GPa) = 0.03200464
#
# Stress axis : x y z
#
# Youngs Moduli (GPa) = 89.46088 112.12854 54.87174
#
# Poissons Ratio (x) = 0.21742 -0.10406
# Poissons Ratio (y) = 0.17347 0.17095
# Poissons Ratio (z) = -0.16965 0.34932
#
# Static dielectric constant tensor:
#      x y z
#    x 4.060810 0.011430 0.328430 
#    y 0.011430 3.915950 0.148380 
#    z 0.328430 0.148380 4.039030 
# 
# 
# High freq. dielectric constant tensor:
#      x y z
#    x 1.888520 0.006620 0.023160 
#    y 0.006620 1.867840 0.011830 
#    z 0.023160 0.011830 1.879060 
# 
# From -- ./inp_files/312860.got.cif
#   From: 2010.06.25/outbox.cif.g09.slc.cpg/sg2_157_cif.got.tgz:312860.got - 2010.06.27 13:26:56.
