data_PCOD8042359
_publ_section_title
;
Structure prediction by ZEFSAII (Michael W. Deem and Ramdas Pophale) SiO2 
 PCOD8042359
Probable space group: P -1
;
_chemical_formula_sum "Si O2"
_cell_formula_units_Z 16
_cell_length_a 11.638411
_cell_length_b 8.069192
_cell_length_c 14.655826
_cell_angle_alpha 77.650117
_cell_angle_beta 88.632138
_cell_angle_gamma 34.693076
_cell_volume 736.126997
_symmetry_space_group_name_H-M "P -1"
_symmetry_group_IT_number 2
_symmetry_cell_setting 'triclinic'
loop_
_space_group_symop_operation_xyz
x,y,z
-x,-y,-z
loop_
_atom_site_type_symbol
_atom_site_label
_atom_site_fract_x
_atom_site_fract_y
_atom_site_fract_z
Si Si1 0.275053 0.440426 0.707662
Si Si2 0.119654 0.957754 0.726061
Si Si3 0.114523 0.469903 0.872553
Si Si4 0.264614 0.145479 0.275526
Si Si5 0.037240 0.436548 0.612737
Si Si6 0.925911 0.825008 0.009107
Si Si7 0.482083 0.516482 0.106635
Si Si8 0.205802 0.592620 0.174473
O O1 0.135783 0.787461 0.669986
O O2 0.291964 0.341984 0.822542
O O3 0.188220 0.402609 0.646269
O O4 0.502250 0.218431 0.692064
O O5 0.308330 0.678874 0.825790
O O6 0.139185 0.124500 0.666384
O O7 0.896583 0.214894 0.751734
O O8 0.899249 0.771947 0.784579
O O9 0.151761 0.222209 0.910862
O O10 0.106805 0.546808 0.967091
O O11 0.186435 0.266536 0.367044
O O12 0.267242 0.321767 0.204934
O O13 0.000000 0.500000 0.500000
O O14 0.029833 0.841396 0.069083
O O15 0.729881 0.114529 0.914417
O O16 0.426158 0.405582 0.166263
O O17 0.500000 0.500000 0.000000
#
# Coordination Sequence:
#
# PCOD8042359 Si02
#       8
#     2   2   2   2   2   2   2   2
#     4  11  22  39  67  90 125 160 201 257 315 362
#     4  11  24  42  63  93 124 165 209 249 312 369
#     4   9  20  35  53  80 125 164 206 256 293 351
#     4   9  20  39  62  88 121 161 203 247 316 373
#     4  10  24  47  70  92 122 154 198 262 320 381
#     4  10  19  35  50  80 120 170 219 250 293 342
#     4  12  23  31  54  85 123 164 211 251 286 346
#     4  10  21  37  54  81 127 173 210 254 294 350
#
# _framework density 21.735381
#
# number of rings (size 3 to 8) (size 9 to 14) (size 15 to 20)
#    0.000    1.750    1.250    3.375    3.500    2.000 
#    0.000    3.125    0.000    0.000    0.000    0.000 
#    0.000    0.000    0.000    0.000    0.000    0.000 
#
# Total GULP energy -198234.353715 kJ/mol
# GULP energy per Si atom -12389.647107 kJ/mol
# Density = 2.168591 g / cm^3
# Si number density = 21.735381 Si / 1000 Ang^3
#
#
#
# Elastic Constant Matrix: (Units=GPa)
#
#
# Indices 1 2 3 4 5 6 
#
# 1 66.5752 18.5903 20.3937 9.0172 0.7509 3.5342
# 2 18.5903 80.1577 20.2737 14.3665 -1.6347 -2.6132
# 3 20.3937 20.2737 93.1638 16.3810 -4.4722 2.6119
# 4 9.0172 14.3665 16.3810 22.8010 -1.5655 -1.8534
# 5 0.7509 -1.6347 -4.4722 -1.5655 17.5275 4.3724
# 6 3.5342 -2.6132 2.6119 -1.8534 4.3724 36.4283
#
#
#
# Elastic Compliance Matrix: (Units=1/GPa)
#
#
# Indices 1 2 3 4 5 6 
#
# 1 0.017160 -0.002803 -0.002573 -0.003413 -0.001541 -0.001670
# 2 -0.002803 0.014787 -0.001369 -0.007124 0.000255 0.001038
# 3 -0.002573 -0.001369 0.013092 -0.007441 0.003040 -0.001531
# 4 -0.003413 -0.007124 -0.007441 0.055406 0.001794 0.002957
# 5 -0.001541 0.000255 0.003040 0.001794 0.059861 -0.007144
# 6 -0.001670 0.001038 -0.001531 0.002957 -0.007144 0.028805
#
#
# Mechanical properties :
#
#
# Convention : Reuss Voigt Hill
#
# Bulk Modulus (GPa) = 31.69647 39.82357 35.76002
# Shear Modulus (GPa) = 23.46115 27.39398 25.42756
#
# Velocity S-wave (km/s) = 3.28898 3.55398 3.42405
# Velocity P-wave (km/s) = 5.38867 5.93319 5.66748
#
# Compressibility (1/GPa) = 0.03154925
#
# Stress axis : x y z
#
# Youngs Moduli (GPa) = 58.27535 67.62494 76.38104
#
# Poissons Ratio (x) = 0.18956 0.19656
# Poissons Ratio (y) = 0.16335 0.10454
# Poissons Ratio (z) = 0.14997 0.09256
#
# Static dielectric constant tensor:
#      x y z
#    x 3.973730 0.003910 -0.070880 
#    y 0.003910 4.083730 0.096620 
#    z -0.070880 0.096620 3.534180 
# 
# 
# High freq. dielectric constant tensor:
#      x y z
#    x 1.857800 0.002570 -0.008510 
#    y 0.002570 1.854440 0.017850 
#    z -0.008510 0.017850 1.811200 
# 
# From -- ./inp_files/284773.got.cif
#   From: 2010.06.25/outbox.cif.g09.slc.cpg/sg2_143_cif.got.tgz:284773.got - 2010.06.27 13:26:56.
