data_PCOD8042905
_publ_section_title
;
Structure prediction by ZEFSAII (Michael W. Deem and Ramdas Pophale) SiO2 
 PCOD8042905
Probable space group: P -1
;
_chemical_formula_sum "Si O2"
_cell_formula_units_Z 14
_cell_length_a 15.192144
_cell_length_b 7.211561
_cell_length_c 11.493091
_cell_angle_alpha 90.295456
_cell_angle_beta 129.321350
_cell_angle_gamma 128.837959
_cell_volume 564.607788
_symmetry_space_group_name_H-M "P -1"
_symmetry_group_IT_number 2
_symmetry_cell_setting 'triclinic'
loop_
_space_group_symop_operation_xyz
x,y,z
-x,-y,-z
loop_
_atom_site_type_symbol
_atom_site_label
_atom_site_fract_x
_atom_site_fract_y
_atom_site_fract_z
Si Si1 0.295489 0.388847 0.286249
Si Si2 0.120254 0.350574 0.328248
Si Si3 0.376152 0.681166 0.754330
Si Si4 0.726630 0.113800 0.690295
Si Si5 0.380096 0.647248 0.016609
Si Si6 0.117427 0.451108 0.977325
Si Si7 0.324478 0.203455 0.097643
O O1 0.175293 0.228442 0.307937
O O2 0.159076 0.320890 0.083438
O O3 0.322975 0.224964 0.240593
O O4 0.509502 0.757686 0.481178
O O5 0.179103 0.410854 0.512144
O O6 0.250881 0.671986 0.368391
O O7 0.894298 0.108482 0.135961
O O8 0.550028 0.806035 0.833797
O O9 0.428772 0.968022 0.815246
O O10 0.333169 0.532731 0.843290
O O11 0.772845 0.227947 0.865752
O O12 0.884353 0.172747 0.777425
O O13 0.197259 0.522985 0.914455
O O14 0.422521 0.518148 0.125323
#
# Coordination Sequence:
#
# PCOD8042905 Si02
#       7
#     2   2   2   2   2   2   2
#     4  10  21  37  60  91 126 160 200 250 304 365
#     4  11  22  37  60  94 125 157 204 252 303 364
#     4  11  24  43  65  87 122 165 204 251 302 357
#     4  10  19  35  64  93 122 163 201 244 308 367
#     4  10  22  44  65  87 122 163 206 251 299 358
#     4   9  18  35  61  90 121 156 200 251 296 352
#     4  11  24  41  63  92 124 159 203 253 303 360
#
# _framework density 24.795974999999999
#
# number of rings (size 3 to 8) (size 9 to 14) (size 15 to 20)
#    0.000    1.714    0.000    6.000    0.000    5.714 
#    0.000   10.714    0.000    0.000    0.000    0.000 
#    0.000    0.000    0.000    0.000    0.000    0.000 
#
# Total GULP energy -173616.190991 kJ/mol
# GULP energy per Si atom -12401.156499 kJ/mol
# Density = 2.473954 g / cm^3
# Si number density = 24.795975 Si / 1000 Ang^3
#
#
#
# Elastic Constant Matrix: (Units=GPa)
#
#
# Indices 1 2 3 4 5 6 
#
# 1 109.5702 12.3881 22.4021 -10.0387 -9.7299 5.1968
# 2 12.3881 49.2911 24.3472 -3.9248 -11.0972 8.1131
# 3 22.4021 24.3472 68.9707 -6.5882 -0.1184 -6.0517
# 4 -10.0387 -3.9248 -6.5882 32.2602 8.6461 -7.5675
# 5 -9.7299 -11.0972 -0.1184 8.6461 38.9017 -6.5499
# 6 5.1968 8.1131 -6.0517 -7.5675 -6.5499 38.1782
#
#
#
# Elastic Compliance Matrix: (Units=1/GPa)
#
#
# Indices 1 2 3 4 5 6 
#
# 1 0.010180 -0.000246 -0.003156 0.001713 0.001889 -0.001170
# 2 -0.000246 0.028231 -0.010707 -0.002409 0.007336 -0.006882
# 3 -0.003156 -0.010707 0.020244 0.004279 -0.003701 0.006127
# 4 0.001713 -0.002409 0.004279 0.035587 -0.007009 0.006809
# 5 0.001889 0.007336 -0.003701 -0.007009 0.030047 0.001363
# 6 -0.001170 -0.006882 0.006127 0.006809 0.001363 0.030369
#
#
# Mechanical properties :
#
#
# Convention : Reuss Voigt Hill
#
# Bulk Modulus (GPa) = 32.85456 38.45630 35.65543
# Shear Modulus (GPa) = 25.90411 33.11432 29.50922
#
# Velocity S-wave (km/s) = 3.23567 3.65838 3.45350
# Velocity P-wave (km/s) = 5.21902 5.77821 5.50572
#
# Compressibility (1/GPa) = 0.03043717
#
# Stress axis : x y z
#
# Youngs Moduli (GPa) = 98.23544 35.42253 49.39846
#
# Poissons Ratio (x) = 0.00870 0.15588
# Poissons Ratio (y) = 0.02412 0.52892
# Poissons Ratio (z) = 0.30999 0.37928
#
# Static dielectric constant tensor:
#      x y z
#    x 5.386770 -0.405380 -0.087100 
#    y -0.405380 4.794230 -0.174660 
#    z -0.087100 -0.174660 4.342100 
# 
# 
# High freq. dielectric constant tensor:
#      x y z
#    x 2.000800 -0.019340 -0.001500 
#    y -0.019340 1.996540 0.006370 
#    z -0.001500 0.006370 1.979530 
# 
# From -- ./inp_files/446119.got.cif
#   From: 2010.06.25/outbox.cif.g09.slc.cpg/sg2_224_cif.got.tgz:446119.got - 2010.06.27 13:26:56.
