data_PCOD8042430
_publ_section_title
;
Structure prediction by ZEFSAII (Michael W. Deem and Ramdas Pophale) SiO2 
 PCOD8042430
Probable space group: P -1
;
_chemical_formula_sum "Si O2"
_cell_formula_units_Z 16
_cell_length_a 18.176738
_cell_length_b 8.655734
_cell_length_c 20.976033
_cell_angle_alpha 54.846049
_cell_angle_beta 160.831033
_cell_angle_gamma 116.017348
_cell_volume 815.129196
_symmetry_space_group_name_H-M "P -1"
_symmetry_group_IT_number 2
_symmetry_cell_setting 'triclinic'
loop_
_space_group_symop_operation_xyz
x,y,z
-x,-y,-z
loop_
_atom_site_type_symbol
_atom_site_label
_atom_site_fract_x
_atom_site_fract_y
_atom_site_fract_z
Si Si1 0.441439 0.512076 0.022714
Si Si2 0.690694 0.696298 0.934992
Si Si3 0.958113 0.220168 0.240847
Si Si4 0.922139 0.841114 0.513382
Si Si5 0.981409 0.069062 0.867642
Si Si6 0.689740 0.977760 0.538130
Si Si7 0.481692 0.187220 0.897322
Si Si8 0.647391 0.259420 0.665569
O O1 0.592032 0.618425 0.161000
O O2 0.500000 0.500000 0.000000
O O3 0.467360 0.303482 0.130168
O O4 0.156446 0.637373 0.762969
O O5 0.850360 0.467466 0.095349
O O6 0.863280 0.814754 0.064849
O O7 0.500385 0.810562 0.696798
O O8 0.144068 0.102036 0.479746
O O9 0.102573 0.149430 0.311105
O O10 0.733454 0.146206 0.077034
O O11 0.721149 0.780698 0.329413
O O12 0.000000 0.000000 0.500000
O O13 0.812890 0.030682 0.686753
O O14 0.809567 0.220516 0.744220
O O15 0.166652 0.849442 0.098730
O O16 0.549862 0.839691 0.480596
O O17 0.500000 0.000000 0.000000
O O18 0.500000 0.500000 0.500000
#
# Coordination Sequence:
#
# PCOD8042430 Si02
#       8
#     2   2   2   2   2   2   2   2
#     4  10  23  36  56  87 117 153 205 259 300 352
#     4   9  22  40  54  85 125 153 200 249 294 355
#     4  10  23  37  57  85 117 155 205 248 299 360
#     4  10  19  37  57  76 111 156 196 252 301 347
#     4  10  22  40  62  91 123 157 194 243 294 358
#     4  11  23  38  63  91 119 160 195 244 301 353
#     4  10  19  35  56  78 107 152 200 244 303 355
#     4  10  22  41  65  92 123 155 193 237 296 362
#
# _framework density 19.628789999999999
#
# number of rings (size 3 to 8) (size 9 to 14) (size 15 to 20)
#    0.000    2.250    2.500    1.125    1.750    9.000 
#    0.000    0.000    0.000    0.000    0.000    0.000 
#    0.000    0.000    0.000    0.000    0.000    0.000 
#
# Total GULP energy -198269.358671 kJ/mol
# GULP energy per Si atom -12391.834917 kJ/mol
# Density = 1.958411 g / cm^3
# Si number density = 19.628790 Si / 1000 Ang^3
#
#
#
# Elastic Constant Matrix: (Units=GPa)
#
#
# Indices 1 2 3 4 5 6 
#
# 1 91.7054 58.0427 26.3021 3.5354 -10.5171 7.4134
# 2 58.0427 127.1276 72.8921 11.7686 -19.3094 13.5018
# 3 26.3021 72.8921 106.4745 13.0806 -22.9198 -8.3167
# 4 3.5354 11.7686 13.0806 48.1878 -9.2691 -4.8860
# 5 -10.5171 -19.3094 -22.9198 -9.2691 31.7531 1.8011
# 6 7.4134 13.5018 -8.3167 -4.8860 1.8011 29.7020
#
#
#
# Elastic Compliance Matrix: (Units=1/GPa)
#
#
# Indices 1 2 3 4 5 6 
#
# 1 0.015618 -0.008124 0.002057 0.000682 0.001895 0.000368
# 2 -0.008124 0.019950 -0.012092 -0.001942 0.000758 -0.010792
# 3 0.002057 -0.012092 0.019409 -0.000161 0.006725 0.009984
# 4 0.000682 -0.001942 -0.000161 0.022655 0.005311 0.004072
# 5 0.001895 0.000758 0.006725 0.005311 0.039010 -0.000427
# 6 0.000368 -0.010792 0.009984 0.004072 -0.000427 0.041973
#
#
# Mechanical properties :
#
#
# Convention : Reuss Voigt Hill
#
# Bulk Modulus (GPa) = 53.59660 71.08683 62.34171
# Shear Modulus (GPa) = 24.85679 33.13329 28.99504
#
# Velocity S-wave (km/s) = 3.56243 4.11298 3.84757
# Velocity P-wave (km/s) = 6.65474 7.67135 7.18106
#
# Compressibility (1/GPa) = 0.01865790
#
# Stress axis : x y z
#
# Youngs Moduli (GPa) = 64.02861 50.12586 51.52268
#
# Poissons Ratio (x) = 0.40725 -0.10597
# Poissons Ratio (y) = 0.52020 0.62300
# Poissons Ratio (z) = -0.13170 0.60611
#
# Static dielectric constant tensor:
#      x y z
#    x 4.518900 0.975570 -0.349360 
#    y 0.975570 3.740670 -0.114170 
#    z -0.349360 -0.114170 3.550440 
# 
# 
# High freq. dielectric constant tensor:
#      x y z
#    x 1.771850 0.015210 -0.007400 
#    y 0.015210 1.766080 0.004520 
#    z -0.007400 0.004520 1.769350 
# 
# From -- ./inp_files/577361.got.cif
#   From: 2010.06.25/outbox.cif.g09.slc.cpg/sg2_289_cif.got.tgz:577361.got - 2010.06.27 13:26:56.
