data_PCOD8042282
_publ_section_title
;
Structure prediction by ZEFSAII (Michael W. Deem and Ramdas Pophale) SiO2 
 PCOD8042282
Probable space group: P -1
;
_chemical_formula_sum "Si O2"
_cell_formula_units_Z 14
_cell_length_a 15.059307
_cell_length_b 9.355353
_cell_length_c 9.567042
_cell_angle_alpha 45.563209
_cell_angle_beta 46.284153
_cell_angle_gamma 65.966585
_cell_volume 687.899661
_symmetry_space_group_name_H-M "P -1"
_symmetry_group_IT_number 2
_symmetry_cell_setting 'triclinic'
loop_
_space_group_symop_operation_xyz
x,y,z
-x,-y,-z
loop_
_atom_site_type_symbol
_atom_site_label
_atom_site_fract_x
_atom_site_fract_y
_atom_site_fract_z
Si Si1 0.288715 0.964311 0.515656
Si Si2 0.761278 0.755529 0.864288
Si Si3 0.812990 0.001235 0.912935
Si Si4 0.021509 0.774502 0.908985
Si Si5 0.971520 0.328560 0.348443
Si Si6 0.442777 0.605186 0.619061
Si Si7 0.389862 0.118736 0.571159
O O1 0.153861 0.846992 0.785612
O O2 0.387632 0.808008 0.496065
O O3 0.285091 0.075984 0.296592
O O4 0.322651 0.132781 0.485297
O O5 0.898298 0.715058 0.698272
O O6 0.763693 0.829440 0.970801
O O7 0.667541 0.549136 0.088092
O O8 0.859731 0.217441 0.641620
O O9 0.924767 0.930633 0.929903
O O10 0.700952 0.018080 0.128259
O O11 0.045087 0.760358 0.727626
O O12 0.962821 0.565430 0.189438
O O13 0.500000 0.500000 0.500000
O O14 0.553775 0.664070 0.571834
O O15 0.500000 0.000000 0.500000
#
# Coordination Sequence:
#
# PCOD8042282 Si02
#       7
#     2   2   2   2   2   2   2
#     4  11  22  41  64  92 129 161 200 262 324 353
#     4  11  20  37  68  95 121 161 210 260 304 368
#     4  11  20  39  64  93 123 161 211 249 307 376
#     4  10  19  34  63  97 125 158 197 263 314 360
#     4  10  19  34  62 101 125 151 208 260 307 362
#     4  11  23  42  65  88 123 168 216 250 296 371
#     4  10  25  45  61  87 132 170 199 260 312 366
#
# _framework density 20.351804000000001
#
# number of rings (size 3 to 8) (size 9 to 14) (size 15 to 20)
#    0.000    1.429    5.714    0.857    0.000    1.714 
#    0.000    3.571    0.000    0.000    0.000    0.000 
#    0.000    0.000    0.000    0.000    0.000    0.000 
#
# Total GULP energy -173576.631965 kJ/mol
# GULP energy per Si atom -12398.330855 kJ/mol
# Density = 2.030548 g / cm^3
# Si number density = 20.351804 Si / 1000 Ang^3
#
#
#
# Elastic Constant Matrix: (Units=GPa)
#
#
# Indices 1 2 3 4 5 6 
#
# 1 108.8766 42.7773 36.0814 -5.7661 -13.7372 7.7962
# 2 42.7773 78.5332 41.4020 1.2776 -3.5058 4.0196
# 3 36.0814 41.4020 92.9552 -0.4610 -11.5013 -10.1862
# 4 -5.7661 1.2776 -0.4610 33.0376 -3.0623 -0.9232
# 5 -13.7372 -3.5058 -11.5013 -3.0623 31.0019 -12.3054
# 6 7.7962 4.0196 -10.1862 -0.9232 -12.3054 29.9774
#
#
#
# Elastic Compliance Matrix: (Units=1/GPa)
#
#
# Indices 1 2 3 4 5 6 
#
# 1 0.012880 -0.005662 -0.002164 0.002750 0.003882 -0.001648
# 2 -0.005662 0.020355 -0.008399 -0.002663 -0.006272 -0.006768
# 3 -0.002164 -0.008399 0.017794 0.001398 0.009459 0.011662
# 4 0.002750 -0.002663 0.001398 0.031521 0.005951 0.003531
# 5 0.003882 -0.006272 0.009459 0.005951 0.046168 0.022181
# 6 -0.001648 -0.006768 0.011662 0.003531 0.022181 0.047871
#
#
# Mechanical properties :
#
#
# Convention : Reuss Voigt Hill
#
# Bulk Modulus (GPa) = 53.82615 57.87627 55.85121
# Shear Modulus (GPa) = 23.23058 29.47700 26.35379
#
# Velocity S-wave (km/s) = 3.38220 3.80988 3.60239
# Velocity P-wave (km/s) = 6.46202 6.91760 6.69369
#
# Compressibility (1/GPa) = 0.01857833
#
# Stress axis : x y z
#
# Youngs Moduli (GPa) = 77.64049 49.12733 56.19767
#
# Poissons Ratio (x) = 0.27815 0.12163
# Poissons Ratio (y) = 0.43958 0.47203
# Poissons Ratio (z) = 0.16804 0.41264
#
# Static dielectric constant tensor:
#      x y z
#    x 4.467070 0.435910 -0.383160 
#    y 0.435910 3.694450 -0.203270 
#    z -0.383160 -0.203270 3.717660 
# 
# 
# High freq. dielectric constant tensor:
#      x y z
#    x 1.805100 0.003220 -0.017780 
#    y 0.003220 1.770460 -0.007240 
#    z -0.017780 -0.007240 1.793470 
# 
# From -- ./inp_files/178284.got.cif
#   From: 2010.06.25/outbox.cif.g09.slc.cpg/sg2_90_cif.got.tgz:178284.got - 2010.06.27 13:26:56.
