data_PCOD8042199
_publ_section_title
;
Structure prediction by ZEFSAII (Michael W. Deem and Ramdas Pophale) SiO2 
 PCOD8042199
Probable space group: P -1
;
_chemical_formula_sum "Si O2"
_cell_formula_units_Z 16
_cell_length_a 17.179604
_cell_length_b 13.220349
_cell_length_c 9.061463
_cell_angle_alpha 139.366603
_cell_angle_beta 137.991475
_cell_angle_gamma 44.820680
_cell_volume 845.531062
_symmetry_space_group_name_H-M "P -1"
_symmetry_group_IT_number 2
_symmetry_cell_setting 'triclinic'
loop_
_space_group_symop_operation_xyz
x,y,z
-x,-y,-z
loop_
_atom_site_type_symbol
_atom_site_label
_atom_site_fract_x
_atom_site_fract_y
_atom_site_fract_z
Si Si1 0.209597 0.200789 0.323044
Si Si2 0.314306 0.638808 0.652950
Si Si3 0.040736 0.836655 0.971902
Si Si4 0.250494 0.795873 0.446130
Si Si5 0.437020 0.978239 0.538805
Si Si6 0.568784 0.358117 0.726689
Si Si7 0.775164 0.440268 0.268717
Si Si8 0.660433 0.034007 0.007804
O O1 0.207003 0.385688 0.519895
O O2 0.254538 0.119944 0.137474
O O3 0.073846 0.200003 0.160514
O O4 0.297037 0.104528 0.475272
O O5 0.245813 0.668002 0.428684
O O6 0.431731 0.474870 0.630775
O O7 0.218609 0.621842 0.622523
O O8 0.355552 0.798183 0.922196
O O9 0.115438 0.686007 0.808081
O O10 0.123494 0.859721 0.249757
O O11 0.000000 0.000000 0.000000
O O12 0.365574 0.703227 0.403157
O O13 0.276013 0.954432 0.732006
O O14 0.434941 0.795432 0.351893
O O15 0.524612 0.019702 0.831835
O O16 0.500000 0.000000 0.500000
O O17 0.641849 0.454919 0.030508
#
# Coordination Sequence:
#
# PCOD8042199 Si02
#       8
#     2   2   2   2   2   2   2   2
#     4  11  21  38  61  88 121 158 199 245 289 350
#     4  10  19  37  59  88 119 156 192 243 301 349
#     4  11  23  43  65  85 115 156 206 247 291 354
#     4   9  23  38  61  88 120 156 198 242 306 345
#     4  10  19  34  59  92 119 151 195 242 291 348
#     4  11  20  36  61  90 124 158 197 241 298 356
#     4  11  22  37  62  89 115 158 204 242 292 352
#     4   9  20  36  58  86 125 148 195 238 303 346
#
# _framework density 18.923017000000002
#
# number of rings (size 3 to 8) (size 9 to 14) (size 15 to 20)
#    0.750    1.000    0.000    7.125    0.000    1.000 
#    0.000    0.625    8.250    0.000    0.000    0.000 
#    0.000    0.000    0.000    0.000    0.000    0.000 
#
# Total GULP energy -198331.782573 kJ/mol
# GULP energy per Si atom -12395.736411 kJ/mol
# Density = 1.887995 g / cm^3
# Si number density = 18.923017 Si / 1000 Ang^3
#
#
#
# Elastic Constant Matrix: (Units=GPa)
#
#
# Indices 1 2 3 4 5 6 
#
# 1 67.1581 12.6945 55.1466 -15.8596 -13.0043 -6.8296
# 2 12.6945 80.0796 53.7770 -3.0180 -22.2406 -8.2292
# 3 55.1466 53.7770 135.6148 -2.6219 -5.1154 -2.2672
# 4 -15.8596 -3.0180 -2.6219 38.4852 1.9643 3.5841
# 5 -13.0043 -22.2406 -5.1154 1.9643 20.2619 -7.3389
# 6 -6.8296 -8.2292 -2.2672 3.5841 -7.3389 28.9289
#
#
#
# Elastic Compliance Matrix: (Units=1/GPa)
#
#
# Indices 1 2 3 4 5 6 
#
# 1 0.099747 0.083703 -0.065612 0.027185 0.166023 0.080967
# 2 0.083703 0.103717 -0.066502 0.020767 0.180362 0.087235
# 3 -0.065612 -0.066502 0.054554 -0.016893 -0.120967 -0.058727
# 4 0.027185 0.020767 -0.016893 0.034146 0.038673 0.016582
# 5 0.166023 0.180362 -0.120967 0.038673 0.382337 0.173223
# 6 0.080967 0.087235 -0.058727 0.016582 0.173223 0.115785
#
#
# Mechanical properties :
#
#
# Convention : Reuss Voigt Hill
#
# Bulk Modulus (GPa) = 6.20360 58.45431 32.32895
# Shear Modulus (GPa) = 5.31440 28.28415 16.79927
#
# Velocity S-wave (km/s) = 1.67766 3.87032 2.98278
# Velocity P-wave (km/s) = 2.65295 7.13654 5.38369
#
# Compressibility (1/GPa) = 0.16119681
#
# Stress axis : x y z
#
# Youngs Moduli (GPa) = 10.02537 9.64160 18.33044
#
# Poissons Ratio (x) = -0.80704 1.20269
# Poissons Ratio (y) = -0.83916 1.21902
# Poissons Ratio (z) = 0.65778 0.64119
#
# Static dielectric constant tensor:
#      x y z
#    x 3.677080 -0.044780 0.042890 
#    y -0.044780 3.452120 -0.095740 
#    z 0.042890 -0.095740 3.674280 
# 
# 
# High freq. dielectric constant tensor:
#      x y z
#    x 1.736060 0.000140 0.001390 
#    y 0.000140 1.731850 0.004790 
#    z 0.001390 0.004790 1.734760 
# 
# From -- ./inp_files/333963.got.cif
#   From: 2010.06.25/outbox.cif.g09.slc.cpg/sg2_167_cif.got.tgz:333963.got - 2010.06.27 13:26:56.
