data_PCOD8042100
_publ_section_title
;
Structure prediction by ZEFSAII (Michael W. Deem and Ramdas Pophale) SiO2 
 PCOD8042100
Probable space group: P -1
;
_chemical_formula_sum "Si O2"
_cell_formula_units_Z 12
_cell_length_a 4.974007
_cell_length_b 12.020543
_cell_length_c 13.384847
_cell_angle_alpha 53.332692
_cell_angle_beta 85.974285
_cell_angle_gamma 66.586792
_cell_volume 573.689593
_symmetry_space_group_name_H-M "P -1"
_symmetry_group_IT_number 2
_symmetry_cell_setting 'triclinic'
loop_
_space_group_symop_operation_xyz
x,y,z
-x,-y,-z
loop_
_atom_site_type_symbol
_atom_site_label
_atom_site_fract_x
_atom_site_fract_y
_atom_site_fract_z
Si Si1 0.405419 0.026763 0.190786
Si Si2 0.865461 0.759104 0.423886
Si Si3 0.006157 0.884643 0.174291
Si Si4 0.488485 0.580925 0.561330
Si Si5 0.850821 0.631327 0.014382
Si Si6 0.692917 0.355028 0.859218
O O1 0.201381 0.206602 0.123185
O O2 0.587096 0.934719 0.336523
O O3 0.207676 0.947253 0.195898
O O4 0.657912 0.015128 0.107682
O O5 0.747533 0.636023 0.523209
O O6 0.996343 0.740779 0.315484
O O7 0.152126 0.725935 0.505313
O O8 0.133459 0.821572 0.094565
O O9 0.500000 0.500000 0.500000
O O10 0.525330 0.470481 0.712546
O O11 0.538514 0.636386 0.054209
O O12 0.000000 0.500000 0.000000
O O13 0.064758 0.598771 0.122026
#
# Coordination Sequence:
#
# PCOD8042100 Si02
#       6
#     2   2   2   2   2   2
#     4  10  20  40  62  90 124 163 203 255 307 375
#     4  10  19  34  57  93 127 161 181 237 317 380
#     4  10  20  36  59 103 121 155 192 245 330 369
#     4  12  20  34  60  93 139 154 185 243 317 398
#     4  12  28  46  63  83 122 175 220 259 289 348
#     4  12  25  39  64  97 126 163 205 248 315 372
#
# _framework density 20.917235000000002
#
# number of rings (size 3 to 8) (size 9 to 14) (size 15 to 20)
#    1.000    0.000    3.333    4.000    2.333    4.000 
#    0.000    0.000    0.000    6.000    0.000    0.000 
#    0.000    0.000    0.000    0.000    0.000    0.000 
#
# Total GULP energy -148660.337989 kJ/mol
# GULP energy per Si atom -12388.361499 kJ/mol
# Density = 2.086963 g / cm^3
# Si number density = 20.917235 Si / 1000 Ang^3
#
#
#
# Elastic Constant Matrix: (Units=GPa)
#
#
# Indices 1 2 3 4 5 6 
#
# 1 126.6529 32.5637 5.8400 -5.2614 -3.9156 -2.2368
# 2 32.5637 125.1798 24.5713 -6.4601 0.4386 -3.3933
# 3 5.8400 24.5713 43.6062 -15.1479 3.4910 3.2235
# 4 -5.2614 -6.4601 -15.1479 13.9067 -1.5242 -1.9674
# 5 -3.9156 0.4386 3.4910 -1.5242 39.3965 1.1478
# 6 -2.2368 -3.3933 3.2235 -1.9674 1.1478 18.6145
#
#
#
# Elastic Compliance Matrix: (Units=1/GPa)
#
#
# Indices 1 2 3 4 5 6 
#
# 1 0.008624 -0.002293 0.001359 0.003880 0.000891 0.000738
# 2 -0.002293 0.009748 -0.006391 -0.002972 0.000048 0.002291
# 3 0.001359 -0.006391 0.041282 0.041810 -0.001729 -0.003625
# 4 0.003880 -0.002972 0.041810 0.118388 0.001145 0.005126
# 5 0.000891 0.000048 -0.001729 0.001145 0.025699 -0.001049
# 6 0.000738 0.002291 -0.003625 0.005126 -0.001049 0.055462
#
#
# Mechanical properties :
#
#
# Convention : Reuss Voigt Hill
#
# Bulk Modulus (GPa) = 22.22029 46.82099 34.52064
# Shear Modulus (GPa) = 17.30971 29.88113 23.59542
#
# Velocity S-wave (km/s) = 2.87981 3.78370 3.36227
# Velocity P-wave (km/s) = 4.65873 6.44369 5.62249
#
# Compressibility (1/GPa) = 0.04500391
#
# Stress axis : x y z
#
# Youngs Moduli (GPa) = 115.95174 102.58342 24.22357
#
# Poissons Ratio (x) = 0.23524 -0.03292
# Poissons Ratio (y) = 0.26589 0.15482
# Poissons Ratio (z) = -0.15759 0.65564
#
# Static dielectric constant tensor:
#      x y z
#    x 4.230570 -0.297070 0.130150 
#    y -0.297070 3.425920 -0.382700 
#    z 0.130150 -0.382700 3.797370 
# 
# 
# High freq. dielectric constant tensor:
#      x y z
#    x 1.850190 -0.015450 -0.000370 
#    y -0.015450 1.763980 -0.040250 
#    z -0.000370 -0.040250 1.818750 
# 
# From -- ./inp_files/361814.got.cif
#   From: 2010.06.25/outbox.cif.g09.slc.cpg/sg2_181_cif.got.tgz:361814.got - 2010.06.27 13:26:56.
