data_PCOD8042951
_publ_section_title
;
Structure prediction by ZEFSAII (Michael W. Deem and Ramdas Pophale) SiO2 
 PCOD8042951
Probable space group: P -1
;
_chemical_formula_sum "Si O2"
_cell_formula_units_Z 12
_cell_length_a 7.355211
_cell_length_b 14.765263
_cell_length_c 7.471444
_cell_angle_alpha 110.620781
_cell_angle_beta 86.253899
_cell_angle_gamma 40.926941
_cell_volume 418.550259
_symmetry_space_group_name_H-M "P -1"
_symmetry_group_IT_number 2
_symmetry_cell_setting 'triclinic'
loop_
_space_group_symop_operation_xyz
x,y,z
-x,-y,-z
loop_
_atom_site_type_symbol
_atom_site_label
_atom_site_fract_x
_atom_site_fract_y
_atom_site_fract_z
Si Si1 0.825613 0.964522 0.801863
Si Si2 0.919466 0.749671 0.871479
Si Si3 0.262446 0.434116 0.809921
Si Si4 0.280298 0.773117 0.044590
Si Si5 0.956496 0.414889 0.613714
Si Si6 0.113600 0.168717 0.640444
O O1 0.995141 0.831698 0.868888
O O2 0.997834 0.853655 0.529898
O O3 0.883866 0.053001 0.880750
O O4 0.439134 0.108135 0.921146
O O5 0.195641 0.575663 0.856990
O O6 0.924390 0.695635 0.641890
O O7 0.599986 0.274442 0.786587
O O8 0.216089 0.389884 0.599999
O O9 0.000000 0.500000 0.000000
O O10 0.999703 0.813829 0.136180
O O11 0.572950 0.617891 0.779329
O O12 0.976176 0.336801 0.732547
O O13 0.500000 0.000000 0.500000
#
# Coordination Sequence:
#
# PCOD8042951 Si02
#       6
#     2   2   2   2   2   2
#     4  10  21  38  64  93 131 172 203 256 319 384
#     4  10  20  38  65  95 136 169 202 248 331 386
#     4  10  19  35  66  97 124 165 210 261 311 371
#     4  11  22  40  67  98 126 162 225 263 307 375
#     4  10  21  38  64  97 128 168 206 262 316 378
#     4  11  24  40  65  93 127 172 216 267 317 371
#
# _framework density 28.670393000000001
#
# number of rings (size 3 to 8) (size 9 to 14) (size 15 to 20)
#    0.000    1.667    3.333    2.500    2.333    0.000 
#    0.000    3.333    7.333   14.000    0.000    0.000 
#    0.000    0.000    0.000    0.000    0.000    0.000 
#
# Total GULP energy -148746.038892 kJ/mol
# GULP energy per Si atom -12395.503241 kJ/mol
# Density = 2.860514 g / cm^3
# Si number density = 28.670393 Si / 1000 Ang^3
#
#
#
# Elastic Constant Matrix: (Units=GPa)
#
#
# Indices 1 2 3 4 5 6 
#
# 1 131.3877 51.0664 18.9328 6.1991 12.9350 50.3555
# 2 51.0664 193.8039 32.9022 -4.6021 15.4414 46.9954
# 3 18.9328 32.9022 123.6662 -21.5062 12.0000 21.6999
# 4 6.1991 -4.6021 -21.5062 42.7837 4.3024 7.3910
# 5 12.9350 15.4414 12.0000 4.3024 40.6888 12.1447
# 6 50.3555 46.9954 21.6999 7.3910 12.1447 60.2654
#
#
#
# Elastic Compliance Matrix: (Units=1/GPa)
#
#
# Indices 1 2 3 4 5 6 
#
# 1 0.011329 -0.000839 0.000055 -0.000135 -0.000696 -0.008675
# 2 -0.000839 0.006610 -0.000555 0.001381 -0.000962 -0.004230
# 3 0.000055 -0.000555 0.010081 0.005839 -0.002358 -0.003484
# 4 -0.000135 0.001381 0.005839 0.027820 -0.003417 -0.005790
# 5 -0.000696 -0.000962 -0.002358 -0.003417 0.027072 -0.002856
# 6 -0.008675 -0.004230 -0.003484 -0.005790 -0.002856 0.029680
#
#
# Mechanical properties :
#
#
# Convention : Reuss Voigt Hill
#
# Bulk Modulus (GPa) = 39.45817 72.74004 56.09911
# Shear Modulus (GPa) = 40.41488 51.81133 46.11310
#
# Velocity S-wave (km/s) = 3.75859 4.25566 4.01482
# Velocity P-wave (km/s) = 5.71214 7.04086 6.41101
#
# Compressibility (1/GPa) = 0.02534330
#
# Stress axis : x y z
#
# Youngs Moduli (GPa) = 88.27148 151.28408 99.19658
#
# Poissons Ratio (x) = 0.12687 -0.00544
# Poissons Ratio (y) = 0.07402 0.05501
# Poissons Ratio (z) = -0.00484 0.08389
#
# Static dielectric constant tensor:
#      x y z
#    x 2.362760 0.046370 -0.969390 
#    y 0.046370 5.968900 -0.314050 
#    z -0.969390 -0.314050 5.021580 
# 
# 
# High freq. dielectric constant tensor:
#      x y z
#    x 2.180320 0.000450 0.028100 
#    y 0.000450 2.191030 -0.033660 
#    z 0.028100 -0.033660 2.178120 
# 
# From -- ./inp_files/153114.got.cif
#   From: 2010.06.25/outbox.cif.g09.slc.cpg/sg2_77_cif.got.tgz:153114.got - 2010.06.27 13:26:56.
