data_PCOD8042989
_publ_section_title
;
Structure prediction by ZEFSAII (Michael W. Deem and Ramdas Pophale) SiO2 
 PCOD8042989
Probable space group: P -1
;
_chemical_formula_sum "Si O2"
_cell_formula_units_Z 16
_cell_length_a 12.186857
_cell_length_b 10.540263
_cell_length_c 21.550575
_cell_angle_alpha 34.438902
_cell_angle_beta 146.272575
_cell_angle_gamma 143.644809
_cell_volume 803.898595
_symmetry_space_group_name_H-M "P -1"
_symmetry_group_IT_number 2
_symmetry_cell_setting 'triclinic'
loop_
_space_group_symop_operation_xyz
x,y,z
-x,-y,-z
loop_
_atom_site_type_symbol
_atom_site_label
_atom_site_fract_x
_atom_site_fract_y
_atom_site_fract_z
Si Si1 0.624829 0.517990 0.750969
Si Si2 0.489520 0.114493 0.514551
Si Si3 0.589685 0.009992 0.929714
Si Si4 0.156334 0.208134 0.947467
Si Si5 0.055401 0.745735 0.294318
Si Si6 0.635407 0.392132 0.294108
Si Si7 0.692023 0.498442 0.983717
Si Si8 0.976074 0.768392 0.902341
O O1 0.641310 0.708003 0.626654
O O2 0.541847 0.246713 0.792655
O O3 0.457736 0.530593 0.719076
O O4 0.862419 0.578097 0.870039
O O5 0.721821 0.290114 0.579432
O O6 0.500000 0.000000 0.500000
O O7 0.375825 0.885086 0.598887
O O8 0.767171 0.099148 0.032646
O O9 0.676194 0.895717 0.960369
O O10 0.377534 0.792306 0.942269
O O11 0.028922 0.288315 0.802107
O O12 0.272228 0.441461 0.950875
O O13 0.000000 0.000000 0.000000
O O14 0.882397 0.564668 0.332528
O O15 0.120592 0.024522 0.234070
O O16 0.502420 0.424730 0.159749
O O17 0.905681 0.639076 0.988380
#
# Coordination Sequence:
#
# PCOD8042989 Si02
#       8
#     2   2   2   2   2   2   2   2
#     4  10  22  38  53  80 121 147 172 224 271 335
#     4  10  19  37  55  76 113 146 186 220 256 324
#     4  11  22  35  55  84 115 143 176 219 289 324
#     4  11  20  36  59  82 107 141 185 231 271 318
#     4  11  19  34  56  85 104 141 188 224 270 306
#     4  10  20  34  57  85 107 142 188 217 270 319
#     4  11  19  36  57  85 105 140 184 231 269 320
#     4  10  19  36  54  84 113 141 178 222 279 322
#
# _framework density 19.903006000000001
#
# number of rings (size 3 to 8) (size 9 to 14) (size 15 to 20)
#    0.000    1.500    8.750    0.750    0.000    4.000 
#    2.250    0.000    0.000    3.750    0.000    0.000 
#    0.000    0.000    0.000    0.000    0.000    0.000 
#
# Total GULP energy -198308.371487 kJ/mol
# GULP energy per Si atom -12394.273218 kJ/mol
# Density = 1.985771 g / cm^3
# Si number density = 19.903006 Si / 1000 Ang^3
#
#
#
# Elastic Constant Matrix: (Units=GPa)
#
#
# Indices 1 2 3 4 5 6 
#
# 1 40.0502 33.3045 21.4873 3.5991 -5.2098 4.8608
# 2 33.3045 138.6776 51.6167 -14.3686 -7.3965 1.7318
# 3 21.4873 51.6167 83.2215 -15.6344 -10.0926 -16.4637
# 4 3.5991 -14.3686 -15.6344 31.5808 -0.0460 -2.4723
# 5 -5.2098 -7.3965 -10.0926 -0.0460 15.9756 -1.7750
# 6 4.8608 1.7318 -16.4637 -2.4723 -1.7750 32.3323
#
#
#
# Elastic Compliance Matrix: (Units=1/GPa)
#
#
# Indices 1 2 3 4 5 6 
#
# 1 0.039102 -0.006566 -0.010787 -0.013720 0.001526 -0.011985
# 2 -0.006566 0.010950 -0.004926 0.003143 -0.000384 -0.001888
# 3 -0.010787 -0.004926 0.024828 0.012559 0.011715 0.016132
# 4 -0.013720 0.003143 0.012559 0.041812 0.006351 0.011835
# 5 0.001526 -0.000384 0.011715 0.006351 0.071464 0.010166
# 6 -0.011985 -0.001888 0.016132 0.011835 0.010166 0.042509
#
#
# Mechanical properties :
#
#
# Convention : Reuss Voigt Hill
#
# Bulk Modulus (GPa) = 32.97888 52.75180 42.86534
# Shear Modulus (GPa) = 17.52350 26.34712 21.93531
#
# Velocity S-wave (km/s) = 2.97045 3.64232 3.32341
# Velocity P-wave (km/s) = 5.32640 6.65212 6.02583
#
# Compressibility (1/GPa) = 0.03032244
#
# Stress axis : x y z
#
# Youngs Moduli (GPa) = 25.57402 91.32293 40.27718
#
# Poissons Ratio (x) = 0.59965 0.43446
# Poissons Ratio (y) = 0.16793 0.19840
# Poissons Ratio (z) = 0.27586 0.44985
#
# Static dielectric constant tensor:
#      x y z
#    x 3.368750 0.111290 -0.195390 
#    y 0.111290 4.016530 -0.198480 
#    z -0.195390 -0.198480 3.897680 
# 
# 
# High freq. dielectric constant tensor:
#      x y z
#    x 1.733900 0.017060 -0.008320 
#    y 0.017060 1.794800 -0.008070 
#    z -0.008320 -0.008070 1.763830 
# 
# From -- ./inp_files/454223.got.cif
#   From: 2010.06.25/outbox.cif.g09.slc.cpg/sg2_228_cif.got.tgz:454223.got - 2010.06.27 13:26:56.
