data_PCOD8042017
_publ_section_title
;
Structure prediction by ZEFSAII (Michael W. Deem and Ramdas Pophale) SiO2 
 PCOD8042017
Probable space group: P -1
;
_chemical_formula_sum "Si O2"
_cell_formula_units_Z 12
_cell_length_a 18.061176
_cell_length_b 11.976722
_cell_length_c 8.947743
_cell_angle_alpha 140.089030
_cell_angle_beta 148.700341
_cell_angle_gamma 38.152617
_cell_volume 593.263431
_symmetry_space_group_name_H-M "P -1"
_symmetry_group_IT_number 2
_symmetry_cell_setting 'triclinic'
loop_
_space_group_symop_operation_xyz
x,y,z
-x,-y,-z
loop_
_atom_site_type_symbol
_atom_site_label
_atom_site_fract_x
_atom_site_fract_y
_atom_site_fract_z
Si Si1 0.664183 0.454536 0.667732
Si Si2 0.337255 0.140413 0.934002
Si Si3 0.689194 0.091684 0.827718
Si Si4 0.336385 0.576752 0.711630
Si Si5 0.176068 0.921817 0.271457
Si Si6 0.667826 0.794497 0.668162
O O1 0.500000 0.500000 0.500000
O O2 0.647568 0.400719 0.413681
O O3 0.788735 0.274155 0.782131
O O4 0.703944 0.639288 0.948774
O O5 0.202125 0.079693 0.578931
O O6 0.335366 0.116062 0.083217
O O7 0.500000 0.000000 0.000000
O O8 0.712128 0.108870 0.710029
O O9 0.509372 0.163612 0.636073
O O10 0.757636 0.877141 0.790310
O O11 0.763783 0.219474 0.177670
O O12 0.247310 0.434131 0.430710
O O13 0.500000 0.500000 0.000000
O O14 0.000000 0.000000 0.000000
#
# Coordination Sequence:
#
# PCOD8042017 Si02
#       6
#     2   2   2   2   2   2
#     4  11  21  37  66  92 120 164 208 256 303 365
#     4  11  20  38  64  89 119 158 212 256 300 361
#     4  10  19  34  56  83 121 156 195 251 305 355
#     4   9  18  32  55  90 118 144 198 257 305 349
#     4  12  26  41  58  92 131 166 204 251 314 372
#     4   9  18  33  58  90 110 150 205 256 297 349
#
# _framework density 20.227101000000001
#
# number of rings (size 3 to 8) (size 9 to 14) (size 15 to 20)
#    0.000    1.667    3.333    3.000    0.000    3.333 
#    0.000    3.333    0.000    4.000    0.000    0.000 
#    0.000    0.000    0.000    0.000    0.000    0.000 
#
# Total GULP energy -148690.076418 kJ/mol
# GULP energy per Si atom -12390.839702 kJ/mol
# Density = 2.018106 g / cm^3
# Si number density = 20.227101 Si / 1000 Ang^3
#
#
#
# Elastic Constant Matrix: (Units=GPa)
#
#
# Indices 1 2 3 4 5 6 
#
# 1 81.2228 45.4174 28.8646 16.5587 -23.2022 34.6666
# 2 45.4174 119.5760 62.2339 18.4536 -7.0115 33.4381
# 3 28.8646 62.2339 116.8321 22.2272 -17.5234 8.1453
# 4 16.5587 18.4536 22.2272 43.4848 -5.7448 2.1237
# 5 -23.2022 -7.0115 -17.5234 -5.7448 30.6659 -1.2664
# 6 34.6666 33.4381 8.1453 2.1237 -1.2664 32.1658
#
#
#
# Elastic Compliance Matrix: (Units=1/GPa)
#
#
# Indices 1 2 3 4 5 6 
#
# 1 0.038919 -0.000087 -0.001300 -0.008814 0.025383 -0.039943
# 2 -0.000087 0.017119 -0.007748 -0.002738 -0.001737 -0.015628
# 3 -0.001300 -0.007748 0.013861 -0.002968 0.004871 0.006333
# 4 -0.008814 -0.002738 -0.002968 0.028056 -0.003276 0.011116
# 5 0.025383 -0.001737 0.004871 -0.003276 0.052575 -0.024498
# 6 -0.039943 -0.015628 0.006333 0.011116 -0.024498 0.087082
#
#
# Mechanical properties :
#
#
# Convention : Reuss Voigt Hill
#
# Bulk Modulus (GPa) = 19.36880 65.62920 42.49900
# Shear Modulus (GPa) = 18.30886 33.33763 25.82324
#
# Velocity S-wave (km/s) = 3.01186 4.06417 3.57692
# Velocity P-wave (km/s) = 4.65742 7.38511 6.17379
#
# Compressibility (1/GPa) = 0.05162942
#
# Stress axis : x y z
#
# Youngs Moduli (GPa) = 25.69472 58.41428 72.14380
#
# Poissons Ratio (x) = 0.00509 0.09379
# Poissons Ratio (y) = 0.00224 0.55894
# Poissons Ratio (z) = 0.03340 0.45257
#
# Static dielectric constant tensor:
#      x y z
#    x 0.831510 -4.459720 0.281480 
#    y -4.459720 -4.168820 1.664050 
#    z 0.281480 1.664050 3.943870 
# 
# 
# High freq. dielectric constant tensor:
#      x y z
#    x 1.779620 0.032020 -0.025960 
#    y 0.032020 1.783530 0.039450 
#    z -0.025960 0.039450 1.786390 
# 
# From -- ./inp_files/160600.got.cif
#   From: 2010.06.25/outbox.cif.g09.slc.cpg/sg2_81_cif.got.tgz:160600.got - 2010.06.27 13:26:56.
