data_PCOD8042070
_publ_section_title
;
Structure prediction by ZEFSAII (Michael W. Deem and Ramdas Pophale) SiO2 
 PCOD8042070
Probable space group: P -1
;
_chemical_formula_sum "Si O2"
_cell_formula_units_Z 14
_cell_length_a 12.957331
_cell_length_b 14.384734
_cell_length_c 9.066955
_cell_angle_alpha 52.360672
_cell_angle_beta 30.791973
_cell_angle_gamma 41.308947
_cell_volume 568.092711
_symmetry_space_group_name_H-M "P -1"
_symmetry_group_IT_number 2
_symmetry_cell_setting 'triclinic'
loop_
_space_group_symop_operation_xyz
x,y,z
-x,-y,-z
loop_
_atom_site_type_symbol
_atom_site_label
_atom_site_fract_x
_atom_site_fract_y
_atom_site_fract_z
Si Si1 0.922169 0.101536 0.778847
Si Si2 0.783390 0.904466 0.079367
Si Si3 0.951118 0.288425 0.321954
Si Si4 0.499520 0.351560 0.182980
Si Si5 0.945543 0.566703 0.702940
Si Si6 0.736692 0.849123 0.513109
Si Si7 0.552116 0.507063 0.188083
O O1 0.956306 0.166471 0.525921
O O2 0.102535 0.093049 0.688293
O O3 0.647933 0.187802 0.106657
O O4 0.975576 0.948809 0.821999
O O5 0.733640 0.846177 0.343122
O O6 0.531320 0.042442 0.194784
O O7 0.892109 0.776515 0.954274
O O8 0.671306 0.411376 0.500843
O O9 0.062280 0.363855 0.199054
O O10 0.616068 0.354785 0.197349
O O11 0.209658 0.431333 0.467131
O O12 0.570570 0.412506 0.897011
O O13 0.846521 0.688301 0.583391
O O14 0.776845 0.506559 0.973993
#
# Coordination Sequence:
#
# PCOD8042070 Si02
#       7
#     2   2   2   2   2   2   2
#     4  10  20  36  57  81 106 141 179 222 268 310
#     4  11  22  37  52  78 116 143 174 219 262 322
#     4   9  20  33  52  81 109 137 179 221 264 317
#     4   9  18  31  55  88 107 127 182 230 264 312
#     4  10  19  34  57  83 107 137 176 224 269 310
#     4  10  22  35  53  79 107 146 183 209 263 327
#     4   9  16  30  53  81 107 133 168 224 273 302
#
# _framework density 24.643865000000002
#
# number of rings (size 3 to 8) (size 9 to 14) (size 15 to 20)
#    0.000    2.286    0.000    5.571    0.000    4.571 
#    0.000    0.000    0.000   13.714    0.000   69.000 
#    0.000    0.000    0.000    0.000    0.000    0.000 
#
# Total GULP energy -173499.216481 kJ/mol
# GULP energy per Si atom -12392.801177 kJ/mol
# Density = 2.458777 g / cm^3
# Si number density = 24.643865 Si / 1000 Ang^3
#
#
#
# Elastic Constant Matrix: (Units=GPa)
#
#
# Indices 1 2 3 4 5 6 
#
# 1 81.7003 34.8624 54.8468 21.0236 -12.1414 12.3835
# 2 34.8624 44.8182 25.0703 18.3419 -4.9462 16.9359
# 3 54.8468 25.0703 116.9305 29.8920 -2.7362 15.0976
# 4 21.0236 18.3419 29.8920 26.7641 9.6155 13.8273
# 5 -12.1414 -4.9462 -2.7362 9.6155 36.3540 5.0102
# 6 12.3835 16.9359 15.0976 13.8273 5.0102 24.7384
#
#
#
# Elastic Compliance Matrix: (Units=1/GPa)
#
#
# Indices 1 2 3 4 5 6 
#
# 1 0.025224 -0.012993 -0.007542 -0.006796 0.007451 0.003161
# 2 -0.012993 0.046648 0.003885 -0.020154 0.010194 -0.018602
# 3 -0.007542 0.003885 0.015073 -0.014293 0.003022 -0.000706
# 4 -0.006796 -0.020154 -0.014293 0.093057 -0.027883 -0.020444
# 5 0.007451 0.010194 0.003022 -0.027883 0.039675 -0.005003
# 6 0.003161 -0.018602 -0.000706 -0.020444 -0.005003 0.064447
#
#
# Mechanical properties :
#
#
# Convention : Reuss Voigt Hill
#
# Bulk Modulus (GPa) = 18.64089 52.55646 35.59867
# Shear Modulus (GPa) = 14.91178 26.14924 20.53051
#
# Velocity S-wave (km/s) = 2.46253 3.26096 2.88946
# Velocity P-wave (km/s) = 3.95802 5.96248 5.06049
#
# Compressibility (1/GPa) = 0.05364550
#
# Stress axis : x y z
#
# Youngs Moduli (GPa) = 39.64440 21.43705 66.34565
#
# Poissons Ratio (x) = 0.27853 0.50040
# Poissons Ratio (y) = 0.51510 -0.25778
# Poissons Ratio (z) = 0.29901 -0.08329
#
# Static dielectric constant tensor:
#      x y z
#    x 4.414520 0.220840 -0.109320 
#    y 0.220840 4.320880 0.336880 
#    z -0.109320 0.336880 4.188670 
# 
# 
# High freq. dielectric constant tensor:
#      x y z
#    x 1.977100 0.025230 -0.014590 
#    y 0.025230 1.974410 0.015570 
#    z -0.014590 0.015570 1.967290 
# 
# From -- ./inp_files/270093.got.cif
#   From: 2010.06.25/outbox.cif.g09.slc.cpg/sg2_136_cif.got.tgz:270093.got - 2010.06.27 13:26:56.
