data_PCOD8042717
_publ_section_title
;
Structure prediction by ZEFSAII (Michael W. Deem and Ramdas Pophale) SiO2 
 PCOD8042717
Probable space group: P -1
;
_chemical_formula_sum "Si O2"
_cell_formula_units_Z 16
_cell_length_a 9.320932
_cell_length_b 17.244367
_cell_length_c 14.528299
_cell_angle_alpha 33.436519
_cell_angle_beta 91.433262
_cell_angle_gamma 115.360886
_cell_volume 865.636799
_symmetry_space_group_name_H-M "P -1"
_symmetry_group_IT_number 2
_symmetry_cell_setting 'triclinic'
loop_
_space_group_symop_operation_xyz
x,y,z
-x,-y,-z
loop_
_atom_site_type_symbol
_atom_site_label
_atom_site_fract_x
_atom_site_fract_y
_atom_site_fract_z
Si Si1 0.314034 0.970395 0.548297
Si Si2 0.864509 0.041964 0.932678
Si Si3 0.996036 0.834629 0.000320
Si Si4 0.879279 0.756368 0.431992
Si Si5 0.043249 0.360158 0.270604
Si Si6 0.383871 0.561626 0.925836
Si Si7 0.990921 0.648545 0.007508
Si Si8 0.439667 0.388422 0.705495
O O1 0.138306 0.841089 0.594458
O O2 0.207146 0.851472 0.760329
O O3 0.500000 0.000000 0.500000
O O4 0.416219 0.196545 0.334627
O O5 0.863056 0.120384 0.953665
O O6 0.985364 0.209773 0.685502
O O7 0.631357 0.824610 0.107827
O O8 0.000000 0.000000 0.000000
O O9 0.750878 0.667921 0.191805
O O10 0.008006 0.722313 0.036497
O O11 0.085614 0.049563 0.751385
O O12 0.951660 0.734277 0.547329
O O13 0.634461 0.536175 0.632417
O O14 0.265549 0.522405 0.057048
O O15 0.977606 0.470282 0.187731
O O16 0.500000 0.500000 0.000000
O O17 0.216108 0.439621 0.960082
O O18 0.500000 0.500000 0.500000
#
# Coordination Sequence:
#
# PCOD8042717 Si02
#       8
#     2   2   2   2   2   2   2   2
#     4  11  21  45  65  75 120 168 190 236 304 357
#     4   8  16  33  52  83 116 151 188 241 290 339
#     4  10  21  33  58  89 116 149 199 246 285 345
#     4  10  20  34  58  87 114 153 195 245 286 341
#     4  11  24  40  60  88 122 157 197 240 300 358
#     4  11  25  40  63  91 113 152 205 244 290 352
#     4  11  24  41  57  90 123 156 196 239 300 361
#     4  10  15  33  58  81 116 152 193 237 295 337
#
# _framework density 18.483504
#
# number of rings (size 3 to 8) (size 9 to 14) (size 15 to 20)
#    0.000    2.000    6.250    0.750    5.250    2.000 
#    0.000    0.625    0.000    0.750    0.000    0.000 
#    0.000    0.000    0.000    0.000    0.000    0.000 
#
# Total GULP energy -198301.095822 kJ/mol
# GULP energy per Si atom -12393.818489 kJ/mol
# Density = 1.844143 g / cm^3
# Si number density = 18.483504 Si / 1000 Ang^3
#
#
#
# Elastic Constant Matrix: (Units=GPa)
#
#
# Indices 1 2 3 4 5 6 
#
# 1 60.3347 22.4147 12.7743 -9.9373 -9.2643 -8.2889
# 2 22.4147 100.0171 24.0869 5.8997 -15.9369 -20.9126
# 3 12.7743 24.0869 89.6955 -9.7665 -22.3294 -2.6649
# 4 -9.9373 5.8997 -9.7665 33.9788 1.0233 -0.1570
# 5 -9.2643 -15.9369 -22.3294 1.0233 26.1884 -3.1740
# 6 -8.2889 -20.9126 -2.6649 -0.1570 -3.1740 25.0665
#
#
#
# Elastic Compliance Matrix: (Units=1/GPa)
#
#
# Indices 1 2 3 4 5 6 
#
# 1 0.020280 -0.002980 0.000226 0.006359 0.005916 0.005033
# 2 -0.002980 0.015329 -0.001636 -0.004203 0.008581 0.012689
# 3 0.000226 -0.001636 0.015066 0.004328 0.011986 0.001856
# 4 0.006359 -0.004203 0.004328 0.033200 0.002027 -0.000479
# 5 0.005916 0.008581 0.011986 0.002027 0.057788 0.017719
# 6 0.005033 0.012689 0.001856 -0.000479 0.017719 0.054583
#
#
# Mechanical properties :
#
#
# Convention : Reuss Voigt Hill
#
# Bulk Modulus (GPa) = 23.86846 40.95545 32.41196
# Shear Modulus (GPa) = 22.83199 29.76485 26.29842
#
# Velocity S-wave (km/s) = 3.51844 4.01727 3.77610
# Velocity P-wave (km/s) = 5.42654 6.61240 6.04860
#
# Compressibility (1/GPa) = 0.04189629
#
# Stress axis : x y z
#
# Youngs Moduli (GPa) = 49.30893 65.23755 66.37257
#
# Poissons Ratio (x) = 0.19438 -0.01503
# Poissons Ratio (y) = 0.14692 0.10861
# Poissons Ratio (z) = -0.01116 0.10676
#
# Static dielectric constant tensor:
#      x y z
#    x 3.209790 0.192930 -0.002040 
#    y 0.192930 5.011790 1.438960 
#    z -0.002040 1.438960 5.256010 
# 
# 
# High freq. dielectric constant tensor:
#      x y z
#    x 1.680520 0.000940 -0.018080 
#    y 0.000940 1.730420 -0.003190 
#    z -0.018080 -0.003190 1.730530 
# 
# From -- ./inp_files/332645.got.cif
#   From: 2010.06.25/outbox.cif.g09.slc.cpg/sg2_167_cif.got.tgz:332645.got - 2010.06.27 13:26:56.
