data_PCOD8042877
_publ_section_title
;
Structure prediction by ZEFSAII (Michael W. Deem and Ramdas Pophale) SiO2 
 PCOD8042877
Probable space group: P -1
;
_chemical_formula_sum "Si O2"
_cell_formula_units_Z 14
_cell_length_a 8.952809
_cell_length_b 9.202497
_cell_length_c 12.379359
_cell_angle_alpha 128.072695
_cell_angle_beta 53.692892
_cell_angle_gamma 110.664927
_cell_volume 646.904727
_symmetry_space_group_name_H-M "P -1"
_symmetry_group_IT_number 2
_symmetry_cell_setting 'triclinic'
loop_
_space_group_symop_operation_xyz
x,y,z
-x,-y,-z
loop_
_atom_site_type_symbol
_atom_site_label
_atom_site_fract_x
_atom_site_fract_y
_atom_site_fract_z
Si Si1 0.088670 0.917274 0.258099
Si Si2 0.547657 0.382478 0.819431
Si Si3 0.928218 0.538931 0.742244
Si Si4 0.945017 0.071277 0.173405
Si Si5 0.479043 0.975558 0.624831
Si Si6 0.175589 0.515939 0.008542
Si Si7 0.805456 0.798240 0.498248
O O1 0.209421 0.727882 0.125866
O O2 0.911463 0.902324 0.404382
O O3 0.201807 0.088609 0.333979
O O4 0.033381 0.942007 0.168424
O O5 0.749660 0.444197 0.716977
O O6 0.552227 0.162932 0.736069
O O7 0.500000 0.500000 0.000000
O O8 0.370238 0.431861 0.838091
O O9 0.873714 0.597684 0.914478
O O10 0.983947 0.722173 0.739594
O O11 0.107483 0.402259 0.606095
O O12 0.726591 0.069258 0.275008
O O13 0.000000 0.000000 0.000000
O O14 0.500000 0.000000 0.500000
O O15 0.596504 0.800381 0.542051
O O16 0.000000 0.500000 0.000000
#
# Coordination Sequence:
#
# PCOD8042877 Si02
#       7
#     2   2   2   2   2   2   2
#     4  10  20  39  65  91 129 175 219 265 325 403
#     4  10  20  39  63  93 128 177 224 261 323 412
#     4  10  23  39  62  92 134 171 213 274 333 392
#     4  12  25  43  65 101 140 169 215 287 349 378
#     4  12  24  42  69 101 130 176 229 276 331 410
#     4  10  19  35  63  94 124 175 225 265 315 395
#     4  10  21  41  65  92 126 176 227 263 325 408
#
# _framework density 21.641517
#
# number of rings (size 3 to 8) (size 9 to 14) (size 15 to 20)
#    0.000    1.429    1.429    6.857    2.000    1.143 
#    0.000    4.286    0.000    0.000    0.000    0.000 
#    0.000    0.000    0.000    0.000    0.000    0.000 
#
# Total GULP energy -173514.583046 kJ/mol
# GULP energy per Si atom -12393.898789 kJ/mol
# Density = 2.159226 g / cm^3
# Si number density = 21.641517 Si / 1000 Ang^3
#
#
#
# Elastic Constant Matrix: (Units=GPa)
#
#
# Indices 1 2 3 4 5 6 
#
# 1 108.9391 17.6993 33.5400 -5.8695 -26.8457 0.3933
# 2 17.6993 93.3823 23.1040 4.7228 -14.5565 14.3811
# 3 33.5400 23.1040 81.4050 2.8224 -12.8719 -5.2389
# 4 -5.8695 4.7228 2.8224 30.2599 -3.2777 -1.3990
# 5 -26.8457 -14.5565 -12.8719 -3.2777 46.5158 -1.6857
# 6 0.3933 14.3811 -5.2389 -1.3990 -1.6857 35.5949
#
#
#
# Elastic Compliance Matrix: (Units=1/GPa)
#
#
# Indices 1 2 3 4 5 6 
#
# 1 0.012172 -0.000535 -0.004044 0.003465 0.005979 -0.000094
# 2 -0.000535 0.013004 -0.003380 -0.001812 0.002491 -0.005699
# 3 -0.004044 -0.003380 0.015334 -0.001422 0.000884 0.003653
# 4 0.003465 -0.001812 -0.001422 0.034612 0.003551 0.002013
# 5 0.005979 0.002491 0.000884 0.003551 0.026239 0.000440
# 6 -0.000094 -0.005699 0.003653 0.002013 0.000440 0.031035
#
#
# Mechanical properties :
#
#
# Convention : Reuss Voigt Hill
#
# Bulk Modulus (GPa) = 40.66525 48.04588 44.35556
# Shear Modulus (GPa) = 31.94652 36.43300 34.18976
#
# Velocity S-wave (km/s) = 3.84626 4.10747 3.97901
# Velocity P-wave (km/s) = 6.20936 6.68910 6.45369
#
# Compressibility (1/GPa) = 0.02459102
#
# Stress axis : x y z
#
# Youngs Moduli (GPa) = 82.15701 76.89960 65.21495
#
# Poissons Ratio (x) = 0.04116 0.26372
# Poissons Ratio (y) = 0.04397 0.22044
# Poissons Ratio (z) = 0.33223 0.25994
#
# Static dielectric constant tensor:
#      x y z
#    x 4.374430 0.029190 -0.215270 
#    y 0.029190 3.766900 0.262010 
#    z -0.215270 0.262010 3.949850 
# 
# 
# High freq. dielectric constant tensor:
#      x y z
#    x 1.866540 -0.002660 -0.007950 
#    y -0.002660 1.827180 0.027810 
#    z -0.007950 0.027810 1.842440 
# 
# From -- ./inp_files/225992.got.cif
#   From: 2010.06.25/outbox.cif.g09.slc.cpg/sg2_113_cif.got.tgz:225992.got - 2010.06.27 13:26:56.
