data_PCOD8042448
_publ_section_title
;
Structure prediction by ZEFSAII (Michael W. Deem and Ramdas Pophale) SiO2 
 PCOD8042448
Probable space group: P -1
;
_chemical_formula_sum "Si O2"
_cell_formula_units_Z 14
_cell_length_a 15.691082
_cell_length_b 20.402680
_cell_length_c 8.373506
_cell_angle_alpha 34.648558
_cell_angle_beta 126.563943
_cell_angle_gamma 150.678117
_cell_volume 671.501848
_symmetry_space_group_name_H-M "P -1"
_symmetry_group_IT_number 2
_symmetry_cell_setting 'triclinic'
loop_
_space_group_symop_operation_xyz
x,y,z
-x,-y,-z
loop_
_atom_site_type_symbol
_atom_site_label
_atom_site_fract_x
_atom_site_fract_y
_atom_site_fract_z
Si Si1 0.328961 0.419625 0.796607
Si Si2 0.205269 0.529513 0.288823
Si Si3 0.046421 0.023383 0.688993
Si Si4 0.540654 0.221483 0.212139
Si Si5 0.339650 0.458023 0.091466
Si Si6 0.507099 0.046164 0.095719
Si Si7 0.215883 0.938572 0.157888
O O1 0.327849 0.523870 0.464267
O O2 0.526665 0.533056 0.778125
O O3 0.288722 0.438794 0.888954
O O4 0.156437 0.173632 0.049961
O O5 0.978005 0.304875 0.513747
O O6 0.262156 0.614568 0.999844
O O7 0.287991 0.703509 0.149483
O O8 0.157694 0.242869 0.423003
O O9 0.000000 0.000000 0.500000
O O10 0.170395 0.020389 0.864633
O O11 0.502802 0.069531 0.564754
O O12 0.354420 0.080831 0.179243
O O13 0.566137 0.345697 0.119507
O O14 0.324895 0.963453 0.094373
O O15 0.500000 0.000000 0.000000
#
# Coordination Sequence:
#
# PCOD8042448 Si02
#       7
#     2   2   2   2   2   2   2
#     4   9  19  35  58  83 111 154 194 234 286 340
#     4  10  21  40  60  82 117 152 191 239 290 343
#     4   9  19  35  58  85 113 149 191 232 280 340
#     4  11  24  37  58  89 118 154 195 235 288 349
#     4  10  19  35  56  82 119 152 189 239 285 332
#     4  11  24  41  62  87 113 149 199 243 286 345
#     4  10  22  41  62  86 118 154 191 239 292 340
#
# _framework density 20.848787999999999
#
# number of rings (size 3 to 8) (size 9 to 14) (size 15 to 20)
#    0.000    2.000    0.000    4.286    0.000    8.571 
#    0.000    5.714    0.000    0.000    0.000    0.000 
#    0.000    0.000    0.000    0.000    0.000    0.000 
#
# Total GULP energy -173514.233383 kJ/mol
# GULP energy per Si atom -12393.873813 kJ/mol
# Density = 2.080133 g / cm^3
# Si number density = 20.848788 Si / 1000 Ang^3
#
#
#
# Elastic Constant Matrix: (Units=GPa)
#
#
# Indices 1 2 3 4 5 6 
#
# 1 31.5883 4.7007 -7.4734 -14.2368 -8.0996 -0.9151
# 2 4.7007 64.7062 19.9814 -8.8072 -4.3560 14.5189
# 3 -7.4734 19.9814 103.3118 -14.8426 0.2392 11.2643
# 4 -14.2368 -8.8072 -14.8426 43.0255 -0.8999 8.3042
# 5 -8.0996 -4.3560 0.2392 -0.8999 25.2945 -0.7336
# 6 -0.9151 14.5189 11.2643 8.3042 -0.7336 13.9572
#
#
#
# Elastic Compliance Matrix: (Units=1/GPa)
#
#
# Indices 1 2 3 4 5 6 
#
# 1 0.047024 0.002451 0.008240 0.022881 0.015667 -0.018907
# 2 0.002451 0.024512 0.000881 0.012663 0.004481 -0.033348
# 3 0.008240 0.000881 0.013644 0.011116 0.002539 -0.017869
# 4 0.022881 0.012663 0.011116 0.046690 0.009674 -0.047914
# 5 0.015667 0.004481 0.002539 0.009674 0.045380 -0.009053
# 6 -0.018907 -0.033348 -0.017869 -0.047914 -0.009053 0.147552
#
#
# Mechanical properties :
#
#
# Convention : Reuss Voigt Hill
#
# Bulk Modulus (GPa) = 9.23150 26.00264 17.61707
# Shear Modulus (GPa) = 14.80311 28.61528 21.70920
#
# Velocity S-wave (km/s) = 2.66752 3.70877 3.23037
# Velocity P-wave (km/s) = 3.73162 5.55329 4.73096
#
# Compressibility (1/GPa) = 0.10832471
#
# Stress axis : x y z
#
# Youngs Moduli (GPa) = 21.26570 40.79614 73.28994
#
# Poissons Ratio (x) = -0.09998 -0.60392
# Poissons Ratio (y) = -0.05212 -0.06459
# Poissons Ratio (z) = -0.17523 -0.03595
#
# Static dielectric constant tensor:
#      x y z
#    x 3.491010 -0.028050 -0.004250 
#    y -0.028050 4.029310 -0.288410 
#    z -0.004250 -0.288410 4.325930 
# 
# 
# High freq. dielectric constant tensor:
#      x y z
#    x 1.783080 0.002140 0.001430 
#    y 0.002140 1.820410 -0.008470 
#    z 0.001430 -0.008470 1.850270 
# 
# From -- ./inp_files/279878.got.cif
#   From: 2010.06.25/outbox.cif.g09.slc.cpg/sg2_140_cif.got.tgz:279878.got - 2010.06.27 13:26:56.
