data_PCOD8042829
_publ_section_title
;
Structure prediction by ZEFSAII (Michael W. Deem and Ramdas Pophale) SiO2 
 PCOD8042829
Probable space group: P -1
;
_chemical_formula_sum "Si O2"
_cell_formula_units_Z 16
_cell_length_a 7.270746
_cell_length_b 24.298462
_cell_length_c 9.769657
_cell_angle_alpha 30.831437
_cell_angle_beta 123.978973
_cell_angle_gamma 128.073399
_cell_volume 694.522443
_symmetry_space_group_name_H-M "P -1"
_symmetry_group_IT_number 2
_symmetry_cell_setting 'triclinic'
loop_
_space_group_symop_operation_xyz
x,y,z
-x,-y,-z
loop_
_atom_site_type_symbol
_atom_site_label
_atom_site_fract_x
_atom_site_fract_y
_atom_site_fract_z
Si Si1 0.807521 0.023461 0.700477
Si Si2 0.677095 0.120586 0.181252
Si Si3 0.806207 0.025201 0.196544
Si Si4 0.445566 0.812831 0.386683
Si Si5 0.980227 0.346430 0.905624
Si Si6 0.158032 0.242996 0.454528
Si Si7 0.228279 0.469297 0.487891
Si Si8 0.008737 0.621787 0.688596
O O1 0.685126 0.091782 0.405622
O O2 0.973093 0.115162 0.679826
O O3 0.590936 0.927403 0.888097
O O4 0.951576 0.958138 0.814599
O O5 0.840513 0.060172 0.296127
O O6 0.780529 0.256367 0.923949
O O7 0.635751 0.895520 0.391297
O O8 0.699399 0.117086 0.895016
O O9 0.580850 0.764010 0.432252
O O10 0.273872 0.707463 0.624593
O O11 0.178243 0.415806 0.732895
O O12 0.856392 0.420742 0.782063
O O13 0.102876 0.285810 0.192360
O O14 0.155036 0.328827 0.390644
O O15 0.500000 0.500000 0.500000
O O16 0.083010 0.384654 0.491137
O O17 0.000000 0.500000 0.000000
#
# Coordination Sequence:
#
# PCOD8042829 Si02
#       8
#     2   2   2   2   2   2   2   2
#     4   9  20  36  61  96 128 162 207 258 317 383
#     4  10  19  35  62  90 125 168 205 255 319 384
#     4  10  20  39  59  92 128 167 208 259 317 385
#     4  10  24  39  63  91 129 167 212 266 322 378
#     4  10  23  42  63  91 129 167 215 264 320 379
#     4  10  22  42  67  95 128 170 212 265 319 382
#     4  11  26  45  64  92 126 167 216 273 322 372
#     4  12  25  43  67  98 124 169 223 265 321 388
#
# _framework density 23.037412
#
# number of rings (size 3 to 8) (size 9 to 14) (size 15 to 20)
#    0.000    1.750    1.250    1.875    1.750    6.500 
#    0.000    3.750    0.000    0.000    0.000    0.000 
#    0.000    0.000    0.000    0.000    0.000    0.000 
#
# Total GULP energy -198391.675529 kJ/mol
# GULP energy per Si atom -12399.479721 kJ/mol
# Density = 2.298498 g / cm^3
# Si number density = 23.037412 Si / 1000 Ang^3
#
#
#
# Elastic Constant Matrix: (Units=GPa)
#
#
# Indices 1 2 3 4 5 6 
#
# 1 139.9556 39.4136 53.4394 -26.5068 17.7258 4.9017
# 2 39.4136 69.4690 19.0102 -25.6841 8.7696 -12.8366
# 3 53.4394 19.0102 82.6880 -26.7521 6.5248 7.9480
# 4 -26.5068 -25.6841 -26.7521 37.2903 -4.1335 3.5796
# 5 17.7258 8.7696 6.5248 -4.1335 35.1989 -7.2273
# 6 4.9017 -12.8366 7.9480 3.5796 -7.2273 42.8232
#
#
#
# Elastic Compliance Matrix: (Units=1/GPa)
#
#
# Indices 1 2 3 4 5 6 
#
# 1 0.011216 -0.004548 -0.005429 0.000739 -0.003907 -0.002361
# 2 -0.004548 0.022418 0.001349 0.012521 -0.000885 0.005794
# 3 -0.005429 0.001349 0.019309 0.011201 -0.000605 -0.003596
# 4 0.000739 0.012521 0.011201 0.044123 -0.000847 -0.002241
# 5 -0.003907 -0.000885 -0.000605 -0.000847 0.031787 0.005730
# 6 -0.002361 0.005794 -0.003596 -0.002241 0.005730 0.027181
#
#
# Mechanical properties :
#
#
# Convention : Reuss Voigt Hill
#
# Bulk Modulus (GPa) = 28.02034 57.31544 42.66789
# Shear Modulus (GPa) = 27.00004 35.07912 31.03958
#
# Velocity S-wave (km/s) = 3.42717 3.90641 3.67462
# Velocity P-wave (km/s) = 5.27732 6.72905 6.04691
#
# Compressibility (1/GPa) = 0.03568836
#
# Stress axis : x y z
#
# Youngs Moduli (GPa) = 89.15629 44.60786 51.78851
#
# Poissons Ratio (x) = 0.20286 0.28115
# Poissons Ratio (y) = 0.40545 -0.06987
# Poissons Ratio (z) = 0.48402 -0.06018
#
# Static dielectric constant tensor:
#      x y z
#    x 4.255120 0.023760 0.024210 
#    y 0.023760 4.237590 -0.274090 
#    z 0.024210 -0.274090 4.127300 
# 
# 
# High freq. dielectric constant tensor:
#      x y z
#    x 1.918330 -0.005390 0.004570 
#    y -0.005390 1.905960 -0.010310 
#    z 0.004570 -0.010310 1.908860 
# 
# From -- ./inp_files/371033.got.cif
#   From: 2010.06.25/outbox.cif.g09.slc.cpg/sg2_186_cif.got.tgz:371033.got - 2010.06.27 13:26:56.
