data_PCOD8042395
_publ_section_title
;
Structure prediction by ZEFSAII (Michael W. Deem and Ramdas Pophale) SiO2 
 PCOD8042395
Probable space group: P -1
;
_chemical_formula_sum "Si O2"
_cell_formula_units_Z 16
_cell_length_a 15.544890
_cell_length_b 8.783690
_cell_length_c 9.057490
_cell_angle_alpha 132.925604
_cell_angle_beta 99.476220
_cell_angle_gamma 62.176617
_cell_volume 778.137710
_symmetry_space_group_name_H-M "P -1"
_symmetry_group_IT_number 2
_symmetry_cell_setting 'triclinic'
loop_
_space_group_symop_operation_xyz
x,y,z
-x,-y,-z
loop_
_atom_site_type_symbol
_atom_site_label
_atom_site_fract_x
_atom_site_fract_y
_atom_site_fract_z
Si Si1 0.886963 0.855306 0.776154
Si Si2 0.591551 0.945237 0.887697
Si Si3 0.607762 0.385456 0.166416
Si Si4 0.774216 0.380939 0.037406
Si Si5 0.489498 0.874945 0.558403
Si Si6 0.713715 0.813990 0.114870
Si Si7 0.121755 0.586092 0.617583
Si Si8 0.201825 0.903872 0.787329
O O1 0.841623 0.681125 0.608316
O O2 0.003381 0.726075 0.691869
O O3 0.832959 0.099638 0.825611
O O4 0.866335 0.925681 0.987481
O O5 0.584142 0.808413 0.651269
O O6 0.689490 0.807282 0.928573
O O7 0.500000 0.000000 0.000000
O O8 0.578657 0.190196 0.976757
O O9 0.660033 0.453834 0.094404
O O10 0.506042 0.616777 0.344043
O O11 0.684814 0.273243 0.248943
O O12 0.772307 0.541303 0.005854
O O13 0.827286 0.434035 0.223883
O O14 0.500000 0.000000 0.500000
O O15 0.383388 0.029404 0.709003
O O16 0.788461 0.927821 0.224127
O O17 0.153298 0.738827 0.615518
#
# Coordination Sequence:
#
# PCOD8042395 Si02
#       8
#     2   2   2   2   2   2   2   2
#     4   9  18  36  60  85 108 146 187 220 275 348
#     4   9  21  37  54  74 109 147 185 236 283 319
#     4   9  19  35  57  78 105 150 197 225 268 329
#     4  10  19  35  54  83 115 142 186 230 278 329
#     4  11  21  38  57  79 110 151 198 233 266 323
#     4  10  21  38  53  85 118 148 187 235 287 327
#     4   9  18  36  62  83 107 146 187 223 273 345
#     4   9  19  34  56  79 115 145 182 227 283 327
#
# _framework density 20.561912
#
# number of rings (size 3 to 8) (size 9 to 14) (size 15 to 20)
#    0.000    2.750    1.250    1.500    0.000   11.000 
#    0.000    7.500    0.000    3.000    0.000    0.000 
#    0.000    0.000    0.000    0.000    0.000    0.000 
#
# Total GULP energy -198222.773044 kJ/mol
# GULP energy per Si atom -12388.923315 kJ/mol
# Density = 2.051511 g / cm^3
# Si number density = 20.561912 Si / 1000 Ang^3
#
#
#
# Elastic Constant Matrix: (Units=GPa)
#
#
# Indices 1 2 3 4 5 6 
#
# 1 89.9467 42.1965 21.7451 11.4697 17.6806 27.8016
# 2 42.1965 114.9939 44.5073 17.1625 7.1555 35.8498
# 3 21.7451 44.5073 78.7531 24.2115 12.1277 8.0784
# 4 11.4697 17.1625 24.2115 37.1633 3.4459 4.6154
# 5 17.6806 7.1555 12.1277 3.4459 32.0774 9.9812
# 6 27.8016 35.8498 8.0784 4.6154 9.9812 35.6852
#
#
#
# Elastic Compliance Matrix: (Units=1/GPa)
#
#
# Indices 1 2 3 4 5 6 
#
# 1 0.016339 -0.002446 -0.000900 -0.001796 -0.005330 -0.008345
# 2 -0.002446 0.017124 -0.008139 -0.000494 0.005285 -0.014870
# 3 -0.000900 -0.008139 0.020866 -0.009837 -0.006801 0.007329
# 4 -0.001796 -0.000494 -0.009837 0.034055 0.001368 -0.000664
# 5 -0.005330 0.005285 -0.006801 0.001368 0.038658 -0.010607
# 6 -0.008345 -0.014870 0.007329 -0.000664 -0.010607 0.050857
#
#
# Mechanical properties :
#
#
# Convention : Reuss Voigt Hill
#
# Bulk Modulus (GPa) = 31.88848 55.62128 43.75488
# Shear Modulus (GPa) = 23.66052 32.66817 28.16435
#
# Velocity S-wave (km/s) = 3.39587 3.99026 3.70501
# Velocity P-wave (km/s) = 5.56041 6.95262 6.29512
#
# Compressibility (1/GPa) = 0.03135929
#
# Stress axis : x y z
#
# Youngs Moduli (GPa) = 61.20364 58.39661 47.92468
#
# Poissons Ratio (x) = 0.14281 0.04314
# Poissons Ratio (y) = 0.14968 0.39007
# Poissons Ratio (z) = 0.05510 0.47530
#
# Static dielectric constant tensor:
#      x y z
#    x 4.018780 0.258420 0.285130 
#    y 0.258420 3.772800 0.219250 
#    z 0.285130 0.219250 3.745400 
# 
# 
# High freq. dielectric constant tensor:
#      x y z
#    x 1.809200 0.019860 0.007070 
#    y 0.019860 1.786980 0.026630 
#    z 0.007070 0.026630 1.787300 
# 
# From -- ./inp_files/328063.got.cif
#   From: 2010.06.25/outbox.cif.g09.slc.cpg/sg2_165_cif.got.tgz:328063.got - 2010.06.27 13:26:56.
