data_PCOD8042815
_publ_section_title
;
Structure prediction by ZEFSAII (Michael W. Deem and Ramdas Pophale) SiO2 
 PCOD8042815
Probable space group: P -1
;
_chemical_formula_sum "Si O2"
_cell_formula_units_Z 16
_cell_length_a 11.953915
_cell_length_b 20.915992
_cell_length_c 8.645223
_cell_angle_alpha 49.455690
_cell_angle_beta 102.749316
_cell_angle_gamma 142.857332
_cell_volume 755.093465
_symmetry_space_group_name_H-M "P -1"
_symmetry_group_IT_number 2
_symmetry_cell_setting 'triclinic'
loop_
_space_group_symop_operation_xyz
x,y,z
-x,-y,-z
loop_
_atom_site_type_symbol
_atom_site_label
_atom_site_fract_x
_atom_site_fract_y
_atom_site_fract_z
Si Si1 0.714311 0.414831 0.498903
Si Si2 0.801835 0.978595 0.002820
Si Si3 0.169413 0.631954 0.157898
Si Si4 0.246507 0.803953 0.671538
Si Si5 0.305978 0.269299 0.207632
Si Si6 0.908473 0.939474 0.818843
Si Si7 0.582284 0.007642 0.860596
Si Si8 0.803568 0.612052 0.992187
O O1 0.435193 0.216995 0.684069
O O2 0.758615 0.417434 0.691362
O O3 0.772916 0.547663 0.253424
O O4 0.887252 0.463406 0.379362
O O5 0.823370 0.965710 0.848883
O O6 0.783355 0.066866 0.866871
O O7 0.036804 0.100047 0.979589
O O8 0.201446 0.677477 0.913906
O O9 0.344902 0.811721 0.018934
O O10 0.500000 0.000000 0.500000
O O11 0.271424 0.828345 0.455785
O O12 0.042450 0.733695 0.788802
O O13 0.302766 0.225808 0.103939
O O14 0.581455 0.449746 0.064243
O O15 0.178618 0.277956 0.142779
O O16 0.152655 0.114826 0.522548
O O17 0.500000 0.000000 0.000000
#
# Coordination Sequence:
#
# PCOD8042815 Si02
#       8
#     2   2   2   2   2   2   2   2
#     4   9  16  33  56  80 109 157 190 237 296 346
#     4  10  20  36  58  79 119 160 194 247 296 354
#     4   8  17  32  57  77 110 151 197 232 293 356
#     4   9  18  34  57  86 114 151 194 240 299 357
#     4  10  21  37  59  89 116 158 201 247 296 361
#     4  10  21  38  58  85 118 157 206 238 300 360
#     4  10  20  35  56  87 115 150 194 247 300 356
#     4  10  19  35  62  87 124 154 196 254 300 349
#
# _framework density 21.189430000000002
#
# number of rings (size 3 to 8) (size 9 to 14) (size 15 to 20)
#    0.000    2.500    1.250    0.750    0.000    3.000 
#    2.250    3.125    0.000    6.750    0.000    0.000 
#    0.000    0.000    0.000    0.000    0.000    0.000 
#
# Total GULP energy -198217.962690 kJ/mol
# GULP energy per Si atom -12388.622668 kJ/mol
# Density = 2.114120 g / cm^3
# Si number density = 21.189430 Si / 1000 Ang^3
#
#
#
# Elastic Constant Matrix: (Units=GPa)
#
#
# Indices 1 2 3 4 5 6 
#
# 1 99.3787 49.2388 33.5468 27.6441 3.8346 7.3796
# 2 49.2388 68.9813 33.6028 14.9770 -0.9267 -5.0780
# 3 33.5468 33.6028 108.1091 34.7207 -3.3668 2.7034
# 4 27.6441 14.9770 34.7207 37.3101 13.1322 -4.4384
# 5 3.8346 -0.9267 -3.3668 13.1322 29.3221 2.5673
# 6 7.3796 -5.0780 2.7034 -4.4384 2.5673 29.9893
#
#
#
# Elastic Compliance Matrix: (Units=1/GPa)
#
#
# Indices 1 2 3 4 5 6 
#
# 1 0.020812 -0.013716 0.003507 -0.016389 0.005521 -0.010658
# 2 -0.013716 0.026612 -0.006922 0.008025 -0.002622 0.009917
# 3 0.003507 -0.006922 0.017708 -0.021298 0.011575 -0.007775
# 4 -0.016389 0.008025 -0.021298 0.069593 -0.033006 0.020437
# 5 0.005521 -0.002622 0.011575 -0.033006 0.050465 -0.012051
# 6 -0.010658 0.009917 -0.007775 0.020437 -0.012051 0.042404
#
#
# Mechanical properties :
#
#
# Convention : Reuss Voigt Hill
#
# Bulk Modulus (GPa) = 32.39423 56.58288 44.48855
# Shear Modulus (GPa) = 18.37246 29.99633 24.18440
#
# Velocity S-wave (km/s) = 2.94778 3.76656 3.38204
# Velocity P-wave (km/s) = 5.18719 6.75850 6.02430
#
# Compressibility (1/GPa) = 0.03086969
#
# Stress axis : x y z
#
# Youngs Moduli (GPa) = 48.04976 37.57738 56.47048
#
# Poissons Ratio (x) = 0.51541 -0.19806
# Poissons Ratio (y) = 0.65905 0.39091
# Poissons Ratio (z) = -0.16852 0.26012
#
# Static dielectric constant tensor:
#      x y z
#    x 3.705940 0.405900 0.193280 
#    y 0.405900 3.645560 0.394090 
#    z 0.193280 0.394090 4.474800 
# 
# 
# High freq. dielectric constant tensor:
#      x y z
#    x 1.813140 0.039690 0.001540 
#    y 0.039690 1.807000 0.014650 
#    z 0.001540 0.014650 1.848160 
# 
# From -- ./inp_files/251640.got.cif
#   From: 2010.06.25/outbox.cif.g09.slc.cpg/sg2_126_cif.got.tgz:251640.got - 2010.06.27 13:26:56.
