data_PCOD8042987
_publ_section_title
;
Structure prediction by ZEFSAII (Michael W. Deem and Ramdas Pophale) SiO2 
 PCOD8042987
Probable space group: P -1
;
_chemical_formula_sum "Si O2"
_cell_formula_units_Z 14
_cell_length_a 15.495059
_cell_length_b 8.855000
_cell_length_c 15.727657
_cell_angle_alpha 37.734508
_cell_angle_beta 141.884264
_cell_angle_gamma 122.895506
_cell_volume 797.120729
_symmetry_space_group_name_H-M "P -1"
_symmetry_group_IT_number 2
_symmetry_cell_setting 'triclinic'
loop_
_space_group_symop_operation_xyz
x,y,z
-x,-y,-z
loop_
_atom_site_type_symbol
_atom_site_label
_atom_site_fract_x
_atom_site_fract_y
_atom_site_fract_z
Si Si1 0.636685 0.555380 0.033989
Si Si2 0.449505 0.884513 0.287549
Si Si3 0.721663 0.507787 0.649205
Si Si4 0.232879 0.831326 0.017809
Si Si5 0.196266 0.822974 0.797192
Si Si6 0.917358 0.633170 0.296682
Si Si7 0.080346 0.346377 0.401769
O O1 0.681008 0.350601 0.085815
O O2 0.768667 0.540178 0.208640
O O3 0.500000 0.500000 0.000000
O O4 0.591935 0.833172 0.832314
O O5 0.620174 0.783690 0.462633
O O6 0.374378 0.690809 0.369906
O O7 0.385644 0.892287 0.138092
O O8 0.838142 0.523921 0.662337
O O9 0.795567 0.406174 0.842058
O O10 0.241062 0.770848 0.952302
O O11 0.107119 0.069178 0.838030
O O12 0.042547 0.756765 0.695860
O O13 0.185696 0.115699 0.633931
O O14 0.000000 0.500000 0.500000
O O15 0.015692 0.565397 0.320221
#
# Coordination Sequence:
#
# PCOD8042987 Si02
#       7
#     2   2   2   2   2   2   2
#     4  10  20  36  56  80 109 147 176 220 276 322
#     4   8  18  37  56  74 109 141 178 223 262 313
#     4   9  18  36  59  75 104 146 183 214 267 320
#     4   9  18  35  56  76 109 139 177 223 261 315
#     4  10  20  34  53  82 112 136 176 227 269 312
#     4  10  19  36  54  81 113 137 181 228 262 314
#     4  10  20  33  56  78 109 145 174 218 276 318
#
# _framework density 17.563212
#
# number of rings (size 3 to 8) (size 9 to 14) (size 15 to 20)
#    0.857    1.714    1.429    0.857    0.000    1.143 
#    2.571    2.857    0.000    0.000    0.000    0.000 
#    0.000    0.000    0.000    0.000    0.000    0.000 
#
# Total GULP energy -173497.505199 kJ/mol
# GULP energy per Si atom -12392.678943 kJ/mol
# Density = 1.752324 g / cm^3
# Si number density = 17.563212 Si / 1000 Ang^3
#
#
#
# Elastic Constant Matrix: (Units=GPa)
#
#
# Indices 1 2 3 4 5 6 
#
# 1 140.0056 47.2883 63.7866 -0.0852 1.7120 -3.7060
# 2 47.2883 52.1374 36.5245 -9.5303 4.6941 -13.2575
# 3 63.7866 36.5245 133.2578 -11.3060 0.7709 -15.3344
# 4 -0.0852 -9.5303 -11.3060 24.5335 -8.3987 -0.6156
# 5 1.7120 4.6941 0.7709 -8.3987 29.6770 -1.1361
# 6 -3.7060 -13.2575 -15.3344 -0.6156 -1.1361 26.6616
#
#
#
# Elastic Compliance Matrix: (Units=1/GPa)
#
#
# Indices 1 2 3 4 5 6 
#
# 1 0.012816 -0.011433 -0.004342 -0.006915 -0.001028 -0.006604
# 2 -0.011433 0.037541 -0.001749 0.013920 -0.000667 0.016365
# 3 -0.004342 -0.001749 0.011078 0.005190 0.001903 0.005099
# 4 -0.006915 0.013920 0.005190 0.053463 0.013605 0.010760
# 5 -0.001028 -0.000667 0.001903 0.013605 0.037759 0.002543
# 6 -0.006604 0.016365 0.005099 0.010760 0.002543 0.048017
#
#
# Mechanical properties :
#
#
# Convention : Reuss Voigt Hill
#
# Bulk Modulus (GPa) = 37.89669 68.95552 53.42610
# Shear Modulus (GPa) = 20.44850 28.02784 24.23817
#
# Velocity S-wave (km/s) = 3.41586 3.99911 3.71894
# Velocity P-wave (km/s) = 6.09767 7.78912 6.99471
#
# Compressibility (1/GPa) = 0.02638753
#
# Stress axis : x y z
#
# Youngs Moduli (GPa) = 78.02820 26.63755 90.26975
#
# Poissons Ratio (x) = 0.30456 0.39192
# Poissons Ratio (y) = 0.89212 0.15785
# Poissons Ratio (z) = 0.33877 0.04658
#
# Static dielectric constant tensor:
#      x y z
#    x 3.021830 -0.068800 0.110970 
#    y -0.068800 3.178070 -0.206810 
#    z 0.110970 -0.206810 3.470510 
# 
# 
# High freq. dielectric constant tensor:
#      x y z
#    x 1.662420 -0.004520 0.010930 
#    y -0.004520 1.657970 -0.015840 
#    z 0.010930 -0.015840 1.692430 
# 
# From -- ./inp_files/176659.got.cif
#   From: 2010.06.25/outbox.cif.g09.slc.cpg/sg2_89_cif.got.tgz:176659.got - 2010.06.27 13:26:56.
