data_PCOD8042122
_publ_section_title
;
Structure prediction by ZEFSAII (Michael W. Deem and Ramdas Pophale) SiO2 
 PCOD8042122
Probable space group: P -1
;
_chemical_formula_sum "Si O2"
_cell_formula_units_Z 16
_cell_length_a 12.387087
_cell_length_b 9.589306
_cell_length_c 15.460174
_cell_angle_alpha 78.921433
_cell_angle_beta 29.146856
_cell_angle_gamma 67.242410
_cell_volume 780.191423
_symmetry_space_group_name_H-M "P -1"
_symmetry_group_IT_number 2
_symmetry_cell_setting 'triclinic'
loop_
_space_group_symop_operation_xyz
x,y,z
-x,-y,-z
loop_
_atom_site_type_symbol
_atom_site_label
_atom_site_fract_x
_atom_site_fract_y
_atom_site_fract_z
Si Si1 0.206965 0.247846 0.902666
Si Si2 0.205950 0.074551 0.089067
Si Si3 0.044627 0.558166 0.272013
Si Si4 0.264725 0.583289 0.412060
Si Si5 0.171070 0.552313 0.989214
Si Si6 0.065124 0.776588 0.372919
Si Si7 0.547296 0.773871 0.980543
Si Si8 0.243705 0.879048 0.494576
O O1 0.163729 0.396624 0.975276
O O2 0.468026 0.178785 0.675586
O O3 0.201614 0.114559 0.986411
O O4 0.987989 0.297407 0.979742
O O5 0.262246 0.190879 0.098657
O O6 0.936238 0.086278 0.300335
O O7 0.428405 0.895712 0.969515
O O8 0.026407 0.713360 0.314998
O O9 0.297500 0.404161 0.143934
O O10 0.809245 0.528214 0.463713
O O11 0.042691 0.590219 0.167896
O O12 0.548322 0.472136 0.197785
O O13 0.074541 0.653034 0.455249
O O14 0.229901 0.741084 0.466031
O O15 0.328554 0.781937 0.194615
O O16 0.849423 0.957620 0.515893
#
# Coordination Sequence:
#
# PCOD8042122 Si02
#       8
#     2   2   2   2   2   2   2   2
#     4  10  20  38  61  84 114 151 199 238 278 335
#     4  10  19  35  58  90 114 148 193 237 285 334
#     4  12  22  39  56  87 123 153 183 235 296 341
#     4  11  21  37  60  86 116 150 194 235 283 345
#     4  10  22  38  58  85 116 154 193 238 283 335
#     4  11  23  36  58  89 120 152 185 235 295 347
#     4  10  19  34  58  83 120 151 179 235 288 341
#     4  10  21  37  59  87 114 149 192 239 282 336
#
# _framework density 20.507788000000001
#
# number of rings (size 3 to 8) (size 9 to 14) (size 15 to 20)
#    0.000    1.500    3.750    1.875    1.750    1.000 
#    0.000    4.375    0.000    3.750    0.000    0.000 
#    0.000    0.000    0.000    0.000    0.000    0.000 
#
# Total GULP energy -198390.811152 kJ/mol
# GULP energy per Si atom -12399.425697 kJ/mol
# Density = 2.046111 g / cm^3
# Si number density = 20.507788 Si / 1000 Ang^3
#
#
#
# Elastic Constant Matrix: (Units=GPa)
#
#
# Indices 1 2 3 4 5 6 
#
# 1 78.6458 34.5083 45.7734 -10.9818 0.1104 -32.5937
# 2 34.5083 65.6351 30.9388 -8.7301 -3.1321 -20.8611
# 3 45.7734 30.9388 93.0373 -12.9322 -0.2860 -15.4323
# 4 -10.9818 -8.7301 -12.9322 20.8766 -12.6266 5.5203
# 5 0.1104 -3.1321 -0.2860 -12.6266 21.8419 -2.5144
# 6 -32.5937 -20.8611 -15.4323 5.5203 -2.5144 34.3097
#
#
#
# Elastic Compliance Matrix: (Units=1/GPa)
#
#
# Indices 1 2 3 4 5 6 
#
# 1 0.028636 -0.003366 -0.008718 0.005814 0.004999 0.020667
# 2 -0.003366 0.022944 -0.003221 0.009455 0.009709 0.008495
# 3 -0.008718 -0.003221 0.016553 0.007577 0.003749 -0.003739
# 4 0.005814 0.009455 0.007577 0.091798 0.054946 0.003937
# 5 0.004999 0.009709 0.003749 0.054946 0.080041 0.009363
# 6 0.020667 0.008495 -0.003739 0.003937 0.009363 0.052315
#
#
# Mechanical properties :
#
#
# Convention : Reuss Voigt Hill
#
# Bulk Modulus (GPa) = 26.64918 51.08438 38.86678
# Shear Modulus (GPa) = 14.90734 23.81217 19.35975
#
# Velocity S-wave (km/s) = 2.69905 3.41123 3.07582
# Velocity P-wave (km/s) = 4.76823 6.36232 5.62206
#
# Compressibility (1/GPa) = 0.03752461
#
# Stress axis : x y z
#
# Youngs Moduli (GPa) = 34.92119 43.58352 60.41183
#
# Poissons Ratio (x) = 0.14669 0.52665
# Poissons Ratio (y) = 0.11754 0.19458
# Poissons Ratio (z) = 0.30443 0.14038
#
# Static dielectric constant tensor:
#      x y z
#    x 3.400230 -0.221060 -0.097860 
#    y -0.221060 3.716070 -0.021400 
#    z -0.097860 -0.021400 3.892340 
# 
# 
# High freq. dielectric constant tensor:
#      x y z
#    x 1.764710 -0.014400 -0.000620 
#    y -0.014400 1.797010 -0.003320 
#    z -0.000620 -0.003320 1.809840 
# 
# From -- ./inp_files/302962.got.cif
#   From: 2010.06.25/outbox.cif.g09.slc.cpg/sg2_152_cif.got.tgz:302962.got - 2010.06.27 13:26:56.
