data_PCOD8042425
_publ_section_title
;
Structure prediction by ZEFSAII (Michael W. Deem and Ramdas Pophale) SiO2 
 PCOD8042425
Probable space group: P -1
;
_chemical_formula_sum "Si O2"
_cell_formula_units_Z 12
_cell_length_a 7.690017
_cell_length_b 14.608612
_cell_length_c 5.406351
_cell_angle_alpha 124.628310
_cell_angle_beta 108.050307
_cell_angle_gamma 69.665191
_cell_volume 463.619404
_symmetry_space_group_name_H-M "P -1"
_symmetry_group_IT_number 2
_symmetry_cell_setting 'triclinic'
loop_
_space_group_symop_operation_xyz
x,y,z
-x,-y,-z
loop_
_atom_site_type_symbol
_atom_site_label
_atom_site_fract_x
_atom_site_fract_y
_atom_site_fract_z
Si Si1 0.484870 0.656939 0.833782
Si Si2 0.212532 0.544785 0.287534
Si Si3 0.385331 0.853437 0.760390
Si Si4 0.999651 0.126120 0.593307
Si Si5 0.126578 0.648906 0.903373
Si Si6 0.360997 0.072533 0.359414
O O1 0.396897 0.600078 0.472302
O O2 0.699799 0.592013 0.881217
O O3 0.481001 0.786086 0.941942
O O4 0.347075 0.656476 0.006347
O O5 0.095888 0.579583 0.034820
O O6 0.080571 0.584667 0.533899
O O7 0.192129 0.818192 0.550307
O O8 0.538082 0.833037 0.572994
O O9 0.322430 0.988665 0.995776
O O10 0.002612 0.221332 0.954052
O O11 0.166931 0.130004 0.487847
O O12 0.000000 0.000000 0.500000
O O13 0.500000 0.000000 0.500000
#
# Coordination Sequence:
#
# PCOD8042425 Si02
#       6
#     2   2   2   2   2   2
#     4   9  19  33  61  91 122 164 208 262 312 374
#     4   9  19  32  59  96 125 155 217 260 306 379
#     4  11  23  42  63  91 128 166 216 260 319 379
#     4  12  22  38  67  90 127 171 211 260 320 377
#     4  10  19  35  55  96 123 160 210 261 309 376
#     4  11  25  42  59  94 127 165 216 262 315 384
#
# _framework density 25.883296000000001
#
# number of rings (size 3 to 8) (size 9 to 14) (size 15 to 20)
#    1.000    0.667    3.333    2.000    0.000    1.333 
#    0.000    0.000    0.000    2.000    0.000    0.000 
#    0.000    0.000    0.000    0.000    0.000    0.000 
#
# Total GULP energy -148720.650499 kJ/mol
# GULP energy per Si atom -12393.387542 kJ/mol
# Density = 2.582438 g / cm^3
# Si number density = 25.883296 Si / 1000 Ang^3
#
#
#
# Elastic Constant Matrix: (Units=GPa)
#
#
# Indices 1 2 3 4 5 6 
#
# 1 126.4101 24.6678 47.9031 -3.7879 -38.8282 -8.8445
# 2 24.6678 136.8405 32.3257 -7.9091 -31.9488 -9.9303
# 3 47.9031 32.3257 83.2269 -14.4184 -42.0619 -7.9798
# 4 -3.7879 -7.9091 -14.4184 41.9968 -3.7562 -16.2992
# 5 -38.8282 -31.9488 -42.0619 -3.7562 47.6459 -0.6908
# 6 -8.8445 -9.9303 -7.9798 -16.2992 -0.6908 26.2546
#
#
#
# Elastic Compliance Matrix: (Units=1/GPa)
#
#
# Indices 1 2 3 4 5 6 
#
# 1 0.011781 0.001380 0.000059 0.005536 0.011134 0.008239
# 2 0.001380 0.010463 0.004565 0.009514 0.013095 0.012061
# 3 0.000059 0.004565 0.039941 0.031737 0.041374 0.034678
# 4 0.005536 0.009514 0.031737 0.062326 0.044619 0.054976
# 5 0.011134 0.013095 0.041374 0.044619 0.079626 0.051074
# 6 0.008239 0.012061 0.034678 0.054976 0.051074 0.091439
#
#
# Mechanical properties :
#
#
# Convention : Reuss Voigt Hill
#
# Bulk Modulus (GPa) = 13.47832 61.80785 37.64308
# Shear Modulus (GPa) = 16.21790 39.28486 27.75138
#
# Velocity S-wave (km/s) = 2.50587 3.90008 3.27796
# Velocity P-wave (km/s) = 3.68662 6.64922 5.37602
#
# Compressibility (1/GPa) = 0.07419323
#
# Stress axis : x y z
#
# Youngs Moduli (GPa) = 84.87936 95.57265 25.03665
#
# Poissons Ratio (x) = -0.13185 -0.00148
# Poissons Ratio (y) = -0.11710 -0.11428
# Poissons Ratio (z) = -0.00503 -0.43626
#
# Static dielectric constant tensor:
#      x y z
#    x 4.479770 -0.198680 -0.361060 
#    y -0.198680 4.821270 0.541000 
#    z -0.361060 0.541000 4.850480 
# 
# 
# High freq. dielectric constant tensor:
#      x y z
#    x 2.016940 0.003940 -0.015020 
#    y 0.003940 2.027520 0.009790 
#    z -0.015020 0.009790 2.031690 
# 
# From -- ./inp_files/30822.got.cif
#   From: 2010.06.25/outbox.cif.g09.slc.cpg/sg2_16_cif.got.tgz:30822.got - 2010.06.27 13:26:56.
