data_PCOD8042837
_publ_section_title
;
Structure prediction by ZEFSAII (Michael W. Deem and Ramdas Pophale) SiO2 
 PCOD8042837
Probable space group: P -1
;
_chemical_formula_sum "Si O2"
_cell_formula_units_Z 16
_cell_length_a 10.187522
_cell_length_b 22.953546
_cell_length_c 9.513303
_cell_angle_alpha 25.625040
_cell_angle_beta 55.777925
_cell_angle_gamma 53.731155
_cell_volume 772.995158
_symmetry_space_group_name_H-M "P -1"
_symmetry_group_IT_number 2
_symmetry_cell_setting 'triclinic'
loop_
_space_group_symop_operation_xyz
x,y,z
-x,-y,-z
loop_
_atom_site_type_symbol
_atom_site_label
_atom_site_fract_x
_atom_site_fract_y
_atom_site_fract_z
Si Si1 0.655844 0.375023 0.677197
Si Si2 0.803815 0.815914 0.392745
Si Si3 0.424644 0.845953 0.590719
Si Si4 0.712225 0.920611 0.622290
Si Si5 0.996736 0.445422 0.277289
Si Si6 0.719732 0.119594 0.701607
Si Si7 0.999186 0.269266 0.255908
Si Si8 0.602709 0.159497 0.978944
O O1 0.500000 0.500000 0.500000
O O2 0.820856 0.427097 0.473145
O O3 0.659659 0.294562 0.701948
O O4 0.641702 0.275867 0.032032
O O5 0.619756 0.819375 0.544961
O O6 0.922787 0.781990 0.528681
O O7 0.866448 0.699823 0.485852
O O8 0.819319 0.959981 0.999503
O O9 0.381376 0.850940 0.443129
O O10 0.331992 0.991768 0.398711
O O11 0.880174 0.803510 0.784246
O O12 0.571663 0.839627 0.847603
O O13 0.729079 0.021544 0.261727
O O14 0.037966 0.563281 0.098379
O O15 0.000000 0.500000 0.000000
O O16 0.588996 0.152753 0.834572
O O17 0.832756 0.225218 0.425861
#
# Coordination Sequence:
#
# PCOD8042837 Si02
#       8
#     2   2   2   2   2   2   2   2
#     4  11  22  41  67  93 130 173 215 260 321 391
#     4  11  21  41  66  93 131 170 215 261 318 383
#     4  11  25  41  63  98 130 168 211 269 330 378
#     4  10  19  36  60  90 127 161 212 262 313 371
#     4  10  22  39  64  95 123 165 217 265 313 369
#     4  12  24  39  65  98 130 167 216 267 326 372
#     4  11  22  39  65  95 125 167 220 264 311 385
#     4  10  19  35  62  92 119 165 218 256 302 381
#
# _framework density 20.698706000000001
#
# number of rings (size 3 to 8) (size 9 to 14) (size 15 to 20)
#    0.000    1.250    2.500    6.000    3.500    0.500 
#    0.000    3.125    0.000    0.000    0.000    0.000 
#    0.000    0.000    0.000    0.000    0.000    0.000 
#
# Total GULP energy -198361.429529 kJ/mol
# GULP energy per Si atom -12397.589346 kJ/mol
# Density = 2.065160 g / cm^3
# Si number density = 20.698706 Si / 1000 Ang^3
#
#
#
# Elastic Constant Matrix: (Units=GPa)
#
#
# Indices 1 2 3 4 5 6 
#
# 1 48.6623 12.1539 13.2536 3.1507 -10.8894 11.3466
# 2 12.1539 119.0512 33.8759 -13.1849 -2.2207 -3.6566
# 3 13.2536 33.8759 88.9589 -15.0782 -27.8671 4.1120
# 4 3.1507 -13.1849 -15.0782 34.6804 3.8958 2.3795
# 5 -10.8894 -2.2207 -27.8671 3.8958 35.1955 9.0270
# 6 11.3466 -3.6566 4.1120 2.3795 9.0270 32.7154
#
#
#
# Elastic Compliance Matrix: (Units=1/GPa)
#
#
# Indices 1 2 3 4 5 6 
#
# 1 0.027503 -0.003838 0.001530 -0.003865 0.013388 -0.013573
# 2 -0.003838 0.010560 -0.005140 0.002490 -0.006059 0.004648
# 3 0.001530 -0.005140 0.019703 0.005116 0.017431 -0.008764
# 4 -0.003865 0.002490 0.005116 0.032475 -0.000244 -0.001319
# 5 0.013388 -0.006059 0.017431 -0.000244 0.051573 -0.021724
# 6 -0.013573 0.004648 -0.008764 -0.001319 -0.021724 0.042985
#
#
# Mechanical properties :
#
#
# Convention : Reuss Voigt Hill
#
# Bulk Modulus (GPa) = 23.32688 41.69325 32.51006
# Shear Modulus (GPa) = 23.36612 33.67751 28.52181
#
# Velocity S-wave (km/s) = 3.36351 4.03803 3.71610
# Velocity P-wave (km/s) = 5.13600 6.47515 5.84406
#
# Compressibility (1/GPa) = 0.04286901
#
# Stress axis : x y z
#
# Youngs Moduli (GPa) = 36.36024 94.69901 50.75294
#
# Poissons Ratio (x) = 0.36349 -0.07766
# Poissons Ratio (y) = 0.13956 0.26088
# Poissons Ratio (z) = -0.05564 0.48677
#
# Static dielectric constant tensor:
#      x y z
#    x 3.397870 -0.042610 -0.223290 
#    y -0.042610 4.311220 -0.283820 
#    z -0.223290 -0.283820 3.990740 
# 
# 
# High freq. dielectric constant tensor:
#      x y z
#    x 1.777570 -0.003310 -0.028260 
#    y -0.003310 1.825860 -0.008690 
#    z -0.028260 -0.008690 1.809840 
# 
# From -- ./inp_files/222833.got.cif
#   From: 2010.06.25/outbox.cif.g09.slc.cpg/sg2_112_cif.got.tgz:222833.got - 2010.06.27 13:26:56.
