data_PCOD8042334
_publ_section_title
;
Structure prediction by ZEFSAII (Michael W. Deem and Ramdas Pophale) SiO2 
 PCOD8042334
Probable space group: P -1
;
_chemical_formula_sum "Si O2"
_cell_formula_units_Z 12
_cell_length_a 11.754153
_cell_length_b 11.658920
_cell_length_c 14.454294
_cell_angle_alpha 149.907845
_cell_angle_beta 137.161746
_cell_angle_gamma 63.607329
_cell_volume 560.786645
_symmetry_space_group_name_H-M "P -1"
_symmetry_group_IT_number 2
_symmetry_cell_setting 'triclinic'
loop_
_space_group_symop_operation_xyz
x,y,z
-x,-y,-z
loop_
_atom_site_type_symbol
_atom_site_label
_atom_site_fract_x
_atom_site_fract_y
_atom_site_fract_z
Si Si1 0.208752 0.533533 0.657979
Si Si2 0.500563 0.151918 0.297390
Si Si3 0.545012 0.433819 0.336273
Si Si4 0.266942 0.363882 0.966061
Si Si5 0.620230 0.719566 0.303726
Si Si6 0.830351 0.133934 0.569733
O O1 0.265905 0.497013 0.563840
O O2 0.207933 0.313306 0.571346
O O3 0.000000 0.500000 0.500000
O O4 0.368930 0.825695 0.004342
O O5 0.509765 0.211471 0.235857
O O6 0.400926 0.286078 0.386317
O O7 0.722287 0.269457 0.553254
O O8 0.344676 0.301032 0.061815
O O9 0.071344 0.368226 0.878942
O O10 0.205986 0.123455 0.689539
O O11 0.451649 0.657403 0.238283
O O12 0.738510 0.025386 0.542936
O O13 0.500000 0.500000 0.000000
#
# Coordination Sequence:
#
# PCOD8042334 Si02
#       6
#     2   2   2   2   2   2
#     4  11  23  38  64  85 117 162 195 243 309 345
#     4  11  22  40  60  87 121 158 195 251 295 351
#     4  10  23  40  59  88 121 151 209 242 287 370
#     4   9  19  35  59  87 115 154 199 240 292 361
#     4   9  17  36  55  89 114 145 201 243 285 362
#     4  10  19  34  64  85 118 157 193 247 302 347
#
# _framework density 21.398512
#
# number of rings (size 3 to 8) (size 9 to 14) (size 15 to 20)
#    0.000    2.000    5.000    0.500    2.333    4.000 
#    0.000    3.333    0.000    0.000    0.000    0.000 
#    0.000    0.000    0.000    0.000    0.000    0.000 
#
# Total GULP energy -148759.021904 kJ/mol
# GULP energy per Si atom -12396.585159 kJ/mol
# Density = 2.134981 g / cm^3
# Si number density = 21.398512 Si / 1000 Ang^3
#
#
#
# Elastic Constant Matrix: (Units=GPa)
#
#
# Indices 1 2 3 4 5 6 
#
# 1 112.9004 58.7119 43.2015 -17.3248 30.1722 -6.5026
# 2 58.7119 123.1569 44.0151 -31.7608 28.6166 12.0746
# 3 43.2015 44.0151 40.5880 -18.0233 22.9852 5.0443
# 4 -17.3248 -31.7608 -18.0233 35.7665 -12.7070 4.8491
# 5 30.1722 28.6166 22.9852 -12.7070 28.0203 -6.8360
# 6 -6.5026 12.0746 5.0443 4.8491 -6.8360 35.6100
#
#
#
# Elastic Compliance Matrix: (Units=1/GPa)
#
#
# Indices 1 2 3 4 5 6 
#
# 1 0.017207 -0.004034 -0.015989 -0.004901 -0.001783 0.007100
# 2 -0.004034 0.016339 -0.004986 0.008940 -0.006141 -0.007967
# 3 -0.015989 -0.004986 0.081654 0.016978 -0.042656 -0.023296
# 4 -0.004901 0.008940 0.016978 0.043357 -0.001157 -0.012458
# 5 -0.001783 -0.006141 -0.042656 -0.001157 0.084232 0.024127
# 6 0.007100 -0.007967 -0.023296 -0.012458 0.024127 0.041708
#
#
# Mechanical properties :
#
#
# Convention : Reuss Voigt Hill
#
# Bulk Modulus (GPa) = 15.34190 63.16691 39.25441
# Shear Modulus (GPa) = 14.03536 28.59384 21.31460
#
# Velocity S-wave (km/s) = 2.56384 3.65945 3.15950
# Velocity P-wave (km/s) = 3.99369 6.88758 5.62976
#
# Compressibility (1/GPa) = 0.06518098
#
# Stress axis : x y z
#
# Youngs Moduli (GPa) = 58.11644 61.20442 12.24677
#
# Poissons Ratio (x) = 0.24693 0.19581
# Poissons Ratio (y) = 0.23447 0.06106
# Poissons Ratio (z) = 0.92921 0.30517
#
# Static dielectric constant tensor:
#      x y z
#    x 4.320660 0.210520 0.319260 
#    y 0.210520 4.090200 -0.130980 
#    z 0.319260 -0.130980 3.727850 
# 
# 
# High freq. dielectric constant tensor:
#      x y z
#    x 1.844550 0.004650 -0.002070 
#    y 0.004650 1.846980 -0.016970 
#    z -0.002070 -0.016970 1.811200 
# 
# From -- ./inp_files/154302.got.cif
#   From: 2010.06.25/outbox.cif.g09.slc.cpg/sg2_78_cif.got.tgz:154302.got - 2010.06.27 13:26:56.
