data_PCOD8042921
_publ_section_title
;
Structure prediction by ZEFSAII (Michael W. Deem and Ramdas Pophale) SiO2 
 PCOD8042921
Probable space group: P -1
;
_chemical_formula_sum "Si O2"
_cell_formula_units_Z 16
_cell_length_a 9.029233
_cell_length_b 8.906204
_cell_length_c 27.253380
_cell_angle_alpha 39.497935
_cell_angle_beta 40.286103
_cell_angle_gamma 70.852071
_cell_volume 697.266612
_symmetry_space_group_name_H-M "P -1"
_symmetry_group_IT_number 2
_symmetry_cell_setting 'triclinic'
loop_
_space_group_symop_operation_xyz
x,y,z
-x,-y,-z
loop_
_atom_site_type_symbol
_atom_site_label
_atom_site_fract_x
_atom_site_fract_y
_atom_site_fract_z
Si Si1 0.070126 0.306396 0.886430
Si Si2 0.040500 0.791931 0.885619
Si Si3 0.587291 0.302279 0.047610
Si Si4 0.521375 0.421190 0.569183
Si Si5 0.961556 0.794009 0.605613
Si Si6 0.570836 0.640362 0.604165
Si Si7 0.873400 0.402497 0.643774
Si Si8 0.638255 0.435177 0.154862
O O1 0.232286 0.424501 0.763210
O O2 0.303495 0.559142 0.803428
O O3 0.773433 0.271776 0.968159
O O4 0.000000 0.000000 0.000000
O O5 0.310147 0.783742 0.829741
O O6 0.190956 0.105944 0.740917
O O7 0.795007 0.487884 0.994190
O O8 0.877276 0.767624 0.983649
O O9 0.303030 0.960936 0.221294
O O10 0.500000 0.500000 0.000000
O O11 0.500000 0.500000 0.500000
O O12 0.571690 0.644037 0.543762
O O13 0.792189 0.413757 0.506509
O O14 0.901258 0.501909 0.669113
O O15 0.692891 0.686495 0.737190
O O16 0.000000 0.000000 0.500000
O O17 0.254760 0.009080 0.511030
O O18 0.719284 0.497619 0.624389
#
# Coordination Sequence:
#
# PCOD8042921 Si02
#       8
#     2   2   2   2   2   2   2   2
#     4  11  19  38  68  98 137 175 237 292 345 420
#     4  10  23  37  64  93 136 184 230 275 355 413
#     4  11  24  41  65 102 144 186 225 286 362 427
#     4  12  27  45  64  97 147 186 232 292 362 429
#     4  10  19  38  65 105 140 168 223 298 355 399
#     4  11  23  40  73 105 131 183 243 293 350 413
#     4  11  23  42  71 101 138 181 234 294 352 421
#     4  10  19  35  64  99 132 168 227 294 339 406
#
# _framework density 22.946743000000001
#
# number of rings (size 3 to 8) (size 9 to 14) (size 15 to 20)
#    0.000    1.250    3.750    3.375    7.000    0.000 
#    0.000    1.875    0.000    3.750    0.000    0.000 
#    0.000    0.000    0.000    0.000    0.000    0.000 
#
# Total GULP energy -198236.032715 kJ/mol
# GULP energy per Si atom -12389.752045 kJ/mol
# Density = 2.289452 g / cm^3
# Si number density = 22.946743 Si / 1000 Ang^3
#
#
#
# Elastic Constant Matrix: (Units=GPa)
#
#
# Indices 1 2 3 4 5 6 
#
# 1 66.4836 36.0040 29.2313 2.4521 8.3205 14.3785
# 2 36.0040 93.8535 41.0612 9.5621 -4.6469 11.4816
# 3 29.2313 41.0612 137.7265 12.3062 -2.5645 10.6187
# 4 2.4521 9.5621 12.3062 57.1702 5.3634 -4.3101
# 5 8.3205 -4.6469 -2.5645 5.3634 30.1967 2.5849
# 6 14.3785 11.4816 10.6187 -4.3101 2.5849 44.9296
#
#
#
# Elastic Compliance Matrix: (Units=1/GPa)
#
#
# Indices 1 2 3 4 5 6 
#
# 1 0.021757 -0.007292 -0.002372 0.001168 -0.007183 -0.004013
# 2 -0.007292 0.015218 -0.002595 -0.002217 0.004646 -0.001422
# 3 -0.002372 -0.002595 0.008769 -0.001544 0.001348 -0.000876
# 4 0.001168 -0.002217 -0.001544 0.018749 -0.004348 0.002606
# 5 -0.007183 0.004646 0.001348 -0.004348 0.036846 -0.001744
# 6 -0.004013 -0.001422 -0.000876 0.002606 -0.001744 0.024462
#
#
# Mechanical properties :
#
#
# Convention : Reuss Voigt Hill
#
# Bulk Modulus (GPa) = 47.11638 56.73963 51.92800
# Shear Modulus (GPa) = 31.76724 39.24376 35.50550
#
# Velocity S-wave (km/s) = 3.72478 4.13996 3.93784
# Velocity P-wave (km/s) = 6.25109 6.90164 6.58440
#
# Compressibility (1/GPa) = 0.02122404
#
# Stress axis : x y z
#
# Youngs Moduli (GPa) = 45.96155 65.71377 114.04407
#
# Poissons Ratio (x) = 0.47920 0.27056
# Poissons Ratio (y) = 0.33516 0.29594
# Poissons Ratio (z) = 0.10904 0.17052
#
# Static dielectric constant tensor:
#      x y z
#    x 3.893690 0.270530 -0.257410 
#    y 0.270530 4.529840 0.199700 
#    z -0.257410 0.199700 4.520050 
# 
# 
# High freq. dielectric constant tensor:
#      x y z
#    x 1.864520 0.019120 -0.014620 
#    y 0.019120 1.907010 0.013030 
#    z -0.014620 0.013030 1.922040 
# 
# From -- ./inp_files/616771.got.cif
#   From: 2010.06.25/outbox.cif.g09.slc.cpg/sg2_309_cif.got.tgz:616771.got - 2010.06.27 13:26:56.
