data_PCOD8042185
_publ_section_title
;
Structure prediction by ZEFSAII (Michael W. Deem and Ramdas Pophale) SiO2 
 PCOD8042185
Probable space group: P -1
;
_chemical_formula_sum "Si O2"
_cell_formula_units_Z 16
_cell_length_a 5.342098
_cell_length_b 22.888958
_cell_length_c 9.354137
_cell_angle_alpha 126.128244
_cell_angle_beta 85.322136
_cell_angle_gamma 59.861075
_cell_volume 672.147431
_symmetry_space_group_name_H-M "P -1"
_symmetry_group_IT_number 2
_symmetry_cell_setting 'triclinic'
loop_
_space_group_symop_operation_xyz
x,y,z
-x,-y,-z
loop_
_atom_site_type_symbol
_atom_site_label
_atom_site_fract_x
_atom_site_fract_y
_atom_site_fract_z
Si Si1 0.463000 0.441825 0.812538
Si Si2 0.086060 0.157705 0.317692
Si Si3 0.449745 0.205246 0.527305
Si Si4 0.042866 0.010223 0.674478
Si Si5 0.410988 0.057610 0.878170
Si Si6 0.258508 0.603992 0.575080
Si Si7 0.291595 0.383039 0.283588
Si Si8 0.719033 0.629500 0.059661
O O1 0.714690 0.401140 0.606315
O O2 0.523478 0.359519 0.791360
O O3 0.500000 0.500000 0.000000
O O4 0.080677 0.516928 0.874475
O O5 0.157021 0.224978 0.471788
O O6 0.693517 0.210389 0.431946
O O7 0.355308 0.051136 0.224067
O O8 0.148536 0.144729 0.127182
O O9 0.256529 0.290727 0.781643
O O10 0.684276 0.098758 0.432683
O O11 0.659683 0.074201 0.846004
O O12 0.000000 0.000000 0.500000
O O13 0.179827 0.065271 0.774790
O O14 0.500000 0.500000 0.500000
O O15 0.364888 0.663002 0.710683
O O16 0.863835 0.662924 0.720290
O O17 0.000000 0.500000 0.500000
O O18 0.418538 0.351907 0.068314
#
# Coordination Sequence:
#
# PCOD8042185 Si02
#       8
#     2   2   2   2   2   2   2   2
#     4  11  23  37  61  87 111 155 206 252 294 360
#     4   9  18  35  57  86 111 148 195 230 287 347
#     4  10  22  36  57  85 119 151 184 247 298 341
#     4  10  19  34  59  88 118 153 196 231 275 348
#     4   9  17  32  60  85 111 153 193 232 271 343
#     4  10  19  35  58  80 107 138 194 239 285 343
#     4  10  19  36  58  81 105 150 196 235 287 362
#     4  11  24  37  60  87 118 155 201 255 306 350
#
# _framework density 23.804302
#
# number of rings (size 3 to 8) (size 9 to 14) (size 15 to 20)
#    0.000    2.000    2.500    2.625    3.500    3.000 
#    0.000    0.000    8.250    0.000    0.000    0.000 
#    0.000    0.000    0.000    0.000    0.000    0.000 
#
# Total GULP energy -198253.766132 kJ/mol
# GULP energy per Si atom -12390.860383 kJ/mol
# Density = 2.375012 g / cm^3
# Si number density = 23.804302 Si / 1000 Ang^3
#
#
#
# Elastic Constant Matrix: (Units=GPa)
#
#
# Indices 1 2 3 4 5 6 
#
# 1 165.9247 38.4734 35.4215 -11.5924 16.3934 4.4601
# 2 38.4734 33.0942 29.8211 -36.8124 -9.1833 9.5417
# 3 35.4215 29.8211 117.3671 -33.6447 18.9097 1.6161
# 4 -11.5924 -36.8124 -33.6447 36.8370 -1.1550 -0.2085
# 5 16.3934 -9.1833 18.9097 -1.1550 45.1902 -11.2068
# 6 4.4601 9.5417 1.6161 -0.2085 -11.2068 20.9194
#
#
#
# Elastic Compliance Matrix: (Units=1/GPa)
#
#
# Indices 1 2 3 4 5 6 
#
# 1 0.004181 0.013476 -0.000520 0.014273 0.000120 -0.006791
# 2 0.013476 -0.072422 -0.004510 -0.072567 -0.014054 0.022256
# 3 -0.000520 -0.004510 0.012868 0.006866 -0.006491 -0.002235
# 4 0.014273 -0.072567 0.006866 -0.035097 -0.018981 0.019008
# 5 0.000120 -0.014054 -0.006491 -0.018981 0.026663 0.020981
# 6 -0.006791 0.022256 -0.002235 0.019008 0.020981 0.050701
#
#
# Mechanical properties :
#
#
# Convention : Reuss Voigt Hill
#
# Bulk Modulus (GPa) = -25.98649 58.20200 16.10776
# Shear Modulus (GPa) = -116.75942 34.76730 -40.99606
#
# Velocity S-wave (km/s) = -7.01115 3.82586 -4.15446
# Velocity P-wave (km/s) = 8.74540 6.63472 4.02880
#
# Compressibility (1/GPa) = -0.03848153
#
# Stress axis : x y z
#
# Youngs Moduli (GPa) = 239.17267 -13.80800 77.71195
#
# Poissons Ratio (x) = 0.18607 0.04043
# Poissons Ratio (y) = -3.22304 0.35048
# Poissons Ratio (z) = 0.12442 -0.06227
#
# Static dielectric constant tensor:
#      x y z
#    x 5.231640 0.276260 0.176030 
#    y 0.276260 4.023520 -0.196170 
#    z 0.176030 -0.196170 4.204300 
# 
# 
# High freq. dielectric constant tensor:
#      x y z
#    x 1.962510 0.001950 0.009690 
#    y 0.001950 1.910500 -0.015720 
#    z 0.009690 -0.015720 1.940920 
# 
# From -- ./inp_files/39858.got.cif
#   From: 2010.06.25/outbox.cif.g09.slc.cpg/sg2_20_cif.got.tgz:39858.got - 2010.06.27 13:26:56.
