data_PCOD8042037
_publ_section_title
;
Structure prediction by ZEFSAII (Michael W. Deem and Ramdas Pophale) SiO2 
 PCOD8042037
Probable space group: P -1
;
_chemical_formula_sum "Si O2"
_cell_formula_units_Z 16
_cell_length_a 15.735949
_cell_length_b 12.046933
_cell_length_c 10.868241
_cell_angle_alpha 46.570339
_cell_angle_beta 136.604027
_cell_angle_gamma 145.384123
_cell_volume 782.690245
_symmetry_space_group_name_H-M "P -1"
_symmetry_group_IT_number 2
_symmetry_cell_setting 'triclinic'
loop_
_space_group_symop_operation_xyz
x,y,z
-x,-y,-z
loop_
_atom_site_type_symbol
_atom_site_label
_atom_site_fract_x
_atom_site_fract_y
_atom_site_fract_z
Si Si1 0.753028 0.748860 0.787185
Si Si2 0.496706 0.598714 0.045458
Si Si3 0.968493 0.262046 0.930448
Si Si4 0.837880 0.976556 0.218906
Si Si5 0.990147 0.570188 0.572041
Si Si6 0.876282 0.021157 0.498896
Si Si7 0.314611 0.012322 0.333256
Si Si8 0.649927 0.293783 0.351463
O O1 0.579825 0.544885 0.805519
O O2 0.784933 0.935164 0.745024
O O3 0.756096 0.801950 0.606217
O O4 0.899511 0.752098 0.972247
O O5 0.673298 0.802938 0.107317
O O6 0.500000 0.500000 0.000000
O O7 0.374322 0.640778 0.854110
O O8 0.029212 0.480796 0.791689
O O9 0.789232 0.103367 0.808108
O O10 0.934850 0.196297 0.088958
O O11 0.945883 0.910161 0.380385
O O12 0.801377 0.997609 0.304336
O O13 0.803392 0.478699 0.450297
O O14 0.000000 0.500000 0.500000
O O15 0.107232 0.808534 0.535026
O O16 0.495302 0.208141 0.338922
O O17 0.328389 0.867692 0.537170
#
# Coordination Sequence:
#
# PCOD8042037 Si02
#       8
#     2   2   2   2   2   2   2   2
#     4  11  22  35  58  84 122 158 200 243 294 355
#     4  12  21  35  59  91 119 152 196 249 296 352
#     4  10  20  37  60  87 117 157 196 247 295 352
#     4  10  22  41  61  85 121 157 206 244 296 358
#     4  11  22  37  63  91 122 155 197 247 300 357
#     4  10  23  41  60  84 119 166 199 245 297 353
#     4  10  19  34  56  88 120 152 188 245 304 350
#     4  10  20  33  55  89 120 148 189 243 302 347
#
# _framework density 20.442315000000001
#
# number of rings (size 3 to 8) (size 9 to 14) (size 15 to 20)
#    0.000    1.500    2.500    3.375    0.000    4.000 
#    0.000    0.000    0.000    5.250    0.000    0.000 
#    0.000    0.000    0.000    0.000    0.000    0.000 
#
# Total GULP energy -198211.687129 kJ/mol
# GULP energy per Si atom -12388.230446 kJ/mol
# Density = 2.039579 g / cm^3
# Si number density = 20.442315 Si / 1000 Ang^3
#
#
#
# Elastic Constant Matrix: (Units=GPa)
#
#
# Indices 1 2 3 4 5 6 
#
# 1 72.5509 28.6870 36.8069 -6.8751 -4.7648 6.2752
# 2 28.6870 76.3333 39.0878 -16.5173 -6.7715 5.2001
# 3 36.8069 39.0878 124.7068 -24.8784 -3.9170 -1.6906
# 4 -6.8751 -16.5173 -24.8784 32.1477 7.3022 -3.8963
# 5 -4.7648 -6.7715 -3.9170 7.3022 34.7812 -1.6074
# 6 6.2752 5.2001 -1.6906 -3.8963 -1.6074 27.7245
#
#
#
# Elastic Compliance Matrix: (Units=1/GPa)
#
#
# Indices 1 2 3 4 5 6 
#
# 1 0.018050 -0.004744 -0.004398 -0.002770 0.001461 -0.003768
# 2 -0.004744 0.017847 -0.003131 0.005238 0.001296 -0.001653
# 3 -0.004398 -0.003131 0.011742 0.007216 -0.001255 0.003240
# 4 -0.002770 0.005238 0.007216 0.041019 -0.006907 0.005449
# 5 0.001461 0.001296 -0.001255 -0.006907 0.030519 0.000148
# 6 -0.003768 -0.001653 0.003240 0.005449 0.000148 0.038204
#
#
# Mechanical properties :
#
#
# Convention : Reuss Voigt Hill
#
# Bulk Modulus (GPa) = 43.30182 53.63939 48.47061
# Shear Modulus (GPa) = 26.36778 30.19799 28.28288
#
# Velocity S-wave (km/s) = 3.59536 3.84764 3.72364
# Velocity P-wave (km/s) = 6.20193 6.78495 6.49998
#
# Compressibility (1/GPa) = 0.02309372
#
# Stress axis : x y z
#
# Youngs Moduli (GPa) = 55.40152 56.03044 85.16334
#
# Poissons Ratio (x) = 0.26582 0.37456
# Poissons Ratio (y) = 0.26284 0.26661
# Poissons Ratio (z) = 0.24366 0.17541
#
# Static dielectric constant tensor:
#      x y z
#    x 3.664580 0.216410 0.148910 
#    y 0.216410 3.597980 -0.378130 
#    z 0.148910 -0.378130 4.146500 
# 
# 
# High freq. dielectric constant tensor:
#      x y z
#    x 1.788290 0.025930 0.012280 
#    y 0.025930 1.777820 -0.031750 
#    z 0.012280 -0.031750 1.810440 
# 
# From -- ./inp_files/306604.got.cif
#   From: 2010.06.25/outbox.cif.g09.slc.cpg/sg2_154_cif.got.tgz:306604.got - 2010.06.27 13:26:56.
