data_PCOD8042637
_publ_section_title
;
Structure prediction by ZEFSAII (Michael W. Deem and Ramdas Pophale) SiO2 
 PCOD8042637
Probable space group: P -1
;
_chemical_formula_sum "Si O2"
_cell_formula_units_Z 16
_cell_length_a 18.700935
_cell_length_b 17.437824
_cell_length_c 11.729468
_cell_angle_alpha 30.353995
_cell_angle_beta 42.702413
_cell_angle_gamma 22.096998
_cell_volume 683.782529
_symmetry_space_group_name_H-M "P -1"
_symmetry_group_IT_number 2
_symmetry_cell_setting 'triclinic'
loop_
_space_group_symop_operation_xyz
x,y,z
-x,-y,-z
loop_
_atom_site_type_symbol
_atom_site_label
_atom_site_fract_x
_atom_site_fract_y
_atom_site_fract_z
Si Si1 0.558785 0.554779 0.167141
Si Si2 0.715707 0.374437 0.666820
Si Si3 0.495174 0.871429 0.015885
Si Si4 0.323001 0.282129 0.507109
Si Si5 0.349503 0.010512 0.647277
Si Si6 0.658920 0.974961 0.753034
Si Si7 0.901706 0.945485 0.441185
Si Si8 0.917412 0.924957 0.192387
O O1 0.377301 0.653554 0.257346
O O2 0.769987 0.213212 0.333828
O O3 0.583647 0.612269 0.184298
O O4 0.516812 0.726065 0.896745
O O5 0.533278 0.708822 0.492819
O O6 0.863009 0.293284 0.516089
O O7 0.850804 0.149029 0.904920
O O8 0.329501 0.151203 0.768819
O O9 0.669371 0.784775 0.949297
O O10 0.382249 0.957095 0.151684
O O11 0.266147 0.265945 0.476039
O O12 0.160815 0.609023 0.311773
O O13 0.543255 0.086764 0.475099
O O14 0.159655 0.137421 0.687888
O O15 0.865147 0.812840 0.688772
O O16 0.829672 0.056383 0.252958
#
# Coordination Sequence:
#
# PCOD8042637 Si02
#       8
#     2   2   2   2   2   2   2   2
#     4   9  21  39  60  85 120 154 192 241 291 348
#     4  10  22  39  60  88 119 153 192 240 292 345
#     4  10  21  43  63  82 116 158 196 244 291 335
#     4  10  19  35  59  86 120 152 189 238 289 346
#     4   9  19  34  56  88 118 153 190 233 293 345
#     4  10  23  42  63  84 115 154 200 244 287 345
#     4  11  22  37  59  89 119 155 195 236 292 350
#     4  11  21  34  58  88 119 151 189 239 291 346
#
# _framework density 23.399253999999999
#
# number of rings (size 3 to 8) (size 9 to 14) (size 15 to 20)
#    0.000    2.000    0.000    3.000    0.000    8.500 
#    0.000   14.375    0.000    0.000    0.000    0.000 
#    0.000    0.000    0.000    0.000    0.000    0.000 
#
# Total GULP energy -198380.588870 kJ/mol
# GULP energy per Si atom -12398.786804 kJ/mol
# Density = 2.334600 g / cm^3
# Si number density = 23.399254 Si / 1000 Ang^3
#
#
#
# Elastic Constant Matrix: (Units=GPa)
#
#
# Indices 1 2 3 4 5 6 
#
# 1 72.2400 47.7456 19.3766 7.8341 -31.2708 17.4823
# 2 47.7456 117.0418 33.3882 22.5087 -19.7597 0.1473
# 3 19.3766 33.3882 69.1527 21.0703 -18.0483 0.8117
# 4 7.8341 22.5087 21.0703 38.4108 -1.6669 -8.1046
# 5 -31.2708 -19.7597 -18.0483 -1.6669 45.3729 5.6897
# 6 17.4823 0.1473 0.8117 -8.1046 5.6897 37.0931
#
#
#
# Elastic Compliance Matrix: (Units=1/GPa)
#
#
# Indices 1 2 3 4 5 6 
#
# 1 0.036829 -0.010474 0.003661 -0.007106 0.024870 -0.022764
# 2 -0.010474 0.013910 -0.003785 -0.003070 -0.003383 0.004812
# 3 0.003661 -0.003785 0.021218 -0.011028 0.009670 -0.006068
# 4 -0.007106 -0.003070 -0.011028 0.037710 -0.010931 0.013518
# 5 0.024870 -0.003383 0.009670 -0.010931 0.043789 -0.021025
# 6 -0.022764 0.004812 -0.006068 0.013518 -0.021025 0.043980
#
#
# Mechanical properties :
#
#
# Convention : Reuss Voigt Hill
#
# Bulk Modulus (GPa) = 19.70070 51.05058 35.37564
# Shear Modulus (GPa) = 21.22678 34.70367 27.96522
#
# Velocity S-wave (km/s) = 3.01517 3.85529 3.46082
# Velocity P-wave (km/s) = 4.53424 6.45618 5.57860
#
# Compressibility (1/GPa) = 0.05075961
#
# Stress axis : x y z
#
# Youngs Moduli (GPa) = 27.15269 71.89230 47.13033
#
# Poissons Ratio (x) = 0.75302 -0.17254
# Poissons Ratio (y) = 0.28440 0.17839
# Poissons Ratio (z) = -0.09940 0.27212
#
# Static dielectric constant tensor:
#      x y z
#    x 4.344390 0.005850 -0.279940 
#    y 0.005850 3.947600 0.233960 
#    z -0.279940 0.233960 4.230500 
# 
# 
# High freq. dielectric constant tensor:
#      x y z
#    x 1.937640 0.006590 -0.027190 
#    y 0.006590 1.906710 0.018350 
#    z -0.027190 0.018350 1.924680 
# 
# From -- ./inp_files/472329.got.cif
#   From: 2010.06.25/outbox.cif.g09.slc.cpg/sg2_237_cif.got.tgz:472329.got - 2010.06.27 13:26:56.
