data_PCOD8042258
_publ_section_title
;
Structure prediction by ZEFSAII (Michael W. Deem and Ramdas Pophale) SiO2 
 PCOD8042258
Probable space group: P -1
;
_chemical_formula_sum "Si O2"
_cell_formula_units_Z 16
_cell_length_a 15.837021
_cell_length_b 17.604144
_cell_length_c 24.029664
_cell_angle_alpha 159.810126
_cell_angle_beta 158.545534
_cell_angle_gamma 31.555485
_cell_volume 833.482019
_symmetry_space_group_name_H-M "P -1"
_symmetry_group_IT_number 2
_symmetry_cell_setting 'triclinic'
loop_
_space_group_symop_operation_xyz
x,y,z
-x,-y,-z
loop_
_atom_site_type_symbol
_atom_site_label
_atom_site_fract_x
_atom_site_fract_y
_atom_site_fract_z
Si Si1 0.162550 0.413479 0.693435
Si Si2 0.429437 0.841909 0.205536
Si Si3 0.754010 0.084795 0.737955
Si Si4 0.057223 0.784340 0.474403
Si Si5 0.939628 0.561848 0.139299
Si Si6 0.567572 0.875337 0.106889
Si Si7 0.056180 0.710753 0.641897
Si Si8 0.680138 0.091848 0.438234
O O1 0.348738 0.245542 0.691671
O O2 0.964643 0.354686 0.578385
O O3 0.014385 0.385335 0.527740
O O4 0.295553 0.664931 0.957487
O O5 0.262617 0.873189 0.176792
O O6 0.512372 0.068521 0.374643
O O7 0.500000 0.000000 0.500000
O O8 0.865549 0.294773 0.911613
O O9 0.916347 0.901889 0.705576
O O10 0.059188 0.615970 0.309205
O O11 0.292052 0.963266 0.741935
O O12 0.835472 0.902616 0.411153
O O13 0.705433 0.669431 0.061391
O O14 0.147868 0.664701 0.293647
O O15 0.537123 0.017282 0.242168
O O16 0.329474 0.796771 0.874848
O O17 0.000000 0.500000 0.500000
#
# Coordination Sequence:
#
# PCOD8042258 Si02
#       8
#     2   2   2   2   2   2   2   2
#     4  10  19  34  61  87 112 148 196 234 279 338
#     4  10  19  35  63  89 109 144 201 242 267 331
#     4  12  23  38  59  87 114 148 194 241 283 333
#     4   8  15  32  61  88 108 147 198 233 269 340
#     4   9  17  36  63  87 108 147 196 236 275 335
#     4   9  18  34  58  86 118 149 185 232 292 339
#     4  12  25  38  54  82 122 155 183 234 302 341
#     4   8  16  32  60  89 113 147 191 233 279 336
#
# _framework density 19.196574999999999
#
# number of rings (size 3 to 8) (size 9 to 14) (size 15 to 20)
#    0.000    2.250    2.500    3.000    1.750    0.500 
#    0.000    5.625    5.500    0.000    0.000    0.000 
#    0.000    0.000    0.000    0.000    0.000    0.000 
#
# Total GULP energy -198226.961015 kJ/mol
# GULP energy per Si atom -12389.185063 kJ/mol
# Density = 1.915288 g / cm^3
# Si number density = 19.196575 Si / 1000 Ang^3
#
#
#
# Elastic Constant Matrix: (Units=GPa)
#
#
# Indices 1 2 3 4 5 6 
#
# 1 106.2145 31.5821 49.0841 -1.0523 16.0284 22.5656
# 2 31.5821 77.4188 54.2823 4.0617 5.8220 9.3719
# 3 49.0841 54.2823 135.5870 -7.4405 9.9197 20.2727
# 4 -1.0523 4.0617 -7.4405 35.9210 14.4626 -0.2144
# 5 16.0284 5.8220 9.9197 14.4626 37.0994 3.4566
# 6 22.5656 9.3719 20.2727 -0.2144 3.4566 20.9057
#
#
#
# Elastic Compliance Matrix: (Units=1/GPa)
#
#
# Indices 1 2 3 4 5 6 
#
# 1 0.014376 -0.002949 -0.001785 0.002376 -0.005117 -0.011593
# 2 -0.002949 0.019063 -0.007119 -0.004435 0.001803 0.001197
# 3 -0.001785 -0.007119 0.012222 0.004230 -0.002443 -0.006287
# 4 0.002376 -0.004435 0.004230 0.035343 -0.015069 -0.001824
# 5 -0.005117 0.001803 -0.002443 -0.015069 0.035308 0.001091
# 6 -0.011593 0.001197 -0.006287 -0.001824 0.001091 0.065708
#
#
# Mechanical properties :
#
#
# Convention : Reuss Voigt Hill
#
# Bulk Modulus (GPa) = 45.54724 65.45747 55.50236
# Shear Modulus (GPa) = 23.46924 31.07000 27.26962
#
# Velocity S-wave (km/s) = 3.50033 4.02745 3.77310
# Velocity P-wave (km/s) = 6.33361 7.46991 6.92511
#
# Compressibility (1/GPa) = 0.02195523
#
# Stress axis : x y z
#
# Youngs Moduli (GPa) = 69.56273 52.45698 81.81639
#
# Poissons Ratio (x) = 0.15469 0.14608
# Poissons Ratio (y) = 0.20514 0.58242
# Poissons Ratio (z) = 0.12420 0.37342
#
# Static dielectric constant tensor:
#      x y z
#    x 3.879740 0.137570 0.326620 
#    y 0.137570 3.200590 0.047690 
#    z 0.326620 0.047690 3.617150 
# 
# 
# High freq. dielectric constant tensor:
#      x y z
#    x 1.748230 0.017780 0.016740 
#    y 0.017780 1.704280 0.002880 
#    z 0.016740 0.002880 1.757180 
# 
# From -- ./inp_files/257945.got.cif
#   From: 2010.06.25/outbox.cif.g09.slc.cpg/sg2_129_cif.got.tgz:257945.got - 2010.06.27 13:26:56.
