data_PCOD8042433
_publ_section_title
;
Structure prediction by ZEFSAII (Michael W. Deem and Ramdas Pophale) SiO2 
 PCOD8042433
Probable space group: P -1
;
_chemical_formula_sum "Si O2"
_cell_formula_units_Z 16
_cell_length_a 14.951858
_cell_length_b 18.009683
_cell_length_c 13.169091
_cell_angle_alpha 49.008299
_cell_angle_beta 19.205021
_cell_angle_gamma 51.244005
_cell_volume 880.174973
_symmetry_space_group_name_H-M "P -1"
_symmetry_group_IT_number 2
_symmetry_cell_setting 'triclinic'
loop_
_space_group_symop_operation_xyz
x,y,z
-x,-y,-z
loop_
_atom_site_type_symbol
_atom_site_label
_atom_site_fract_x
_atom_site_fract_y
_atom_site_fract_z
Si Si1 0.226134 0.125962 0.696361
Si Si2 0.802366 0.403042 0.196224
Si Si3 0.958106 0.219217 0.085796
Si Si4 0.756264 0.618252 0.085144
Si Si5 0.791983 0.097343 0.029217
Si Si6 0.737926 0.097910 0.856140
Si Si7 0.412074 0.124231 0.815417
Si Si8 0.712198 0.825558 0.872654
O O1 0.540863 0.144124 0.320272
O O2 0.200462 0.020697 0.871956
O O3 0.107930 0.206903 0.828508
O O4 0.066269 0.134215 0.753936
O O5 0.876507 0.334878 0.081099
O O6 0.758205 0.517238 0.107164
O O7 0.534040 0.360319 0.571905
O O8 0.031572 0.394129 0.042184
O O9 0.693289 0.152274 0.434914
O O10 0.161930 0.191593 0.983566
O O11 0.817220 0.711594 0.865442
O O12 0.773992 0.134361 0.900148
O O13 0.029418 0.106298 0.482142
O O14 0.507822 0.165865 0.988708
O O15 0.639198 0.987397 0.058087
O O16 0.434598 0.138262 0.899265
#
# Coordination Sequence:
#
# PCOD8042433 Si02
#       8
#     2   2   2   2   2   2   2   2
#     4  10  21  34  57  74 104 134 179 227 277 307
#     4  10  19  35  56  79 107 136 174 223 271 314
#     4  12  20  35  57  82 108 143 170 222 276 323
#     4  10  20  35  55  78 106 141 178 219 261 310
#     4  10  21  37  51  77 100 141 181 229 259 309
#     4  12  24  36  53  74 111 152 187 210 254 311
#     4  12  23  35  50  80 115 146 183 205 251 326
#     4  12  22  37  52  77 110 153 181 211 251 317
#
# _framework density 18.178204000000001
#
# number of rings (size 3 to 8) (size 9 to 14) (size 15 to 20)
#    0.000    1.000    3.750    4.500    3.500    0.000 
#    0.000    0.000    0.000    0.000    0.000    5.250 
#    0.000    0.000    0.000    0.000    0.000    0.000 
#
# Total GULP energy -198448.600193 kJ/mol
# GULP energy per Si atom -12403.037512 kJ/mol
# Density = 1.813683 g / cm^3
# Si number density = 18.178204 Si / 1000 Ang^3
#
#
#
# Elastic Constant Matrix: (Units=GPa)
#
#
# Indices 1 2 3 4 5 6 
#
# 1 88.1986 28.2578 17.7930 4.2945 0.0011 -8.5165
# 2 28.2578 82.7282 23.8017 18.3848 16.2598 14.5548
# 3 17.7930 23.8017 70.7048 12.7302 -11.0857 6.7290
# 4 4.2945 18.3848 12.7302 23.4949 0.2022 -2.1055
# 5 0.0011 16.2598 -11.0857 0.2022 32.3157 8.7937
# 6 -8.5165 14.5548 6.7290 -2.1055 8.7937 23.4099
#
#
#
# Elastic Compliance Matrix: (Units=1/GPa)
#
#
# Indices 1 2 3 4 5 6 
#
# 1 0.015396 -0.007551 -0.003758 0.006237 -0.000866 0.012262
# 2 -0.007551 0.023547 -0.002998 -0.016666 -0.008763 -0.014733
# 3 -0.003758 -0.002998 0.020549 -0.009145 0.011485 -0.010547
# 4 0.006237 -0.016666 -0.009145 0.061318 -0.000878 0.021105
# 5 -0.000866 -0.008763 0.011485 -0.000878 0.043242 -0.014491
# 6 0.012262 -0.014733 -0.010547 0.021105 -0.014491 0.066711
#
#
# Mechanical properties :
#
#
# Convention : Reuss Voigt Hill
#
# Bulk Modulus (GPa) = 32.38448 42.37074 37.37761
# Shear Modulus (GPa) = 18.54119 27.29605 22.91862
#
# Velocity S-wave (km/s) = 3.19716 3.87923 3.55459
# Velocity P-wave (km/s) = 5.61095 6.58967 6.11990
#
# Compressibility (1/GPa) = 0.03087899
#
# Stress axis : x y z
#
# Youngs Moduli (GPa) = 64.95321 42.46759 48.66327
#
# Poissons Ratio (x) = 0.32065 0.18289
# Poissons Ratio (y) = 0.49043 0.14589
# Poissons Ratio (z) = 0.24412 0.12731
#
# Static dielectric constant tensor:
#      x y z
#    x 3.363230 -0.030360 -0.229150 
#    y -0.030360 3.478730 0.086840 
#    z -0.229150 0.086840 3.350080 
# 
# 
# High freq. dielectric constant tensor:
#      x y z
#    x 1.702590 0.001910 -0.025990 
#    y 0.001910 1.686770 0.018480 
#    z -0.025990 0.018480 1.704560 
# 
# From -- ./inp_files/76488.got.cif
#   From: 2010.06.25/outbox.cif.g09.slc.cpg/sg2_39_cif.got.tgz:76488.got - 2010.06.27 13:26:56.
