data_PCOD8042549
_publ_section_title
;
Structure prediction by ZEFSAII (Michael W. Deem and Ramdas Pophale) SiO2 
 PCOD8042549
Probable space group: P -1
;
_chemical_formula_sum "Si O2"
_cell_formula_units_Z 14
_cell_length_a 14.149785
_cell_length_b 13.118166
_cell_length_c 11.265297
_cell_angle_alpha 67.093561
_cell_angle_beta 148.855984
_cell_angle_gamma 132.753188
_cell_volume 685.423139
_symmetry_space_group_name_H-M "P -1"
_symmetry_group_IT_number 2
_symmetry_cell_setting 'triclinic'
loop_
_space_group_symop_operation_xyz
x,y,z
-x,-y,-z
loop_
_atom_site_type_symbol
_atom_site_label
_atom_site_fract_x
_atom_site_fract_y
_atom_site_fract_z
Si Si1 0.239144 0.799357 0.440728
Si Si2 0.071591 0.565892 0.717067
Si Si3 0.801255 0.126358 0.890103
Si Si4 0.363825 0.338828 0.494188
Si Si5 0.122983 0.319332 0.699223
Si Si6 0.780830 0.338123 0.909366
Si Si7 0.458326 0.374961 0.850428
O O1 0.140198 0.818255 0.208241
O O2 0.117621 0.623662 0.390052
O O3 0.132144 0.822429 0.429676
O O4 0.558924 0.932907 0.727306
O O5 0.938630 0.592434 0.473258
O O6 0.105248 0.637451 0.848706
O O7 0.365135 0.659121 0.942833
O O8 0.711069 0.194737 0.833967
O O9 0.063263 0.187746 0.198442
O O10 0.500000 0.500000 0.500000
O O11 0.514351 0.292240 0.649096
O O12 0.363513 0.364182 0.622046
O O13 0.200888 0.257018 0.716241
O O14 0.367718 0.445528 0.995778
O O15 0.000000 0.500000 0.000000
#
# Coordination Sequence:
#
# PCOD8042549 Si02
#       7
#     2   2   2   2   2   2   2
#     4  10  21  38  57  81 120 149 180 233 284 333
#     4  10  19  37  60  84 107 147 191 230 272 329
#     4  11  22  39  56  84 119 146 180 237 288 324
#     4  11  20  34  58  84 110 145 192 233 275 328
#     4  10  19  35  58  82 109 151 191 224 275 332
#     4  11  20  36  60  85 107 143 194 228 272 333
#     4   9  19  32  53  85 109 136 193 233 267 320
#
# _framework density 20.425339000000001
#
# number of rings (size 3 to 8) (size 9 to 14) (size 15 to 20)
#    0.000    1.714    2.857    4.286    0.000    0.000 
#    0.000   11.429    0.000    6.000    0.000    0.000 
#    0.000    0.000    0.000    0.000    0.000    0.000 
#
# Total GULP energy -173555.922968 kJ/mol
# GULP energy per Si atom -12396.851641 kJ/mol
# Density = 2.037885 g / cm^3
# Si number density = 20.425339 Si / 1000 Ang^3
#
#
#
# Elastic Constant Matrix: (Units=GPa)
#
#
# Indices 1 2 3 4 5 6 
#
# 1 141.7073 37.6040 54.8722 -3.6025 7.4391 29.6528
# 2 37.6040 55.5261 39.5520 0.5783 4.3438 12.0053
# 3 54.8722 39.5520 150.1375 -2.8795 -3.0277 17.1536
# 4 -3.6025 0.5783 -2.8795 15.3944 2.6574 1.3805
# 5 7.4391 4.3438 -3.0277 2.6574 30.7342 -5.1388
# 6 29.6528 12.0053 17.1536 1.3805 -5.1388 27.3359
#
#
#
# Elastic Compliance Matrix: (Units=1/GPa)
#
#
# Indices 1 2 3 4 5 6 
#
# 1 0.011346 -0.003685 -0.001988 0.004147 -0.004536 -0.010504
# 2 -0.003685 0.025321 -0.004897 -0.001652 -0.003809 -0.004682
# 3 -0.001988 -0.004897 0.008846 0.001152 0.001783 -0.000967
# 4 0.004147 -0.001652 0.001152 0.068467 -0.008163 -0.009488
# 5 -0.004536 -0.003809 0.001783 -0.008163 0.037209 0.012881
# 6 -0.010504 -0.004682 -0.000967 -0.009488 0.012881 0.053540
#
#
# Mechanical properties :
#
#
# Convention : Reuss Voigt Hill
#
# Bulk Modulus (GPa) = 41.02987 67.93638 54.48313
# Shear Modulus (GPa) = 21.36821 29.04907 25.20864
#
# Velocity S-wave (km/s) = 3.23795 3.77531 3.51691
# Velocity P-wave (km/s) = 5.84041 7.23443 6.57447
#
# Compressibility (1/GPa) = 0.02437249
#
# Stress axis : x y z
#
# Youngs Moduli (GPa) = 88.13723 39.49247 113.04960
#
# Poissons Ratio (x) = 0.14554 0.22471
# Poissons Ratio (y) = 0.32481 0.55363
# Poissons Ratio (z) = 0.17519 0.19340
#
# Static dielectric constant tensor:
#      x y z
#    x 4.701020 0.126630 0.119930 
#    y 0.126630 3.305740 -0.040970 
#    z 0.119930 -0.040970 3.849210 
# 
# 
# High freq. dielectric constant tensor:
#      x y z
#    x 1.824560 0.021630 -0.000500 
#    y 0.021630 1.748790 -0.007910 
#    z -0.000500 -0.007910 1.807510 
# 
# From -- ./inp_files/449819.got.cif
#   From: 2010.06.25/outbox.cif.g09.slc.cpg/sg2_225_cif.got.tgz:449819.got - 2010.06.27 13:26:56.
