data_PCOD8042820
_publ_section_title
;
Structure prediction by ZEFSAII (Michael W. Deem and Ramdas Pophale) SiO2 
 PCOD8042820
Probable space group: P -1
;
_chemical_formula_sum "Si O2"
_cell_formula_units_Z 16
_cell_length_a 25.758767
_cell_length_b 10.899617
_cell_length_c 25.758844
_cell_angle_alpha 35.995591
_cell_angle_beta 11.553230
_cell_angle_gamma 35.995701
_cell_volume 842.979390
_symmetry_space_group_name_H-M "P -1"
_symmetry_group_IT_number 2
_symmetry_cell_setting 'triclinic'
loop_
_space_group_symop_operation_xyz
x,y,z
-x,-y,-z
loop_
_atom_site_type_symbol
_atom_site_label
_atom_site_fract_x
_atom_site_fract_y
_atom_site_fract_z
Si Si1 0.970621 0.346700 0.470736
Si Si2 0.897521 0.831380 0.397531
Si Si3 0.266041 0.095284 0.766020
Si Si4 0.074935 0.993934 0.574912
Si Si5 0.642772 0.122508 0.142732
Si Si6 0.608053 0.729345 0.108028
Si Si7 0.569676 0.607551 0.069524
Si Si8 0.711207 0.271951 0.211268
O O1 0.942442 0.579349 0.442400
O O2 0.710233 0.305751 0.710073
O O3 0.021731 0.189883 0.521777
O O4 0.209840 0.305726 0.210446
O O5 0.618019 0.917092 0.617674
O O6 0.911419 0.917538 0.411558
O O7 0.117698 0.917131 0.117997
O O8 0.485681 0.232098 0.485712
O O9 0.304885 0.047281 0.804912
O O10 0.288530 0.876223 0.788264
O O11 0.985677 0.231981 0.985743
O O12 0.344442 0.854131 0.345444
O O13 0.845450 0.854141 0.844446
O O14 0.614866 0.355308 0.114703
O O15 0.582112 0.701005 0.082069
O O16 0.660843 0.509161 0.160783
#
# Coordination Sequence:
#
# PCOD8042820 Si02
#       8
#     2   2   2   2   2   2   2   2
#     4  10  22  39  61  84 113 147 204 253 274 326
#     4  10  22  39  61  84 113 151 205 246 273 323
#     4  10  19  35  62  89 114 144 189 232 294 334
#     4  12  25  39  59  82 115 168 193 229 288 342
#     4  10  19  37  63  88 114 144 191 253 287 327
#     4  12  24  39  58  84 129 152 185 231 291 370
#     4  10  21  37  58  89 117 149 184 241 304 333
#     4  10  21  35  57  90 120 146 180 236 283 357
#
# _framework density 18.980298000000001
#
# number of rings (size 3 to 8) (size 9 to 14) (size 15 to 20)
#    0.000    1.500    1.250    4.125    0.000    3.000 
#    0.000    5.000    0.000   15.000    0.000    0.000 
#    0.000    0.000    0.000    0.000    0.000    0.000 
#
# Total GULP energy -198488.351585 kJ/mol
# GULP energy per Si atom -12405.521974 kJ/mol
# Density = 1.893710 g / cm^3
# Si number density = 18.980298 Si / 1000 Ang^3
#
#
#
# Elastic Constant Matrix: (Units=GPa)
#
#
# Indices 1 2 3 4 5 6 
#
# 1 205.8603 55.4248 101.2817 -15.4952 -6.5816 11.6964
# 2 55.4248 164.3965 63.2217 64.7574 42.2133 -45.7840
# 3 101.2817 63.2217 219.8784 -40.3602 -31.3868 -13.7561
# 4 -15.4952 64.7574 -40.3602 255.1027 115.5975 4.2170
# 5 -6.5816 42.2133 -31.3868 115.5975 79.4203 -4.3597
# 6 11.6964 -45.7840 -13.7561 4.2170 -4.3597 50.2225
#
#
#
# Elastic Compliance Matrix: (Units=1/GPa)
#
#
# Indices 1 2 3 4 5 6 
#
# 1 0.007535 -0.003406 -0.002747 0.001522 -0.001187 -0.005843
# 2 -0.003406 0.013845 -0.002732 -0.002102 -0.004980 0.012410
# 3 -0.002747 -0.002732 0.007240 -0.000602 0.004995 0.000616
# 4 0.001522 -0.002102 -0.000602 0.012339 -0.017227 -0.004967
# 5 -0.001187 -0.004980 0.004995 -0.017227 0.042310 0.002225
# 6 -0.005843 0.012410 0.000616 -0.004967 0.002225 0.033365
#
#
# Mechanical properties :
#
#
# Convention : Reuss Voigt Hill
#
# Bulk Modulus (GPa) = 92.17071 114.44350 103.30710
# Shear Modulus (GPa) = 36.22655 101.62956 68.92806
#
# Velocity S-wave (km/s) = 4.37354 7.32537 6.03278
# Velocity P-wave (km/s) = 8.61223 11.48803 10.15247
#
# Compressibility (1/GPa) = 0.01084943
#
# Stress axis : x y z
#
# Youngs Moduli (GPa) = 132.71824 72.22869 138.11884
#
# Poissons Ratio (x) = 0.24600 0.37942
# Poissons Ratio (y) = 0.45202 0.37738
# Poissons Ratio (z) = 0.36458 0.19735
#
# Static dielectric constant tensor:
#      x y z
#    x 3.432220 -0.074290 -0.013610 
#    y -0.074290 3.404380 0.041420 
#    z -0.013610 0.041420 3.709440 
# 
# 
# High freq. dielectric constant tensor:
#      x y z
#    x 1.742390 -0.012630 0.000150 
#    y -0.012630 1.733300 0.003370 
#    z 0.000150 0.003370 1.762070 
# 
# From -- ./inp_files/39367.got.cif
#   From: 2010.06.25/outbox.cif.g09.slc.cpg/sg2_20_cif.got.tgz:39367.got - 2010.06.27 13:26:56.
