data_PCOD8042165
_publ_section_title
;
Structure prediction by ZEFSAII (Michael W. Deem and Ramdas Pophale) SiO2 
 PCOD8042165
Probable space group: P -1
;
_chemical_formula_sum "Si O2"
_cell_formula_units_Z 16
_cell_length_a 11.182666
_cell_length_b 8.906817
_cell_length_c 8.954786
_cell_angle_alpha 65.397251
_cell_angle_beta 92.531682
_cell_angle_gamma 104.588908
_cell_volume 782.927173
_symmetry_space_group_name_H-M "P -1"
_symmetry_group_IT_number 2
_symmetry_cell_setting 'triclinic'
loop_
_space_group_symop_operation_xyz
x,y,z
-x,-y,-z
loop_
_atom_site_type_symbol
_atom_site_label
_atom_site_fract_x
_atom_site_fract_y
_atom_site_fract_z
Si Si1 0.789419 0.700105 0.756867
Si Si2 0.522287 0.902874 0.300211
Si Si3 0.278657 0.821099 0.948209
Si Si4 0.950582 0.343090 0.170484
Si Si5 0.302775 0.629042 0.302730
Si Si6 0.367025 0.520906 0.935982
Si Si7 0.245034 0.639137 0.625453
Si Si8 0.653978 0.970179 0.572533
O O1 0.714402 0.553575 0.700493
O O2 0.763733 0.882709 0.650791
O O3 0.936548 0.729636 0.737514
O O4 0.740113 0.640392 0.944562
O O5 0.447843 0.721234 0.302272
O O6 0.574536 0.860231 0.480253
O O7 0.628569 0.991362 0.149835
O O8 0.428328 0.021906 0.286958
O O9 0.149110 0.805210 0.862198
O O10 0.351493 0.691251 0.941579
O O11 0.251538 0.765442 0.143199
O O12 0.888341 0.413978 0.278777
O O13 0.000000 0.500000 0.000000
O O14 0.228377 0.594378 0.468801
O O15 0.341561 0.543164 0.748424
O O16 0.500000 0.500000 0.000000
O O17 0.292906 0.841911 0.568846
#
# Coordination Sequence:
#
# PCOD8042165 Si02
#       8
#     2   2   2   2   2   2   2   2
#     4  11  23  37  59  93 116 155 200 247 288 346
#     4  10  19  37  62  85 123 155 187 243 304 359
#     4  10  19  38  58  88 114 164 194 238 296 355
#     4  11  19  40  63  82 117 160 209 237 278 360
#     4  10  22  35  59  93 121 149 194 248 305 338
#     4  10  19  34  59  83 114 152 201 234 282 353
#     4  10  21  40  62  86 117 162 194 243 295 348
#     4  10  21  37  62  90 118 152 204 240 291 355
#
# _framework density 20.436126999999999
#
# number of rings (size 3 to 8) (size 9 to 14) (size 15 to 20)
#    0.000    1.750    6.250    1.125    3.500    1.500 
#    2.250    0.000    0.000    3.000    0.000    0.000 
#    0.000    0.000    0.000    0.000    0.000    0.000 
#
# Total GULP energy -198265.530858 kJ/mol
# GULP energy per Si atom -12391.595679 kJ/mol
# Density = 2.038961 g / cm^3
# Si number density = 20.436127 Si / 1000 Ang^3
#
#
#
# Elastic Constant Matrix: (Units=GPa)
#
#
# Indices 1 2 3 4 5 6 
#
# 1 132.7896 29.8995 45.3016 -10.3003 9.0120 -2.2358
# 2 29.8995 50.4408 28.0526 -2.1672 11.2841 9.1772
# 3 45.3016 28.0526 127.7129 9.0577 -7.5989 -7.2068
# 4 -10.3003 -2.1672 9.0577 28.8645 0.0562 3.8099
# 5 9.0120 11.2841 -7.5989 0.0562 37.9631 -7.1162
# 6 -2.2358 9.1772 -7.2068 3.8099 -7.1162 23.1186
#
#
#
# Elastic Compliance Matrix: (Units=1/GPa)
#
#
# Indices 1 2 3 4 5 6 
#
# 1 0.009847 -0.003497 -0.003134 0.004228 -0.001917 0.000076
# 2 -0.003497 0.035144 -0.009260 0.007399 -0.015843 -0.023272
# 3 -0.003134 -0.009260 0.012589 -0.007229 0.008085 0.010977
# 4 0.004228 0.007399 -0.007229 0.040807 -0.007288 -0.013750
# 5 -0.001917 -0.015843 0.008085 -0.007288 0.037118 0.021250
# 6 0.000076 -0.023272 0.010977 -0.013750 0.021250 0.064729
#
#
# Mechanical properties :
#
#
# Convention : Reuss Voigt Hill
#
# Bulk Modulus (GPa) = 38.76309 57.49452 48.12881
# Shear Modulus (GPa) = 20.78011 31.83522 26.30766
#
# Velocity S-wave (km/s) = 3.19224 3.95117 3.59180
# Velocity P-wave (km/s) = 5.70932 7.00075 6.38775
#
# Compressibility (1/GPa) = 0.02579774
#
# Stress axis : x y z
#
# Youngs Moduli (GPa) = 101.55582 28.45441 79.43496
#
# Poissons Ratio (x) = 0.09950 0.24898
# Poissons Ratio (y) = 0.35513 0.73554
# Poissons Ratio (z) = 0.31831 0.26348
#
# Static dielectric constant tensor:
#      x y z
#    x 3.942160 0.172020 -0.044510 
#    y 0.172020 3.316250 0.087470 
#    z -0.044510 0.087470 4.200040 
# 
# 
# High freq. dielectric constant tensor:
#      x y z
#    x 1.785810 0.015340 -0.004610 
#    y 0.015340 1.757700 0.000810 
#    z -0.004610 0.000810 1.817300 
# 
# From -- ./inp_files/237188.got.cif
#   From: 2010.06.25/outbox.cif.g09.slc.cpg/sg2_119_cif.got.tgz:237188.got - 2010.06.27 13:26:56.
