data_PCOD8042069
_publ_section_title
;
Structure prediction by ZEFSAII (Michael W. Deem and Ramdas Pophale) SiO2 
 PCOD8042069
Probable space group: P -1
;
_chemical_formula_sum "Si O2"
_cell_formula_units_Z 16
_cell_length_a 13.574075
_cell_length_b 14.079920
_cell_length_c 13.639538
_cell_angle_alpha 141.994071
_cell_angle_beta 32.210617
_cell_angle_gamma 147.590416
_cell_volume 719.570056
_symmetry_space_group_name_H-M "P -1"
_symmetry_group_IT_number 2
_symmetry_cell_setting 'triclinic'
loop_
_space_group_symop_operation_xyz
x,y,z
-x,-y,-z
loop_
_atom_site_type_symbol
_atom_site_label
_atom_site_fract_x
_atom_site_fract_y
_atom_site_fract_z
Si Si1 0.151199 0.375968 0.539067
Si Si2 0.000275 0.266024 0.368770
Si Si3 0.314877 0.896673 0.203649
Si Si4 0.518365 0.230550 0.440604
Si Si5 0.587031 0.208192 0.586849
Si Si6 0.702128 0.898648 0.795804
Si Si7 0.915608 0.890630 0.211491
Si Si8 0.821243 0.793017 0.009733
O O1 0.305133 0.585014 0.618480
O O2 0.263682 0.266154 0.385859
O O3 0.147684 0.389678 0.435220
O O4 0.903697 0.275959 0.706748
O O5 0.820799 0.315226 0.532908
O O6 0.889646 0.052481 0.319560
O O7 0.164867 0.327116 0.185959
O O8 0.470143 0.048661 0.277339
O O9 0.241431 0.988896 0.260470
O O10 0.452733 0.820709 0.976001
O O11 0.618359 0.251098 0.480359
O O12 0.288456 0.221586 0.633818
O O13 0.426640 0.255258 0.815241
O O14 0.500000 0.000000 0.500000
O O15 0.859896 0.033886 0.858827
O O16 0.893451 0.763585 0.033961
O O17 0.000000 0.000000 0.000000
#
# Coordination Sequence:
#
# PCOD8042069 Si02
#       8
#     2   2   2   2   2   2   2   2
#     4  11  24  43  61  96 134 160 206 267 311 377
#     4  10  19  34  57  82 121 166 204 245 302 356
#     4  11  23  46  67  95 118 167 212 259 322 378
#     4  11  23  39  65  95 129 166 211 256 321 368
#     4  11  18  33  56  85 120 166 207 251 292 363
#     4  10  23  43  71  89 125 163 210 262 320 382
#     4   9  18  37  58  92 121 163 206 252 306 374
#     4   9  17  28  52  86 111 158 208 240 296 356
#
# _framework density 22.235499000000001
#
# number of rings (size 3 to 8) (size 9 to 14) (size 15 to 20)
#    0.000    1.750    6.250    0.375    1.750    5.000 
#    2.250    3.750    0.000    0.000    0.000    0.000 
#    0.000    0.000    0.000    0.000    0.000    0.000 
#
# Total GULP energy -198305.427320 kJ/mol
# GULP energy per Si atom -12394.089207 kJ/mol
# Density = 2.218489 g / cm^3
# Si number density = 22.235499 Si / 1000 Ang^3
#
#
#
# Elastic Constant Matrix: (Units=GPa)
#
#
# Indices 1 2 3 4 5 6 
#
# 1 86.9711 3.3104 21.8438 -11.1827 -13.3677 -5.8926
# 2 3.3104 105.4476 28.3335 -25.1453 -3.1244 5.2680
# 3 21.8438 28.3335 82.0654 -19.8195 -0.2905 -0.0180
# 4 -11.1827 -25.1453 -19.8195 12.4617 -2.4409 -2.2586
# 5 -13.3677 -3.1244 -0.2905 -2.4409 36.0327 -2.5608
# 6 -5.8926 5.2680 -0.0180 -2.2586 -2.5608 8.6740
#
#
#
# Elastic Compliance Matrix: (Units=1/GPa)
#
#
# Indices 1 2 3 4 5 6 
#
# 1 0.020672 0.009734 0.003551 0.051177 0.013824 0.025546
# 2 0.009734 0.024748 0.006950 0.074698 0.011908 0.014563
# 3 0.003551 0.006950 0.022784 0.057617 0.007097 0.015337
# 4 0.051177 0.074698 0.057617 0.400766 0.061029 0.111892
# 5 0.013824 0.011908 0.007097 0.061029 0.040233 0.029943
# 6 0.025546 0.014563 0.015337 0.111892 0.029943 0.161803
#
#
# Mechanical properties :
#
#
# Convention : Reuss Voigt Hill
#
# Bulk Modulus (GPa) = 9.20175 42.38438 25.79306
# Shear Modulus (GPa) = 7.49894 26.16679 16.83287
#
# Velocity S-wave (km/s) = 1.83843 3.43418 2.75440
# Velocity P-wave (km/s) = 2.94172 5.90150 4.66270
#
# Compressibility (1/GPa) = 0.10867496
#
# Stress axis : x y z
#
# Youngs Moduli (GPa) = 48.37554 40.40693 43.89020
#
# Poissons Ratio (x) = -0.39332 -0.15587
# Poissons Ratio (y) = -0.47089 -0.30504
# Poissons Ratio (z) = -0.17180 -0.28083
#
# Static dielectric constant tensor:
#      x y z
#    x 4.430280 0.064580 -0.072650 
#    y 0.064580 3.685000 -0.142800 
#    z -0.072650 -0.142800 4.604870 
# 
# 
# High freq. dielectric constant tensor:
#      x y z
#    x 1.877130 0.006840 0.003980 
#    y 0.006840 1.851610 -0.021280 
#    z 0.003980 -0.021280 1.871590 
# 
# From -- ./inp_files/534407.got.cif
#   From: 2010.06.25/outbox.cif.g09.slc.cpg/sg2_268_cif.got.tgz:534407.got - 2010.06.27 13:26:56.
