data_PCOD8042456
_publ_section_title
;
Structure prediction by ZEFSAII (Michael W. Deem and Ramdas Pophale) SiO2 
 PCOD8042456
Probable space group: P -1
;
_chemical_formula_sum "Si O2"
_cell_formula_units_Z 16
_cell_length_a 25.747681
_cell_length_b 7.912684
_cell_length_c 9.673152
_cell_angle_alpha 91.852801
_cell_angle_beta 29.258489
_cell_angle_gamma 103.044776
_cell_volume 880.503042
_symmetry_space_group_name_H-M "P -1"
_symmetry_group_IT_number 2
_symmetry_cell_setting 'triclinic'
loop_
_space_group_symop_operation_xyz
x,y,z
-x,-y,-z
loop_
_atom_site_type_symbol
_atom_site_label
_atom_site_fract_x
_atom_site_fract_y
_atom_site_fract_z
Si Si1 0.614380 0.172102 0.469614
Si Si2 0.371907 0.828031 0.016282
Si Si3 0.916960 0.752528 0.057750
Si Si4 0.287592 0.989113 0.983113
Si Si5 0.067252 0.862705 0.972718
Si Si6 0.471228 0.672578 0.561355
Si Si7 0.949926 0.991802 0.464895
Si Si8 0.241743 0.672865 0.593840
O O1 0.588041 0.324559 0.447571
O O2 0.665172 0.260761 0.499377
O O3 0.495079 0.994079 0.768732
O O4 0.712987 0.132947 0.153247
O O5 0.389329 0.672541 0.878731
O O6 0.309925 0.730567 0.295429
O O7 0.282823 0.890461 0.139223
O O8 0.818436 0.549075 0.265639
O O9 0.867884 0.913863 0.204212
O O10 0.000508 0.753190 0.989819
O O11 0.990083 0.807780 0.745433
O O12 0.187299 0.063813 0.207561
O O13 0.412558 0.149519 0.689503
O O14 0.154275 0.773481 0.816974
O O15 0.975099 0.839364 0.310880
O O16 0.500000 0.500000 0.500000
O O17 0.000000 0.000000 0.500000
#
# Coordination Sequence:
#
# PCOD8042456 Si02
#       8
#     2   2   2   2   2   2   2   2
#     4   9  20  37  55  85 112 143 186 236 284 331
#     4   9  20  36  58  82 107 152 192 215 284 351
#     4   9  22  38  53  82 116 143 199 222 269 344
#     4   9  18  36  59  72 114 154 178 228 284 331
#     4   9  21  39  56  80 120 147 185 229 282 325
#     4   9  19  38  56  83 112 142 190 233 271 340
#     4  10  19  35  56  85 111 144 189 230 280 329
#     4  12  20  37  62  81 117 150 183 236 286 320
#
# _framework density 18.171431999999999
#
# number of rings (size 3 to 8) (size 9 to 14) (size 15 to 20)
#    0.750    1.750    0.000    3.750    0.000    2.000 
#    4.500    5.625    0.000    0.000    0.000    0.000 
#    0.000    0.000    0.000    0.000    0.000    0.000 
#
# Total GULP energy -198260.888614 kJ/mol
# GULP energy per Si atom -12391.305538 kJ/mol
# Density = 1.813007 g / cm^3
# Si number density = 18.171432 Si / 1000 Ang^3
#
#
#
# Elastic Constant Matrix: (Units=GPa)
#
#
# Indices 1 2 3 4 5 6 
#
# 1 112.1001 11.2012 38.6321 14.2765 5.5925 7.6863
# 2 11.2012 52.0675 4.4973 10.1809 -4.6710 -8.2030
# 3 38.6321 4.4973 83.5393 16.0469 5.7218 -2.8036
# 4 14.2765 10.1809 16.0469 19.8825 -5.9150 -7.4957
# 5 5.5925 -4.6710 5.7218 -5.9150 33.6063 3.4919
# 6 7.6863 -8.2030 -2.8036 -7.4957 3.4919 21.6070
#
#
#
# Elastic Compliance Matrix: (Units=1/GPa)
#
#
# Indices 1 2 3 4 5 6 
#
# 1 0.012262 -0.002185 -0.004118 -0.008106 -0.002220 -0.008179
# 2 -0.002185 0.022277 0.001564 -0.008390 0.001057 0.006356
# 3 -0.004118 0.001564 0.016407 -0.012048 -0.004081 0.000668
# 4 -0.008106 -0.008390 -0.012048 0.083798 0.014398 0.024879
# 5 -0.002220 0.001057 -0.004081 0.014398 0.033476 0.000246
# 6 -0.008179 0.006356 0.000668 0.024879 0.000246 0.060281
#
#
# Mechanical properties :
#
#
# Convention : Reuss Voigt Hill
#
# Bulk Modulus (GPa) = 24.11542 39.59644 31.85593
# Shear Modulus (GPa) = 19.85678 27.91093 23.88385
#
# Velocity S-wave (km/s) = 3.30926 3.92341 3.62935
# Velocity P-wave (km/s) = 5.28218 6.50861 5.92720
#
# Compressibility (1/GPa) = 0.04146724
#
# Stress axis : x y z
#
# Youngs Moduli (GPa) = 81.55235 44.88834 60.95034
#
# Poissons Ratio (x) = 0.09808 0.25101
# Poissons Ratio (y) = 0.17819 -0.09530
# Poissons Ratio (z) = 0.33585 -0.07019
#
# Static dielectric constant tensor:
#      x y z
#    x 3.403020 0.025620 0.069550 
#    y 0.025620 3.037660 0.089890 
#    z 0.069550 0.089890 3.262690 
# 
# 
# High freq. dielectric constant tensor:
#      x y z
#    x 1.716020 -0.000410 0.005880 
#    y -0.000410 1.686220 0.010750 
#    z 0.005880 0.010750 1.696910 
# 
# From -- ./inp_files/352221.got.cif
#   From: 2010.06.25/outbox.cif.g09.slc.cpg/sg2_177_cif.got.tgz:352221.got - 2010.06.27 13:26:56.
