data_PCOD8042777
_publ_section_title
;
Structure prediction by ZEFSAII (Michael W. Deem and Ramdas Pophale) SiO2 
 PCOD8042777
Probable space group: P -1
;
_chemical_formula_sum "Si O2"
_cell_formula_units_Z 16
_cell_length_a 21.037920
_cell_length_b 11.872395
_cell_length_c 14.480963
_cell_angle_alpha 27.999845
_cell_angle_beta 148.697864
_cell_angle_gamma 150.111404
_cell_volume 782.640371
_symmetry_space_group_name_H-M "P -1"
_symmetry_group_IT_number 2
_symmetry_cell_setting 'triclinic'
loop_
_space_group_symop_operation_xyz
x,y,z
-x,-y,-z
loop_
_atom_site_type_symbol
_atom_site_label
_atom_site_fract_x
_atom_site_fract_y
_atom_site_fract_z
Si Si1 0.951527 0.228380 0.581509
Si Si2 0.906864 0.555520 0.153975
Si Si3 0.852188 0.208003 0.168374
Si Si4 0.421827 0.910044 0.566331
Si Si5 0.182037 0.033616 0.216667
Si Si6 0.203367 0.293993 0.738624
Si Si7 0.687332 0.121017 0.847638
Si Si8 0.147190 0.315011 0.442994
O O1 0.873712 0.268378 0.367650
O O2 0.000000 0.500000 0.500000
O O3 0.085319 0.201151 0.736660
O O4 0.851887 0.990367 0.697522
O O5 0.866730 0.457232 0.070092
O O6 0.819266 0.680689 0.009122
O O7 0.068429 0.781346 0.199396
O O8 0.999337 0.281426 0.248051
O O9 0.813561 0.915967 0.380467
O O10 0.734192 0.179863 0.969623
O O11 0.326443 0.592415 0.688072
O O12 0.500000 0.000000 0.500000
O O13 0.331241 0.068081 0.352447
O O14 0.523673 0.984655 0.726630
O O15 0.137768 0.280637 0.566873
O O16 0.260537 0.081822 0.981491
O O17 0.739172 0.393983 0.655966
#
# Coordination Sequence:
#
# PCOD8042777 Si02
#       8
#     2   2   2   2   2   2   2   2
#     4  10  19  35  61  88 122 147 195 261 293 358
#     4  10  20  39  64  91 120 152 199 263 305 349
#     4  10  21  37  60  89 125 159 207 254 303 355
#     4  12  23  42  62  88 132 164 195 254 304 371
#     4  10  23  39  63  97 116 155 208 245 315 359
#     4  11  21  39  61  96 121 158 203 251 315 349
#     4  11  25  36  61  91 124 169 204 242 306 380
#     4  10  20  39  57  90 127 155 208 255 298 360
#
# _framework density 20.443615999999999
#
# number of rings (size 3 to 8) (size 9 to 14) (size 15 to 20)
#    0.000    1.500    5.000    0.750    1.750    3.000 
#    2.250    0.625    0.000    1.500    0.000    0.000 
#    0.000    0.000    0.000    0.000    0.000    0.000 
#
# Total GULP energy -198229.116379 kJ/mol
# GULP energy per Si atom -12389.319774 kJ/mol
# Density = 2.039709 g / cm^3
# Si number density = 20.443616 Si / 1000 Ang^3
#
#
#
# Elastic Constant Matrix: (Units=GPa)
#
#
# Indices 1 2 3 4 5 6 
#
# 1 94.9991 43.0290 43.7688 9.1495 19.1159 -0.9754
# 2 43.0290 94.7986 51.6117 8.8159 7.8604 -10.7399
# 3 43.7688 51.6117 102.5976 15.3475 22.5296 -1.7225
# 4 9.1495 8.8159 15.3475 41.1970 -1.4320 -6.4965
# 5 19.1159 7.8604 22.5296 -1.4320 30.5873 -1.2493
# 6 -0.9754 -10.7399 -1.7225 -6.4965 -1.2493 33.8842
#
#
#
# Elastic Compliance Matrix: (Units=1/GPa)
#
#
# Indices 1 2 3 4 5 6 
#
# 1 0.015496 -0.005334 -0.002133 -0.002062 -0.006921 -0.002003
# 2 -0.005334 0.017136 -0.007489 0.001311 0.004725 0.005323
# 3 -0.002133 -0.007489 0.017314 -0.005175 -0.009856 -0.002911
# 4 -0.002062 0.001311 -0.005175 0.027479 0.006279 0.005593
# 5 -0.006921 0.004725 -0.009856 0.006279 0.043506 0.003605
# 6 -0.002003 0.005323 -0.002911 0.005593 0.003605 0.032199
#
#
# Mechanical properties :
#
#
# Convention : Reuss Voigt Hill
#
# Bulk Modulus (GPa) = 49.91460 63.24604 56.58032
# Shear Modulus (GPa) = 26.35468 31.39943 28.87705
#
# Velocity S-wave (km/s) = 3.59435 3.92331 3.76243
# Velocity P-wave (km/s) = 6.45713 7.17824 6.82722
#
# Compressibility (1/GPa) = 0.02003422
#
# Stress axis : x y z
#
# Youngs Moduli (GPa) = 64.53478 58.35520 57.75680
#
# Poissons Ratio (x) = 0.31124 0.12319
# Poissons Ratio (y) = 0.34420 0.43257
# Poissons Ratio (z) = 0.13764 0.43705
#
# Static dielectric constant tensor:
#      x y z
#    x 4.548040 -0.051570 -1.101660 
#    y -0.051570 3.721400 -0.237600 
#    z -1.101660 -0.237600 5.023490 
# 
# 
# High freq. dielectric constant tensor:
#      x y z
#    x 1.774450 -0.022170 -0.003540 
#    y -0.022170 1.784460 -0.012670 
#    z -0.003540 -0.012670 1.814920 
# 
# From -- ./inp_files/540947.got.cif
#   From: 2010.06.25/outbox.cif.g09.slc.cpg/sg2_271_cif.got.tgz:540947.got - 2010.06.27 13:26:56.
