data_PCOD8042128
_publ_section_title
;
Structure prediction by ZEFSAII (Michael W. Deem and Ramdas Pophale) SiO2 
 PCOD8042128
Probable space group: P -1
;
_chemical_formula_sum "Si O2"
_cell_formula_units_Z 16
_cell_length_a 15.822611
_cell_length_b 18.338695
_cell_length_c 24.615826
_cell_angle_alpha 21.793873
_cell_angle_beta 19.363076
_cell_angle_gamma 32.476867
_cell_volume 848.233324
_symmetry_space_group_name_H-M "P -1"
_symmetry_group_IT_number 2
_symmetry_cell_setting 'triclinic'
loop_
_space_group_symop_operation_xyz
x,y,z
-x,-y,-z
loop_
_atom_site_type_symbol
_atom_site_label
_atom_site_fract_x
_atom_site_fract_y
_atom_site_fract_z
Si Si1 0.106073 0.825217 0.619947
Si Si2 0.496931 0.765603 0.227919
Si Si3 0.277463 0.930524 0.560374
Si Si4 0.372669 0.007382 0.226658
Si Si5 0.017098 0.372509 0.960099
Si Si6 0.942712 0.272488 0.674118
Si Si7 0.111231 0.831853 0.336576
Si Si8 0.275817 0.959586 0.708997
O O1 0.262511 0.832968 0.576712
O O2 0.309876 0.960928 0.359942
O O3 0.987739 0.599735 0.822997
O O4 0.854851 0.913910 0.719698
O O5 0.392095 0.802584 0.325611
O O6 0.248675 0.697670 0.384769
O O7 0.668818 0.603230 0.239183
O O8 0.682216 0.974625 0.948255
O O9 0.580278 0.039656 0.320141
O O10 0.150391 0.751120 0.803440
O O11 0.117712 0.102357 0.537502
O O12 0.643798 0.177683 0.938924
O O13 0.925034 0.256910 0.037929
O O14 0.006760 0.301829 0.551023
O O15 0.000000 0.500000 0.500000
O O16 0.126450 0.137528 0.680304
O O17 0.500000 0.000000 0.500000
#
# Coordination Sequence:
#
# PCOD8042128 Si02
#       8
#     2   2   2   2   2   2   2   2
#     4  11  23  36  58  86 118 155 187 238 277 345
#     4   9  16  33  56  77 107 143 184 235 283 324
#     4  10  19  34  58  84 116 147 191 235 283 330
#     4  10  22  39  56  81 119 153 188 229 294 334
#     4  10  20  34  59  87 111 144 196 236 286 330
#     4  11  22  36  61  84 112 151 192 238 281 344
#     4   9  16  31  56  81 109 140 180 242 283 318
#     4  10  19  36  55  85 115 145 184 239 292 330
#
# _framework density 18.862736000000002
#
# number of rings (size 3 to 8) (size 9 to 14) (size 15 to 20)
#    0.000    2.000    6.250    0.375    5.250    1.500 
#    0.000    0.625    2.750    2.250    0.000    0.000 
#    0.000    0.000    0.000    0.000    0.000    0.000 
#
# Total GULP energy -198273.896351 kJ/mol
# GULP energy per Si atom -12392.118522 kJ/mol
# Density = 1.881980 g / cm^3
# Si number density = 18.862736 Si / 1000 Ang^3
#
#
#
# Elastic Constant Matrix: (Units=GPa)
#
#
# Indices 1 2 3 4 5 6 
#
# 1 113.6594 45.3524 34.9112 1.3002 -23.7084 -5.1807
# 2 45.3524 75.2967 27.0956 4.5090 -8.9348 10.5112
# 3 34.9112 27.0956 45.3187 1.0663 -8.2556 1.9896
# 4 1.3002 4.5090 1.0663 29.2377 4.9133 -9.7320
# 5 -23.7084 -8.9348 -8.2556 4.9133 21.3129 2.4179
# 6 -5.1807 10.5112 1.9896 -9.7320 2.4179 23.3394
#
#
#
# Elastic Compliance Matrix: (Units=1/GPa)
#
#
# Indices 1 2 3 4 5 6 
#
# 1 0.016373 -0.007052 -0.006546 0.000765 0.011811 0.006464
# 2 -0.007052 0.022976 -0.006934 -0.008485 0.002775 -0.015147
# 3 -0.006546 -0.006934 0.031795 -0.000753 0.002484 -0.001612
# 4 0.000765 -0.008485 -0.000753 0.046705 -0.016630 0.025253
# 5 0.011811 0.002775 0.002484 -0.016630 0.067466 -0.012763
# 6 0.006464 -0.015147 -0.001612 0.025253 -0.012763 0.063092
#
#
# Mechanical properties :
#
#
# Convention : Reuss Voigt Hill
#
# Bulk Modulus (GPa) = 33.24609 49.88812 41.56710
# Shear Modulus (GPa) = 16.69463 23.23903 19.96683
#
# Velocity S-wave (km/s) = 2.97822 3.51380 3.25704
# Velocity P-wave (km/s) = 5.43046 6.55498 6.01904
#
# Compressibility (1/GPa) = 0.03007872
#
# Stress axis : x y z
#
# Youngs Moduli (GPa) = 61.07797 43.52415 31.45103
#
# Poissons Ratio (x) = 0.30695 0.20588
# Poissons Ratio (y) = 0.43075 0.21808
# Poissons Ratio (z) = 0.39983 0.30179
#
# Static dielectric constant tensor:
#      x y z
#    x 3.887310 -0.067470 -0.376730 
#    y -0.067470 3.608440 0.258540 
#    z -0.376730 0.258540 3.172300 
# 
# 
# High freq. dielectric constant tensor:
#      x y z
#    x 1.733730 0.000710 -0.018470 
#    y 0.000710 1.742640 0.015950 
#    z -0.018470 0.015950 1.686420 
# 
# From -- ./inp_files/255153.got.cif
#   From: 2010.06.25/outbox.cif.g09.slc.cpg/sg2_128_cif.got.tgz:255153.got - 2010.06.27 13:26:56.
