data_PCOD8042196
_publ_section_title
;
Structure prediction by ZEFSAII (Michael W. Deem and Ramdas Pophale) SiO2 
 PCOD8042196
Probable space group: P -1
;
_chemical_formula_sum "Si O2"
_cell_formula_units_Z 16
_cell_length_a 9.024342
_cell_length_b 8.669164
_cell_length_c 15.489095
_cell_angle_alpha 99.479315
_cell_angle_beta 64.951418
_cell_angle_gamma 54.146764
_cell_volume 735.974094
_symmetry_space_group_name_H-M "P -1"
_symmetry_group_IT_number 2
_symmetry_cell_setting 'triclinic'
loop_
_space_group_symop_operation_xyz
x,y,z
-x,-y,-z
loop_
_atom_site_type_symbol
_atom_site_label
_atom_site_fract_x
_atom_site_fract_y
_atom_site_fract_z
Si Si1 0.391600 0.309208 0.406773
Si Si2 0.095174 0.696414 0.647647
Si Si3 0.635528 0.805626 0.772825
Si Si4 0.274734 0.416733 0.742078
Si Si5 0.077082 0.063022 0.684862
Si Si6 0.723538 0.658333 0.083647
Si Si7 0.320607 0.054217 0.480921
Si Si8 0.189466 0.478664 0.134919
O O1 0.281994 0.532217 0.507654
O O2 0.380489 0.322220 0.306687
O O3 0.669575 0.101314 0.344465
O O4 0.236611 0.260669 0.463749
O O5 0.216155 0.595241 0.704331
O O6 0.995617 0.940860 0.684901
O O7 0.881426 0.726158 0.693977
O O8 0.628377 0.725495 0.859766
O O9 0.416809 0.080539 0.842986
O O10 0.311635 0.439132 0.836167
O O11 0.537148 0.169068 0.631741
O O12 0.066773 0.431178 0.791113
O O13 0.097124 0.127530 0.590442
O O14 0.868538 0.299879 0.809758
O O15 0.664783 0.626691 0.001437
O O16 0.000000 0.500000 0.000000
O O17 0.500000 0.000000 0.500000
#
# Coordination Sequence:
#
# PCOD8042196 Si02
#       8
#     2   2   2   2   2   2   2   2
#     4  11  19  36  59  87 117 162 193 235 276 353
#     4  11  23  35  55  92 127 154 184 239 300 344
#     4  11  22  38  59  88 121 147 193 244 300 341
#     4  10  17  34  58  87 111 153 196 239 282 341
#     4  11  21  37  59  86 123 159 197 229 281 353
#     4  10  20  37  65  88 105 148 207 250 279 340
#     4  10  15  30  59  80 115 149 196 232 277 328
#     4  10  20  37  58  86 115 153 195 246 288 333
#
# _framework density 21.739896000000002
#
# number of rings (size 3 to 8) (size 9 to 14) (size 15 to 20)
#    0.000    1.500    6.250    2.625    0.000    0.000 
#    0.000    5.000    0.000    0.000    0.000    0.000 
#    0.000    0.000    0.000    0.000    0.000    0.000 
#
# Total GULP energy -198256.160852 kJ/mol
# GULP energy per Si atom -12391.010053 kJ/mol
# Density = 2.169042 g / cm^3
# Si number density = 21.739896 Si / 1000 Ang^3
#
#
#
# Elastic Constant Matrix: (Units=GPa)
#
#
# Indices 1 2 3 4 5 6 
#
# 1 17.9073 8.8274 9.0494 -6.1944 8.1858 -7.2388
# 2 8.8274 74.9999 40.8134 3.2107 13.5767 -12.0418
# 3 9.0494 40.8134 139.8173 -15.0921 17.8291 -15.7323
# 4 -6.1944 3.2107 -15.0921 39.4739 -7.5153 7.3720
# 5 8.1858 13.5767 17.8291 -7.5153 17.4112 -0.5848
# 6 -7.2388 -12.0418 -15.7323 7.3720 -0.5848 26.8825
#
#
#
# Elastic Compliance Matrix: (Units=1/GPa)
#
#
# Indices 1 2 3 4 5 6 
#
# 1 0.082422 -0.000595 0.002554 0.002419 -0.039121 0.021908
# 2 -0.000595 0.019615 -0.003774 -0.007321 -0.014039 0.008120
# 3 0.002554 -0.003774 0.009671 0.002348 -0.007018 0.003861
# 4 0.002419 -0.007321 0.002348 0.031995 0.015652 -0.009687
# 5 -0.039121 -0.014039 -0.007018 0.015652 0.099942 -0.023048
# 6 0.021908 0.008120 0.003861 -0.009687 -0.023048 0.051150
#
#
# Mechanical properties :
#
#
# Convention : Reuss Voigt Hill
#
# Bulk Modulus (GPa) = 9.25250 38.90056 24.07653
# Shear Modulus (GPa) = 14.94983 28.35578 21.65281
#
# Velocity S-wave (km/s) = 2.62519 3.61545 3.15936
# Velocity P-wave (km/s) = 3.66798 5.94652 4.94041
#
# Compressibility (1/GPa) = 0.10807887
#
# Stress axis : x y z
#
# Youngs Moduli (GPa) = 12.13270 50.98024 103.39895
#
# Poissons Ratio (x) = 0.03034 -0.26408
# Poissons Ratio (y) = 0.00722 0.39020
# Poissons Ratio (z) = -0.03099 0.19239
#
# Static dielectric constant tensor:
#      x y z
#    x 3.420910 -0.126610 0.129310 
#    y -0.126610 4.618220 -0.428920 
#    z 0.129310 -0.428920 4.799000 
# 
# 
# High freq. dielectric constant tensor:
#      x y z
#    x 1.802250 -0.020160 0.005950 
#    y -0.020160 1.854890 -0.007910 
#    z 0.005950 -0.007910 1.864970 
# 
# From -- ./inp_files/176103.got.cif
#   From: 2010.06.25/outbox.cif.g09.slc.cpg/sg2_89_cif.got.tgz:176103.got - 2010.06.27 13:26:56.
