data_PCOD8042801
_publ_section_title
;
Structure prediction by ZEFSAII (Michael W. Deem and Ramdas Pophale) SiO2 
 PCOD8042801
Probable space group: P -1
;
_chemical_formula_sum "Si O2"
_cell_formula_units_Z 16
_cell_length_a 17.483894
_cell_length_b 5.474927
_cell_length_c 18.707651
_cell_angle_alpha 58.961677
_cell_angle_beta 27.892535
_cell_angle_gamma 55.551890
_cell_volume 690.263586
_symmetry_space_group_name_H-M "P -1"
_symmetry_group_IT_number 2
_symmetry_cell_setting 'triclinic'
loop_
_space_group_symop_operation_xyz
x,y,z
-x,-y,-z
loop_
_atom_site_type_symbol
_atom_site_label
_atom_site_fract_x
_atom_site_fract_y
_atom_site_fract_z
Si Si1 0.985469 0.385567 0.885063
Si Si2 0.783498 0.032441 0.435522
Si Si3 0.399240 0.256657 0.096627
Si Si4 0.874663 0.348095 0.830581
Si Si5 0.269502 0.108307 0.922871
Si Si6 0.729416 0.032763 0.208382
Si Si7 0.602552 0.112888 0.710103
Si Si8 0.361784 0.369443 0.472501
O O1 0.969210 0.459360 0.802324
O O2 0.179051 0.205076 0.771408
O O3 0.924725 0.689947 0.934258
O O4 0.859085 0.198471 0.044020
O O5 0.696244 0.924255 0.592807
O O6 0.716302 0.903066 0.439060
O O7 0.986358 0.896310 0.292505
O O8 0.738591 0.397270 0.417681
O O9 0.220953 0.400125 0.183113
O O10 0.345464 0.089282 0.233414
O O11 0.500000 0.500000 0.000000
O O12 0.500000 0.000000 0.000000
O O13 0.728306 0.221103 0.005038
O O14 0.324599 0.130120 0.791703
O O15 0.398856 0.207783 0.853075
O O16 0.559201 0.242729 0.353013
O O17 0.649822 0.428691 0.621554
#
# Coordination Sequence:
#
# PCOD8042801 Si02
#       8
#     2   2   2   2   2   2   2   2
#     4  10  21  35  61  93 131 162 214 271 324 373
#     4  10  24  41  68  88 135 171 215 257 320 381
#     4  12  27  41  69 101 130 164 213 267 324 381
#     4  11  26  42  61  96 132 169 210 270 322 375
#     4  11  19  38  66  91 129 166 215 272 321 377
#     4  10  19  35  61  96 123 167 217 265 323 379
#     4  10  22  40  69  90 127 167 219 256 323 374
#     4  10  21  41  66  91 127 171 217 258 313 385
#
# _framework density 23.179551
#
# number of rings (size 3 to 8) (size 9 to 14) (size 15 to 20)
#    0.750    0.750    3.750    1.125    5.250    0.500 
#    0.000    1.875    0.000    0.000    0.000    0.000 
#    0.000    0.000    0.000    0.000    0.000    0.000 
#
# Total GULP energy -198212.682641 kJ/mol
# GULP energy per Si atom -12388.292665 kJ/mol
# Density = 2.312679 g / cm^3
# Si number density = 23.179551 Si / 1000 Ang^3
#
#
#
# Elastic Constant Matrix: (Units=GPa)
#
#
# Indices 1 2 3 4 5 6 
#
# 1 117.0350 59.2088 20.8098 17.3094 -6.3890 -14.0550
# 2 59.2088 109.9820 27.4788 24.5434 -8.7209 1.5344
# 3 20.8098 27.4788 64.7412 39.6667 -3.7743 -4.8809
# 4 17.3094 24.5434 39.6667 51.6154 -0.9190 -2.5036
# 5 -6.3890 -8.7209 -3.7743 -0.9190 27.0848 7.0052
# 6 -14.0550 1.5344 -4.8809 -2.5036 7.0052 49.3793
#
#
#
# Elastic Compliance Matrix: (Units=1/GPa)
#
#
# Indices 1 2 3 4 5 6 
#
# 1 0.012452 -0.006509 -0.000794 -0.000296 -0.000233 0.003686
# 2 -0.006509 0.014105 -0.002086 -0.003013 0.003424 -0.003136
# 3 -0.000794 -0.002086 0.030212 -0.021852 0.002248 0.001398
# 4 -0.000296 -0.003013 -0.021852 0.037656 -0.002849 0.000163
# 5 -0.000233 0.003424 0.002248 -0.002849 0.039665 -0.005722
# 6 0.003686 -0.003136 0.001398 0.000163 -0.005722 0.022356
#
#
# Mechanical properties :
#
#
# Convention : Reuss Voigt Hill
#
# Bulk Modulus (GPa) = 26.32175 56.30588 41.31382
# Shear Modulus (GPa) = 26.61143 37.89993 32.25568
#
# Velocity S-wave (km/s) = 3.39197 4.04797 3.73441
# Velocity P-wave (km/s) = 5.16923 6.79647 6.03792
#
# Compressibility (1/GPa) = 0.03799139
#
# Stress axis : x y z
#
# Youngs Moduli (GPa) = 80.30545 70.89550 33.09979
#
# Poissons Ratio (x) = 0.46147 0.02629
# Poissons Ratio (y) = 0.52272 0.06903
# Poissons Ratio (z) = 0.06379 0.14785
#
# Static dielectric constant tensor:
#      x y z
#    x 4.072300 0.033620 0.041290 
#    y 0.033620 4.240920 0.092280 
#    z 0.041290 0.092280 4.166860 
# 
# 
# High freq. dielectric constant tensor:
#      x y z
#    x 1.892650 0.006560 0.005140 
#    y 0.006560 1.915820 0.007090 
#    z 0.005140 0.007090 1.925380 
# 
# From -- ./inp_files/598896.got.cif
#   From: 2010.06.25/outbox.cif.g09.slc.cpg/sg2_300_cif.got.tgz:598896.got - 2010.06.27 13:26:56.
