data_PCOD8042058
_publ_section_title
;
Structure prediction by ZEFSAII (Michael W. Deem and Ramdas Pophale) SiO2 
 PCOD8042058
Probable space group: P -1
;
_chemical_formula_sum "Si O2"
_cell_formula_units_Z 16
_cell_length_a 14.643787
_cell_length_b 16.829654
_cell_length_c 11.308626
_cell_angle_alpha 41.942071
_cell_angle_beta 153.327369
_cell_angle_gamma 139.731110
_cell_volume 789.983397
_symmetry_space_group_name_H-M "P -1"
_symmetry_group_IT_number 2
_symmetry_cell_setting 'triclinic'
loop_
_space_group_symop_operation_xyz
x,y,z
-x,-y,-z
loop_
_atom_site_type_symbol
_atom_site_label
_atom_site_fract_x
_atom_site_fract_y
_atom_site_fract_z
Si Si1 0.213292 0.107297 0.490810
Si Si2 0.060242 0.339305 0.683749
Si Si3 0.720481 0.711490 0.227329
Si Si4 0.648869 0.167193 0.813803
Si Si5 0.856770 0.179735 0.283710
Si Si6 0.739183 0.468907 0.113635
Si Si7 0.012357 0.724288 0.076602
Si Si8 0.418552 0.116587 0.964917
O O1 0.427356 0.183371 0.581471
O O2 0.255446 0.123603 0.662397
O O3 0.129142 0.959908 0.524575
O O4 0.039989 0.168993 0.179168
O O5 0.192136 0.276948 0.818913
O O6 0.219634 0.474018 0.767974
O O7 0.973963 0.245712 0.800006
O O8 0.857678 0.363416 0.357133
O O9 0.641731 0.827426 0.045798
O O10 0.921223 0.712947 0.541057
O O11 0.515550 0.585664 0.146810
O O12 0.750775 0.262338 0.717275
O O13 0.818038 0.200711 0.079644
O O14 0.599391 0.024735 0.872165
O O15 0.661132 0.194285 0.119592
O O16 0.846812 0.583100 0.019063
#
# Coordination Sequence:
#
# PCOD8042058 Si02
#       8
#     2   2   2   2   2   2   2   2
#     4   9  18  35  57  81 107 140 178 208 251 316
#     4   9  22  39  54  76 101 135 185 224 261 310
#     4  12  19  33  60  78 102 142 176 217 265 306
#     4   9  18  35  56  79 113 143 165 212 261 301
#     4   9  19  34  55  83 110 139 174 208 254 316
#     4   9  22  39  54  76 101 135 185 224 261 310
#     4  10  19  34  57  80  99 135 185 220 253 316
#     4   9  19  34  55  83 110 139 174 208 254 316
#
# _framework density 20.253589999999999
#
# number of rings (size 3 to 8) (size 9 to 14) (size 15 to 20)
#    0.750    1.750    0.000    4.125    0.000    4.000 
#    0.000    5.000    0.000   12.000    0.000    0.000 
#    0.000    0.000    0.000    0.000    0.000    0.000 
#
# Total GULP energy -198234.047034 kJ/mol
# GULP energy per Si atom -12389.627940 kJ/mol
# Density = 2.020749 g / cm^3
# Si number density = 20.253590 Si / 1000 Ang^3
#
#
#
# Elastic Constant Matrix: (Units=GPa)
#
#
# Indices 1 2 3 4 5 6 
#
# 1 137.4724 44.2014 10.4712 1.8977 12.5205 6.0786
# 2 44.2014 47.9304 13.8867 21.4941 1.2895 4.1969
# 3 10.4712 13.8867 48.3397 1.5046 7.5430 -2.7148
# 4 1.8977 21.4941 1.5046 29.5846 6.6796 0.2940
# 5 12.5205 1.2895 7.5430 6.6796 16.3077 -1.8628
# 6 6.0786 4.1969 -2.7148 0.2940 -1.8628 33.5535
#
#
#
# Elastic Compliance Matrix: (Units=1/GPa)
#
#
# Indices 1 2 3 4 5 6 
#
# 1 0.018631 -0.030759 0.008092 0.026762 -0.026644 -0.000587
# 2 -0.030759 0.088900 -0.025921 -0.074506 0.058666 -0.003735
# 3 0.008092 -0.025921 0.030045 0.022890 -0.027150 0.002499
# 4 0.026762 -0.074506 0.022890 0.099928 -0.065970 0.001785
# 5 -0.026644 0.058666 -0.027150 -0.065970 0.116987 0.002365
# 6 -0.000587 -0.003735 0.002499 0.001785 0.002365 0.030694
#
#
# Mechanical properties :
#
#
# Convention : Reuss Voigt Hill
#
# Bulk Modulus (GPa) = 24.75233 41.20676 32.97955
# Shear Modulus (GPa) = 10.08417 26.90137 18.49277
#
# Velocity S-wave (km/s) = 2.23378 3.64844 3.02497
# Velocity P-wave (km/s) = 4.34750 6.17557 5.34034
#
# Compressibility (1/GPa) = 0.04040023
#
# Stress axis : x y z
#
# Youngs Moduli (GPa) = 53.67436 11.24864 33.28364
#
# Poissons Ratio (x) = 0.34600 -0.26933
# Poissons Ratio (y) = 1.65097 0.86273
# Poissons Ratio (z) = -0.43433 0.29157
#
# Static dielectric constant tensor:
#      x y z
#    x 3.749080 0.045310 0.277700 
#    y 0.045310 3.444760 0.264840 
#    z 0.277700 0.264840 3.445410 
# 
# 
# High freq. dielectric constant tensor:
#      x y z
#    x 1.798890 0.005580 0.025860 
#    y 0.005580 1.768330 0.022770 
#    z 0.025860 0.022770 1.767710 
# 
# From -- ./inp_files/456694.got.cif
#   From: 2010.06.25/outbox.cif.g09.slc.cpg/sg2_229_cif.got.tgz:456694.got - 2010.06.27 13:26:56.
