data_PCOD8042899
_publ_section_title
;
Structure prediction by ZEFSAII (Michael W. Deem and Ramdas Pophale) SiO2 
 PCOD8042899
Probable space group: P -1
;
_chemical_formula_sum "Si O2"
_cell_formula_units_Z 12
_cell_length_a 12.900265
_cell_length_b 8.284192
_cell_length_c 8.224213
_cell_angle_alpha 58.341281
_cell_angle_beta 124.468486
_cell_angle_gamma 131.567185
_cell_volume 526.001830
_symmetry_space_group_name_H-M "P -1"
_symmetry_group_IT_number 2
_symmetry_cell_setting 'triclinic'
loop_
_space_group_symop_operation_xyz
x,y,z
-x,-y,-z
loop_
_atom_site_type_symbol
_atom_site_label
_atom_site_fract_x
_atom_site_fract_y
_atom_site_fract_z
Si Si1 0.104242 0.814359 0.106529
Si Si2 0.618943 0.226338 0.071241
Si Si3 0.944944 0.367580 0.353965
Si Si4 0.628194 0.606673 0.685307
Si Si5 0.064579 0.010249 0.301727
Si Si6 0.434496 0.114072 0.273932
O O1 0.025774 0.544521 0.185776
O O2 0.069434 0.896468 0.198312
O O3 0.276494 0.918551 0.170463
O O4 0.044070 0.894917 0.860691
O O5 0.768087 0.235597 0.248199
O O6 0.545136 0.250179 0.155392
O O7 0.663264 0.430067 0.883824
O O8 0.500000 0.000000 0.000000
O O9 0.000000 0.500000 0.500000
O O10 0.986806 0.174901 0.501769
O O11 0.500000 0.500000 0.500000
O O12 0.771947 0.788487 0.620882
O O13 0.583141 0.708548 0.736359
O O14 0.500000 0.000000 0.500000
#
# Coordination Sequence:
#
# PCOD8042899 Si02
#       6
#     2   2   2   2   2   2
#     4   9  18  35  58  88 123 161 209 259 316 380
#     4  12  24  42  66  95 132 173 218 268 327 386
#     4  10  19  35  64  91 120 173 213 259 325 388
#     4  11  22  40  66  95 131 170 215 269 323 387
#     4   9  17  33  59  88 121 163 208 255 318 379
#     4  11  23  41  63  98 129 168 217 268 322 388
#
# _framework density 22.813607999999999
#
# number of rings (size 3 to 8) (size 9 to 14) (size 15 to 20)
#    0.000    1.667    1.667    5.500    2.333    0.000 
#    3.000    0.833    3.667    2.000    0.000    0.000 
#    0.000    0.000    0.000    0.000    0.000    0.000 
#
# Total GULP energy -148791.418183 kJ/mol
# GULP energy per Si atom -12399.284849 kJ/mol
# Density = 2.276168 g / cm^3
# Si number density = 22.813608 Si / 1000 Ang^3
#
#
#
# Elastic Constant Matrix: (Units=GPa)
#
#
# Indices 1 2 3 4 5 6 
#
# 1 38.7253 24.6825 30.3548 -0.8652 16.9745 20.6943
# 2 24.6825 145.8552 75.8262 -12.4906 19.5308 21.9921
# 3 30.3548 75.8262 170.4346 -24.2101 36.8284 18.0455
# 4 -0.8652 -12.4906 -24.2101 58.5948 1.4952 6.6039
# 5 16.9745 19.5308 36.8284 1.4952 37.1530 2.8058
# 6 20.6943 21.9921 18.0455 6.6039 2.8058 30.2579
#
#
#
# Elastic Compliance Matrix: (Units=1/GPa)
#
#
# Indices 1 2 3 4 5 6 
#
# 1 0.056043 -0.000256 -0.000294 0.005404 -0.022599 -0.037053
# 2 -0.000256 0.009638 -0.003202 0.001337 -0.001446 -0.005078
# 3 -0.000294 -0.003202 0.010038 0.004071 -0.008025 -0.003603
# 4 0.005404 0.001337 0.004071 0.020527 -0.007210 -0.010907
# 5 -0.022599 -0.001446 -0.008025 -0.007210 0.044832 0.018709
# 6 -0.037053 -0.005078 -0.003603 -0.010907 0.018709 0.064876
#
#
# Mechanical properties :
#
#
# Convention : Reuss Voigt Hill
#
# Bulk Modulus (GPa) = 14.65936 68.52692 41.59314
# Shear Modulus (GPa) = 21.16885 40.14458 30.65672
#
# Velocity S-wave (km/s) = 3.04946 4.19940 3.66975
# Velocity P-wave (km/s) = 4.34034 7.32231 6.01892
#
# Compressibility (1/GPa) = 0.06821582
#
# Stress axis : x y z
#
# Youngs Moduli (GPa) = 17.84345 103.75626 99.61921
#
# Poissons Ratio (x) = 0.02652 0.02925
# Poissons Ratio (y) = 0.00456 0.31903
# Poissons Ratio (z) = 0.00524 0.33228
#
# Static dielectric constant tensor:
#      x y z
#    x 3.824980 0.164560 0.110010 
#    y 0.164560 4.442670 -0.271950 
#    z 0.110010 -0.271950 4.596480 
# 
# 
# High freq. dielectric constant tensor:
#      x y z
#    x 1.871470 0.009980 0.015400 
#    y 0.009980 1.914520 -0.007210 
#    z 0.015400 -0.007210 1.919540 
# 
# From -- ./inp_files/152574.got.cif
#   From: 2010.06.25/outbox.cif.g09.slc.cpg/sg2_77_cif.got.tgz:152574.got - 2010.06.27 13:26:56.
