data_PCOD8042461
_publ_section_title
;
Structure prediction by ZEFSAII (Michael W. Deem and Ramdas Pophale) SiO2 
 PCOD8042461
Probable space group: P -1
;
_chemical_formula_sum "Si O2"
_cell_formula_units_Z 12
_cell_length_a 10.245470
_cell_length_b 15.151091
_cell_length_c 9.318242
_cell_angle_alpha 140.628647
_cell_angle_beta 43.829977
_cell_angle_gamma 128.550575
_cell_volume 628.320549
_symmetry_space_group_name_H-M "P -1"
_symmetry_group_IT_number 2
_symmetry_cell_setting 'triclinic'
loop_
_space_group_symop_operation_xyz
x,y,z
-x,-y,-z
loop_
_atom_site_type_symbol
_atom_site_label
_atom_site_fract_x
_atom_site_fract_y
_atom_site_fract_z
Si Si1 0.239450 0.316423 0.832733
Si Si2 0.129463 0.087853 0.834270
Si Si3 0.480823 0.526281 0.382139
Si Si4 0.875835 0.197019 0.396598
Si Si5 0.945263 0.501827 0.379641
Si Si6 0.476902 0.288524 0.865646
O O1 0.153333 0.153094 0.734675
O O2 0.362337 0.338860 0.617195
O O3 0.385300 0.374205 0.919361
O O4 0.069874 0.408487 0.072159
O O5 0.316300 0.154375 0.863663
O O6 0.116752 0.919063 0.629359
O O7 0.941715 0.133472 0.114713
O O8 0.500000 0.500000 0.500000
O O9 0.273287 0.561168 0.551376
O O10 0.527316 0.388484 0.087739
O O11 0.664642 0.233069 0.588532
O O12 0.017973 0.337414 0.503694
O O13 0.000000 0.500000 0.500000
#
# Coordination Sequence:
#
# PCOD8042461 Si02
#       6
#     2   2   2   2   2   2
#     4  10  21  35  58  82 111 143 192 227 277 322
#     4   9  21  31  55  91 109 143 182 237 278 323
#     4  12  24  36  55  86 117 148 185 231 280 328
#     4  11  18  32  56  88 115 136 184 240 277 321
#     4  12  19  36  60  85 109 146 185 236 272 323
#     4  10  19  35  56  86 111 148 183 231 277 326
#
# _framework density 19.098531999999999
#
# number of rings (size 3 to 8) (size 9 to 14) (size 15 to 20)
#    1.000    0.333    6.667    2.000    0.000    0.667 
#    0.000    0.000    0.000    2.000    0.000    0.000 
#    0.000    0.000    0.000    0.000    0.000    0.000 
#
# Total GULP energy -148690.256208 kJ/mol
# GULP energy per Si atom -12390.854684 kJ/mol
# Density = 1.905506 g / cm^3
# Si number density = 19.098532 Si / 1000 Ang^3
#
#
#
# Elastic Constant Matrix: (Units=GPa)
#
#
# Indices 1 2 3 4 5 6 
#
# 1 61.6003 25.6514 34.3347 -20.8771 -14.1016 -8.0231
# 2 25.6514 156.7652 40.0493 -7.4069 -11.1222 -20.1083
# 3 34.3347 40.0493 74.9009 -18.0375 -32.3934 0.6508
# 4 -20.8771 -7.4069 -18.0375 36.2266 2.4918 -4.9364
# 5 -14.1016 -11.1222 -32.3934 2.4918 33.1962 -10.7080
# 6 -8.0231 -20.1083 0.6508 -4.9364 -10.7080 25.6114
#
#
#
# Elastic Compliance Matrix: (Units=1/GPa)
#
#
# Indices 1 2 3 4 5 6 
#
# 1 0.029417 0.000299 -0.004067 0.016569 0.013288 0.018302
# 2 0.000299 0.008445 -0.003738 0.000972 0.001730 0.007729
# 3 -0.004067 -0.003738 0.035140 0.013649 0.034086 0.011780
# 4 0.016569 0.000972 0.013649 0.045816 0.025315 0.025022
# 5 0.013288 0.001730 0.034086 0.025315 0.081819 0.043742
# 6 0.018302 0.007729 0.011780 0.025022 0.043742 0.073659
#
#
# Mechanical properties :
#
#
# Convention : Reuss Voigt Hill
#
# Bulk Modulus (GPa) = 17.24407 54.81525 36.02966
# Shear Modulus (GPa) = 16.20030 31.88890 24.04460
#
# Velocity S-wave (km/s) = 2.91563 4.09063 3.55205
# Velocity P-wave (km/s) = 4.51477 7.14665 5.97736
#
# Compressibility (1/GPa) = 0.05799094
#
# Stress axis : x y z
#
# Youngs Moduli (GPa) = 33.99377 118.41283 28.45797
#
# Poissons Ratio (x) = -0.03537 0.11573
# Poissons Ratio (y) = -0.01015 0.10636
# Poissons Ratio (z) = 0.13824 0.44257
#
# Static dielectric constant tensor:
#      x y z
#    x 3.283050 0.178740 -0.439200 
#    y 0.178740 3.989850 -0.156260 
#    z -0.439200 -0.156260 3.368050 
# 
# 
# High freq. dielectric constant tensor:
#      x y z
#    x 1.689720 0.003630 -0.045630 
#    y 0.003630 1.765610 -0.015830 
#    z -0.045630 -0.015830 1.724630 
# 
# From -- ./inp_files/204639.got.cif
#   From: 2010.06.25/outbox.cif.g09.slc.cpg/sg2_103_cif.got.tgz:204639.got - 2010.06.27 13:26:56.
