data_PCOD8042730
_publ_section_title
;
Structure prediction by ZEFSAII (Michael W. Deem and Ramdas Pophale) SiO2 
 PCOD8042730
Probable space group: P -1
;
_chemical_formula_sum "Si O2"
_cell_formula_units_Z 14
_cell_length_a 11.597928
_cell_length_b 21.285574
_cell_length_c 13.748513
_cell_angle_alpha 158.216067
_cell_angle_beta 48.424735
_cell_angle_gamma 143.941686
_cell_volume 679.923717
_symmetry_space_group_name_H-M "P -1"
_symmetry_group_IT_number 2
_symmetry_cell_setting 'triclinic'
loop_
_space_group_symop_operation_xyz
x,y,z
-x,-y,-z
loop_
_atom_site_type_symbol
_atom_site_label
_atom_site_fract_x
_atom_site_fract_y
_atom_site_fract_z
Si Si1 0.164150 0.346354 0.839722
Si Si2 0.430624 0.483738 0.213005
Si Si3 0.705036 0.375149 0.655884
Si Si4 0.691354 0.934417 0.432826
Si Si5 0.329383 0.339859 0.282076
Si Si6 0.805176 0.290600 0.744534
Si Si7 0.108949 0.820217 0.658019
O O1 0.323278 0.317758 0.677665
O O2 0.160425 0.380912 0.007168
O O3 0.291048 0.611193 0.106777
O O4 0.930129 0.134546 0.628395
O O5 0.316391 0.570169 0.363679
O O6 0.429256 0.465972 0.303882
O O7 0.308353 0.235621 0.874136
O O8 0.468035 0.182445 0.556303
O O9 0.816607 0.276304 0.451616
O O10 0.640462 0.059289 0.571471
O O11 0.500000 0.500000 0.500000
O O12 0.126240 0.304812 0.358971
O O13 0.271953 0.099235 0.976196
O O14 0.900089 0.243614 0.540040
O O15 0.000000 0.500000 0.000000
#
# Coordination Sequence:
#
# PCOD8042730 Si02
#       7
#     2   2   2   2   2   2   2
#     4   9  20  33  59  95 125 154 198 241 306 374
#     4  11  23  38  59  90 123 163 201 245 300 361
#     4  10  23  38  59  92 126 156 198 243 308 370
#     4  10  19  35  60  91 129 159 187 250 308 360
#     4  11  26  42  66  84 116 166 213 256 290 348
#     4   9  18  32  62  93 120 149 194 248 307 355
#     4  10  23  44  60  89 121 158 207 254 298 355
#
# _framework density 20.590544999999999
#
# number of rings (size 3 to 8) (size 9 to 14) (size 15 to 20)
#    0.000    2.000    1.429    1.714    6.000    6.857 
#    0.000    0.714    0.000    0.000    0.000    0.000 
#    0.000    0.000    0.000    0.000    0.000    0.000 
#
# Total GULP energy -173543.675437 kJ/mol
# GULP energy per Si atom -12395.976817 kJ/mol
# Density = 2.054368 g / cm^3
# Si number density = 20.590545 Si / 1000 Ang^3
#
#
#
# Elastic Constant Matrix: (Units=GPa)
#
#
# Indices 1 2 3 4 5 6 
#
# 1 155.2646 41.1401 56.8929 -4.9815 -7.2002 -2.4130
# 2 41.1401 49.6772 39.4183 -5.2388 -2.2666 3.5793
# 3 56.8929 39.4183 98.8171 -3.2229 5.6241 6.5077
# 4 -4.9815 -5.2388 -3.2229 29.6026 4.5219 -1.1430
# 5 -7.2002 -2.2666 5.6241 4.5219 27.9863 -0.0918
# 6 -2.4130 3.5793 6.5077 -1.1430 -0.0918 24.2425
#
#
#
# Elastic Compliance Matrix: (Units=1/GPa)
#
#
# Indices 1 2 3 4 5 6 
#
# 1 0.009243 -0.004732 -0.003765 -0.000012 0.002762 0.002639
# 2 -0.004732 0.032877 -0.010292 0.003356 0.002963 -0.002393
# 3 -0.003765 -0.010292 0.016917 0.000053 -0.005221 -0.003414
# 4 -0.000012 0.003356 0.000053 0.035252 -0.005434 0.001131
# 5 0.002762 0.002963 -0.005221 -0.005434 0.038613 0.001129
# 6 0.002639 -0.002393 -0.003414 0.001131 0.001129 0.042840
#
#
# Mechanical properties :
#
#
# Convention : Reuss Voigt Hill
#
# Bulk Modulus (GPa) = 46.60258 64.29571 55.44915
# Shear Modulus (GPa) = 22.67856 27.45345 25.06601
#
# Velocity S-wave (km/s) = 3.32234 3.65540 3.49285
# Velocity P-wave (km/s) = 6.11551 7.00782 6.57682
#
# Compressibility (1/GPa) = 0.02145804
#
# Stress axis : x y z
#
# Youngs Moduli (GPa) = 108.19119 30.41656 59.11372
#
# Poissons Ratio (x) = 0.14394 0.22258
# Poissons Ratio (y) = 0.51199 0.60838
# Poissons Ratio (z) = 0.40736 0.31304
#
# Static dielectric constant tensor:
#      x y z
#    x 3.949880 -0.144870 -0.128530 
#    y -0.144870 3.506480 0.129660 
#    z -0.128530 0.129660 3.774560 
# 
# 
# High freq. dielectric constant tensor:
#      x y z
#    x 1.828390 0.007080 -0.002050 
#    y 0.007080 1.786080 0.016000 
#    z -0.002050 0.016000 1.801260 
# 
# From -- ./inp_files/450280.got.cif
#   From: 2010.06.25/outbox.cif.g09.slc.cpg/sg2_226_cif.got.tgz:450280.got - 2010.06.27 13:26:56.
