data_PCOD8042032
_publ_section_title
;
Structure prediction by ZEFSAII (Michael W. Deem and Ramdas Pophale) SiO2 
 PCOD8042032
Probable space group: P -1
;
_chemical_formula_sum "Si O2"
_cell_formula_units_Z 16
_cell_length_a 13.515886
_cell_length_b 8.064701
_cell_length_c 8.992800
_cell_angle_alpha 103.656677
_cell_angle_beta 116.692319
_cell_angle_gamma 112.133167
_cell_volume 707.268047
_symmetry_space_group_name_H-M "P -1"
_symmetry_group_IT_number 2
_symmetry_cell_setting 'triclinic'
loop_
_space_group_symop_operation_xyz
x,y,z
-x,-y,-z
loop_
_atom_site_type_symbol
_atom_site_label
_atom_site_fract_x
_atom_site_fract_y
_atom_site_fract_z
Si Si1 0.791793 0.610026 0.794534
Si Si2 0.929053 0.227032 0.486253
Si Si3 0.553641 0.237573 0.066651
Si Si4 0.180099 0.483260 0.881409
Si Si5 0.424581 0.788042 0.599888
Si Si6 0.615956 0.727120 0.581189
Si Si7 0.004731 0.628376 0.749481
Si Si8 0.649140 0.888984 0.324154
O O1 0.796284 0.605929 0.974274
O O2 0.686979 0.379953 0.620461
O O3 0.752075 0.769125 0.753407
O O4 0.934365 0.688831 0.834639
O O5 0.904056 0.406273 0.552128
O O6 0.932235 0.205110 0.305600
O O7 0.805081 0.014676 0.418992
O O8 0.069618 0.286025 0.665943
O O9 0.686191 0.370347 0.087971
O O10 0.437172 0.246243 0.906186
O O11 0.584973 0.324591 0.273821
O O12 0.500000 0.000000 0.000000
O O13 0.119821 0.619023 0.910066
O O14 0.572438 0.874714 0.649203
O O15 0.407625 0.974571 0.641399
O O16 0.500000 0.500000 0.500000
O O17 0.628787 0.743674 0.415690
#
# Coordination Sequence:
#
# PCOD8042032 Si02
#       8
#     2   2   2   2   2   2   2   2
#     4  11  20  36  57  86 117 154 188 230 288 345
#     4   9  19  35  62  87 111 145 194 244 279 332
#     4  10  20  33  59  90 112 140 194 247 282 327
#     4  10  19  34  56  87 113 149 191 230 282 348
#     4  10  19  37  58  84 115 152 187 241 285 332
#     4  10  23  37  54  82 123 156 186 231 291 343
#     4   9  17  34  59  83 113 142 190 230 288 323
#     4  11  20  39  61  87 111 149 198 239 280 339
#
# _framework density 22.622257999999999
#
# number of rings (size 3 to 8) (size 9 to 14) (size 15 to 20)
#    0.750    1.250    1.250    4.500    0.000    1.000 
#    0.000    9.375    0.000    0.000    0.000    0.000 
#    0.000    0.000    0.000    0.000    0.000    0.000 
#
# Total GULP energy -198271.272820 kJ/mol
# GULP energy per Si atom -12391.954551 kJ/mol
# Density = 2.257077 g / cm^3
# Si number density = 22.622258 Si / 1000 Ang^3
#
#
#
# Elastic Constant Matrix: (Units=GPa)
#
#
# Indices 1 2 3 4 5 6 
#
# 1 67.3494 27.0837 18.5170 -5.6543 14.7404 30.7299
# 2 27.0837 87.5660 43.3518 -27.8370 9.2063 34.4961
# 3 18.5170 43.3518 114.4918 -37.6001 23.6858 14.3031
# 4 -5.6543 -27.8370 -37.6001 45.3995 5.8594 -3.6757
# 5 14.7404 9.2063 23.6858 5.8594 29.8893 -0.5555
# 6 30.7299 34.4961 14.3031 -3.6757 -0.5555 39.4444
#
#
#
# Elastic Compliance Matrix: (Units=1/GPa)
#
#
# Indices 1 2 3 4 5 6 
#
# 1 0.032142 0.007136 0.006448 0.014511 -0.026610 -0.032642
# 2 0.007136 0.027755 0.002230 0.019756 -0.018248 -0.029057
# 3 0.006448 0.002230 0.020508 0.021287 -0.024528 -0.012772
# 4 0.014511 0.019756 0.021287 0.056405 -0.041756 -0.031633
# 5 -0.026610 -0.018248 -0.024528 -0.041756 0.080620 0.042829
# 6 -0.032642 -0.029057 -0.012772 -0.031633 0.042829 0.078481
#
#
# Mechanical properties :
#
#
# Convention : Reuss Voigt Hill
#
# Bulk Modulus (GPa) = 8.92599 49.70135 29.31367
# Shear Modulus (GPa) = 16.57680 34.97693 25.77687
#
# Velocity S-wave (km/s) = 2.70990 3.93635 3.37923
# Velocity P-wave (km/s) = 3.70751 6.53281 5.31146
#
# Compressibility (1/GPa) = 0.11203234
#
# Stress axis : x y z
#
# Youngs Moduli (GPa) = 31.11238 36.03000 48.76217
#
# Poissons Ratio (x) = -0.25713 -0.31441
# Poissons Ratio (y) = -0.22203 -0.10874
# Poissons Ratio (z) = -0.20061 -0.08035
#
# Static dielectric constant tensor:
#      x y z
#    x 4.494590 0.050310 0.024890 
#    y 0.050310 3.718790 -0.341920 
#    z 0.024890 -0.341920 4.277470 
# 
# 
# High freq. dielectric constant tensor:
#      x y z
#    x 1.887560 0.020490 0.009760 
#    y 0.020490 1.867110 -0.027920 
#    z 0.009760 -0.027920 1.888610 
# 
# From -- ./inp_files/295614.got.cif
#   From: 2010.06.25/outbox.cif.g09.slc.cpg/sg2_148_cif.got.tgz:295614.got - 2010.06.27 13:26:56.
