data_PCOD8042218
_publ_section_title
;
Structure prediction by ZEFSAII (Michael W. Deem and Ramdas Pophale) SiO2 
 PCOD8042218
Probable space group: P -1
;
_chemical_formula_sum "Si O2"
_cell_formula_units_Z 12
_cell_length_a 8.689806
_cell_length_b 13.011726
_cell_length_c 7.545374
_cell_angle_alpha 98.275036
_cell_angle_beta 123.279177
_cell_angle_gamma 116.465620
_cell_volume 545.741741
_symmetry_space_group_name_H-M "P -1"
_symmetry_group_IT_number 2
_symmetry_cell_setting 'triclinic'
loop_
_space_group_symop_operation_xyz
x,y,z
-x,-y,-z
loop_
_atom_site_type_symbol
_atom_site_label
_atom_site_fract_x
_atom_site_fract_y
_atom_site_fract_z
Si Si1 0.309972 0.912547 0.631642
Si Si2 0.237812 0.224300 0.308338
Si Si3 0.147159 0.968739 0.222329
Si Si4 0.817753 0.661766 0.359434
Si Si5 0.491589 0.368258 0.158340
Si Si6 0.662476 0.900476 0.034824
O O1 0.274330 0.924677 0.405082
O O2 0.560355 0.942502 0.825815
O O3 0.101633 0.766478 0.543869
O O4 0.310402 0.025553 0.750971
O O5 0.267348 0.286025 0.533665
O O6 0.400079 0.342635 0.297578
O O7 0.317707 0.130375 0.338614
O O8 0.955852 0.121974 0.045936
O O9 0.908248 0.929534 0.155508
O O10 0.740717 0.518899 0.337076
O O11 0.702455 0.646876 0.094476
O O12 0.528233 0.261134 0.097521
#
# Coordination Sequence:
#
# PCOD8042218 Si02
#       6
#     2   2   2   2   2   2
#     4  11  20  35  63  86 112 150 188 236 281 333
#     4  10  19  34  60  85 111 151 188 230 284 332
#     4  10  19  36  58  85 115 146 185 240 279 329
#     4  11  20  36  62  82 115 153 187 232 281 335
#     4  10  22  37  57  87 113 152 191 227 283 338
#     4  10  20  35  59  89 111 148 194 225 287 336
#
# _framework density 21.988420999999999
#
# number of rings (size 3 to 8) (size 9 to 14) (size 15 to 20)
#    0.000    1.667    5.000    2.000    0.000    0.667 
#    0.000    7.500    7.333    1.000    0.000    0.000 
#    0.000    0.000    0.000    0.000    0.000    0.000 
#
# Total GULP energy -148703.499636 kJ/mol
# GULP energy per Si atom -12391.958303 kJ/mol
# Density = 2.193837 g / cm^3
# Si number density = 21.988421 Si / 1000 Ang^3
#
#
#
# Elastic Constant Matrix: (Units=GPa)
#
#
# Indices 1 2 3 4 5 6 
#
# 1 63.5964 18.3418 11.8238 9.3303 8.7663 7.8440
# 2 18.3418 143.2691 27.5914 10.2219 6.7502 19.5124
# 3 11.8238 27.5914 62.8273 -3.7889 0.2726 7.1357
# 4 9.3303 10.2219 -3.7889 41.5663 -3.5685 -9.5671
# 5 8.7663 6.7502 0.2726 -3.5685 27.6703 -4.1770
# 6 7.8440 19.5124 7.1357 -9.5671 -4.1770 26.2353
#
#
#
# Elastic Compliance Matrix: (Units=1/GPa)
#
#
# Indices 1 2 3 4 5 6 
#
# 1 0.019735 0.000352 -0.003219 -0.007748 -0.008740 -0.009504
# 2 0.000352 0.009344 -0.003475 -0.005052 -0.004313 -0.008639
# 3 -0.003219 -0.003475 0.018226 0.003470 0.002165 0.000200
# 4 -0.007748 -0.005052 0.003470 0.032579 0.010679 0.018711
# 5 -0.008740 -0.004313 0.002165 0.010679 0.043746 0.016091
# 6 -0.009504 -0.008639 0.000200 0.018711 0.016091 0.056714
#
#
# Mechanical properties :
#
#
# Convention : Reuss Voigt Hill
#
# Bulk Modulus (GPa) = 28.88310 42.80076 35.84193
# Shear Modulus (GPa) = 24.44195 33.22343 28.83269
#
# Velocity S-wave (km/s) = 3.33766 3.89131 3.62507
# Velocity P-wave (km/s) = 5.29315 6.30057 5.81870
#
# Compressibility (1/GPa) = 0.03462232
#
# Stress axis : x y z
#
# Youngs Moduli (GPa) = 50.67245 107.01847 54.86805
#
# Poissons Ratio (x) = -0.03770 0.17660
# Poissons Ratio (y) = -0.01785 0.19065
# Poissons Ratio (z) = 0.16309 0.37186
#
# Static dielectric constant tensor:
#      x y z
#    x 3.687590 0.218830 -0.167220 
#    y 0.218830 4.462570 0.136170 
#    z -0.167220 0.136170 3.963340 
# 
# 
# High freq. dielectric constant tensor:
#      x y z
#    x 1.848270 0.017000 -0.015580 
#    y 0.017000 1.876340 -0.002370 
#    z -0.015580 -0.002370 1.859770 
# 
# From -- ./inp_files/203404.got.cif
#   From: 2010.06.25/outbox.cif.g09.slc.cpg/sg2_102_cif.got.tgz:203404.got - 2010.06.27 13:26:56.
