data_PCOD8042669
_publ_section_title
;
Structure prediction by ZEFSAII (Michael W. Deem and Ramdas Pophale) SiO2 
 PCOD8042669
Probable space group: P -1
;
_chemical_formula_sum "Si O2"
_cell_formula_units_Z 14
_cell_length_a 8.869347
_cell_length_b 13.682017
_cell_length_c 16.881062
_cell_angle_alpha 42.480569
_cell_angle_beta 103.672734
_cell_angle_gamma 69.108767
_cell_volume 790.001848
_symmetry_space_group_name_H-M "P -1"
_symmetry_group_IT_number 2
_symmetry_cell_setting 'triclinic'
loop_
_space_group_symop_operation_xyz
x,y,z
-x,-y,-z
loop_
_atom_site_type_symbol
_atom_site_label
_atom_site_fract_x
_atom_site_fract_y
_atom_site_fract_z
Si Si1 0.016100 0.928305 0.380431
Si Si2 0.231138 0.103119 0.132286
Si Si3 0.446400 0.498019 0.810729
Si Si4 0.866621 0.228240 0.895101
Si Si5 0.546912 0.358193 0.518469
Si Si6 0.537639 0.764205 0.911948
Si Si7 0.803421 0.389036 0.036959
O O1 0.180740 0.757512 0.580795
O O2 0.190445 0.787119 0.407054
O O3 0.768111 0.010220 0.287189
O O4 0.910438 0.172083 0.231143
O O5 0.397749 0.120580 0.126422
O O6 0.029532 0.281131 0.072991
O O7 0.432256 0.822071 0.343455
O O8 0.079689 0.174582 0.990981
O O9 0.682003 0.295476 0.898675
O O10 0.396170 0.382208 0.915283
O O11 0.544916 0.537708 0.865488
O O12 0.700401 0.455465 0.681505
O O13 0.000000 0.000000 0.000000
O O14 0.500000 0.500000 0.500000
O O15 0.721646 0.576279 0.974531
#
# Coordination Sequence:
#
# PCOD8042669 Si02
#       7
#     2   2   2   2   2   2   2
#     4   9  19  34  54  79 106 136 180 213 252 311
#     4  10  21  36  52  82 108 134 176 217 259 316
#     4   9  19  34  54  79 106 136 180 213 252 311
#     4  10  19  35  60  75  96 139 183 216 253 308
#     4  10  19  35  60  75  96 139 183 216 253 308
#     4  11  21  33  53  79 115 139 163 220 270 299
#     4   9  19  35  55  77 103 147 181 205 249 311
#
# _framework density 17.721478999999999
#
# number of rings (size 3 to 8) (size 9 to 14) (size 15 to 20)
#    0.000    2.286    1.429    3.000    0.000    3.429 
#    0.000    1.429    0.000    8.571    0.000    0.000 
#    0.000    0.000    0.000    0.000    0.000    0.000 
#
# Total GULP energy -173610.717988 kJ/mol
# GULP energy per Si atom -12400.765571 kJ/mol
# Density = 1.768114 g / cm^3
# Si number density = 17.721479 Si / 1000 Ang^3
#
#
#
# Elastic Constant Matrix: (Units=GPa)
#
#
# Indices 1 2 3 4 5 6 
#
# 1 101.4166 35.4535 47.7227 3.5033 -4.7404 22.3782
# 2 35.4535 104.5392 44.3343 -3.7958 -5.2166 11.5280
# 3 47.7227 44.3343 142.9916 12.8571 -0.6124 10.2858
# 4 3.5033 -3.7958 12.8571 25.0795 -5.3748 -1.7291
# 5 -4.7404 -5.2166 -0.6124 -5.3748 22.5080 1.0213
# 6 22.3782 11.5280 10.2858 -1.7291 1.0213 19.6425
#
#
#
# Elastic Compliance Matrix: (Units=1/GPa)
#
#
# Indices 1 2 3 4 5 6 
#
# 1 0.015725 -0.002109 -0.003386 -0.001152 0.003144 -0.015169
# 2 -0.002109 0.012332 -0.003291 0.004399 0.003507 -0.002906
# 3 -0.003386 -0.003291 0.009594 -0.005458 -0.002537 0.000417
# 4 -0.001152 0.004399 -0.005458 0.046303 0.011455 0.005069
# 5 0.003144 0.003507 -0.002537 0.011455 0.048835 -0.005842
# 6 -0.015169 -0.002906 0.000417 0.005069 -0.005842 0.070429
#
#
# Mechanical properties :
#
#
# Convention : Reuss Voigt Hill
#
# Bulk Modulus (GPa) = 49.80520 67.10763 58.45642
# Shear Modulus (GPa) = 21.97968 28.20845 25.09407
#
# Velocity S-wave (km/s) = 3.52559 3.99402 3.76709
# Velocity P-wave (km/s) = 6.68868 7.69544 7.20966
#
# Compressibility (1/GPa) = 0.02007822
#
# Stress axis : x y z
#
# Youngs Moduli (GPa) = 63.59383 81.08938 104.23371
#
# Poissons Ratio (x) = 0.17103 0.35293
# Poissons Ratio (y) = 0.13413 0.34305
# Poissons Ratio (z) = 0.21533 0.26687
#
# Static dielectric constant tensor:
#      x y z
#    x 3.060040 -0.141080 0.021180 
#    y -0.141080 3.158930 0.093370 
#    z 0.021180 0.093370 3.577460 
# 
# 
# High freq. dielectric constant tensor:
#      x y z
#    x 1.664960 -0.012560 0.002130 
#    y -0.012560 1.688260 0.002210 
#    z 0.002130 0.002210 1.698920 
# 
# From -- ./inp_files/249331.got.cif
#   From: 2010.06.25/outbox.cif.g09.slc.cpg/sg2_125_cif.got.tgz:249331.got - 2010.06.27 13:26:56.
