data_PCOD8042453
_publ_section_title
;
Structure prediction by ZEFSAII (Michael W. Deem and Ramdas Pophale) SiO2 
 PCOD8042453
Probable space group: P -1
;
_chemical_formula_sum "Si O2"
_cell_formula_units_Z 14
_cell_length_a 7.493563
_cell_length_b 11.266101
_cell_length_c 11.232952
_cell_angle_alpha 93.347863
_cell_angle_beta 37.979041
_cell_angle_gamma 88.061658
_cell_volume 577.633171
_symmetry_space_group_name_H-M "P -1"
_symmetry_group_IT_number 2
_symmetry_cell_setting 'triclinic'
loop_
_space_group_symop_operation_xyz
x,y,z
-x,-y,-z
loop_
_atom_site_type_symbol
_atom_site_label
_atom_site_fract_x
_atom_site_fract_y
_atom_site_fract_z
Si Si1 0.761664 0.053610 0.928363
Si Si2 0.865498 0.115137 0.421856
Si Si3 0.993714 0.523156 0.142165
Si Si4 0.615658 0.919774 0.663110
Si Si5 0.652251 0.479607 0.767411
Si Si6 0.840142 0.388511 0.427471
Si Si7 0.027055 0.264061 0.688507
O O1 0.806372 0.175357 0.844596
O O2 0.692973 0.080477 0.105844
O O3 0.044611 0.953782 0.754552
O O4 0.500000 0.000000 0.000000
O O5 0.129190 0.098217 0.374949
O O6 0.771662 0.253211 0.452513
O O7 0.604740 0.049553 0.611774
O O8 0.808790 0.437594 0.311023
O O9 0.867436 0.660194 0.250792
O O10 0.338274 0.502150 0.000141
O O11 0.000000 0.500000 0.000000
O O12 0.683871 0.810068 0.527231
O O13 0.831579 0.592943 0.699693
O O14 0.850990 0.356603 0.694597
O O15 0.607767 0.462413 0.645735
#
# Coordination Sequence:
#
# PCOD8042453 Si02
#       7
#     2   2   2   2   2   2   2
#     4   9  19  26  52  86 120 142 162 221 292 332
#     4   9  17  29  48  87 119 135 171 220 286 334
#     4  11  26  40  54  80 113 155 194 227 277 336
#     4   9  17  29  48  84 121 137 167 223 282 336
#     4  10  22  35  59  85 108 143 189 240 284 326
#     4  10  20  36  61  85 112 143 185 240 283 326
#     4  10  19  35  56  84 113 139 186 233 274 328
#
# _framework density 24.236836
#
# number of rings (size 3 to 8) (size 9 to 14) (size 15 to 20)
#    0.000    2.286    1.429    2.571    8.000    0.571 
#    0.000    0.000    0.000    3.429    0.000    6.000 
#    0.000    0.000    0.000    0.000    0.000    0.000 
#
# Total GULP energy -173487.276985 kJ/mol
# GULP energy per Si atom -12391.948356 kJ/mol
# Density = 2.418167 g / cm^3
# Si number density = 24.236836 Si / 1000 Ang^3
#
#
#
# Elastic Constant Matrix: (Units=GPa)
#
#
# Indices 1 2 3 4 5 6 
#
# 1 28.3524 25.7039 13.2003 5.8007 32.9454 5.6892
# 2 25.7039 157.4241 60.2731 2.4305 21.4380 9.7270
# 3 13.2003 60.2731 169.8081 1.6405 33.2148 3.4257
# 4 5.8007 2.4305 1.6405 31.8216 3.6599 10.9814
# 5 32.9454 21.4380 33.2148 3.6599 42.0982 7.6868
# 6 5.6892 9.7270 3.4257 10.9814 7.6868 11.9329
#
#
#
# Elastic Compliance Matrix: (Units=1/GPa)
#
#
# Indices 1 2 3 4 5 6 
#
# 1 -1.491066 0.163550 -0.188179 0.277787 1.291133 -0.455739
# 2 0.163550 -0.010115 0.018169 -0.028441 -0.142566 0.043063
# 3 -0.188179 0.018169 -0.015968 0.033979 0.157362 -0.053145
# 4 0.277787 -0.028441 0.033979 -0.004474 -0.236123 0.037208
# 5 1.291133 -0.142566 0.157362 -0.236123 -1.085634 0.372085
# 6 -0.455739 0.043063 -0.053145 0.037208 0.372085 0.007314
#
#
# Mechanical properties :
#
#
# Convention : Reuss Voigt Hill
#
# Bulk Modulus (GPa) = -0.65357 61.54878 30.44761
# Shear Modulus (GPa) = -1.61444 34.26437 16.32496
#
# Velocity S-wave (km/s) = -0.81704 3.76404 2.59812
# Velocity P-wave (km/s) = 1.07718 6.65887 4.64652
#
# Compressibility (1/GPa) = -1.53006900
#
# Stress axis : x y z
#
# Youngs Moduli (GPa) = -0.67066 -98.86127 -62.62541
#
# Poissons Ratio (x) = 16.16880 -11.78479
# Poissons Ratio (y) = 0.10969 1.13782
# Poissons Ratio (z) = -0.12620 1.79618
#
# Static dielectric constant tensor:
#      x y z
#    x 3.925460 0.220330 0.361390 
#    y 0.220330 4.343600 0.056400 
#    z 0.361390 0.056400 5.484190 
# 
# 
# High freq. dielectric constant tensor:
#      x y z
#    x 1.924700 0.014200 0.026520 
#    y 0.014200 1.955560 -0.006750 
#    z 0.026520 -0.006750 1.989930 
# 
# From -- ./inp_files/387485.got.cif
#   From: 2010.06.25/outbox.cif.g09.slc.cpg/sg2_194_cif.got.tgz:387485.got - 2010.06.27 13:26:56.
