data_PCOD8042553
_publ_section_title
;
Structure prediction by ZEFSAII (Michael W. Deem and Ramdas Pophale) SiO2 
 PCOD8042553
Probable space group: P -1
;
_chemical_formula_sum "Si O2"
_cell_formula_units_Z 14
_cell_length_a 4.971747
_cell_length_b 29.528319
_cell_length_c 23.229439
_cell_angle_alpha 11.360446
_cell_angle_beta 95.602595
_cell_angle_gamma 95.378670
_cell_volume 668.510364
_symmetry_space_group_name_H-M "P -1"
_symmetry_group_IT_number 2
_symmetry_cell_setting 'triclinic'
loop_
_space_group_symop_operation_xyz
x,y,z
-x,-y,-z
loop_
_atom_site_type_symbol
_atom_site_label
_atom_site_fract_x
_atom_site_fract_y
_atom_site_fract_z
Si Si1 0.816056 0.318694 0.860336
Si Si2 0.429896 0.820550 0.137855
Si Si3 0.738768 0.888581 0.607466
Si Si4 0.190203 0.180610 0.748719
Si Si5 0.268619 0.341338 0.756151
Si Si6 0.798351 0.894883 0.467012
Si Si7 0.672972 0.397582 0.183559
O O1 0.929605 0.562676 0.583456
O O2 0.501313 0.327573 0.826785
O O3 0.987160 0.260184 0.878922
O O4 0.876279 0.130899 0.143957
O O5 0.556123 0.782140 0.251132
O O6 0.236807 0.596078 0.408390
O O7 0.650429 0.833298 0.075923
O O8 0.272325 0.065989 0.831641
O O9 0.721912 0.949371 0.463617
O O10 0.500000 0.000000 0.500000
O O11 0.741203 0.609664 0.963285
O O12 0.000000 0.000000 0.500000
O O13 0.000000 0.000000 0.000000
O O14 0.534062 0.788301 0.561738
O O15 0.051481 0.719550 0.687224
O O16 0.500000 0.500000 0.000000
#
# Coordination Sequence:
#
# PCOD8042553 Si02
#       7
#     2   2   2   2   2   2   2
#     4  11  23  38  58  83 120 156 201 244 307 349
#     4   9  20  34  56  83 110 147 210 254 289 343
#     4  11  21  37  65  95 117 149 197 244 291 352
#     4  10  19  35  58  82 113 159 199 244 300 356
#     4  10  21  36  58  83 109 153 202 256 289 346
#     4  11  22  40  61  88 124 164 196 246 300 366
#     4  10  20  39  65  87 116 158 201 231 287 366
#
# _framework density 20.942084000000001
#
# number of rings (size 3 to 8) (size 9 to 14) (size 15 to 20)
#    0.000    1.714    1.429    5.143    2.000    1.714 
#    0.000    4.286    3.143    0.000    0.000    0.000 
#    0.000    0.000    0.000    0.000    0.000    0.000 
#
# Total GULP energy -173486.188934 kJ/mol
# GULP energy per Si atom -12391.870638 kJ/mol
# Density = 2.089442 g / cm^3
# Si number density = 20.942084 Si / 1000 Ang^3
#
#
#
# Elastic Constant Matrix: (Units=GPa)
#
#
# Indices 1 2 3 4 5 6 
#
# 1 94.1516 28.4949 37.3302 -13.1521 -7.5605 -21.4230
# 2 28.4949 102.1320 70.6421 -20.6577 5.7818 -31.1211
# 3 37.3302 70.6421 149.2354 -14.6591 -4.9020 -21.0436
# 4 -13.1521 -20.6577 -14.6591 38.3892 -4.0649 2.1629
# 5 -7.5605 5.7818 -4.9020 -4.0649 35.7427 -8.4724
# 6 -21.4230 -31.1211 -21.0436 2.1629 -8.4724 39.3204
#
#
#
# Elastic Compliance Matrix: (Units=1/GPa)
#
#
# Indices 1 2 3 4 5 6 
#
# 1 0.014070 0.000462 -0.002051 0.004373 0.004957 0.007761
# 2 0.000462 0.019513 -0.007044 0.007274 -0.000490 0.011421
# 3 -0.002051 -0.007044 0.010500 -0.000240 0.001967 -0.000636
# 4 0.004373 0.007274 -0.000240 0.031489 0.005043 0.007366
# 5 0.004957 -0.000490 0.001967 0.005043 0.032332 0.010055
# 6 0.007761 0.011421 -0.000636 0.007366 0.010055 0.040121
#
#
# Mechanical properties :
#
#
# Convention : Reuss Voigt Hill
#
# Bulk Modulus (GPa) = 37.29005 68.71704 53.00355
# Shear Modulus (GPa) = 28.69802 36.62726 32.66264
#
# Velocity S-wave (km/s) = 3.70584 4.18662 3.95354
# Velocity P-wave (km/s) = 6.01298 7.50030 6.79744
#
# Compressibility (1/GPa) = 0.02681680
#
# Stress axis : x y z
#
# Youngs Moduli (GPa) = 71.07570 51.24752 95.24251
#
# Poissons Ratio (x) = -0.02370 0.19539
# Poissons Ratio (y) = -0.03287 0.67085
# Poissons Ratio (z) = 0.14581 0.36097
#
# Static dielectric constant tensor:
#      x y z
#    x 3.983390 -0.089760 -0.275770 
#    y -0.089760 3.806130 -0.577910 
#    z -0.275770 -0.577910 4.460600 
# 
# 
# High freq. dielectric constant tensor:
#      x y z
#    x 1.833020 -0.015830 -0.007710 
#    y -0.015830 1.794320 -0.030330 
#    z -0.007710 -0.030330 1.815370 
# 
# From -- ./inp_files/115747.got.cif
#   From: 2010.06.25/outbox.cif.g09.slc.cpg/sg2_58_cif.got.tgz:115747.got - 2010.06.27 13:26:56.
