data_PCOD8042027
_publ_section_title
;
Structure prediction by ZEFSAII (Michael W. Deem and Ramdas Pophale) SiO2 
 PCOD8042027
Probable space group: P -1
;
_chemical_formula_sum "Si O2"
_cell_formula_units_Z 14
_cell_length_a 9.213736
_cell_length_b 8.559314
_cell_length_c 12.871014
_cell_angle_alpha 115.918702
_cell_angle_beta 59.594275
_cell_angle_gamma 87.688628
_cell_volume 741.278412
_symmetry_space_group_name_H-M "P -1"
_symmetry_group_IT_number 2
_symmetry_cell_setting 'triclinic'
loop_
_space_group_symop_operation_xyz
x,y,z
-x,-y,-z
loop_
_atom_site_type_symbol
_atom_site_label
_atom_site_fract_x
_atom_site_fract_y
_atom_site_fract_z
Si Si1 0.254647 0.656889 0.085134
Si Si2 0.028716 0.358683 0.675720
Si Si3 0.519449 0.324415 0.799568
Si Si4 0.641606 0.597962 0.506159
Si Si5 0.072193 0.026707 0.694442
Si Si6 0.431953 0.998516 0.641475
Si Si7 0.820819 0.353900 0.552442
O O1 0.390111 0.706529 0.128954
O O2 0.136484 0.549032 0.158217
O O3 0.118145 0.852278 0.148483
O O4 0.361971 0.525144 0.915618
O O5 0.193452 0.438671 0.647815
O O6 0.100088 0.137982 0.612942
O O7 0.957865 0.394949 0.593874
O O8 0.434206 0.169657 0.759673
O O9 0.661428 0.311273 0.655466
O O10 0.500000 0.500000 0.500000
O O11 0.729838 0.531057 0.565835
O O12 0.544067 0.816004 0.609911
O O13 0.227410 0.007079 0.715392
O O14 0.070866 0.825192 0.606290
O O15 0.500000 0.000000 0.500000
#
# Coordination Sequence:
#
# PCOD8042027 Si02
#       7
#     2   2   2   2   2   2   2
#     4   8  20  36  61  83 108 146 186 234 265 327
#     4   9  20  35  55  80 110 146 189 223 276 320
#     4  10  19  37  61  83 111 142 192 224 277 331
#     4  12  22  34  52  84 119 143 181 235 282 325
#     4  10  19  34  56  86 105 142 186 230 273 317
#     4  12  20  34  56  84 109 148 186 231 270 325
#     4  11  20  33  58  85 113 142 182 236 277 325
#
# _framework density 18.886291
#
# number of rings (size 3 to 8) (size 9 to 14) (size 15 to 20)
#    0.857    0.857    4.286    0.857    2.000    0.571 
#    0.000    0.000    3.143    4.286    0.000    0.000 
#    0.000    0.000    0.000    0.000    0.000    0.000 
#
# Total GULP energy -173460.117434 kJ/mol
# GULP energy per Si atom -12390.008388 kJ/mol
# Density = 1.884330 g / cm^3
# Si number density = 18.886291 Si / 1000 Ang^3
#
#
#
# Elastic Constant Matrix: (Units=GPa)
#
#
# Indices 1 2 3 4 5 6 
#
# 1 83.9490 20.1631 29.1620 10.1463 -14.1115 -0.2382
# 2 20.1631 54.1116 11.3999 19.2585 3.5956 -20.9589
# 3 29.1620 11.3999 93.6417 29.6852 -9.5489 2.0399
# 4 10.1463 19.2585 29.6852 19.4398 -5.2699 -7.4040
# 5 -14.1115 3.5956 -9.5489 -5.2699 22.7026 3.8006
# 6 -0.2382 -20.9589 2.0399 -7.4040 3.8006 37.9323
#
#
#
# Elastic Compliance Matrix: (Units=1/GPa)
#
#
# Indices 1 2 3 4 5 6 
#
# 1 0.019403 -0.017263 -0.009763 0.024341 0.017322 -0.005876
# 2 -0.017263 0.060383 0.021089 -0.085108 -0.034351 0.018951
# 3 -0.009763 0.021089 0.031578 -0.067991 -0.011537 -0.002222
# 4 0.024341 -0.085108 -0.067991 0.241497 0.056357 -0.001725
# 5 0.017322 -0.034351 -0.011537 0.056357 0.070888 -0.014353
# 6 -0.005876 0.018951 -0.002222 -0.001725 -0.014353 0.038018
#
#
# Mechanical properties :
#
#
# Convention : Reuss Voigt Hill
#
# Bulk Modulus (GPa) = 10.05120 39.23915 24.64517
# Shear Modulus (GPa) = 9.86580 27.41343 18.63961
#
# Velocity S-wave (km/s) = 2.28804 3.81399 3.14497
# Velocity P-wave (km/s) = 3.50909 6.34168 5.12497
#
# Compressibility (1/GPa) = 0.09949064
#
# Stress axis : x y z
#
# Youngs Moduli (GPa) = 51.53901 16.56102 31.66795
#
# Poissons Ratio (x) = 0.28589 0.30916
# Poissons Ratio (y) = 0.88972 -0.66786
# Poissons Ratio (z) = 0.50316 -0.34926
#
# Static dielectric constant tensor:
#      x y z
#    x 3.774160 -0.072250 -0.283040 
#    y -0.072250 3.293820 0.078670 
#    z -0.283040 0.078670 3.240080 
# 
# 
# High freq. dielectric constant tensor:
#      x y z
#    x 1.756500 -0.003110 -0.019830 
#    y -0.003110 1.706150 0.015050 
#    z -0.019830 0.015050 1.700690 
# 
# From -- ./inp_files/280476.got.cif
#   From: 2010.06.25/outbox.cif.g09.slc.cpg/sg2_141_cif.got.tgz:280476.got - 2010.06.27 13:26:56.
