data_PCOD8042186
_publ_section_title
;
Structure prediction by ZEFSAII (Michael W. Deem and Ramdas Pophale) SiO2 
 PCOD8042186
Probable space group: P -1
;
_chemical_formula_sum "Si O2"
_cell_formula_units_Z 16
_cell_length_a 19.460353
_cell_length_b 11.788902
_cell_length_c 7.886590
_cell_angle_alpha 94.628193
_cell_angle_beta 127.266148
_cell_angle_gamma 42.930192
_cell_volume 728.886873
_symmetry_space_group_name_H-M "P -1"
_symmetry_group_IT_number 2
_symmetry_cell_setting 'triclinic'
loop_
_space_group_symop_operation_xyz
x,y,z
-x,-y,-z
loop_
_atom_site_type_symbol
_atom_site_label
_atom_site_fract_x
_atom_site_fract_y
_atom_site_fract_z
Si Si1 0.401238 0.141024 0.585042
Si Si2 0.183705 0.349645 0.608620
Si Si3 0.163105 0.701999 0.819712
Si Si4 0.059964 0.191913 0.754112
Si Si5 0.601000 0.500465 0.131524
Si Si6 0.045068 0.890457 0.227587
Si Si7 0.302192 0.330842 0.119667
Si Si8 0.657024 0.035436 0.058655
O O1 0.326681 0.224847 0.672384
O O2 0.266128 0.322170 0.254873
O O3 0.496358 0.914200 0.653331
O O4 0.547825 0.070669 0.791003
O O5 0.007249 0.600448 0.299050
O O6 0.200298 0.194023 0.640215
O O7 0.199883 0.383578 0.824687
O O8 0.319020 0.588434 0.946959
O O9 0.069993 0.728204 0.549179
O O10 0.245791 0.527205 0.066622
O O11 0.030490 0.943955 0.718374
O O12 0.046774 0.130764 0.899490
O O13 0.248150 0.985618 0.931441
O O14 0.750558 0.346068 0.476465
O O15 0.500000 0.500000 0.000000
O O16 0.466527 0.755058 0.977947
O O17 0.000000 0.000000 0.000000
#
# Coordination Sequence:
#
# PCOD8042186 Si02
#       8
#     2   2   2   2   2   2   2   2
#     4  10  19  34  59  88 122 152 202 246 303 354
#     4  10  20  37  63  88 120 163 201 242 312 366
#     4  10  20  38  61  79 115 156 201 241 306 361
#     4  10  21  39  60  85 119 160 198 244 306 366
#     4  11  22  40  63  90 116 156 208 256 301 364
#     4  11  24  40  60  85 120 164 202 248 308 365
#     4   9  19  33  57  88 115 154 196 248 295 356
#     4  11  20  35  63  90 120 152 201 253 301 361
#
# _framework density 21.951280000000001
#
# number of rings (size 3 to 8) (size 9 to 14) (size 15 to 20)
#    0.000    1.750    0.000    7.875    3.500    0.000 
#    2.250    1.250    5.500    8.250    0.000    0.000 
#    0.000    0.000    0.000    0.000    0.000    0.000 
#
# Total GULP energy -198219.575703 kJ/mol
# GULP energy per Si atom -12388.723481 kJ/mol
# Density = 2.190132 g / cm^3
# Si number density = 21.951280 Si / 1000 Ang^3
#
#
#
# Elastic Constant Matrix: (Units=GPa)
#
#
# Indices 1 2 3 4 5 6 
#
# 1 136.2210 21.9993 38.8541 -6.4830 1.6348 -1.2454
# 2 21.9993 80.5065 16.0083 -25.3717 -2.7637 6.7754
# 3 38.8541 16.0083 39.5049 -17.1458 -11.1121 2.6055
# 4 -6.4830 -25.3717 -17.1458 33.8011 1.2353 -8.0337
# 5 1.6348 -2.7637 -11.1121 1.2353 40.4832 -8.7085
# 6 -1.2454 6.7754 2.6055 -8.0337 -8.7085 29.7731
#
#
#
# Elastic Compliance Matrix: (Units=1/GPa)
#
#
# Indices 1 2 3 4 5 6 
#
# 1 0.011719 -0.002635 -0.014918 -0.007356 -0.004733 -0.000974
# 2 -0.002635 0.016957 0.001744 0.013005 0.001296 -0.000234
# 3 -0.014918 0.001744 0.055409 0.027463 0.016460 0.006355
# 4 -0.007356 0.013005 0.027463 0.054319 0.009603 0.011795
# 5 -0.004733 0.001296 0.016460 0.009603 0.031318 0.009818
# 6 -0.000974 -0.000234 0.006355 0.011795 0.009818 0.039098
#
#
# Mechanical properties :
#
#
# Convention : Reuss Voigt Hill
#
# Bulk Modulus (GPa) = 19.05930 45.55063 32.30497
# Shear Modulus (GPa) = 19.38519 32.76954 26.07737
#
# Velocity S-wave (km/s) = 2.97493 3.86791 3.45043
# Velocity P-wave (km/s) = 4.52787 6.38306 5.53376
#
# Compressibility (1/GPa) = 0.05246781
#
# Stress axis : x y z
#
# Youngs Moduli (GPa) = 85.32796 58.97219 18.04748
#
# Poissons Ratio (x) = 0.15538 0.26924
# Poissons Ratio (y) = 0.22482 -0.03148
# Poissons Ratio (z) = 1.27296 -0.10285
#
# Static dielectric constant tensor:
#      x y z
#    x 4.388600 0.269550 -0.494970 
#    y 0.269550 4.250750 -0.550200 
#    z -0.494970 -0.550200 3.901860 
# 
# 
# High freq. dielectric constant tensor:
#      x y z
#    x 1.867290 0.000280 -0.020730 
#    y 0.000280 1.861930 -0.037570 
#    z -0.020730 -0.037570 1.835940 
# 
# From -- ./inp_files/215831.got.cif
#   From: 2010.06.25/outbox.cif.g09.slc.cpg/sg2_108_cif.got.tgz:215831.got - 2010.06.27 13:26:56.
