data_PCOD8042678
_publ_section_title
;
Structure prediction by ZEFSAII (Michael W. Deem and Ramdas Pophale) SiO2 
 PCOD8042678
Probable space group: P -1
;
_chemical_formula_sum "Si O2"
_cell_formula_units_Z 16
_cell_length_a 12.180256
_cell_length_b 7.960816
_cell_length_c 10.740186
_cell_angle_alpha 57.900045
_cell_angle_beta 64.933782
_cell_angle_gamma 82.513109
_cell_volume 792.995703
_symmetry_space_group_name_H-M "P -1"
_symmetry_group_IT_number 2
_symmetry_cell_setting 'triclinic'
loop_
_space_group_symop_operation_xyz
x,y,z
-x,-y,-z
loop_
_atom_site_type_symbol
_atom_site_label
_atom_site_fract_x
_atom_site_fract_y
_atom_site_fract_z
Si Si1 0.477284 0.394090 0.370558
Si Si2 0.862814 0.344717 0.470182
Si Si3 0.004491 0.960747 0.367286
Si Si4 0.786428 0.694168 0.505713
Si Si5 0.498417 0.232225 0.154396
Si Si6 0.951110 0.614278 0.862701
Si Si7 0.586481 0.228875 0.618361
Si Si8 0.710126 0.522221 0.870204
O O1 0.344044 0.264905 0.501533
O O2 0.524271 0.343213 0.231959
O O3 0.567881 0.324842 0.455458
O O4 0.462192 0.630455 0.305519
O O5 0.854033 0.570916 0.422387
O O6 0.730537 0.220268 0.560116
O O7 0.920786 0.230230 0.602528
O O8 0.944885 0.363747 0.300457
O O9 0.867021 0.905750 0.404109
O O10 0.000000 0.000000 0.500000
O O11 0.065663 0.154949 0.185652
O O12 0.771644 0.565309 0.690120
O O13 0.376038 0.304188 0.124860
O O14 0.485252 0.993256 0.254374
O O15 0.621669 0.311393 0.988133
O O16 0.818733 0.510127 0.922567
O O17 0.000000 0.500000 0.000000
#
# Coordination Sequence:
#
# PCOD8042678 Si02
#       8
#     2   2   2   2   2   2   2   2
#     4   9  21  35  57  87 117 149 196 249 275 357
#     4  10  21  36  65  85 113 155 193 244 280 349
#     4  10  19  35  60  84 109 152 196 232 277 354
#     4  10  19  38  62  84 113 148 204 238 282 340
#     4  10  21  37  61  81 117 158 189 244 293 338
#     4  11  24  37  56  87 121 148 187 243 295 345
#     4  10  20  37  58  89 115 152 200 229 302 345
#     4  10  21  38  56  86 117 146 200 240 286 348
#
# _framework density 20.176655
#
# number of rings (size 3 to 8) (size 9 to 14) (size 15 to 20)
#    0.000    2.000    2.500    1.500    7.000    1.000 
#    0.000   11.875    0.000    0.000    0.000    0.000 
#    0.000    0.000    0.000    0.000    0.000    0.000 
#
# Total GULP energy -198271.413620 kJ/mol
# GULP energy per Si atom -12391.963351 kJ/mol
# Density = 2.013073 g / cm^3
# Si number density = 20.176655 Si / 1000 Ang^3
#
#
#
# Elastic Constant Matrix: (Units=GPa)
#
#
# Indices 1 2 3 4 5 6 
#
# 1 100.4913 15.1905 35.2016 -6.5478 0.0450 7.0967
# 2 15.1905 59.7466 26.0289 -13.7763 -8.9679 11.6599
# 3 35.2016 26.0289 82.4650 -20.6470 -5.5511 -0.4524
# 4 -6.5478 -13.7763 -20.6470 24.2626 2.0857 -1.7522
# 5 0.0450 -8.9679 -5.5511 2.0857 29.9702 -5.0834
# 6 7.0967 11.6599 -0.4524 -1.7522 -5.0834 27.8953
#
#
#
# Elastic Compliance Matrix: (Units=1/GPa)
#
#
# Indices 1 2 3 4 5 6 
#
# 1 0.012117 -0.000716 -0.005572 -0.001972 -0.001688 -0.003305
# 2 -0.000716 0.023041 -0.004764 0.007887 0.004058 -0.008291
# 3 -0.005572 -0.004764 0.019273 0.012363 0.002121 0.004884
# 4 -0.001972 0.007887 0.012363 0.055678 0.000961 0.001078
# 5 -0.001688 0.004058 0.002121 0.000961 0.035818 0.005355
# 6 -0.003305 -0.008291 0.004884 0.001078 0.005355 0.041277
#
#
# Mechanical properties :
#
#
# Convention : Reuss Voigt Hill
#
# Bulk Modulus (GPa) = 30.93425 43.94943 37.44184
# Shear Modulus (GPa) = 22.71864 27.51107 25.11485
#
# Velocity S-wave (km/s) = 3.35921 3.69658 3.53193
# Velocity P-wave (km/s) = 5.51459 6.32844 5.93548
#
# Compressibility (1/GPa) = 0.03232662
#
# Stress axis : x y z
#
# Youngs Moduli (GPa) = 82.53033 43.40116 51.88521
#
# Poissons Ratio (x) = 0.03109 0.28908
# Poissons Ratio (y) = 0.05913 0.24719
# Poissons Ratio (z) = 0.45982 0.20677
#
# Static dielectric constant tensor:
#      x y z
#    x 4.005930 -0.090190 -0.049790 
#    y -0.090190 3.936510 -0.301020 
#    z -0.049790 -0.301020 3.540080 
# 
# 
# High freq. dielectric constant tensor:
#      x y z
#    x 1.803520 0.002130 -0.011880 
#    y 0.002130 1.780200 -0.010460 
#    z -0.011880 -0.010460 1.759350 
# 
# From -- ./inp_files/189252.got.cif
#   From: 2010.06.25/outbox.cif.g09.slc.cpg/sg2_95_cif.got.tgz:189252.got - 2010.06.27 13:26:56.
