data_PCOD8042935
_publ_section_title
;
Structure prediction by ZEFSAII (Michael W. Deem and Ramdas Pophale) SiO2 
 PCOD8042935
Probable space group: P -1
;
_chemical_formula_sum "Si O2"
_cell_formula_units_Z 14
_cell_length_a 9.334295
_cell_length_b 18.310413
_cell_length_c 12.294272
_cell_angle_alpha 29.999269
_cell_angle_beta 133.819414
_cell_angle_gamma 113.943256
_cell_volume 639.375570
_symmetry_space_group_name_H-M "P -1"
_symmetry_group_IT_number 2
_symmetry_cell_setting 'triclinic'
loop_
_space_group_symop_operation_xyz
x,y,z
-x,-y,-z
loop_
_atom_site_type_symbol
_atom_site_label
_atom_site_fract_x
_atom_site_fract_y
_atom_site_fract_z
Si Si1 0.975467 0.156641 0.553058
Si Si2 0.229082 0.836651 0.782789
Si Si3 0.745082 0.156756 0.633894
Si Si4 0.875343 0.343542 0.872232
Si Si5 0.585081 0.960602 0.470862
Si Si6 0.319473 0.747027 0.293909
Si Si7 0.164498 0.390406 0.329229
O O1 0.837816 0.226372 0.278396
O O2 0.769401 0.238632 0.430480
O O3 0.134316 0.235528 0.549270
O O4 0.129522 0.948377 0.906525
O O5 0.434195 0.872955 0.814178
O O6 0.296211 0.689875 0.098151
O O7 0.000000 0.000000 0.500000
O O8 0.568300 0.091147 0.612084
O O9 0.660833 0.290546 0.517800
O O10 0.000000 0.000000 0.000000
O O11 0.758375 0.373130 0.652488
O O12 0.885587 0.499165 0.729123
O O13 0.142406 0.186285 0.202404
O O14 0.500000 0.000000 0.500000
O O15 0.567946 0.703400 0.441479
O O16 0.000000 0.500000 0.000000
#
# Coordination Sequence:
#
# PCOD8042935 Si02
#       7
#     2   2   2   2   2   2   2
#     4  11  21  42  64  96 125 165 216 259 307 374
#     4  10  19  35  65  93 124 155 215 258 308 364
#     4  10  22  38  60  95 127 158 211 264 305 365
#     4  11  23  41  62  95 130 161 209 264 317 372
#     4  11  19  37  65  92 120 166 210 255 310 371
#     4  11  23  42  65  90 127 171 212 259 307 381
#     4  12  25  40  64  95 131 166 207 262 325 367
#
# _framework density 21.896363999999998
#
# number of rings (size 3 to 8) (size 9 to 14) (size 15 to 20)
#    0.000    1.143    5.714    2.571    2.000    2.286 
#    0.000    5.000    0.000    0.000    0.000    0.000 
#    0.000    0.000    0.000    0.000    0.000    0.000 
#
# Total GULP energy -173500.550434 kJ/mol
# GULP energy per Si atom -12392.896460 kJ/mol
# Density = 2.184653 g / cm^3
# Si number density = 21.896364 Si / 1000 Ang^3
#
#
#
# Elastic Constant Matrix: (Units=GPa)
#
#
# Indices 1 2 3 4 5 6 
#
# 1 128.2485 66.9819 14.8057 7.4689 15.5575 -6.8278
# 2 66.9819 198.2160 19.7635 14.3539 5.6433 -16.8973
# 3 14.8057 19.7635 12.4104 3.1531 2.1131 -2.9601
# 4 7.4689 14.3539 3.1531 28.0149 1.3545 5.8985
# 5 15.5575 5.6433 2.1131 1.3545 19.8677 6.4542
# 6 -6.8278 -16.8973 -2.9601 5.8985 6.4542 45.1574
#
#
#
# Elastic Compliance Matrix: (Units=1/GPa)
#
#
# Indices 1 2 3 4 5 6 
#
# 1 0.011026 -0.002626 -0.007179 -0.000713 -0.007525 0.001382
# 2 -0.002626 0.006968 -0.006884 -0.002541 0.000318 0.002046
# 3 -0.007179 -0.006884 0.103776 -0.007010 -0.004509 0.004701
# 4 -0.000713 -0.002541 -0.007010 0.039350 0.001579 -0.006884
# 5 -0.007525 0.000318 -0.004509 0.001579 0.059776 -0.010064
# 6 0.001382 0.002046 0.004701 -0.006884 -0.010064 0.025765
#
#
# Mechanical properties :
#
#
# Convention : Reuss Voigt Hill
#
# Bulk Modulus (GPa) = 11.31351 60.21968 35.76660
# Shear Modulus (GPa) = 16.15490 34.42960 25.29225
#
# Velocity S-wave (km/s) = 2.71917 3.96964 3.40235
# Velocity P-wave (km/s) = 3.87771 6.96940 5.63955
#
# Compressibility (1/GPa) = 0.08838989
#
# Stress axis : x y z
#
# Youngs Moduli (GPa) = 90.69639 143.50774 9.63616
#
# Poissons Ratio (x) = 0.37690 0.06918
# Poissons Ratio (y) = 0.23820 0.06634
# Poissons Ratio (z) = 0.65114 0.98795
#
# Static dielectric constant tensor:
#      x y z
#    x 17.793330 -19.948820 -5.518990 
#    y -19.948820 37.035910 8.655900 
#    z -5.518990 8.655900 6.009820 
# 
# 
# High freq. dielectric constant tensor:
#      x y z
#    x 1.872920 -0.009910 0.011390 
#    y -0.009910 1.885470 0.008450 
#    z 0.011390 0.008450 1.822830 
# 
# From -- ./inp_files/159093.got.cif
#   From: 2010.06.25/outbox.cif.g09.slc.cpg/sg2_80_cif.got.tgz:159093.got - 2010.06.27 13:26:56.
