data_PCOD8042535
_publ_section_title
;
Structure prediction by ZEFSAII (Michael W. Deem and Ramdas Pophale) SiO2 
 PCOD8042535
Probable space group: P -1
;
_chemical_formula_sum "Si O2"
_cell_formula_units_Z 14
_cell_length_a 13.999811
_cell_length_b 11.060587
_cell_length_c 14.252446
_cell_angle_alpha 76.340792
_cell_angle_beta 128.939816
_cell_angle_gamma 145.791013
_cell_volume 734.562027
_symmetry_space_group_name_H-M "P -1"
_symmetry_group_IT_number 2
_symmetry_cell_setting 'triclinic'
loop_
_space_group_symop_operation_xyz
x,y,z
-x,-y,-z
loop_
_atom_site_type_symbol
_atom_site_label
_atom_site_fract_x
_atom_site_fract_y
_atom_site_fract_z
Si Si1 0.022618 0.515803 0.150223
Si Si2 0.157575 0.820029 0.742163
Si Si3 0.544901 0.026701 0.807785
Si Si4 0.686602 0.430753 0.024530
Si Si5 0.668867 0.437142 0.223695
Si Si6 0.846677 0.730582 0.450202
Si Si7 0.686093 0.696166 0.887960
O O1 0.021517 0.444711 0.262721
O O2 0.925223 0.569930 0.093507
O O3 0.333369 0.801149 0.244811
O O4 0.807365 0.248376 0.998571
O O5 0.943636 0.732991 0.595473
O O6 0.304749 0.894813 0.727843
O O7 0.397141 0.091043 0.908844
O O8 0.412404 0.772817 0.750150
O O9 0.787941 0.542842 0.172963
O O10 0.633312 0.509055 0.923407
O O11 0.900540 0.706939 0.388322
O O12 0.396481 0.280307 0.085771
O O13 0.512992 0.456856 0.297600
O O14 0.000000 0.000000 0.500000
O O15 0.000000 0.000000 0.000000
#
# Coordination Sequence:
#
# PCOD8042535 Si02
#       7
#     2   2   2   2   2   2   2
#     4  10  20  33  62  92 125 154 202 247 300 358
#     4  11  19  39  62  85 129 158 196 248 303 365
#     4  10  19  35  57  96 119 160 201 246 297 360
#     4  11  18  37  63  87 116 161 209 242 294 364
#     4  10  20  36  61  88 117 158 208 241 299 362
#     4  10  23  40  60  87 120 164 196 249 318 353
#     4  10  22  37  61  87 116 156 206 255 291 358
#
# _framework density 19.058976000000001
#
# number of rings (size 3 to 8) (size 9 to 14) (size 15 to 20)
#    0.857    0.857    4.286    2.143    0.000    0.571 
#    0.000    2.143    0.000    2.571    0.000    0.000 
#    0.000    0.000    0.000    0.000    0.000    0.000 
#
# Total GULP energy -173504.446476 kJ/mol
# GULP energy per Si atom -12393.174748 kJ/mol
# Density = 1.901560 g / cm^3
# Si number density = 19.058976 Si / 1000 Ang^3
#
#
#
# Elastic Constant Matrix: (Units=GPa)
#
#
# Indices 1 2 3 4 5 6 
#
# 1 89.3249 54.6851 24.5531 2.1361 -8.5888 -7.4820
# 2 54.6851 115.2942 34.5321 -9.5557 15.7625 2.2563
# 3 24.5531 34.5321 71.3414 -4.6819 2.3841 -0.3236
# 4 2.1361 -9.5557 -4.6819 27.2622 -7.2254 -0.1245
# 5 -8.5888 15.7625 2.3841 -7.2254 30.0137 0.6331
# 6 -7.4820 2.2563 -0.3236 -0.1245 0.6331 38.9978
#
#
#
# Elastic Compliance Matrix: (Units=1/GPa)
#
#
# Indices 1 2 3 4 5 6 
#
# 1 0.019566 -0.010351 -0.002235 -0.002753 0.010462 0.004156
# 2 -0.010351 0.016495 -0.003878 0.003130 -0.010504 -0.002792
# 3 -0.002235 -0.003878 0.016766 0.001829 0.000507 -0.000068
# 4 -0.002753 0.003130 0.001829 0.040190 0.007113 -0.000681
# 5 0.010462 -0.010504 0.000507 0.007113 0.043460 0.001936
# 6 0.004156 -0.002792 -0.000068 -0.000681 0.001936 0.026567
#
#
# Mechanical properties :
#
#
# Convention : Reuss Voigt Hill
#
# Bulk Modulus (GPa) = 50.25342 55.94457 53.09899
# Shear Modulus (GPa) = 24.67865 30.06743 27.37304
#
# Velocity S-wave (km/s) = 3.60232 3.97621 3.79387
# Velocity P-wave (km/s) = 6.61262 7.10616 6.86383
#
# Compressibility (1/GPa) = 0.01989915
#
# Stress axis : x y z
#
# Youngs Moduli (GPa) = 51.10868 60.62619 59.64366
#
# Poissons Ratio (x) = 0.62753 0.13332
# Poissons Ratio (y) = 0.52901 0.23129
# Poissons Ratio (z) = 0.11424 0.23510
#
# Static dielectric constant tensor:
#      x y z
#    x 3.709340 -0.382840 -0.029180 
#    y -0.382840 3.955950 -0.078320 
#    z -0.029180 -0.078320 3.369720 
# 
# 
# High freq. dielectric constant tensor:
#      x y z
#    x 1.745390 -0.018490 0.000570 
#    y -0.018490 1.733620 -0.007190 
#    z 0.000570 -0.007190 1.715860 
# 
# From -- ./inp_files/195347.got.cif
#   From: 2010.06.25/outbox.cif.g09.slc.cpg/sg2_98_cif.got.tgz:195347.got - 2010.06.27 13:26:56.
