data_PCOD8042947
_publ_section_title
;
Structure prediction by ZEFSAII (Michael W. Deem and Ramdas Pophale) SiO2 
 PCOD8042947
Probable space group: P -1
;
_chemical_formula_sum "Si O2"
_cell_formula_units_Z 16
_cell_length_a 7.684627
_cell_length_b 11.740701
_cell_length_c 13.793188
_cell_angle_alpha 120.258402
_cell_angle_beta 44.951362
_cell_angle_gamma 93.303148
_cell_volume 662.037975
_symmetry_space_group_name_H-M "P -1"
_symmetry_group_IT_number 2
_symmetry_cell_setting 'triclinic'
loop_
_space_group_symop_operation_xyz
x,y,z
-x,-y,-z
loop_
_atom_site_type_symbol
_atom_site_label
_atom_site_fract_x
_atom_site_fract_y
_atom_site_fract_z
Si Si1 0.517406 0.172961 0.124083
Si Si2 0.536101 0.378587 0.728928
Si Si3 0.916655 0.387136 0.432384
Si Si4 0.516473 0.665144 0.597149
Si Si5 0.614680 0.733039 0.085998
Si Si6 0.280087 0.691484 0.044232
Si Si7 0.898481 0.890776 0.946550
Si Si8 0.109995 0.407092 0.760814
O O1 0.449638 0.240027 0.288365
O O2 0.216509 0.249437 0.213332
O O3 0.735538 0.221535 0.012314
O O4 0.671999 0.989868 0.993381
O O5 0.810475 0.311190 0.523231
O O6 0.261118 0.456330 0.802864
O O7 0.523255 0.250659 0.745669
O O8 0.515693 0.513753 0.862575
O O9 0.660677 0.486853 0.498525
O O10 0.000000 0.500000 0.500000
O O11 0.686299 0.680682 0.446564
O O12 0.180498 0.740471 0.730825
O O13 0.745456 0.843602 0.069048
O O14 0.845071 0.560995 0.896506
O O15 0.366025 0.776155 0.126290
O O16 0.983370 0.706050 0.200456
O O17 0.000000 0.000000 0.000000
#
# Coordination Sequence:
#
# PCOD8042947 Si02
#       8
#     2   2   2   2   2   2   2   2
#     4  10  22  40  70  87 135 174 215 260 331 382
#     4  11  22  38  62 100 133 169 209 275 335 381
#     4  10  19  35  66  94 126 159 219 269 321 364
#     4  10  21  40  65  99 127 167 218 270 323 375
#     4  11  24  38  67  96 132 173 218 263 335 388
#     4  11  22  40  62  98 133 169 211 273 330 392
#     4  10  24  44  67  90 133 179 218 259 326 396
#     4  11  24  36  68  99 134 162 219 277 331 377
#
# _framework density 24.1678
#
# number of rings (size 3 to 8) (size 9 to 14) (size 15 to 20)
#    0.000    1.500    2.500    4.500   10.500    3.500 
#    0.000    1.250    0.000    0.000    0.000    0.000 
#    0.000    0.000    0.000    0.000    0.000    0.000 
#
# Total GULP energy -198336.492473 kJ/mol
# GULP energy per Si atom -12396.030780 kJ/mol
# Density = 2.411279 g / cm^3
# Si number density = 24.167800 Si / 1000 Ang^3
#
#
#
# Elastic Constant Matrix: (Units=GPa)
#
#
# Indices 1 2 3 4 5 6 
#
# 1 82.6660 33.9996 28.9931 2.8251 -25.4094 -16.1377
# 2 33.9996 182.6484 90.6580 -35.3639 -15.8232 -1.7532
# 3 28.9931 90.6580 123.1248 -25.1131 -18.6851 -6.1497
# 4 2.8251 -35.3639 -25.1131 61.0256 -2.7869 -9.2270
# 5 -25.4094 -15.8232 -18.6851 -2.7869 36.5204 3.4898
# 6 -16.1377 -1.7532 -6.1497 -9.2270 3.4898 31.6349
#
#
#
# Elastic Compliance Matrix: (Units=1/GPa)
#
#
# Indices 1 2 3 4 5 6 
#
# 1 0.017936 -0.002070 -0.000922 -0.000806 0.010334 0.007480
# 2 -0.002070 0.009305 -0.005809 0.002974 -0.000078 -0.000794
# 3 -0.000922 -0.005809 0.013937 0.002947 0.003974 0.002338
# 4 -0.000806 0.002974 0.002947 0.020403 0.003226 0.005921
# 5 0.010334 -0.000078 0.003974 0.003226 0.036536 0.002950
# 6 0.007480 -0.000794 0.002338 0.005921 0.002950 0.037239
#
#
# Mechanical properties :
#
#
# Convention : Reuss Voigt Hill
#
# Bulk Modulus (GPa) = 42.41544 77.30450 59.85997
# Shear Modulus (GPa) = 31.09160 41.48875 36.29017
#
# Velocity S-wave (km/s) = 3.59066 4.14780 3.87924
# Velocity P-wave (km/s) = 5.89736 7.41586 6.69977
#
# Compressibility (1/GPa) = 0.02357632
#
# Stress axis : x y z
#
# Youngs Moduli (GPa) = 55.75402 107.46879 71.75234
#
# Poissons Ratio (x) = 0.22249 0.06613
# Poissons Ratio (y) = 0.11543 0.41679
# Poissons Ratio (z) = 0.05139 0.62426
#
# Static dielectric constant tensor:
#      x y z
#    x 4.725200 -0.444600 -0.533080 
#    y -0.444600 4.707620 0.046830 
#    z -0.533080 0.046830 4.688270 
# 
# 
# High freq. dielectric constant tensor:
#      x y z
#    x 1.983760 0.003240 -0.001520 
#    y 0.003240 1.947660 -0.025730 
#    z -0.001520 -0.025730 1.940730 
# 
# From -- ./inp_files/500516.got.cif
#   From: 2010.06.25/outbox.cif.g09.slc.cpg/sg2_251_cif.got.tgz:500516.got - 2010.06.27 13:26:56.
