data_PCOD8042779
_publ_section_title
;
Structure prediction by ZEFSAII (Michael W. Deem and Ramdas Pophale) SiO2 
 PCOD8042779
Probable space group: P -1
;
_chemical_formula_sum "Si O2"
_cell_formula_units_Z 14
_cell_length_a 14.165239
_cell_length_b 8.876190
_cell_length_c 14.037480
_cell_angle_alpha 109.711491
_cell_angle_beta 149.580659
_cell_angle_gamma 50.755689
_cell_volume 586.417578
_symmetry_space_group_name_H-M "P -1"
_symmetry_group_IT_number 2
_symmetry_cell_setting 'triclinic'
loop_
_space_group_symop_operation_xyz
x,y,z
-x,-y,-z
loop_
_atom_site_type_symbol
_atom_site_label
_atom_site_fract_x
_atom_site_fract_y
_atom_site_fract_z
Si Si1 0.677270 0.354189 0.488972
Si Si2 0.294303 0.748788 0.701148
Si Si3 0.324779 0.201373 0.964101
Si Si4 0.942986 0.592210 0.578462
Si Si5 0.865261 0.411886 0.843468
Si Si6 0.345613 0.955646 0.107165
Si Si7 0.154071 0.803973 0.795484
O O1 0.683471 0.405265 0.393205
O O2 0.753442 0.453841 0.646395
O O3 0.380063 0.470124 0.275484
O O4 0.885883 0.077083 0.614671
O O5 0.334740 0.669080 0.827968
O O6 0.513193 0.741219 0.853764
O O7 0.000000 0.000000 0.500000
O O8 0.048562 0.406384 0.711181
O O9 0.270761 0.123241 0.990965
O O10 0.500000 0.000000 0.000000
O O11 0.000000 0.500000 0.500000
O O12 0.084953 0.671464 0.742855
O O13 0.630290 0.816183 0.370474
O O14 0.000000 0.500000 0.000000
O O15 0.105881 0.135317 0.012253
O O16 0.346456 0.771888 0.032644
#
# Coordination Sequence:
#
# PCOD8042779 Si02
#       7
#     2   2   2   2   2   2   2
#     4   9  20  34  61  95 122 166 216 261 312 374
#     4  10  19  35  61  88 130 161 203 257 315 374
#     4  12  23  40  59  95 131 164 211 259 313 382
#     4  12  25  38  61  93 134 170 208 258 318 379
#     4  10  19  36  62  91 123 165 219 261 312 373
#     4  11  23  43  64  92 131 169 213 262 316 380
#     4  10  21  39  60  93 131 166 208 257 318 384
#
# _framework density 23.873771999999999
#
# number of rings (size 3 to 8) (size 9 to 14) (size 15 to 20)
#    0.000    1.429    2.857    3.429    0.000    2.286 
#    0.000    0.000    0.000    7.714    0.000   21.000 
#    0.000    0.000    0.000    0.000    0.000    0.000 
#
# Total GULP energy -173453.578588 kJ/mol
# GULP energy per Si atom -12389.541328 kJ/mol
# Density = 2.381943 g / cm^3
# Si number density = 23.873772 Si / 1000 Ang^3
#
#
#
# Elastic Constant Matrix: (Units=GPa)
#
#
# Indices 1 2 3 4 5 6 
#
# 1 70.0536 39.5046 49.6150 4.7008 7.2006 -23.9259
# 2 39.5046 110.6491 40.7484 29.0305 1.4446 -11.4435
# 3 49.6150 40.7484 127.7387 12.4369 14.3323 1.8960
# 4 4.7008 29.0305 12.4369 45.0048 3.6831 3.7516
# 5 7.2006 1.4446 14.3323 3.6831 44.4245 -2.1697
# 6 -23.9259 -11.4435 1.8960 3.7516 -2.1697 43.0825
#
#
#
# Elastic Compliance Matrix: (Units=1/GPa)
#
#
# Indices 1 2 3 4 5 6 
#
# 1 0.029912 -0.006001 -0.010060 0.002328 -0.000857 0.015215
# 2 -0.006001 0.014023 -0.001557 -0.008238 0.001764 0.001267
# 3 -0.010060 -0.001557 0.012699 -0.000681 -0.002683 -0.006635
# 4 0.002328 -0.008238 -0.000681 0.027958 -0.002375 -0.003419
# 5 -0.000857 0.001764 -0.002683 -0.002375 0.023728 0.001512
# 6 0.015215 0.001267 -0.006635 -0.003419 0.001512 0.032663
#
#
# Mechanical properties :
#
#
# Convention : Reuss Voigt Hill
#
# Bulk Modulus (GPa) = 46.73485 63.13083 54.93284
# Shear Modulus (GPa) = 27.26997 38.40727 32.83862
#
# Velocity S-wave (km/s) = 3.38339 4.01529 3.71281
# Velocity P-wave (km/s) = 5.90605 6.92804 6.43736
#
# Compressibility (1/GPa) = 0.02139731
#
# Stress axis : x y z
#
# Youngs Moduli (GPa) = 33.43138 71.31185 78.74902
#
# Poissons Ratio (x) = 0.42792 0.79223
# Poissons Ratio (y) = 0.20061 0.12262
# Poissons Ratio (z) = 0.33633 0.11104
#
# Static dielectric constant tensor:
#      x y z
#    x 3.970820 -0.340780 0.055130 
#    y -0.340780 4.459950 0.160700 
#    z 0.055130 0.160700 4.644500 
# 
# 
# High freq. dielectric constant tensor:
#      x y z
#    x 1.918440 -0.016010 0.021820 
#    y -0.016010 1.944750 0.010350 
#    z 0.021820 0.010350 1.977070 
# 
# From -- ./inp_files/498228.got.cif
#   From: 2010.06.25/outbox.cif.g09.slc.cpg/sg2_250_cif.got.tgz:498228.got - 2010.06.27 13:26:56.
