data_PCOD8042212
_publ_section_title
;
Structure prediction by ZEFSAII (Michael W. Deem and Ramdas Pophale) SiO2 
 PCOD8042212
Probable space group: P -1
;
_chemical_formula_sum "Si O2"
_cell_formula_units_Z 16
_cell_length_a 13.982784
_cell_length_b 9.802754
_cell_length_c 12.165922
_cell_angle_alpha 91.199142
_cell_angle_beta 30.629965
_cell_angle_gamma 76.663943
_cell_volume 741.335227
_symmetry_space_group_name_H-M "P -1"
_symmetry_group_IT_number 2
_symmetry_cell_setting 'triclinic'
loop_
_space_group_symop_operation_xyz
x,y,z
-x,-y,-z
loop_
_atom_site_type_symbol
_atom_site_label
_atom_site_fract_x
_atom_site_fract_y
_atom_site_fract_z
Si Si1 0.206365 0.442158 0.152933
Si Si2 0.300976 0.702836 0.088796
Si Si3 0.260734 0.835065 0.576575
Si Si4 0.115082 0.624015 0.806380
Si Si5 0.715946 0.596715 0.177639
Si Si6 0.373701 0.835200 0.231076
Si Si7 0.858904 0.869681 0.412599
Si Si8 0.756866 0.597640 0.527621
O O1 0.951578 0.499379 0.422606
O O2 0.288113 0.549129 0.136911
O O3 0.227287 0.466549 0.002826
O O4 0.362676 0.264362 0.036073
O O5 0.529500 0.658709 0.810378
O O6 0.263413 0.812243 0.232689
O O7 0.108544 0.797714 0.195506
O O8 0.096062 0.791093 0.798547
O O9 0.481364 0.744358 0.424442
O O10 0.300258 0.772089 0.409504
O O11 0.176473 0.022034 0.659337
O O12 0.255363 0.547173 0.776277
O O13 0.233040 0.505639 0.587397
O O14 0.874601 0.658239 0.064704
O O15 0.292376 0.019193 0.335241
O O16 0.785264 0.742818 0.458813
#
# Coordination Sequence:
#
# PCOD8042212 Si02
#       8
#     2   2   2   2   2   2   2   2
#     4   9  19  36  55  82 111 135 180 235 266 309
#     4  11  20  35  56  79 111 150 179 217 273 322
#     4   9  19  35  54  78 106 141 178 223 260 312
#     4  10  19  34  60  82 102 142 183 217 271 326
#     4   9  18  34  57  83 105 134 183 228 263 315
#     4   9  19  36  56  78 108 148 184 221 260 321
#     4   9  22  38  52  78 117 144 177 225 266 317
#     4  10  21  35  54  82 111 142 178 225 275 315
#
# _framework density 21.582678000000001
#
# number of rings (size 3 to 8) (size 9 to 14) (size 15 to 20)
#    0.750    1.750    0.000    2.625    0.000    2.000 
#    0.000    6.875    0.000   15.750    0.000    0.000 
#    0.000    0.000    0.000    0.000    0.000    0.000 
#
# Total GULP energy -198257.243864 kJ/mol
# GULP energy per Si atom -12391.077741 kJ/mol
# Density = 2.153355 g / cm^3
# Si number density = 21.582678 Si / 1000 Ang^3
#
#
#
# Elastic Constant Matrix: (Units=GPa)
#
#
# Indices 1 2 3 4 5 6 
#
# 1 48.5340 -2.9637 0.4578 -4.5416 -11.7969 -1.3769
# 2 -2.9637 68.0157 26.2477 0.1942 -12.8684 -8.4100
# 3 0.4578 26.2477 80.7107 -4.6478 -24.5482 -3.3643
# 4 -4.5416 0.1942 -4.6478 27.7194 -1.1975 2.2501
# 5 -11.7969 -12.8684 -24.5482 -1.1975 21.4890 4.6040
# 6 -1.3769 -8.4100 -3.3643 2.2501 4.6040 21.6952
#
#
#
# Elastic Compliance Matrix: (Units=1/GPa)
#
#
# Indices 1 2 3 4 5 6 
#
# 1 0.027611 0.003104 0.007019 0.006974 0.025889 -0.002173
# 2 0.003104 0.018239 -0.003450 -0.000290 0.007564 0.005157
# 3 0.007019 -0.003450 0.022371 0.006499 0.028597 -0.004166
# 4 0.006974 -0.000290 0.006499 0.039411 0.014525 -0.005832
# 5 0.025889 0.007564 0.028597 0.014525 0.101775 -0.014094
# 6 -0.002173 0.005157 -0.004166 -0.005832 -0.014094 0.050904
#
#
# Mechanical properties :
#
#
# Convention : Reuss Voigt Hill
#
# Bulk Modulus (GPa) = 12.25994 27.19378 19.72686
# Shear Modulus (GPa) = 18.23795 25.74860 21.99328
#
# Velocity S-wave (km/s) = 2.91009 3.45776 3.19568
# Velocity P-wave (km/s) = 4.12120 5.34497 4.77247
#
# Compressibility (1/GPa) = 0.08156646
#
# Stress axis : x y z
#
# Youngs Moduli (GPa) = 36.21719 54.82846 44.70149
#
# Poissons Ratio (x) = -0.17018 -0.31377
# Poissons Ratio (y) = -0.11242 0.15423
# Poissons Ratio (z) = -0.25422 0.18917
#
# Static dielectric constant tensor:
#      x y z
#    x 3.853460 -0.069640 -0.229670 
#    y -0.069640 3.698510 0.125220 
#    z -0.229670 0.125220 3.899560 
# 
# 
# High freq. dielectric constant tensor:
#      x y z
#    x 1.841650 -0.006220 -0.015950 
#    y -0.006220 1.827490 0.006430 
#    z -0.015950 0.006430 1.842300 
# 
# From -- ./inp_files/528707.got.cif
#   From: 2010.06.25/outbox.cif.g09.slc.cpg/sg2_265_cif.got.tgz:528707.got - 2010.06.27 13:26:56.
