data_PCOD8042635
_publ_section_title
;
Structure prediction by ZEFSAII (Michael W. Deem and Ramdas Pophale) SiO2 
 PCOD8042635
Probable space group: P -1
;
_chemical_formula_sum "Si O2"
_cell_formula_units_Z 16
_cell_length_a 8.825070
_cell_length_b 18.173145
_cell_length_c 11.676423
_cell_angle_alpha 147.308400
_cell_angle_beta 124.457471
_cell_angle_gamma 54.697864
_cell_volume 811.944405
_symmetry_space_group_name_H-M "P -1"
_symmetry_group_IT_number 2
_symmetry_cell_setting 'triclinic'
loop_
_space_group_symop_operation_xyz
x,y,z
-x,-y,-z
loop_
_atom_site_type_symbol
_atom_site_label
_atom_site_fract_x
_atom_site_fract_y
_atom_site_fract_z
Si Si1 0.949301 0.780797 0.171573
Si Si2 0.567563 0.940405 0.126787
Si Si3 0.533628 0.470350 0.781562
Si Si4 0.576465 0.193034 0.308589
Si Si5 0.009642 0.795691 0.487842
Si Si6 0.652502 0.306393 0.843084
Si Si7 0.129069 0.489451 0.149740
Si Si8 0.596270 0.918442 0.542848
O O1 0.786757 0.901582 0.206604
O O2 0.966440 0.796021 0.334774
O O3 0.138148 0.793985 0.201077
O O4 0.899917 0.629256 0.929190
O O5 0.513038 0.083493 0.220817
O O6 0.442375 0.970203 0.225760
O O7 0.510868 0.816169 0.867041
O O8 0.482587 0.347259 0.521386
O O9 0.649370 0.398737 0.848050
O O10 0.656763 0.547741 0.854639
O O11 0.364630 0.592635 0.919731
O O12 0.804426 0.144661 0.336557
O O13 0.822356 0.879316 0.579079
O O14 0.070193 0.644849 0.380261
O O15 0.490955 0.218168 0.654575
O O16 0.000000 0.500000 0.000000
O O17 0.500000 0.000000 0.500000
#
# Coordination Sequence:
#
# PCOD8042635 Si02
#       8
#     2   2   2   2   2   2   2   2
#     4  11  20  35  59  91 117 152 197 245 295 344
#     4  11  24  39  61  84 122 159 196 238 299 357
#     4  10  19  35  59  86 117 148 199 241 290 345
#     4  10  22  44  60  83 117 163 198 235 297 363
#     4  10  20  36  60  83 119 151 197 244 288 347
#     4  11  21  33  61  91 114 150 197 249 290 331
#     4   9  16  32  54  85 114 147 187 242 293 335
#     4  12  24  36  59  93 122 149 196 253 289 342
#
# _framework density 19.705783
#
# number of rings (size 3 to 8) (size 9 to 14) (size 15 to 20)
#    0.000    1.500    6.250    1.500    3.500    1.500 
#    0.000    3.125    0.000    0.000    0.000    0.000 
#    0.000    0.000    0.000    0.000    0.000    0.000 
#
# Total GULP energy -198258.385729 kJ/mol
# GULP energy per Si atom -12391.149108 kJ/mol
# Density = 1.966093 g / cm^3
# Si number density = 19.705783 Si / 1000 Ang^3
#
#
#
# Elastic Constant Matrix: (Units=GPa)
#
#
# Indices 1 2 3 4 5 6 
#
# 1 84.5826 18.6000 37.7756 -5.8938 -18.1156 -22.2734
# 2 18.6000 40.8562 12.1499 -5.5454 -12.3547 -9.7977
# 3 37.7756 12.1499 113.2694 -6.2222 -21.2357 -7.4980
# 4 -5.8938 -5.5454 -6.2222 20.1416 -2.6131 1.7137
# 5 -18.1156 -12.3547 -21.2357 -2.6131 34.1687 11.9959
# 6 -22.2734 -9.7977 -7.4980 1.7137 11.9959 34.3742
#
#
#
# Elastic Compliance Matrix: (Units=1/GPa)
#
#
# Indices 1 2 3 4 5 6 
#
# 1 0.017420 -0.003563 -0.004263 0.002423 0.002559 0.008328
# 2 -0.003563 0.030560 0.000235 0.008352 0.008919 0.002924
# 3 -0.004263 0.000235 0.011371 0.003322 0.006017 -0.002480
# 4 0.002423 0.008352 0.003322 0.055324 0.011313 -0.002031
# 5 0.002559 0.008919 0.006017 0.011313 0.041842 -0.009653
# 6 0.008328 0.002924 -0.002480 -0.002031 -0.009653 0.038251
#
#
# Mechanical properties :
#
#
# Convention : Reuss Voigt Hill
#
# Bulk Modulus (GPa) = 22.64022 41.75101 32.19561
# Shear Modulus (GPa) = 22.25444 29.08242 25.66843
#
# Velocity S-wave (km/s) = 3.36420 3.84582 3.61305
# Velocity P-wave (km/s) = 5.15796 6.39950 5.81198
#
# Compressibility (1/GPa) = 0.04416918
#
# Stress axis : x y z
#
# Youngs Moduli (GPa) = 57.40373 32.72221 87.93967
#
# Poissons Ratio (x) = 0.11658 0.37492
# Poissons Ratio (y) = 0.20452 -0.02063
# Poissons Ratio (z) = 0.24473 -0.00768
#
# Static dielectric constant tensor:
#      x y z
#    x 3.861590 0.130990 0.130860 
#    y 0.130990 3.609860 0.424420 
#    z 0.130860 0.424420 3.951250 
# 
# 
# High freq. dielectric constant tensor:
#      x y z
#    x 1.772600 -0.002850 0.002590 
#    y -0.002850 1.741980 0.023990 
#    z 0.002590 0.023990 1.755460 
# 
# From -- ./inp_files/185991.got.cif
#   From: 2010.06.25/outbox.cif.g09.slc.cpg/sg2_93_cif.got.tgz:185991.got - 2010.06.27 13:26:56.
