data_PCOD8042794
_publ_section_title
;
Structure prediction by ZEFSAII (Michael W. Deem and Ramdas Pophale) SiO2 
 PCOD8042794
Probable space group: P -1
;
_chemical_formula_sum "Si O2"
_cell_formula_units_Z 16
_cell_length_a 13.986720
_cell_length_b 11.392867
_cell_length_c 8.851452
_cell_angle_alpha 43.240211
_cell_angle_beta 126.655098
_cell_angle_gamma 126.531098
_cell_volume 741.441178
_symmetry_space_group_name_H-M "P -1"
_symmetry_group_IT_number 2
_symmetry_cell_setting 'triclinic'
loop_
_space_group_symop_operation_xyz
x,y,z
-x,-y,-z
loop_
_atom_site_type_symbol
_atom_site_label
_atom_site_fract_x
_atom_site_fract_y
_atom_site_fract_z
Si Si1 0.737767 0.662826 0.701827
Si Si2 0.178618 0.111318 0.001933
Si Si3 0.427346 0.630201 0.737745
Si Si4 0.738593 0.613201 0.402816
Si Si5 0.026110 0.197438 0.032389
Si Si6 0.640569 0.923873 0.551853
Si Si7 0.007861 0.452018 0.379842
Si Si8 0.730701 0.312485 0.200218
O O1 0.714551 0.662721 0.502610
O O2 0.876112 0.793236 0.748435
O O3 0.644851 0.756734 0.606573
O O4 0.711617 0.455179 0.924286
O O5 0.100396 0.221368 0.919049
O O6 0.245770 0.015729 0.275997
O O7 0.283779 0.241649 0.874101
O O8 0.087388 0.981147 0.918170
O O9 0.365187 0.568139 0.573079
O O10 0.512227 0.836387 0.604203
O O11 0.310344 0.625070 0.737965
O O12 0.500000 0.500000 0.000000
O O13 0.882629 0.623682 0.502272
O O14 0.970405 0.359999 0.862002
O O15 0.647474 0.103667 0.292110
O O16 0.874951 0.315023 0.335112
O O17 0.000000 0.500000 0.500000
#
# Coordination Sequence:
#
# PCOD8042794 Si02
#       8
#     2   2   2   2   2   2   2   2
#     4  10  24  43  60  96 140 169 202 256 335 391
#     4  10  19  35  61  94 118 163 220 257 310 369
#     4  12  22  44  69  93 126 167 225 269 309 367
#     4  12  24  39  65  97 130 174 204 260 331 382
#     4   9  19  35  59  88 128 164 204 263 314 374
#     4  11  23  43  68  93 125 171 219 269 310 370
#     4  11  19  37  64  92 125 160 213 269 312 371
#     4  11  23  43  69  95 125 168 217 268 319 374
#
# _framework density 21.579595000000001
#
# number of rings (size 3 to 8) (size 9 to 14) (size 15 to 20)
#    0.000    1.250    5.000    1.875    3.500    3.000 
#    2.250    0.625    0.000    0.000    0.000    0.000 
#    0.000    0.000    0.000    0.000    0.000    0.000 
#
# Total GULP energy -198251.855651 kJ/mol
# GULP energy per Si atom -12390.740978 kJ/mol
# Density = 2.153048 g / cm^3
# Si number density = 21.579595 Si / 1000 Ang^3
#
#
#
# Elastic Constant Matrix: (Units=GPa)
#
#
# Indices 1 2 3 4 5 6 
#
# 1 50.8004 25.1433 21.5359 6.8682 -2.6381 5.1785
# 2 25.1433 107.8275 37.0885 -6.3821 -7.8941 9.7784
# 3 21.5359 37.0885 61.5136 -11.4812 -10.3638 -4.4516
# 4 6.8682 -6.3821 -11.4812 36.2111 -1.8479 -6.5511
# 5 -2.6381 -7.8941 -10.3638 -1.8479 24.8921 4.2799
# 6 5.1785 9.7784 -4.4516 -6.5511 4.2799 25.8946
#
#
#
# Elastic Compliance Matrix: (Units=1/GPa)
#
#
# Indices 1 2 3 4 5 6 
#
# 1 0.028109 -0.002641 -0.011286 -0.011110 -0.001822 -0.009074
# 2 -0.002641 0.012995 -0.007116 -0.000460 0.001881 -0.006029
# 3 -0.011286 -0.007116 0.028974 0.012604 0.007505 0.011873
# 4 -0.011110 -0.000460 0.012604 0.036214 0.004378 0.013000
# 5 -0.001822 0.001881 0.007505 0.004378 0.044951 -0.005378
# 6 -0.009074 -0.006029 0.011873 0.013000 -0.005378 0.048928
#
#
# Mechanical properties :
#
#
# Convention : Reuss Voigt Hill
#
# Bulk Modulus (GPa) = 35.72296 43.07520 39.39908
# Shear Modulus (GPa) = 19.87390 26.49115 23.18252
#
# Velocity S-wave (km/s) = 3.03802 3.50752 3.28118
# Velocity P-wave (km/s) = 5.37551 6.03390 5.71419
#
# Compressibility (1/GPa) = 0.02799320
#
# Stress axis : x y z
#
# Youngs Moduli (GPa) = 35.57618 76.95513 34.51343
#
# Poissons Ratio (x) = 0.20320 0.38952
# Poissons Ratio (y) = 0.09394 0.24558
# Poissons Ratio (z) = 0.40151 0.54758
#
# Static dielectric constant tensor:
#      x y z
#    x 3.770640 0.123010 0.207030 
#    y 0.123010 3.879030 -0.203000 
#    z 0.207030 -0.203000 4.002760 
# 
# 
# High freq. dielectric constant tensor:
#      x y z
#    x 1.828570 0.014090 0.009690 
#    y 0.014090 1.846570 -0.012660 
#    z 0.009690 -0.012660 1.829850 
# 
# From -- ./inp_files/209034.got.cif
#   From: 2010.06.25/outbox.cif.g09.slc.cpg/sg2_105_cif.got.tgz:209034.got - 2010.06.27 13:26:56.
