data_PCOD8042982
_publ_section_title
;
Structure prediction by ZEFSAII (Michael W. Deem and Ramdas Pophale) SiO2 
 PCOD8042982
Probable space group: P -1
;
_chemical_formula_sum "Si O2"
_cell_formula_units_Z 14
_cell_length_a 9.948736
_cell_length_b 12.289070
_cell_length_c 8.816047
_cell_angle_alpha 65.792835
_cell_angle_beta 45.950964
_cell_angle_gamma 72.935829
_cell_volume 706.525792
_symmetry_space_group_name_H-M "P -1"
_symmetry_group_IT_number 2
_symmetry_cell_setting 'triclinic'
loop_
_space_group_symop_operation_xyz
x,y,z
-x,-y,-z
loop_
_atom_site_type_symbol
_atom_site_label
_atom_site_fract_x
_atom_site_fract_y
_atom_site_fract_z
Si Si1 0.232592 0.120268 0.803981
Si Si2 0.839519 0.138660 0.943084
Si Si3 0.138955 0.658147 0.418310
Si Si4 0.224502 0.409848 0.401836
Si Si5 0.460152 0.749632 0.670707
Si Si6 0.765009 0.393608 0.291844
Si Si7 0.139932 0.359553 0.837311
O O1 0.416679 0.139406 0.546065
O O2 0.218659 0.225228 0.883336
O O3 0.054224 0.125718 0.829326
O O4 0.244798 0.992105 0.949532
O O5 0.817316 0.215094 0.764037
O O6 0.724595 0.201096 0.133020
O O7 0.257731 0.552521 0.300708
O O8 0.190048 0.669010 0.547890
O O9 0.919258 0.624320 0.599221
O O10 0.418197 0.337420 0.264455
O O11 0.127445 0.369834 0.658709
O O12 0.413372 0.668337 0.606873
O O13 0.727118 0.536293 0.260429
O O14 0.934664 0.374994 0.054285
#
# Coordination Sequence:
#
# PCOD8042982 Si02
#       7
#     2   2   2   2   2   2   2
#     4  10  21  37  62  82 109 157 201 227 266 345
#     4  11  21  38  61  81 117 153 194 232 279 332
#     4  10  19  36  53  87 119 149 178 242 290 332
#     4   9  19  34  59  81 118 147 192 231 281 336
#     4  11  20  38  61  90 104 152 198 234 270 353
#     4  10  20  32  63  86 118 142 188 238 294 329
#     4   9  17  37  55  84 110 155 184 222 282 350
#
# _framework density 19.815270000000002
#
# number of rings (size 3 to 8) (size 9 to 14) (size 15 to 20)
#    0.000    2.000    4.286    0.429    0.000    5.714 
#    0.000    4.286    0.000    0.000    0.000    0.000 
#    0.000    0.000    0.000    0.000    0.000    0.000 
#
# Total GULP energy -173536.121467 kJ/mol
# GULP energy per Si atom -12395.437248 kJ/mol
# Density = 1.977017 g / cm^3
# Si number density = 19.815270 Si / 1000 Ang^3
#
#
#
# Elastic Constant Matrix: (Units=GPa)
#
#
# Indices 1 2 3 4 5 6 
#
# 1 70.6983 33.1975 16.9049 -12.1529 -4.2709 4.8059
# 2 33.1975 125.2128 26.9081 -29.5642 12.0412 -1.4771
# 3 16.9049 26.9081 57.2158 -15.1390 0.1162 2.3661
# 4 -12.1529 -29.5642 -15.1390 35.8511 -1.3777 4.9679
# 5 -4.2709 12.0412 0.1162 -1.3777 19.6719 -5.6420
# 6 4.8059 -1.4771 2.3661 4.9679 -5.6420 22.1451
#
#
#
# Elastic Compliance Matrix: (Units=1/GPa)
#
#
# Indices 1 2 3 4 5 6 
#
# 1 0.017636 -0.004235 -0.002583 0.002007 0.005770 -0.002814
# 2 -0.004235 0.012185 -0.002393 0.007535 -0.008362 -0.001833
# 3 -0.002583 -0.002393 0.021244 0.006586 0.000302 -0.003269
# 4 0.002007 0.007535 0.006586 0.038850 -0.004506 -0.010500
# 5 0.005770 -0.008362 0.000302 -0.004506 0.061115 0.014739
# 6 -0.002814 -0.001833 -0.003269 -0.010500 0.014739 0.052105
#
#
# Mechanical properties :
#
#
# Convention : Reuss Voigt Hill
#
# Bulk Modulus (GPa) = 30.63507 45.23865 37.93686
# Shear Modulus (GPa) = 21.51122 27.27471 24.39297
#
# Velocity S-wave (km/s) = 3.29840 3.71408 3.51239
# Velocity P-wave (km/s) = 5.47721 6.42435 5.96959
#
# Compressibility (1/GPa) = 0.03264232
#
# Stress axis : x y z
#
# Youngs Moduli (GPa) = 56.70343 82.06843 47.07306
#
# Poissons Ratio (x) = 0.34754 0.12161
# Poissons Ratio (y) = 0.24012 0.11264
# Poissons Ratio (z) = 0.14649 0.19637
#
# Static dielectric constant tensor:
#      x y z
#    x 3.350110 -0.068280 -0.088020 
#    y -0.068280 4.093320 -0.271760 
#    z -0.088020 -0.271760 3.465840 
# 
# 
# High freq. dielectric constant tensor:
#      x y z
#    x 1.744240 -0.003840 -0.016870 
#    y -0.003840 1.780270 -0.011440 
#    z -0.016870 -0.011440 1.764170 
# 
# From -- ./inp_files/175808.got.cif
#   From: 2010.06.25/outbox.cif.g09.slc.cpg/sg2_88_cif.got.tgz:175808.got - 2010.06.27 13:26:56.
