data_PCOD8042469
_publ_section_title
;
Structure prediction by ZEFSAII (Michael W. Deem and Ramdas Pophale) SiO2 
 PCOD8042469
Probable space group: P -1
;
_chemical_formula_sum "Si O2"
_cell_formula_units_Z 16
_cell_length_a 19.454625
_cell_length_b 15.057162
_cell_length_c 13.082731
_cell_angle_alpha 44.110297
_cell_angle_beta 26.442618
_cell_angle_gamma 28.580126
_cell_volume 773.322845
_symmetry_space_group_name_H-M "P -1"
_symmetry_group_IT_number 2
_symmetry_cell_setting 'triclinic'
loop_
_space_group_symop_operation_xyz
x,y,z
-x,-y,-z
loop_
_atom_site_type_symbol
_atom_site_label
_atom_site_fract_x
_atom_site_fract_y
_atom_site_fract_z
Si Si1 0.335005 0.986909 0.260532
Si Si2 0.226985 0.355890 0.746611
Si Si3 0.694088 0.591896 0.012053
Si Si4 0.271830 0.933324 0.606550
Si Si5 0.949549 0.403044 0.412922
Si Si6 0.380857 0.004388 0.748585
Si Si7 0.249961 0.395760 0.293041
Si Si8 0.000859 0.154830 0.986352
O O1 0.080312 0.188352 0.385169
O O2 0.443753 0.784101 0.243482
O O3 0.285309 0.019179 0.421329
O O4 0.500000 0.000000 0.000000
O O5 0.457468 0.273196 0.559368
O O6 0.207323 0.451115 0.591816
O O7 0.252201 0.190107 0.833893
O O8 0.000000 0.500000 0.000000
O O9 0.812066 0.387185 0.063416
O O10 0.631267 0.615122 0.955981
O O11 0.871035 0.595671 0.797931
O O12 0.134608 0.892486 0.792867
O O13 0.143232 0.085465 0.746965
O O14 0.788995 0.479859 0.664649
O O15 0.500000 0.000000 0.500000
O O16 0.574431 0.820524 0.716514
O O17 0.184461 0.032791 0.937854
O O18 0.000000 0.500000 0.500000
#
# Coordination Sequence:
#
# PCOD8042469 Si02
#       8
#     2   2   2   2   2   2   2   2
#     4  10  22  37  59  92 128 167 209 263 321 385
#     4  12  24  38  62  96 127 166 215 270 323 373
#     4  10  20  36  58  90 122 166 208 256 318 378
#     4  11  25  41  66  95 131 175 208 269 328 381
#     4  10  19  35  56  89 122 158 209 267 310 365
#     4  12  21  39  65  93 128 164 227 267 307 383
#     4  10  20  32  58  92 116 159 208 267 305 360
#     4  11  23  44  65  95 132 169 220 264 319 385
#
# _framework density 20.689935999999999
#
# number of rings (size 3 to 8) (size 9 to 14) (size 15 to 20)
#    0.000    1.250    3.750    3.000    7.000    0.500 
#    0.000    1.250    0.000    6.000    0.000    0.000 
#    0.000    0.000    0.000    0.000    0.000    0.000 
#
# Total GULP energy -198251.219408 kJ/mol
# GULP energy per Si atom -12390.701213 kJ/mol
# Density = 2.064285 g / cm^3
# Si number density = 20.689936 Si / 1000 Ang^3
#
#
#
# Elastic Constant Matrix: (Units=GPa)
#
#
# Indices 1 2 3 4 5 6 
#
# 1 91.8512 46.9157 41.9689 7.2565 -6.8286 -15.7028
# 2 46.9157 141.5983 31.0159 32.0042 -1.0826 -12.0202
# 3 41.9689 31.0159 76.0168 11.8568 4.3654 -0.3247
# 4 7.2565 32.0042 11.8568 33.3648 0.2594 9.5821
# 5 -6.8286 -1.0826 4.3654 0.2594 34.4449 4.6612
# 6 -15.7028 -12.0202 -0.3247 9.5821 4.6612 42.3392
#
#
#
# Elastic Compliance Matrix: (Units=1/GPa)
#
#
# Indices 1 2 3 4 5 6 
#
# 1 0.017823 -0.003952 -0.008687 0.001644 0.003872 0.004624
# 2 -0.003952 0.011383 -0.000669 -0.011067 -0.000847 0.004359
# 3 -0.008687 -0.000669 0.018999 -0.003609 -0.003850 -0.002025
# 4 0.001644 -0.011067 -0.003609 0.045231 0.001854 -0.013001
# 5 0.003872 -0.000847 -0.003850 0.001854 0.030602 -0.002623
# 6 0.004624 0.004359 -0.002025 -0.013001 -0.002623 0.029787
#
#
# Mechanical properties :
#
#
# Convention : Reuss Voigt Hill
#
# Bulk Modulus (GPa) = 46.31788 61.02970 53.67379
# Shear Modulus (GPa) = 26.64703 34.66750 30.65726
#
# Velocity S-wave (km/s) = 3.59266 4.09782 3.85352
# Velocity P-wave (km/s) = 6.29642 7.20769 6.76741
#
# Compressibility (1/GPa) = 0.02158993
#
# Stress axis : x y z
#
# Youngs Moduli (GPa) = 56.10579 87.84985 52.63339
#
# Poissons Ratio (x) = 0.34719 0.45722
# Poissons Ratio (y) = 0.22173 0.03522
# Poissons Ratio (z) = 0.48738 0.05878
#
# Static dielectric constant tensor:
#      x y z
#    x 4.138530 -0.190260 0.449000 
#    y -0.190260 3.906660 0.434960 
#    z 0.449000 0.434960 3.817620 
# 
# 
# High freq. dielectric constant tensor:
#      x y z
#    x 1.804690 -0.012840 0.028940 
#    y -0.012840 1.820380 0.029280 
#    z 0.028940 0.029280 1.783010 
# 
# From -- ./inp_files/461886.got.cif
#   From: 2010.06.25/outbox.cif.g09.slc.cpg/sg2_231_cif.got.tgz:461886.got - 2010.06.27 13:26:56.
