data_PCOD8042256
_publ_section_title
;
Structure prediction by ZEFSAII (Michael W. Deem and Ramdas Pophale) SiO2 
 PCOD8042256
Probable space group: P -1
;
_chemical_formula_sum "Si O2"
_cell_formula_units_Z 16
_cell_length_a 14.544598
_cell_length_b 11.306272
_cell_length_c 8.855834
_cell_angle_alpha 123.893345
_cell_angle_beta 88.687968
_cell_angle_gamma 52.976010
_cell_volume 811.542310
_symmetry_space_group_name_H-M "P -1"
_symmetry_group_IT_number 2
_symmetry_cell_setting 'triclinic'
loop_
_space_group_symop_operation_xyz
x,y,z
-x,-y,-z
loop_
_atom_site_type_symbol
_atom_site_label
_atom_site_fract_x
_atom_site_fract_y
_atom_site_fract_z
Si Si1 0.911067 0.141515 0.247497
Si Si2 0.349226 0.622628 0.124493
Si Si3 0.802317 0.041052 0.397517
Si Si4 0.404146 0.269413 0.976420
Si Si5 0.333710 0.382970 0.404584
Si Si6 0.876247 0.927613 0.637498
Si Si7 0.362263 0.000134 0.804046
Si Si8 0.707997 0.888174 0.769041
O O1 0.894000 0.015654 0.252356
O O2 0.765432 0.374737 0.367585
O O3 0.982695 0.179563 0.374514
O O4 0.000000 0.000000 0.000000
O O5 0.311876 0.717817 0.363732
O O6 0.242062 0.815706 0.147506
O O7 0.500000 0.500000 0.000000
O O8 0.340574 0.460327 0.001754
O O9 0.730630 0.986746 0.290936
O O10 0.895594 0.881815 0.423242
O O11 0.568179 0.096882 0.841870
O O12 0.358689 0.164137 0.853126
O O13 0.350802 0.362219 0.210710
O O14 0.481763 0.236207 0.371604
O O15 0.269005 0.305592 0.400623
O O16 0.833978 0.829240 0.649569
O O17 0.300445 0.068429 0.022444
#
# Coordination Sequence:
#
# PCOD8042256 Si02
#       8
#     2   2   2   2   2   2   2   2
#     4  12  24  39  57  81 116 159 205 234 271 335
#     4  10  19  34  61  86 115 150 188 229 300 347
#     4  10  22  38  57  85 118 149 192 238 289 335
#     4   9  15  35  59  88 117 147 184 237 300 347
#     4   9  19  35  58  85 115 153 187 241 292 336
#     4  10  22  36  57  80 118 156 188 231 285 344
#     4   9  19  34  63  90 115 142 188 249 292 338
#     4   9  17  35  60  87 114 146 193 235 296 344
#
# _framework density 19.715546
#
# number of rings (size 3 to 8) (size 9 to 14) (size 15 to 20)
#    0.750    1.500    2.500    2.625    0.000    2.000 
#    0.000    6.875    0.000    4.500    0.000    0.000 
#    0.000    0.000    0.000    0.000    0.000    0.000 
#
# Total GULP energy -198329.107804 kJ/mol
# GULP energy per Si atom -12395.569238 kJ/mol
# Density = 1.967067 g / cm^3
# Si number density = 19.715546 Si / 1000 Ang^3
#
#
#
# Elastic Constant Matrix: (Units=GPa)
#
#
# Indices 1 2 3 4 5 6 
#
# 1 129.6333 26.0149 27.4409 -19.7503 2.8725 12.5736
# 2 26.0149 50.8585 12.2099 -8.8246 1.4191 13.6581
# 3 27.4409 12.2099 73.4553 -7.2346 -3.8515 -0.7696
# 4 -19.7503 -8.8246 -7.2346 21.3494 -1.0735 3.4758
# 5 2.8725 1.4191 -3.8515 -1.0735 28.6734 -6.5919
# 6 12.5736 13.6581 -0.7696 3.4758 -6.5919 32.8681
#
#
#
# Elastic Compliance Matrix: (Units=1/GPa)
#
#
# Indices 1 2 3 4 5 6 
#
# 1 0.010520 -0.001878 -0.002928 0.008615 -0.002100 -0.004645
# 2 -0.001878 0.026471 -0.003054 0.009957 -0.003964 -0.012201
# 3 -0.002928 -0.003054 0.015514 0.000912 0.003327 0.003323
# 4 0.008615 0.009957 0.000912 0.061459 -0.002233 -0.014359
# 5 -0.002100 -0.003964 0.003327 -0.002233 0.038035 0.010393
# 6 -0.004645 -0.012201 0.003323 -0.014359 0.010393 0.040952
#
#
# Mechanical properties :
#
#
# Convention : Reuss Voigt Hill
#
# Bulk Modulus (GPa) = 27.18397 42.80871 34.99634
# Shear Modulus (GPa) = 22.63133 29.13026 25.88080
#
# Velocity S-wave (km/s) = 3.39173 3.84803 3.62706
# Velocity P-wave (km/s) = 5.39967 6.44232 5.94390
#
# Compressibility (1/GPa) = 0.03678638
#
# Stress axis : x y z
#
# Youngs Moduli (GPa) = 95.05477 37.77750 64.45652
#
# Poissons Ratio (x) = 0.07093 0.18875
# Poissons Ratio (y) = 0.17847 0.19683
# Poissons Ratio (z) = 0.27835 0.11536
#
# Static dielectric constant tensor:
#      x y z
#    x 3.543520 0.208520 -0.048930 
#    y 0.208520 3.634060 0.120850 
#    z -0.048930 0.120850 3.326020 
# 
# 
# High freq. dielectric constant tensor:
#      x y z
#    x 1.774320 0.017890 -0.007510 
#    y 0.017890 1.755070 0.002980 
#    z -0.007510 0.002980 1.743350 
# 
# From -- ./inp_files/305718.got.cif
#   From: 2010.06.25/outbox.cif.g09.slc.cpg/sg2_153_cif.got.tgz:305718.got - 2010.06.27 13:26:56.
