data_PCOD8042380
_publ_section_title
;
Structure prediction by ZEFSAII (Michael W. Deem and Ramdas Pophale) SiO2 
 PCOD8042380
Probable space group: P -1
;
_chemical_formula_sum "Si O2"
_cell_formula_units_Z 16
_cell_length_a 21.618530
_cell_length_b 6.652167
_cell_length_c 9.078044
_cell_angle_alpha 55.731254
_cell_angle_beta 45.788637
_cell_angle_gamma 66.545637
_cell_volume 773.282400
_symmetry_space_group_name_H-M "P -1"
_symmetry_group_IT_number 2
_symmetry_cell_setting 'triclinic'
loop_
_space_group_symop_operation_xyz
x,y,z
-x,-y,-z
loop_
_atom_site_type_symbol
_atom_site_label
_atom_site_fract_x
_atom_site_fract_y
_atom_site_fract_z
Si Si1 0.615843 0.692865 0.715216
Si Si2 0.805655 0.784767 0.358343
Si Si3 0.078690 0.820201 0.274651
Si Si4 0.024437 0.370448 0.724556
Si Si5 0.223710 0.680000 0.901457
Si Si6 0.112284 0.353546 0.025243
Si Si7 0.501580 0.458430 0.770142
Si Si8 0.584793 0.226670 0.446801
O O1 0.716998 0.645865 0.597605
O O2 0.579713 0.498062 0.738863
O O3 0.601742 0.941763 0.546444
O O4 0.571449 0.675601 0.956252
O O5 0.879193 0.727179 0.378377
O O6 0.841390 0.672306 0.195518
O O7 0.789088 0.072350 0.273074
O O8 0.025657 0.631906 0.535639
O O9 0.029059 0.832510 0.193131
O O10 0.176700 0.723866 0.119246
O O11 0.079992 0.084787 0.238526
O O12 0.967007 0.447328 0.931702
O O13 0.182750 0.446662 0.986841
O O14 0.325319 0.626445 0.772382
O O15 0.531447 0.288033 0.657446
O O16 0.465951 0.705509 0.648157
#
# Coordination Sequence:
#
# PCOD8042380 Si02
#       8
#     2   2   2   2   2   2   2   2
#     4  10  21  38  57  85 116 143 185 236 276 334
#     4  10  21  34  54  78 107 141 178 222 275 320
#     4   9  20  35  53  76 107 143 178 224 264 318
#     4  10  20  34  53  77 107 141 182 219 269 321
#     4   9  20  35  54  78 108 141 177 223 268 324
#     4  10  19  35  54  76 108 142 179 224 266 319
#     4  10  21  36  61  84 110 149 186 226 285 336
#     4  10  20  37  60  83 114 148 186 227 280 335
#
# _framework density 20.691020000000002
#
# number of rings (size 3 to 8) (size 9 to 14) (size 15 to 20)
#    0.000    2.250    0.000    2.250    1.750    5.500 
#    0.000    0.000    2.750    0.000    0.000    0.000 
#    0.000    0.000    0.000    0.000    0.000    0.000 
#
# Total GULP energy -198264.619413 kJ/mol
# GULP energy per Si atom -12391.538713 kJ/mol
# Density = 2.064393 g / cm^3
# Si number density = 20.691020 Si / 1000 Ang^3
#
#
#
# Elastic Constant Matrix: (Units=GPa)
#
#
# Indices 1 2 3 4 5 6 
#
# 1 71.8964 26.4768 31.5603 12.7890 -13.3901 1.0570
# 2 26.4768 71.7386 16.1369 -1.7134 -7.7354 9.8268
# 3 31.5603 16.1369 72.8624 4.2033 -22.8418 2.3856
# 4 12.7890 -1.7134 4.2033 24.6910 -1.5592 -8.5618
# 5 -13.3901 -7.7354 -22.8418 -1.5592 30.1151 1.5177
# 6 1.0570 9.8268 2.3856 -8.5618 1.5177 28.0958
#
#
#
# Elastic Compliance Matrix: (Units=1/GPa)
#
#
# Indices 1 2 3 4 5 6 
#
# 1 0.021457 -0.006247 -0.006430 -0.010814 0.002575 -0.001511
# 2 -0.006247 0.017308 -0.000636 0.002926 0.001587 -0.004959
# 3 -0.006430 -0.000636 0.020739 -0.000140 0.012803 -0.002031
# 4 -0.010814 0.002926 -0.000140 0.051456 -0.002265 0.015198
# 5 0.002575 0.001587 0.012803 -0.002265 0.044596 -0.004838
# 6 -0.001511 -0.004959 -0.002031 0.015198 -0.004838 0.042449
#
#
# Mechanical properties :
#
#
# Convention : Reuss Voigt Hill
#
# Bulk Modulus (GPa) = 30.41549 40.53838 35.47694
# Shear Modulus (GPa) = 21.22321 26.06860 23.64590
#
# Velocity S-wave (km/s) = 3.20616 3.55336 3.38421
# Velocity P-wave (km/s) = 5.33270 6.03903 5.69683
#
# Compressibility (1/GPa) = 0.03287798
#
# Stress axis : x y z
#
# Youngs Moduli (GPa) = 46.60390 57.77544 48.21891
#
# Poissons Ratio (x) = 0.36090 0.31006
# Poissons Ratio (y) = 0.29112 0.03069
# Poissons Ratio (z) = 0.29967 0.03677
#
# Static dielectric constant tensor:
#      x y z
#    x 3.682410 -0.014990 -0.247620 
#    y -0.014990 3.591420 0.066180 
#    z -0.247620 0.066180 3.851900 
# 
# 
# High freq. dielectric constant tensor:
#      x y z
#    x 1.795300 0.004610 -0.020240 
#    y 0.004610 1.802310 0.007410 
#    z -0.020240 0.007410 1.818510 
# 
# From -- ./inp_files/51471.got.cif
#   From: 2010.06.25/outbox.cif.g09.slc.cpg/sg2_26_cif.got.tgz:51471.got - 2010.06.27 13:26:56.
