data_PCOD8042984
_publ_section_title
;
Structure prediction by ZEFSAII (Michael W. Deem and Ramdas Pophale) SiO2 
 PCOD8042984
Probable space group: P -1
;
_chemical_formula_sum "Si O2"
_cell_formula_units_Z 16
_cell_length_a 9.299234
_cell_length_b 9.582879
_cell_length_c 16.438680
_cell_angle_alpha 112.259629
_cell_angle_beta 87.274360
_cell_angle_gamma 136.356378
_cell_volume 874.848189
_symmetry_space_group_name_H-M "P -1"
_symmetry_group_IT_number 2
_symmetry_cell_setting 'triclinic'
loop_
_space_group_symop_operation_xyz
x,y,z
-x,-y,-z
loop_
_atom_site_type_symbol
_atom_site_label
_atom_site_fract_x
_atom_site_fract_y
_atom_site_fract_z
Si Si1 0.220694 0.821375 0.282940
Si Si2 0.161708 0.673034 0.428491
Si Si3 0.008436 0.913114 0.210764
Si Si4 0.496833 0.497461 0.096205
Si Si5 0.959753 0.732187 0.704789
Si Si6 0.110348 0.401610 0.142946
Si Si7 0.847200 0.997309 0.955859
Si Si8 0.713715 0.196195 0.373450
O O1 0.195941 0.800477 0.376292
O O2 0.137366 0.601762 0.194748
O O3 0.076470 0.842158 0.257681
O O4 0.480806 0.056747 0.308715
O O5 0.313189 0.853854 0.539044
O O6 0.216396 0.538253 0.378920
O O7 0.898264 0.475811 0.417026
O O8 0.742751 0.714852 0.172319
O O9 0.107893 0.952570 0.129428
O O10 0.109163 0.153466 0.292659
O O11 0.344493 0.513166 0.135814
O O12 0.404897 0.261218 0.078712
O O13 0.500000 0.500000 0.000000
O O14 0.200624 0.887062 0.692098
O O15 0.978821 0.744252 0.804160
O O16 0.913472 0.212177 0.040445
O O17 0.000000 0.000000 0.000000
#
# Coordination Sequence:
#
# PCOD8042984 Si02
#       8
#     2   2   2   2   2   2   2   2
#     4  11  23  34  57  89 116 137 180 242 278 319
#     4   8  19  38  62  82 108 145 193 213 270 353
#     4  12  22  35  53  89 116 139 186 237 279 308
#     4  11  19  35  61  74 101 157 190 223 266 321
#     4   9  17  36  60  81 105 147 190 222 257 344
#     4  10  19  38  57  79 109 148 196 221 260 340
#     4  10  19  36  54  75 110 145 191 223 260 326
#     4   9  18  39  66  76 110 151 183 219 280 335
#
# _framework density 18.288886999999999
#
# number of rings (size 3 to 8) (size 9 to 14) (size 15 to 20)
#    0.750    1.250    5.000    1.125    0.000    1.500 
#    0.000    1.875    0.000    0.000    0.000    0.000 
#    0.000    0.000    0.000    0.000    0.000    0.000 
#
# Total GULP energy -198254.045393 kJ/mol
# GULP energy per Si atom -12390.877837 kJ/mol
# Density = 1.824726 g / cm^3
# Si number density = 18.288887 Si / 1000 Ang^3
#
#
#
# Elastic Constant Matrix: (Units=GPa)
#
#
# Indices 1 2 3 4 5 6 
#
# 1 85.1387 35.1360 46.0645 -11.3589 -3.5976 -16.1136
# 2 35.1360 77.7186 33.9809 -6.8907 1.1393 -7.6112
# 3 46.0645 33.9809 82.7909 -15.6201 -12.0547 -2.7718
# 4 -11.3589 -6.8907 -15.6201 24.6965 6.1375 -3.2590
# 5 -3.5976 1.1393 -12.0547 6.1375 22.1118 -7.2459
# 6 -16.1136 -7.6112 -2.7718 -3.2590 -7.2459 21.6539
#
#
#
# Elastic Compliance Matrix: (Units=1/GPa)
#
#
# Indices 1 2 3 4 5 6 
#
# 1 0.021756 -0.004217 -0.008567 0.004736 0.002770 0.015250
# 2 -0.004217 0.017268 -0.005188 0.000794 -0.004316 0.000942
# 3 -0.008567 -0.005188 0.021189 0.005723 0.008223 -0.001873
# 4 0.004736 0.000794 0.005723 0.049458 -0.006686 0.009742
# 5 0.002770 -0.004316 0.008223 -0.006686 0.058887 0.020295
# 6 0.015250 0.000942 -0.001873 0.009742 0.020295 0.065878
#
#
# Mechanical properties :
#
#
# Convention : Reuss Voigt Hill
#
# Bulk Modulus (GPa) = 41.20543 52.89009 47.04776
# Shear Modulus (GPa) = 17.95524 22.39022 20.17273
#
# Velocity S-wave (km/s) = 3.13670 3.50273 3.32475
# Velocity P-wave (km/s) = 5.97476 6.73356 6.36548
#
# Compressibility (1/GPa) = 0.02426865
#
# Stress axis : x y z
#
# Youngs Moduli (GPa) = 45.96375 57.91102 47.19486
#
# Poissons Ratio (x) = 0.24424 0.40431
# Poissons Ratio (y) = 0.19385 0.24484
# Poissons Ratio (z) = 0.39376 0.30044
#
# Static dielectric constant tensor:
#      x y z
#    x 3.166630 0.131650 -0.293910 
#    y 0.131650 3.582350 0.100240 
#    z -0.293910 0.100240 3.436100 
# 
# 
# High freq. dielectric constant tensor:
#      x y z
#    x 1.667820 0.013260 -0.024940 
#    y 0.013260 1.717430 0.000780 
#    z -0.024940 0.000780 1.710910 
# 
# From -- ./inp_files/495241.got.cif
#   From: 2010.06.25/outbox.cif.g09.slc.cpg/sg2_248_cif.got.tgz:495241.got - 2010.06.27 13:26:56.
