data_PCOD8042481
_publ_section_title
;
Structure prediction by ZEFSAII (Michael W. Deem and Ramdas Pophale) SiO2 
 PCOD8042481
Probable space group: P -1
;
_chemical_formula_sum "Si O2"
_cell_formula_units_Z 16
_cell_length_a 10.892494
_cell_length_b 8.901818
_cell_length_c 15.357529
_cell_angle_alpha 82.780491
_cell_angle_beta 62.103321
_cell_angle_gamma 43.759072
_cell_volume 853.587672
_symmetry_space_group_name_H-M "P -1"
_symmetry_group_IT_number 2
_symmetry_cell_setting 'triclinic'
loop_
_space_group_symop_operation_xyz
x,y,z
-x,-y,-z
loop_
_atom_site_type_symbol
_atom_site_label
_atom_site_fract_x
_atom_site_fract_y
_atom_site_fract_z
Si Si1 0.049379 0.787247 0.168948
Si Si2 0.801962 0.099463 0.006187
Si Si3 0.722340 0.377105 0.580580
Si Si4 0.792846 0.982093 0.534418
Si Si5 0.114014 0.275770 0.925903
Si Si6 0.378774 0.433492 0.220933
Si Si7 0.503674 0.978141 0.705428
Si Si8 0.640349 0.102483 0.384112
O O1 0.180591 0.832935 0.098306
O O2 0.176532 0.593132 0.214134
O O3 0.033327 0.688837 0.098231
O O4 0.818521 0.026283 0.265049
O O5 0.584354 0.322586 0.109742
O O6 0.811449 0.908852 0.012839
O O7 0.000000 0.000000 0.000000
O O8 0.655202 0.419319 0.700618
O O9 0.559338 0.617890 0.563282
O O10 0.960963 0.247053 0.507267
O O11 0.717178 0.216337 0.552474
O O12 0.667991 0.979814 0.644160
O O13 0.741509 0.980052 0.452305
O O14 0.310631 0.189449 0.815920
O O15 0.000000 0.500000 0.000000
O O16 0.391815 0.256441 0.270459
O O17 0.428234 0.999198 0.630712
#
# Coordination Sequence:
#
# PCOD8042481 Si02
#       8
#     2   2   2   2   2   2   2   2
#     4  10  19  35  57  79 107 144 186 224 269 332
#     4   9  18  33  56  79 104 143 183 220 270 329
#     4  10  22  36  57  81 114 145 180 239 272 318
#     4  11  21  38  55  83 114 144 187 227 282 320
#     4   9  19  36  54  80 110 138 180 227 277 322
#     4  10  19  37  54  81 109 143 185 226 271 330
#     4   9  21  36  57  80 110 148 182 223 275 332
#     4  10  20  38  57  80 111 147 190 225 269 330
#
# _framework density 18.744412000000001
#
# number of rings (size 3 to 8) (size 9 to 14) (size 15 to 20)
#    0.000    2.250    1.250    3.375    0.000    5.000 
#    4.500    3.750    0.000    0.000    0.000    0.000 
#    0.000    0.000    0.000    0.000    0.000    0.000 
#
# Total GULP energy -198334.341942 kJ/mol
# GULP energy per Si atom -12395.896371 kJ/mol
# Density = 1.870175 g / cm^3
# Si number density = 18.744412 Si / 1000 Ang^3
#
#
#
# Elastic Constant Matrix: (Units=GPa)
#
#
# Indices 1 2 3 4 5 6 
#
# 1 71.4150 40.7241 45.1734 1.5748 -14.1415 -5.4639
# 2 40.7241 66.1101 42.8151 12.5955 -0.5204 -6.6545
# 3 45.1734 42.8151 98.1401 9.3086 -14.0737 8.6121
# 4 1.5748 12.5955 9.3086 35.5826 -0.2725 2.4814
# 5 -14.1415 -0.5204 -14.0737 -0.2725 37.4606 -2.3976
# 6 -5.4639 -6.6545 8.6121 2.4814 -2.3976 22.0459
#
#
#
# Elastic Compliance Matrix: (Units=1/GPa)
#
#
# Indices 1 2 3 4 5 6 
#
# 1 0.027642 -0.012720 -0.007005 0.004749 0.008051 0.006089
# 2 -0.012720 0.031379 -0.008885 -0.008974 -0.007128 0.010025
# 3 -0.007005 -0.008885 0.018861 -0.000662 0.003589 -0.011321
# 4 0.004749 -0.008974 -0.000662 0.031580 0.001349 -0.004681
# 5 0.008051 -0.007128 0.003589 0.001349 0.031100 0.001672
# 6 0.006089 0.010025 -0.011321 -0.004681 0.001672 0.055026
#
#
# Mechanical properties :
#
#
# Convention : Reuss Voigt Hill
#
# Bulk Modulus (GPa) = 48.39651 54.78781 51.59216
# Shear Modulus (GPa) = 19.25335 26.14801 22.70068
#
# Velocity S-wave (km/s) = 3.20840 3.73899 3.48381
# Velocity P-wave (km/s) = 6.29288 6.92332 6.61561
#
# Compressibility (1/GPa) = 0.02066265
#
# Stress axis : x y z
#
# Youngs Moduli (GPa) = 36.17669 31.86860 53.01969
#
# Poissons Ratio (x) = 0.40536 0.37138
# Poissons Ratio (y) = 0.46016 0.47110
# Poissons Ratio (z) = 0.25340 0.28316
#
# Static dielectric constant tensor:
#      x y z
#    x 3.462290 -0.031160 -0.325180 
#    y -0.031160 3.472990 -0.166500 
#    z -0.325180 -0.166500 3.943660 
# 
# 
# High freq. dielectric constant tensor:
#      x y z
#    x 1.712380 -0.011980 -0.011070 
#    y -0.011980 1.723270 0.003010 
#    z -0.011070 0.003010 1.737360 
# 
# From -- ./inp_files/189230.got.cif
#   From: 2010.06.25/outbox.cif.g09.slc.cpg/sg2_95_cif.got.tgz:189230.got - 2010.06.27 13:26:56.
