data_PCOD8042135
_publ_section_title
;
Structure prediction by ZEFSAII (Michael W. Deem and Ramdas Pophale) SiO2 
 PCOD8042135
Probable space group: P -1
;
_chemical_formula_sum "Si O2"
_cell_formula_units_Z 16
_cell_length_a 10.039148
_cell_length_b 16.066815
_cell_length_c 11.463845
_cell_angle_alpha 131.269883
_cell_angle_beta 120.185683
_cell_angle_gamma 36.368259
_cell_volume 822.443316
_symmetry_space_group_name_H-M "P -1"
_symmetry_group_IT_number 2
_symmetry_cell_setting 'triclinic'
loop_
_space_group_symop_operation_xyz
x,y,z
-x,-y,-z
loop_
_atom_site_type_symbol
_atom_site_label
_atom_site_fract_x
_atom_site_fract_y
_atom_site_fract_z
Si Si1 0.008893 0.044649 0.170160
Si Si2 0.336222 0.479252 0.893538
Si Si3 0.704373 0.907968 0.652556
Si Si4 0.201540 0.638098 0.209931
Si Si5 0.217553 0.110443 0.589452
Si Si6 0.613262 0.424390 0.357285
Si Si7 0.236795 0.848746 0.293665
Si Si8 0.928810 0.412960 0.359810
O O1 0.242564 0.990111 0.226148
O O2 0.791600 0.232472 0.273076
O O3 0.047932 0.932677 0.185283
O O4 0.000000 0.000000 0.000000
O O5 0.507418 0.287296 0.771829
O O6 0.157775 0.569389 0.792255
O O7 0.500000 0.500000 0.000000
O O8 0.190337 0.558223 0.021642
O O9 0.773347 0.835062 0.483325
O O10 0.847336 0.774489 0.692870
O O11 0.446505 0.020281 0.673977
O O12 0.429623 0.488647 0.239895
O O13 0.202898 0.766932 0.293822
O O14 0.988559 0.728030 0.281815
O O15 0.195011 0.989017 0.465221
O O16 0.500000 0.500000 0.500000
O O17 0.735242 0.474744 0.421186
O O18 0.000000 0.500000 0.500000
#
# Coordination Sequence:
#
# PCOD8042135 Si02
#       8
#     2   2   2   2   2   2   2   2
#     4  10  21  36  59  84 117 154 200 242 300 363
#     4  10  20  36  59  89 121 158 199 250 307 357
#     4   9  21  36  59  81 119 160 198 242 306 362
#     4  11  21  35  62  88 119 156 203 252 301 356
#     4  10  20  39  57  86 118 158 199 248 300 364
#     4  11  22  39  61  92 122 156 205 262 304 353
#     4  10  19  34  58  86 112 156 197 240 295 360
#     4  11  21  38  62  91 122 163 207 249 303 375
#
# _framework density 19.454228000000001
#
# number of rings (size 3 to 8) (size 9 to 14) (size 15 to 20)
#    0.000    1.750    2.500    4.125    5.250    0.000 
#    0.000    1.875    0.000   12.000    0.000    0.000 
#    0.000    0.000    0.000    0.000    0.000    0.000 
#
# Total GULP energy -198264.432616 kJ/mol
# GULP energy per Si atom -12391.527038 kJ/mol
# Density = 1.940995 g / cm^3
# Si number density = 19.454228 Si / 1000 Ang^3
#
#
#
# Elastic Constant Matrix: (Units=GPa)
#
#
# Indices 1 2 3 4 5 6 
#
# 1 60.3474 33.6032 25.4363 -5.4419 -12.9390 -17.6310
# 2 33.6032 143.2151 37.0052 -23.3096 -8.3603 -7.9682
# 3 25.4363 37.0052 94.6361 -15.1742 -13.9441 -14.0809
# 4 -5.4419 -23.3096 -15.1742 39.0495 -7.1467 -0.5361
# 5 -12.9390 -8.3603 -13.9441 -7.1467 20.5214 1.1879
# 6 -17.6310 -7.9682 -14.0809 -0.5361 1.1879 33.1481
#
#
#
# Elastic Compliance Matrix: (Units=1/GPa)
#
#
# Indices 1 2 3 4 5 6 
#
# 1 0.026155 -0.003693 -0.000916 0.004007 0.015056 0.012160
# 2 -0.003693 0.009108 -0.001606 0.004646 0.001935 -0.000451
# 3 -0.000916 -0.001606 0.014916 0.006788 0.010968 0.005180
# 4 0.004007 0.004646 0.006788 0.035513 0.021056 0.005952
# 5 0.015056 0.001935 0.010968 0.021056 0.073168 0.010851
# 6 0.012160 -0.000451 0.005180 0.005952 0.010851 0.038435
#
#
# Mechanical properties :
#
#
# Convention : Reuss Voigt Hill
#
# Bulk Modulus (GPa) = 26.48958 54.47644 40.48301
# Shear Modulus (GPa) = 22.49133 32.02075 27.25604
#
# Velocity S-wave (km/s) = 3.40386 4.06144 3.74710
# Velocity P-wave (km/s) = 5.39391 7.07509 6.29091
#
# Compressibility (1/GPa) = 0.03775069
#
# Stress axis : x y z
#
# Youngs Moduli (GPa) = 38.23352 109.79441 67.04134
#
# Poissons Ratio (x) = 0.40542 0.06139
# Poissons Ratio (y) = 0.14118 0.10767
# Poissons Ratio (z) = 0.03501 0.17633
#
# Static dielectric constant tensor:
#      x y z
#    x 3.522100 0.222430 -0.222610 
#    y 0.222430 6.401820 -1.719330 
#    z -0.222610 -1.719330 4.587570 
# 
# 
# High freq. dielectric constant tensor:
#      x y z
#    x 1.731050 0.000720 -0.005400 
#    y 0.000720 1.781340 -0.010520 
#    z -0.005400 -0.010520 1.747640 
# 
# From -- ./inp_files/436912.got.cif
#   From: 2010.06.25/outbox.cif.g09.slc.cpg/sg2_219_cif.got.tgz:436912.got - 2010.06.27 13:26:56.
