data_PCOD8042437
_publ_section_title
;
Structure prediction by ZEFSAII (Michael W. Deem and Ramdas Pophale) SiO2 
 PCOD8042437
Probable space group: P -1
;
_chemical_formula_sum "Si O2"
_cell_formula_units_Z 16
_cell_length_a 8.477283
_cell_length_b 11.010372
_cell_length_c 21.502834
_cell_angle_alpha 47.060158
_cell_angle_beta 138.519608
_cell_angle_gamma 141.349128
_cell_volume 807.564610
_symmetry_space_group_name_H-M "P -1"
_symmetry_group_IT_number 2
_symmetry_cell_setting 'triclinic'
loop_
_space_group_symop_operation_xyz
x,y,z
-x,-y,-z
loop_
_atom_site_type_symbol
_atom_site_label
_atom_site_fract_x
_atom_site_fract_y
_atom_site_fract_z
Si Si1 0.339954 0.850130 0.803562
Si Si2 0.027189 0.593639 0.121956
Si Si3 0.725167 0.715980 0.464986
Si Si4 0.006552 0.852960 0.122595
Si Si5 0.664634 0.789212 0.283895
Si Si6 0.919072 0.069426 0.749531
Si Si7 0.696955 0.078632 0.369531
Si Si8 0.815382 0.088011 0.038560
O O1 0.680109 0.964045 0.870264
O O2 0.240440 0.806462 0.717496
O O3 0.188365 0.642266 0.868188
O O4 0.241800 0.983603 0.759372
O O5 0.335707 0.646041 0.215973
O O6 0.050285 0.693591 0.027244
O O7 0.892366 0.664950 0.109340
O O8 0.500000 0.500000 0.500000
O O9 0.708461 0.705201 0.389350
O O10 0.043871 0.784854 0.554831
O O11 0.649480 0.865230 0.418566
O O12 0.029516 0.793908 0.221545
O O13 0.805031 0.940119 0.032858
O O14 0.871446 0.790546 0.292390
O O15 0.588873 0.957431 0.670015
O O16 0.989696 0.905947 0.849079
O O17 0.500000 0.000000 0.000000
#
# Coordination Sequence:
#
# PCOD8042437 Si02
#       8
#     2   2   2   2   2   2   2   2
#     4   9  19  34  56  82 107 142 186 228 272 318
#     4  11  18  34  60  79 107 150 192 225 266 318
#     4  10  20  36  62  83 102 142 186 223 280 334
#     4   8  19  34  52  77 107 143 186 232 260 312
#     4  10  20  36  56  81 116 141 176 233 275 330
#     4   9  19  37  55  78 118 150 176 220 287 319
#     4   9  19  38  55  80 115 136 176 239 269 323
#     4  10  19  35  56  80 114 156 184 222 275 317
#
# _framework density 19.812656
#
# number of rings (size 3 to 8) (size 9 to 14) (size 15 to 20)
#    0.750    1.750    1.250    1.875    0.000    1.000 
#    0.000    7.500    0.000    0.000    0.000    0.000 
#    0.000    0.000    0.000    0.000    0.000    0.000 
#
# Total GULP energy -198316.609956 kJ/mol
# GULP energy per Si atom -12394.788122 kJ/mol
# Density = 1.976756 g / cm^3
# Si number density = 19.812656 Si / 1000 Ang^3
#
#
#
# Elastic Constant Matrix: (Units=GPa)
#
#
# Indices 1 2 3 4 5 6 
#
# 1 105.3262 32.3487 35.0711 -2.4563 -2.6626 26.3286
# 2 32.3487 74.4939 26.7991 -17.0710 -4.9095 11.5093
# 3 35.0711 26.7991 85.9487 0.4133 0.6814 12.9221
# 4 -2.4563 -17.0710 0.4133 31.5493 10.4861 -4.5346
# 5 -2.6626 -4.9095 0.6814 10.4861 36.3113 4.3787
# 6 26.3286 11.5093 12.9221 -4.5346 4.3787 15.0156
#
#
#
# Elastic Compliance Matrix: (Units=1/GPa)
#
#
# Indices 1 2 3 4 5 6 
#
# 1 0.020186 -0.004068 -0.001639 -0.008262 0.007638 -0.035588
# 2 -0.004068 0.019113 -0.004246 0.010147 -0.000486 -0.000658
# 3 -0.001639 -0.004246 0.014890 -0.004234 0.001254 -0.008331
# 4 -0.008262 0.010147 -0.004234 0.046052 -0.015939 0.028908
# 5 0.007638 -0.000486 0.001254 -0.015939 0.036166 -0.029460
# 6 -0.035588 -0.000658 -0.008331 0.028908 -0.029460 0.153993
#
#
# Mechanical properties :
#
#
# Convention : Reuss Voigt Hill
#
# Bulk Modulus (GPa) = 29.16744 50.46740 39.81742
# Shear Modulus (GPa) = 15.54091 28.01190 21.77641
#
# Velocity S-wave (km/s) = 2.80374 3.76418 3.31889
# Velocity P-wave (km/s) = 5.02343 6.66481 5.90146
#
# Compressibility (1/GPa) = 0.03428480
#
# Stress axis : x y z
#
# Youngs Moduli (GPa) = 49.54009 52.32151 67.15792
#
# Poissons Ratio (x) = 0.21282 0.11005
# Poissons Ratio (y) = 0.20150 0.28513
# Poissons Ratio (z) = 0.08118 0.22214
#
# Static dielectric constant tensor:
#      x y z
#    x 3.623540 0.010840 -0.003000 
#    y 0.010840 3.178440 0.086610 
#    z -0.003000 0.086610 3.756720 
# 
# 
# High freq. dielectric constant tensor:
#      x y z
#    x 1.770580 0.012310 -0.002760 
#    y 0.012310 1.736670 0.007420 
#    z -0.002760 0.007420 1.778730 
# 
# From -- ./inp_files/607548.got.cif
#   From: 2010.06.25/outbox.cif.g09.slc.cpg/sg2_304_cif.got.tgz:607548.got - 2010.06.27 13:26:56.
