data_PCOD8042094
_publ_section_title
;
Structure prediction by ZEFSAII (Michael W. Deem and Ramdas Pophale) SiO2 
 PCOD8042094
Probable space group: P -1
;
_chemical_formula_sum "Si O2"
_cell_formula_units_Z 14
_cell_length_a 7.105952
_cell_length_b 7.819348
_cell_length_c 14.471692
_cell_angle_alpha 135.415873
_cell_angle_beta 85.461761
_cell_angle_gamma 88.024996
_cell_volume 557.916630
_symmetry_space_group_name_H-M "P -1"
_symmetry_group_IT_number 2
_symmetry_cell_setting 'triclinic'
loop_
_space_group_symop_operation_xyz
x,y,z
-x,-y,-z
loop_
_atom_site_type_symbol
_atom_site_label
_atom_site_fract_x
_atom_site_fract_y
_atom_site_fract_z
Si Si1 0.792734 0.432737 0.967224
Si Si2 0.614929 0.659742 0.738232
Si Si3 0.085084 0.002919 0.099247
Si Si4 0.210004 0.740893 0.306717
Si Si5 0.092053 0.281178 0.542106
Si Si6 0.252810 0.640309 0.549682
Si Si7 0.686152 0.972361 0.181970
O O1 0.759879 0.235579 0.972727
O O2 0.782761 0.308019 0.820570
O O3 0.000000 0.500000 0.000000
O O4 0.644798 0.687618 0.078778
O O5 0.609016 0.434921 0.723441
O O6 0.612393 0.552269 0.592783
O O7 0.442269 0.883052 0.839190
O O8 0.816081 0.757024 0.791487
O O9 0.907993 0.993379 0.169612
O O10 0.000000 0.000000 0.000000
O O11 0.011735 0.680615 0.339223
O O12 0.232585 0.024010 0.435687
O O13 0.208930 0.504777 0.596516
O O14 0.936569 0.261620 0.460929
O O15 0.357975 0.878812 0.663048
#
# Coordination Sequence:
#
# PCOD8042094 Si02
#       7
#     2   2   2   2   2   2   2
#     4  10  21  37  60  87 118 156 199 245 300 362
#     4  11  23  39  62  90 122 160 202 249 295 353
#     4  11  24  42  64  90 118 154 201 249 303 363
#     4  10  19  34  57  89 120 155 202 246 297 356
#     4   9  18  34  62  87 116 159 201 251 298 345
#     4  10  19  36  59  87 119 158 206 246 295 353
#     4  11  23  39  61  89 125 162 196 246 301 352
#
# _framework density 25.093353
#
# number of rings (size 3 to 8) (size 9 to 14) (size 15 to 20)
#    0.000    1.714    0.000    7.286    0.000    2.857 
#    0.000    2.143    0.000    0.000    0.000    0.000 
#    0.000    0.000    0.000    0.000    0.000    0.000 
#
# Total GULP energy -173476.059797 kJ/mol
# GULP energy per Si atom -12391.147128 kJ/mol
# Density = 2.503624 g / cm^3
# Si number density = 25.093353 Si / 1000 Ang^3
#
#
#
# Elastic Constant Matrix: (Units=GPa)
#
#
# Indices 1 2 3 4 5 6 
#
# 1 18.9483 8.6779 8.0664 11.3563 -9.8514 -11.4026
# 2 8.6779 179.6773 67.0095 27.5753 -11.3523 -23.4900
# 3 8.0664 67.0095 147.1493 13.7440 13.2770 -8.2845
# 4 11.3563 27.5753 13.7440 54.5764 -7.7930 -10.4159
# 5 -9.8514 -11.3523 13.2770 -7.7930 16.4736 10.6044
# 6 -11.4026 -23.4900 -8.2845 -10.4159 10.6044 36.6909
#
#
#
# Elastic Compliance Matrix: (Units=1/GPa)
#
#
# Indices 1 2 3 4 5 6 
#
# 1 0.101029 0.006981 -0.012810 -0.010039 0.063163 0.011869
# 2 0.006981 0.008453 -0.004863 -0.002419 0.011111 0.002585
# 3 -0.012810 -0.004863 0.011861 -0.000673 -0.022022 0.001757
# 4 -0.010039 -0.002419 -0.000673 0.022361 0.003031 0.000651
# 5 0.063163 0.011111 -0.022022 0.003031 0.136060 -0.016693
# 6 0.011869 0.002585 0.001757 0.000651 -0.016693 0.038005
#
#
# Mechanical properties :
#
#
# Convention : Reuss Voigt Hill
#
# Bulk Modulus (GPa) = 10.00409 57.03139 33.51774
# Shear Modulus (GPa) = 13.42374 39.01625 26.21999
#
# Velocity S-wave (km/s) = 2.31541 3.94743 3.23599
# Velocity P-wave (km/s) = 3.33820 6.59949 5.22957
#
# Compressibility (1/GPa) = 0.09995915
#
# Stress axis : x y z
#
# Youngs Moduli (GPa) = 9.89813 118.29615 84.30638
#
# Poissons Ratio (x) = -0.82586 1.08000
# Poissons Ratio (y) = -0.06910 0.41000
# Poissons Ratio (z) = 0.12680 0.57531
#
# Static dielectric constant tensor:
#      x y z
#    x 5.459970 -2.173610 -0.726640 
#    y -2.173610 8.468200 1.603630 
#    z -0.726640 1.603630 5.084280 
# 
# 
# High freq. dielectric constant tensor:
#      x y z
#    x 1.963460 -0.024330 0.002230 
#    y -0.024330 2.016220 0.027440 
#    z 0.002230 0.027440 2.003400 
# 
# From -- ./inp_files/494089.got.cif
#   From: 2010.06.25/outbox.cif.g09.slc.cpg/sg2_248_cif.got.tgz:494089.got - 2010.06.27 13:26:56.
