data_PCOD8042132
_publ_section_title
;
Structure prediction by ZEFSAII (Michael W. Deem and Ramdas Pophale) SiO2 
 PCOD8042132
Probable space group: P -1
;
_chemical_formula_sum "Si O2"
_cell_formula_units_Z 14
_cell_length_a 8.880576
_cell_length_b 12.372239
_cell_length_c 11.694979
_cell_angle_alpha 98.489529
_cell_angle_beta 143.035998
_cell_angle_gamma 90.014710
_cell_volume 748.947062
_symmetry_space_group_name_H-M "P -1"
_symmetry_group_IT_number 2
_symmetry_cell_setting 'triclinic'
loop_
_space_group_symop_operation_xyz
x,y,z
-x,-y,-z
loop_
_atom_site_type_symbol
_atom_site_label
_atom_site_fract_x
_atom_site_fract_y
_atom_site_fract_z
Si Si1 0.230573 0.197260 0.643910
Si Si2 0.964727 0.209710 0.264761
Si Si3 0.102524 0.431887 0.243111
Si Si4 0.556850 0.031351 0.910002
Si Si5 0.678228 0.203653 0.310386
Si Si6 0.544432 0.425160 0.346379
Si Si7 0.463646 0.558075 0.105488
O O1 0.345269 0.095045 0.742349
O O2 0.417725 0.311682 0.808408
O O3 0.193000 0.183842 0.480411
O O4 0.952846 0.196022 0.532922
O O5 0.732826 0.230270 0.211522
O O6 0.077007 0.315504 0.274260
O O7 0.843855 0.106936 0.090105
O O8 0.266410 0.428751 0.227906
O O9 0.236438 0.530645 0.422454
O O10 0.833385 0.457537 0.046688
O O11 0.523168 0.912528 0.806118
O O12 0.500000 0.000000 0.000000
O O13 0.554202 0.298288 0.305911
O O14 0.599887 0.500336 0.278324
O O15 0.500000 0.500000 0.000000
#
# Coordination Sequence:
#
# PCOD8042132 Si02
#       7
#     2   2   2   2   2   2   2
#     4  10  20  34  58  85 114 142 189 237 284 332
#     4   9  19  35  59  81 113 148 191 231 284 328
#     4  11  22  39  59  82 118 159 187 230 291 341
#     4  10  19  34  58  85 114 146 188 239 287 328
#     4   9  20  35  56  86 114 144 189 238 282 329
#     4  11  23  40  55  86 122 150 190 235 285 345
#     4  12  23  35  62  88 117 146 196 237 285 342
#
# _framework density 18.692910000000001
#
# number of rings (size 3 to 8) (size 9 to 14) (size 15 to 20)
#    0.857    0.857    2.857    2.571    2.000    1.714 
#    0.000    0.714    0.000    0.857    0.000    0.000 
#    0.000    0.000    0.000    0.000    0.000    0.000 
#
# Total GULP energy -173515.232897 kJ/mol
# GULP energy per Si atom -12393.945207 kJ/mol
# Density = 1.865036 g / cm^3
# Si number density = 18.692910 Si / 1000 Ang^3
#
#
#
# Elastic Constant Matrix: (Units=GPa)
#
#
# Indices 1 2 3 4 5 6 
#
# 1 47.6499 24.3897 22.8740 13.6784 -7.1406 -1.8732
# 2 24.3897 121.1774 34.6268 16.5895 -10.1117 -6.7137
# 3 22.8740 34.6268 84.8881 12.2271 6.0815 -10.3957
# 4 13.6784 16.5895 12.2271 42.6127 8.8832 -3.7618
# 5 -7.1406 -10.1117 6.0815 8.8832 20.3167 -1.1067
# 6 -1.8732 -6.7137 -10.3957 -3.7618 -1.1067 17.4446
#
#
#
# Elastic Compliance Matrix: (Units=1/GPa)
#
#
# Indices 1 2 3 4 5 6 
#
# 1 0.031079 -0.001189 -0.007915 -0.011147 0.017404 -0.003137
# 2 -0.001189 0.010975 -0.003956 -0.004349 0.008202 0.001321
# 3 -0.007915 -0.003956 0.016886 0.002041 -0.010290 0.007477
# 4 -0.011147 -0.004349 0.002041 0.032859 -0.020837 0.004109
# 5 0.017404 0.008202 -0.010290 -0.020837 0.071552 -0.001061
# 6 -0.003137 0.001321 0.007477 0.004109 -0.001061 0.062771
#
#
# Mechanical properties :
#
#
# Convention : Reuss Voigt Hill
#
# Bulk Modulus (GPa) = 30.46914 46.38849 38.42881
# Shear Modulus (GPa) = 18.99826 27.52980 23.26403
#
# Velocity S-wave (km/s) = 3.19146 3.84179 3.53163
# Velocity P-wave (km/s) = 5.46953 6.67451 6.10184
#
# Compressibility (1/GPa) = 0.03282009
#
# Stress axis : x y z
#
# Youngs Moduli (GPa) = 32.17595 91.11506 59.22231
#
# Poissons Ratio (x) = 0.10835 0.46874
# Poissons Ratio (y) = 0.03826 0.23427
# Poissons Ratio (z) = 0.25467 0.36043
#
# Static dielectric constant tensor:
#      x y z
#    x 3.039370 0.105040 0.013060 
#    y 0.105040 3.539540 0.383780 
#    z 0.013060 0.383780 4.025240 
# 
# 
# High freq. dielectric constant tensor:
#      x y z
#    x 1.679300 0.013650 0.000190 
#    y 0.013650 1.732900 0.010720 
#    z 0.000190 0.010720 1.743300 
# 
# From -- ./inp_files/267846.got.cif
#   From: 2010.06.25/outbox.cif.g09.slc.cpg/sg2_134_cif.got.tgz:267846.got - 2010.06.27 13:26:56.
