data_PCOD8042816
_publ_section_title
;
Structure prediction by ZEFSAII (Michael W. Deem and Ramdas Pophale) SiO2 
 PCOD8042816
Probable space group: P -1
;
_chemical_formula_sum "Si O2"
_cell_formula_units_Z 16
_cell_length_a 9.750237
_cell_length_b 32.462648
_cell_length_c 16.134412
_cell_angle_alpha 18.175678
_cell_angle_beta 134.266593
_cell_angle_gamma 144.025237
_cell_volume 862.880644
_symmetry_space_group_name_H-M "P -1"
_symmetry_group_IT_number 2
_symmetry_cell_setting 'triclinic'
loop_
_space_group_symop_operation_xyz
x,y,z
-x,-y,-z
loop_
_atom_site_type_symbol
_atom_site_label
_atom_site_fract_x
_atom_site_fract_y
_atom_site_fract_z
Si Si1 0.676711 0.943637 0.980416
Si Si2 0.998453 0.612783 0.891222
Si Si3 0.216385 0.046439 0.289050
Si Si4 0.659815 0.229338 0.419856
Si Si5 0.129451 0.686179 0.165151
Si Si6 0.067196 0.938505 0.720091
Si Si7 0.237103 0.757457 0.890812
Si Si8 0.083564 0.130495 0.660935
O O1 0.743397 0.123761 0.691796
O O2 0.415450 0.820597 0.057802
O O3 0.676726 0.846410 0.247341
O O4 0.869011 0.985704 0.910272
O O5 0.860233 0.687263 0.664206
O O6 0.251355 0.713215 0.748889
O O7 0.075717 0.643436 0.960859
O O8 0.798798 0.405202 0.194298
O O9 0.496209 0.202558 0.072974
O O10 0.118004 0.112564 0.184105
O O11 0.261558 0.926606 0.581847
O O12 0.001523 0.947838 0.316718
O O13 0.360113 0.103199 0.547886
O O14 0.000000 0.500000 0.500000
O O15 0.001612 0.759671 0.008212
O O16 0.095983 0.658509 0.105140
O O17 0.000000 0.000000 0.500000
#
# Coordination Sequence:
#
# PCOD8042816 Si02
#       8
#     2   2   2   2   2   2   2   2
#     4   9  18  36  57  77 109 153 182 222 281 340
#     4   9  18  34  59  85 107 148 189 235 273 330
#     4  10  19  35  62  88 108 145 200 236 274 334
#     4   9  19  35  54  84 116 144 186 228 290 330
#     4  11  23  40  56  83 120 152 183 229 295 342
#     4  11  21  37  59  86 113 148 190 240 282 332
#     4  10  19  37  62  84 112 150 191 235 282 335
#     4   9  17  33  58  82 106 143 194 227 268 335
#
# _framework density 18.542541
#
# number of rings (size 3 to 8) (size 9 to 14) (size 15 to 20)
#    0.000    2.250    2.500    0.750    3.500    1.000 
#    4.500    5.625    0.000    0.000    0.000    0.000 
#    0.000    0.000    0.000    0.000    0.000    0.000 
#
# Total GULP energy -198274.720205 kJ/mol
# GULP energy per Si atom -12392.170013 kJ/mol
# Density = 1.850034 g / cm^3
# Si number density = 18.542541 Si / 1000 Ang^3
#
#
#
# Elastic Constant Matrix: (Units=GPa)
#
#
# Indices 1 2 3 4 5 6 
#
# 1 122.7743 36.5546 45.6488 2.4663 11.2961 -14.3154
# 2 36.5546 68.1857 34.6353 14.1392 13.4839 -16.3869
# 3 45.6488 34.6353 105.7783 -2.4755 13.8444 -15.6704
# 4 2.4663 14.1392 -2.4755 28.4098 -2.8196 1.5510
# 5 11.2961 13.4839 13.8444 -2.8196 22.6806 -0.1289
# 6 -14.3154 -16.3869 -15.6704 1.5510 -0.1289 26.1109
#
#
#
# Elastic Compliance Matrix: (Units=1/GPa)
#
#
# Indices 1 2 3 4 5 6 
#
# 1 0.010637 -0.003591 -0.002976 0.000380 -0.001289 0.001763
# 2 -0.003591 0.028385 -0.004110 -0.016395 -0.014535 0.014281
# 3 -0.002976 -0.004110 0.013157 0.002890 -0.003726 0.003495
# 4 0.000380 -0.016395 0.002890 0.045506 0.013389 -0.010984
# 5 -0.001289 -0.014535 -0.003726 0.013389 0.057241 -0.012578
# 6 0.001763 0.014281 0.003495 -0.010984 -0.012578 0.050915
#
#
# Mechanical properties :
#
#
# Convention : Reuss Voigt Hill
#
# Bulk Modulus (GPa) = 32.44166 58.93507 45.68837
# Shear Modulus (GPa) = 21.05522 27.43358 24.24440
#
# Velocity S-wave (km/s) = 3.37339 3.85059 3.61986
# Velocity P-wave (km/s) = 5.71898 7.18485 6.49342
#
# Compressibility (1/GPa) = 0.03082456
#
# Stress axis : x y z
#
# Youngs Moduli (GPa) = 94.00897 35.22981 76.00607
#
# Poissons Ratio (x) = 0.12652 0.22618
# Poissons Ratio (y) = 0.33762 0.31240
# Poissons Ratio (z) = 0.27975 0.14480
#
# Static dielectric constant tensor:
#      x y z
#    x 2.716830 0.599390 -0.294650 
#    y 0.599390 2.900360 0.739710 
#    z -0.294650 0.739710 2.855070 
# 
# 
# High freq. dielectric constant tensor:
#      x y z
#    x 1.716570 -0.003680 0.008060 
#    y -0.003680 1.719560 0.009660 
#    z 0.008060 0.009660 1.704150 
# 
# From -- ./inp_files/285044.got.cif
#   From: 2010.06.25/outbox.cif.g09.slc.cpg/sg2_143_cif.got.tgz:285044.got - 2010.06.27 13:26:56.
