data_PCOD8042554
_publ_section_title
;
Structure prediction by ZEFSAII (Michael W. Deem and Ramdas Pophale) SiO2 
 PCOD8042554
Probable space group: P -1
;
_chemical_formula_sum "Si O2"
_cell_formula_units_Z 16
_cell_length_a 16.328647
_cell_length_b 8.560317
_cell_length_c 14.380843
_cell_angle_alpha 122.321770
_cell_angle_beta 39.945496
_cell_angle_gamma 91.640168
_cell_volume 775.945865
_symmetry_space_group_name_H-M "P -1"
_symmetry_group_IT_number 2
_symmetry_cell_setting 'triclinic'
loop_
_space_group_symop_operation_xyz
x,y,z
-x,-y,-z
loop_
_atom_site_type_symbol
_atom_site_label
_atom_site_fract_x
_atom_site_fract_y
_atom_site_fract_z
Si Si1 0.972466 0.628880 0.159882
Si Si2 0.640231 0.745658 0.502652
Si Si3 0.233296 0.795734 0.462882
Si Si4 0.866576 0.400659 0.654592
Si Si5 0.430764 0.326711 0.854631
Si Si6 0.599668 0.673682 0.711354
Si Si7 0.750247 0.828955 0.750563
Si Si8 0.640972 0.694607 0.279044
O O1 0.824038 0.657149 0.350479
O O2 0.902039 0.908318 0.291903
O O3 0.000000 0.500000 0.000000
O O4 0.169051 0.431705 0.971706
O O5 0.585420 0.667508 0.609984
O O6 0.662525 0.607673 0.341104
O O7 0.488048 0.054281 0.720887
O O8 0.137885 0.781534 0.459261
O O9 0.421710 0.692727 0.231339
O O10 0.273726 0.619649 0.457671
O O11 0.776700 0.660766 0.759722
O O12 0.070398 0.241548 0.453182
O O13 0.758752 0.465075 0.862669
O O14 0.420308 0.393555 0.773735
O O15 0.686303 0.783105 0.700339
O O16 0.400956 0.867869 0.991701
O O17 0.500000 0.000000 0.500000
#
# Coordination Sequence:
#
# PCOD8042554 Si02
#       8
#     2   2   2   2   2   2   2   2
#     4   9  19  38  59  79 112 149 192 241 285 339
#     4   9  18  35  60  82 110 154 196 232 285 341
#     4  10  22  36  56  84 120 151 191 242 283 343
#     4  10  19  36  55  87 118 157 191 236 285 340
#     4  10  19  35  58  82 118 153 192 236 291 332
#     4  10  19  37  57  85 118 157 190 232 291 340
#     4   9  20  34  57  82 123 156 193 229 284 351
#     4   9  19  35  57  85 106 142 199 242 275 337
#
# _framework density 20.619994999999999
#
# number of rings (size 3 to 8) (size 9 to 14) (size 15 to 20)
#    0.000    2.500    1.250    1.125    1.750    1.000 
#    0.000    4.375    0.000    0.000    0.000    0.000 
#    0.000    0.000    0.000    0.000    0.000    0.000 
#
# Total GULP energy -198227.955243 kJ/mol
# GULP energy per Si atom -12389.247203 kJ/mol
# Density = 2.057306 g / cm^3
# Si number density = 20.619995 Si / 1000 Ang^3
#
#
#
# Elastic Constant Matrix: (Units=GPa)
#
#
# Indices 1 2 3 4 5 6 
#
# 1 88.8035 20.9056 48.7379 -10.7710 3.8673 -0.9449
# 2 20.9056 49.4517 37.2772 -2.2880 12.3948 -0.9869
# 3 48.7379 37.2772 131.7136 -2.3214 -8.5624 3.9903
# 4 -10.7710 -2.2880 -2.3214 28.3304 0.3769 2.8860
# 5 3.8673 12.3948 -8.5624 0.3769 38.1163 -7.2215
# 6 -0.9449 -0.9869 3.9903 2.8860 -7.2215 30.6660
#
#
#
# Elastic Compliance Matrix: (Units=1/GPa)
#
#
# Indices 1 2 3 4 5 6 
#
# 1 0.015261 -0.001730 -0.005210 0.005256 -0.002193 0.000081
# 2 -0.001730 0.030565 -0.008734 0.001341 -0.011903 -0.000862
# 3 -0.005210 -0.008734 0.012371 -0.001707 0.006078 -0.000460
# 4 0.005256 0.001341 -0.001707 0.037673 -0.002424 -0.003689
# 5 -0.002193 -0.011903 0.006078 -0.002424 0.032998 0.006757
# 6 0.000081 -0.000862 -0.000460 -0.003689 0.006757 0.034582
#
#
# Mechanical properties :
#
#
# Convention : Reuss Voigt Hill
#
# Bulk Modulus (GPa) = 37.24516 53.75670 45.50093
# Shear Modulus (GPa) = 24.54000 30.29242 27.41621
#
# Velocity S-wave (km/s) = 3.45354 3.83702 3.65031
# Velocity P-wave (km/s) = 5.83133 6.76439 6.31512
#
# Compressibility (1/GPa) = 0.02684913
#
# Stress axis : x y z
#
# Youngs Moduli (GPa) = 65.52510 32.71681 80.83446
#
# Poissons Ratio (x) = 0.05660 0.42114
# Poissons Ratio (y) = 0.11336 0.70604
# Poissons Ratio (z) = 0.34138 0.28576
#
# Static dielectric constant tensor:
#      x y z
#    x 4.040310 0.043880 -0.020650 
#    y 0.043880 3.330370 -0.050180 
#    z -0.020650 -0.050180 3.720800 
# 
# 
# High freq. dielectric constant tensor:
#      x y z
#    x 1.814740 -0.000740 -0.005580 
#    y -0.000740 1.763080 0.000060 
#    z -0.005580 0.000060 1.815760 
# 
# From -- ./inp_files/215491.got.cif
#   From: 2010.06.25/outbox.cif.g09.slc.cpg/sg2_108_cif.got.tgz:215491.got - 2010.06.27 13:26:56.
