data_PCOD8042361
_publ_section_title
;
Structure prediction by ZEFSAII (Michael W. Deem and Ramdas Pophale) SiO2 
 PCOD8042361
Probable space group: P -1
;
_chemical_formula_sum "Si O2"
_cell_formula_units_Z 14
_cell_length_a 21.466624
_cell_length_b 8.968737
_cell_length_c 9.962658
_cell_angle_alpha 135.914400
_cell_angle_beta 37.200913
_cell_angle_gamma 129.137706
_cell_volume 798.854948
_symmetry_space_group_name_H-M "P -1"
_symmetry_group_IT_number 2
_symmetry_cell_setting 'triclinic'
loop_
_space_group_symop_operation_xyz
x,y,z
-x,-y,-z
loop_
_atom_site_type_symbol
_atom_site_label
_atom_site_fract_x
_atom_site_fract_y
_atom_site_fract_z
Si Si1 0.242938 0.557585 0.770924
Si Si2 0.083458 0.798156 0.090352
Si Si3 0.485531 0.846029 0.797025
Si Si4 0.403950 0.954143 0.733638
Si Si5 0.766958 0.784783 0.913068
Si Si6 0.337691 0.405410 0.764278
Si Si7 0.132635 0.402594 0.614813
O O1 0.351365 0.705915 0.641785
O O2 0.254588 0.434976 0.810123
O O3 0.211907 0.384726 0.592318
O O4 0.152227 0.713504 0.039202
O O5 0.963666 0.794650 0.339102
O O6 0.134535 0.034072 0.108051
O O7 0.087581 0.632527 0.849607
O O8 0.440890 0.981862 0.842428
O O9 0.407902 0.629953 0.826800
O O10 0.594721 0.777478 0.517657
O O11 0.500000 0.000000 0.000000
O O12 0.500000 0.000000 0.500000
O O13 0.324897 0.121100 0.945728
O O14 0.805998 0.605613 0.634235
O O15 0.728574 0.673662 0.044197
#
# Coordination Sequence:
#
# PCOD8042361 Si02
#       7
#     2   2   2   2   2   2   2
#     4   8  18  35  54  70 107 138 163 212 261 300
#     4   8  18  36  57  74 106 132 173 218 252 307
#     4  10  22  36  53  68 107 147 171 203 261 302
#     4  10  19  35  51  77 106 136 171 216 250 301
#     4  11  20  32  57  80 103 134 176 214 255 302
#     4  10  21  36  48  79 108 131 171 221 250 301
#     4   9  18  35  59  76  98 139 179 205 260 310
#
# _framework density 17.525085000000001
#
# number of rings (size 3 to 8) (size 9 to 14) (size 15 to 20)
#    0.857    1.714    1.429    0.429    2.000    2.286 
#    0.000    2.857    0.000    0.000    0.000    0.000 
#    0.000    0.000    0.000    0.000    0.000    0.000 
#
# Total GULP energy -173508.545436 kJ/mol
# GULP energy per Si atom -12393.467531 kJ/mol
# Density = 1.748520 g / cm^3
# Si number density = 17.525085 Si / 1000 Ang^3
#
#
#
# Elastic Constant Matrix: (Units=GPa)
#
#
# Indices 1 2 3 4 5 6 
#
# 1 107.2246 59.9056 50.1921 -21.7614 15.7748 3.4009
# 2 59.9056 76.1942 49.3527 -19.5234 13.8192 -3.0991
# 3 50.1921 49.3527 115.1884 -19.9105 18.2218 0.9717
# 4 -21.7614 -19.5234 -19.9105 26.6512 0.1545 3.4890
# 5 15.7748 13.8192 18.2218 0.1545 24.1235 -1.4305
# 6 3.4009 -3.0991 0.9717 3.4890 -1.4305 28.9707
#
#
#
# Elastic Compliance Matrix: (Units=1/GPa)
#
#
# Indices 1 2 3 4 5 6 
#
# 1 0.018373 -0.011280 -0.001255 0.006397 -0.004902 -0.004334
# 2 -0.011280 0.028184 -0.005221 0.007113 -0.004667 0.003427
# 3 -0.001255 -0.005221 0.013456 0.005482 -0.006497 -0.001844
# 4 0.006397 0.007113 0.005482 0.053072 -0.013166 -0.007216
# 5 -0.004902 -0.004667 -0.006497 -0.013166 0.052590 0.004476
# 6 -0.004334 0.003427 -0.001844 -0.007216 0.004476 0.036545
#
#
# Mechanical properties :
#
#
# Convention : Reuss Voigt Hill
#
# Bulk Modulus (GPa) = 40.81683 68.61202 54.71443
# Shear Modulus (GPa) = 20.33356 25.22621 22.77989
#
# Velocity S-wave (km/s) = 3.40995 3.79810 3.60925
# Velocity P-wave (km/s) = 6.23255 7.64656 6.97548
#
# Compressibility (1/GPa) = 0.02449970
#
# Stress axis : x y z
#
# Youngs Moduli (GPa) = 54.42821 35.48173 74.31500
#
# Poissons Ratio (x) = 0.40025 0.09326
# Poissons Ratio (y) = 0.61397 0.38801
# Poissons Ratio (z) = 0.06830 0.18525
#
# Static dielectric constant tensor:
#      x y z
#    x 3.325080 0.132030 -0.112850 
#    y 0.132030 3.197430 -0.056860 
#    z -0.112850 -0.056860 3.072280 
# 
# 
# High freq. dielectric constant tensor:
#      x y z
#    x 1.673570 0.014330 -0.005610 
#    y 0.014330 1.669480 -0.005550 
#    z -0.005610 -0.005550 1.666560 
# 
# From -- ./inp_files/201762.got.cif
#   From: 2010.06.25/outbox.cif.g09.slc.cpg/sg2_101_cif.got.tgz:201762.got - 2010.06.27 13:26:56.
