data_PCOD8042790
_publ_section_title
;
Structure prediction by ZEFSAII (Michael W. Deem and Ramdas Pophale) SiO2 
 PCOD8042790
Probable space group: P -1
;
_chemical_formula_sum "Si O2"
_cell_formula_units_Z 14
_cell_length_a 7.923382
_cell_length_b 11.116618
_cell_length_c 11.916578
_cell_angle_alpha 46.394582
_cell_angle_beta 116.846192
_cell_angle_gamma 106.186097
_cell_volume 677.256546
_symmetry_space_group_name_H-M "P -1"
_symmetry_group_IT_number 2
_symmetry_cell_setting 'triclinic'
loop_
_space_group_symop_operation_xyz
x,y,z
-x,-y,-z
loop_
_atom_site_type_symbol
_atom_site_label
_atom_site_fract_x
_atom_site_fract_y
_atom_site_fract_z
Si Si1 0.882028 0.218349 0.750515
Si Si2 0.747309 0.640068 0.777026
Si Si3 0.712040 0.723160 0.154113
Si Si4 0.843724 0.271083 0.133233
Si Si5 0.165765 0.954066 0.935409
Si Si6 0.518877 0.693716 0.883294
Si Si7 0.453746 0.560923 0.570681
O O1 0.724909 0.307869 0.567246
O O2 0.063937 0.333912 0.742411
O O3 0.797298 0.189101 0.867783
O O4 0.952349 0.039451 0.833303
O O5 0.621868 0.742984 0.767224
O O6 0.633840 0.648354 0.620401
O O7 0.941428 0.732750 0.755184
O O8 0.790729 0.449922 0.948143
O O9 0.589010 0.591540 0.263743
O O10 0.684295 0.901078 0.095839
O O11 0.644967 0.747532 0.990802
O O12 0.814540 0.126744 0.127611
O O13 0.698069 0.230436 0.216621
O O14 0.500000 0.500000 0.000000
O O15 0.500000 0.500000 0.500000
#
# Coordination Sequence:
#
# PCOD8042790 Si02
#       7
#     2   2   2   2   2   2   2
#     4   9  21  38  60  89 124 160 199 257 307 364
#     4  10  22  38  61  92 123 160 209 256 306 357
#     4  10  20  39  62  93 118 159 207 254 304 361
#     4  10  19  38  61  90 120 156 208 262 288 368
#     4   9  20  39  65  91 119 161 210 251 313 355
#     4  10  19  35  61  93 116 156 212 252 300 358
#     4  12  23  39  58  94 127 161 202 250 316 365
#
# _framework density 20.671633
#
# number of rings (size 3 to 8) (size 9 to 14) (size 15 to 20)
#    0.857    1.143    2.857    2.143    0.000    2.857 
#    2.571    0.714    0.000    1.714    0.000    0.000 
#    0.000    0.000    0.000    0.000    0.000    0.000 
#
# Total GULP energy -173496.830552 kJ/mol
# GULP energy per Si atom -12392.630754 kJ/mol
# Density = 2.062458 g / cm^3
# Si number density = 20.671633 Si / 1000 Ang^3
#
#
#
# Elastic Constant Matrix: (Units=GPa)
#
#
# Indices 1 2 3 4 5 6 
#
# 1 130.0885 50.1884 43.7231 26.4779 16.2906 -4.5668
# 2 50.1884 129.0427 34.3727 31.4237 8.6538 -1.7066
# 3 43.7231 34.3727 51.3672 27.8390 -0.3707 5.5628
# 4 26.4779 31.4237 27.8390 32.3305 6.1511 1.2992
# 5 16.2906 8.6538 -0.3707 6.1511 19.0350 10.9241
# 6 -4.5668 -1.7066 5.5628 1.2992 10.9241 35.1989
#
#
#
# Elastic Compliance Matrix: (Units=1/GPa)
#
#
# Indices 1 2 3 4 5 6 
#
# 1 0.016143 -0.001662 -0.018498 0.008187 -0.022784 0.011706
# 2 -0.001662 0.010855 -0.002378 -0.006766 -0.002323 0.001657
# 3 -0.018498 -0.002378 0.065528 -0.047127 0.048431 -0.026163
# 4 0.008187 -0.006766 -0.047127 0.078351 -0.040399 0.017828
# 5 -0.022784 -0.002323 0.048431 -0.040399 0.112406 -0.044117
# 6 0.011706 0.001657 -0.026163 0.017828 -0.044117 0.047178
#
#
# Mechanical properties :
#
#
# Convention : Reuss Voigt Hill
#
# Bulk Modulus (GPa) = 21.07515 63.00743 42.04129
# Shear Modulus (GPa) = 12.77619 29.46050 21.11834
#
# Velocity S-wave (km/s) = 2.48877 3.77923 3.19973
# Velocity P-wave (km/s) = 4.29837 7.04200 5.83377
#
# Compressibility (1/GPa) = 0.04744924
#
# Stress axis : x y z
#
# Youngs Moduli (GPa) = 61.94507 92.12732 15.26075
#
# Poissons Ratio (x) = 0.15315 0.28229
# Poissons Ratio (y) = 0.10297 0.03629
# Poissons Ratio (z) = 1.14585 0.21907
#
# Static dielectric constant tensor:
#      x y z
#    x 4.247530 -0.083270 0.094900 
#    y -0.083270 3.646330 0.132700 
#    z 0.094900 0.132700 3.328580 
# 
# 
# High freq. dielectric constant tensor:
#      x y z
#    x 1.822070 0.000900 0.009580 
#    y 0.000900 1.807880 0.016410 
#    z 0.009580 0.016410 1.761380 
# 
# From -- ./inp_files/389172.got.cif
#   From: 2010.06.25/outbox.cif.g09.slc.cpg/sg2_195_cif.got.tgz:389172.got - 2010.06.27 13:26:56.
