data_PCOD8042219
_publ_section_title
;
Structure prediction by ZEFSAII (Michael W. Deem and Ramdas Pophale) SiO2 
 PCOD8042219
Probable space group: P -1
;
_chemical_formula_sum "Si O2"
_cell_formula_units_Z 16
_cell_length_a 18.166832
_cell_length_b 20.348372
_cell_length_c 11.626104
_cell_angle_alpha 28.578808
_cell_angle_beta 28.592978
_cell_angle_gamma 27.853787
_cell_volume 855.521243
_symmetry_space_group_name_H-M "P -1"
_symmetry_group_IT_number 2
_symmetry_cell_setting 'triclinic'
loop_
_space_group_symop_operation_xyz
x,y,z
-x,-y,-z
loop_
_atom_site_type_symbol
_atom_site_label
_atom_site_fract_x
_atom_site_fract_y
_atom_site_fract_z
Si Si1 0.176545 0.834760 0.404020
Si Si2 0.399852 0.185913 0.859956
Si Si3 0.338627 0.702469 0.631127
Si Si4 0.748226 0.665312 0.920704
Si Si5 0.515186 0.637788 0.113318
Si Si6 0.036157 0.191373 0.989330
Si Si7 0.670881 0.834247 0.543507
Si Si8 0.045144 0.326087 0.003323
O O1 0.275949 0.780210 0.472560
O O2 0.311121 0.764775 0.219943
O O3 0.090162 0.023008 0.230983
O O4 0.033397 0.776722 0.670961
O O5 0.549004 0.233086 0.555701
O O6 0.248744 0.257114 0.862161
O O7 0.310068 0.250783 0.006452
O O8 0.500000 0.000000 0.000000
O O9 0.470531 0.516439 0.725067
O O10 0.164955 0.738174 0.889219
O O11 0.733078 0.800889 0.643705
O O12 0.941979 0.510449 0.898600
O O13 0.617745 0.600523 0.154083
O O14 0.608030 0.706977 0.792943
O O15 0.163083 0.183576 0.726536
O O16 0.035043 0.311233 0.902694
O O17 0.500000 0.000000 0.500000
#
# Coordination Sequence:
#
# PCOD8042219 Si02
#       8
#     2   2   2   2   2   2   2   2
#     4  11  17  33  56  86 117 145 193 239 286 338
#     4  12  24  38  58  88 125 158 185 237 301 356
#     4  11  20  35  57  86 118 146 193 244 292 336
#     4  10  21  39  58  86 118 156 191 239 286 348
#     4  10  19  34  60  85 113 149 188 248 280 335
#     4  11  20  34  60  89 116 148 194 245 282 340
#     4  10  20  36  61  91 114 149 199 247 286 331
#     4  11  23  35  58  91 120 154 186 240 301 349
#
# _framework density 18.702048000000001
#
# number of rings (size 3 to 8) (size 9 to 14) (size 15 to 20)
#    0.750    0.500    5.000    4.500    1.750    2.000 
#    0.000    0.000    0.000    7.500    0.000    0.000 
#    0.000    0.000    0.000    0.000    0.000    0.000 
#
# Total GULP energy -198298.769853 kJ/mol
# GULP energy per Si atom -12393.673116 kJ/mol
# Density = 1.865948 g / cm^3
# Si number density = 18.702048 Si / 1000 Ang^3
#
#
#
# Elastic Constant Matrix: (Units=GPa)
#
#
# Indices 1 2 3 4 5 6 
#
# 1 53.2938 25.8452 36.9029 6.3172 -19.2783 -12.0857
# 2 25.8452 124.6180 29.5753 1.8575 -12.9547 -7.3964
# 3 36.9029 29.5753 93.3787 16.9296 -17.3504 0.3467
# 4 6.3172 1.8575 16.9296 43.9998 -1.1425 -0.9621
# 5 -19.2783 -12.9547 -17.3504 -1.1425 31.8775 5.4125
# 6 -12.0857 -7.3964 0.3467 -0.9621 5.4125 23.6638
#
#
#
# Elastic Compliance Matrix: (Units=1/GPa)
#
#
# Indices 1 2 3 4 5 6 
#
# 1 0.035183 -0.002611 -0.010921 -0.000114 0.011787 0.014612
# 2 -0.002611 0.009171 -0.001839 0.000750 0.000940 0.001375
# 3 -0.010921 -0.001839 0.017105 -0.005017 0.003017 -0.007297
# 4 -0.000114 0.000750 -0.005017 0.024630 -0.001898 0.001685
# 5 0.011787 0.000940 0.003017 -0.001898 0.040995 -0.003184
# 6 0.014612 0.001375 -0.007297 0.001685 -0.003184 0.051055
#
#
# Mechanical properties :
#
#
# Convention : Reuss Voigt Hill
#
# Bulk Modulus (GPa) = 32.55514 50.65970 41.60742
# Shear Modulus (GPa) = 22.81862 31.83937 27.32899
#
# Velocity S-wave (km/s) = 3.49680 4.13056 3.82682
# Velocity P-wave (km/s) = 5.80935 7.06366 6.46698
#
# Compressibility (1/GPa) = 0.03071712
#
# Stress axis : x y z
#
# Youngs Moduli (GPa) = 28.42272 109.04338 58.46347
#
# Poissons Ratio (x) = 0.28467 0.63847
# Poissons Ratio (y) = 0.07420 0.10753
# Poissons Ratio (z) = 0.31040 0.20055
#
# Static dielectric constant tensor:
#      x y z
#    x 3.057990 -0.140540 -0.113080 
#    y -0.140540 3.656840 0.078970 
#    z -0.113080 0.078970 3.539070 
# 
# 
# High freq. dielectric constant tensor:
#      x y z
#    x 1.676240 -0.013730 -0.009590 
#    y -0.013730 1.750530 0.002430 
#    z -0.009590 0.002430 1.724250 
# 
# From -- ./inp_files/466407.got.cif
#   From: 2010.06.25/outbox.cif.g09.slc.cpg/sg2_234_cif.got.tgz:466407.got - 2010.06.27 13:26:56.
