data_PCOD8042996
_publ_section_title
;
Structure prediction by ZEFSAII (Michael W. Deem and Ramdas Pophale) SiO2 
 PCOD8042996
Probable space group: P -1
;
_chemical_formula_sum "Si O2"
_cell_formula_units_Z 16
_cell_length_a 14.251252
_cell_length_b 8.741719
_cell_length_c 17.495201
_cell_angle_alpha 94.774574
_cell_angle_beta 21.041549
_cell_angle_gamma 93.409642
_cell_volume 778.833411
_symmetry_space_group_name_H-M "P -1"
_symmetry_group_IT_number 2
_symmetry_cell_setting 'triclinic'
loop_
_space_group_symop_operation_xyz
x,y,z
-x,-y,-z
loop_
_atom_site_type_symbol
_atom_site_label
_atom_site_fract_x
_atom_site_fract_y
_atom_site_fract_z
Si Si1 0.504882 0.414536 0.277425
Si Si2 0.077642 0.461369 0.853493
Si Si3 0.885402 0.136803 0.376080
Si Si4 0.604665 0.352777 0.490485
Si Si5 0.721095 0.890609 0.601077
Si Si6 0.450765 0.048145 0.952340
Si Si7 0.040359 0.587043 0.567799
Si Si8 0.820081 0.296028 0.690418
O O1 0.441857 0.506327 0.407986
O O2 0.437757 0.236361 0.328455
O O3 0.324022 0.493780 0.352176
O O4 0.807741 0.410733 0.018892
O O5 0.321021 0.332399 0.664684
O O6 0.178942 0.606016 0.735089
O O7 0.000000 0.500000 0.000000
O O8 0.702078 0.189334 0.446190
O O9 0.992486 0.293091 0.334610
O O10 0.710547 0.043597 0.563495
O O11 0.151504 0.038765 0.150148
O O12 0.019334 0.828459 0.384307
O O13 0.609027 0.931810 0.771481
O O14 0.541960 0.224383 0.882727
O O15 0.500000 0.000000 0.000000
O O16 0.019814 0.680195 0.508539
O O17 0.810253 0.464581 0.745240
#
# Coordination Sequence:
#
# PCOD8042996 Si02
#       8
#     2   2   2   2   2   2   2   2
#     4   9  20  36  60  84 110 149 183 228 280 327
#     4   9  18  37  63  88 113 138 173 224 285 337
#     4  11  22  36  55  82 112 146 185 232 277 327
#     4   9  20  37  62  89 110 138 182 228 276 336
#     4  11  22  39  54  77 120 150 187 234 275 322
#     4  12  23  34  56  79 110 161 195 222 278 333
#     4   9  19  35  55  79 110 145 186 243 271 309
#     4  10  19  36  55  75 110 151 192 231 276 314
#
# _framework density 20.543544000000001
#
# number of rings (size 3 to 8) (size 9 to 14) (size 15 to 20)
#    0.000    2.000    2.500    1.125    1.750    2.500 
#    2.250    0.625    0.000    7.500    0.000    0.000 
#    0.000    0.000    0.000    0.000    0.000    0.000 
#
# Total GULP energy -198246.175350 kJ/mol
# GULP energy per Si atom -12390.385959 kJ/mol
# Density = 2.049679 g / cm^3
# Si number density = 20.543544 Si / 1000 Ang^3
#
#
#
# Elastic Constant Matrix: (Units=GPa)
#
#
# Indices 1 2 3 4 5 6 
#
# 1 57.0317 21.9034 26.3110 -5.6543 -2.4537 -26.1371
# 2 21.9034 82.7943 28.4868 -8.6026 2.9449 -13.3376
# 3 26.3110 28.4868 100.0208 -12.3515 -7.8732 -8.6464
# 4 -5.6543 -8.6026 -12.3515 14.6198 -2.4822 -2.7703
# 5 -2.4537 2.9449 -7.8732 -2.4822 34.9353 -2.8662
# 6 -26.1371 -13.3376 -8.6464 -2.7703 -2.8662 39.9539
#
#
#
# Elastic Compliance Matrix: (Units=1/GPa)
#
#
# Indices 1 2 3 4 5 6 
#
# 1 0.030437 -0.002569 -0.003917 0.011255 0.003852 0.019263
# 2 -0.002569 0.014811 -0.002677 0.005792 -0.001376 0.002987
# 3 -0.003917 -0.002677 0.013164 0.008683 0.003555 0.000250
# 4 0.011255 0.005792 0.008683 0.088619 0.010036 0.018040
# 5 0.003852 -0.001376 0.003555 0.010036 0.030997 0.005749
# 6 0.019263 0.002987 0.000250 0.018040 0.005749 0.040345
#
#
# Mechanical properties :
#
#
# Convention : Reuss Voigt Hill
#
# Bulk Modulus (GPa) = 24.94605 43.69436 34.32021
# Shear Modulus (GPa) = 19.99507 28.77818 24.38663
#
# Velocity S-wave (km/s) = 3.12316 3.74684 3.44913
# Velocity P-wave (km/s) = 5.01746 6.32722 5.71002
#
# Compressibility (1/GPa) = 0.04008650
#
# Stress axis : x y z
#
# Youngs Moduli (GPa) = 32.85437 67.51786 75.96261
#
# Poissons Ratio (x) = 0.17346 0.29752
# Poissons Ratio (y) = 0.08440 0.20337
# Poissons Ratio (z) = 0.12868 0.18076
#
# Static dielectric constant tensor:
#      x y z
#    x 3.846970 -0.119000 -0.383770 
#    y -0.119000 3.693950 -0.086680 
#    z -0.383770 -0.086680 3.854370 
# 
# 
# High freq. dielectric constant tensor:
#      x y z
#    x 1.794280 -0.016040 -0.010870 
#    y -0.016040 1.788860 -0.008830 
#    z -0.010870 -0.008830 1.798080 
# 
# From -- ./inp_files/44581.got.cif
#   From: 2010.06.25/outbox.cif.g09.slc.cpg/sg2_23_cif.got.tgz:44581.got - 2010.06.27 13:26:56.
