data_PCOD8042734
_publ_section_title
;
Structure prediction by ZEFSAII (Michael W. Deem and Ramdas Pophale) SiO2 
 PCOD8042734
Probable space group: P -1
;
_chemical_formula_sum "Si O2"
_cell_formula_units_Z 16
_cell_length_a 10.464901
_cell_length_b 15.717878
_cell_length_c 15.130253
_cell_angle_alpha 152.828184
_cell_angle_beta 138.639458
_cell_angle_gamma 58.103105
_cell_volume 666.130947
_symmetry_space_group_name_H-M "P -1"
_symmetry_group_IT_number 2
_symmetry_cell_setting 'triclinic'
loop_
_space_group_symop_operation_xyz
x,y,z
-x,-y,-z
loop_
_atom_site_type_symbol
_atom_site_label
_atom_site_fract_x
_atom_site_fract_y
_atom_site_fract_z
Si Si1 0.812238 0.370286 0.903236
Si Si2 0.913837 0.172734 0.606330
Si Si3 0.108922 0.970979 0.828693
Si Si4 0.672494 0.158480 0.304852
Si Si5 0.662083 0.842551 0.577897
Si Si6 0.260391 0.839436 0.945362
Si Si7 0.781243 0.568369 0.493849
Si Si8 0.151598 0.394547 0.231194
O O1 0.852453 0.225920 0.718600
O O2 0.555109 0.270247 0.697052
O O3 0.906021 0.611777 0.144549
O O4 0.916380 0.350056 0.030267
O O5 0.690966 0.084314 0.346702
O O6 0.000000 0.000000 0.500000
O O7 0.102087 0.814542 0.602368
O O8 0.293470 0.994053 0.021288
O O9 0.868950 0.903995 0.679594
O O10 0.204350 0.206756 0.055957
O O11 0.670625 0.383508 0.513078
O O12 0.500000 0.000000 0.000000
O O13 0.639801 0.684400 0.500501
O O14 0.675342 0.048790 0.823562
O O15 0.361256 0.678526 0.834051
O O16 0.000776 0.686722 0.660004
O O17 0.850725 0.595581 0.656094
#
# Coordination Sequence:
#
# PCOD8042734 Si02
#       8
#     2   2   2   2   2   2   2   2
#     4  10  25  41  65  93 125 164 212 253 306 379
#     4  10  23  49  65  84 127 169 207 259 311 363
#     4  11  21  39  63  93 130 160 197 260 317 360
#     4  11  26  41  65  93 118 159 217 263 305 368
#     4  11  22  38  63  99 126 165 206 248 312 382
#     4  10  19  35  60  92 126 162 199 249 305 370
#     4  10  19  35  63  87 128 166 199 250 312 359
#     4  11  21  41  61  89 127 162 200 263 309 361
#
# _framework density 24.019300999999999
#
# number of rings (size 3 to 8) (size 9 to 14) (size 15 to 20)
#    0.000    1.500    3.750    1.500    1.750    3.000 
#    0.000    2.500    0.000    0.000    0.000    0.000 
#    0.000    0.000    0.000    0.000    0.000    0.000 
#
# Total GULP energy -198278.159180 kJ/mol
# GULP energy per Si atom -12392.384949 kJ/mol
# Density = 2.396463 g / cm^3
# Si number density = 24.019301 Si / 1000 Ang^3
#
#
#
# Elastic Constant Matrix: (Units=GPa)
#
#
# Indices 1 2 3 4 5 6 
#
# 1 36.1195 -1.9784 -3.0349 -2.1314 -18.9487 3.5050
# 2 -1.9784 129.9917 49.1852 7.0414 -5.7111 -6.6405
# 3 -3.0349 49.1852 107.1743 -2.8869 -7.1868 -17.2315
# 4 -2.1314 7.0414 -2.8869 52.1778 -6.1777 -6.0383
# 5 -18.9487 -5.7111 -7.1868 -6.1777 20.5230 0.4803
# 6 3.5050 -6.6405 -17.2315 -6.0383 0.4803 26.8280
#
#
#
# Elastic Compliance Matrix: (Units=1/GPa)
#
#
# Indices 1 2 3 4 5 6 
#
# 1 0.061513 0.001019 0.005126 0.009582 0.061837 -0.003443
# 2 0.001019 0.009472 -0.004400 -0.001397 0.001637 -0.000958
# 3 0.005126 -0.004400 0.013398 0.003483 0.009073 0.007468
# 4 0.009582 -0.001397 0.003483 0.022497 0.016323 0.005411
# 5 0.061837 0.001637 0.009073 0.016323 0.114372 -0.000219
# 6 -0.003443 -0.000958 0.007468 0.005411 -0.000219 0.043506
#
#
# Mechanical properties :
#
#
# Convention : Reuss Voigt Hill
#
# Bulk Modulus (GPa) = 11.38030 40.18101 25.78066
# Shear Modulus (GPa) = 17.20827 35.17999 26.19413
#
# Velocity S-wave (km/s) = 2.67953 3.83123 3.30592
# Velocity P-wave (km/s) = 3.78437 6.02794 5.03277
#
# Compressibility (1/GPa) = 0.08787111
#
# Stress axis : x y z
#
# Youngs Moduli (GPa) = 16.25684 105.57688 74.63804
#
# Poissons Ratio (x) = -0.10755 -0.38256
# Poissons Ratio (y) = -0.01656 0.32840
# Poissons Ratio (z) = -0.08333 0.46453
#
# Static dielectric constant tensor:
#      x y z
#    x 4.568260 -0.085410 -0.101140 
#    y -0.085410 4.687680 0.304770 
#    z -0.101140 0.304770 4.614220 
# 
# 
# High freq. dielectric constant tensor:
#      x y z
#    x 1.942760 -0.003020 -0.008550 
#    y -0.003020 1.957700 0.013020 
#    z -0.008550 0.013020 1.957440 
# 
# From -- ./inp_files/522713.got.cif
#   From: 2010.06.25/outbox.cif.g09.slc.cpg/sg2_262_cif.got.tgz:522713.got - 2010.06.27 13:26:56.
