data_PCOD8042422
_publ_section_title
;
Structure prediction by ZEFSAII (Michael W. Deem and Ramdas Pophale) SiO2 
 PCOD8042422
Probable space group: P -1
;
_chemical_formula_sum "Si O2"
_cell_formula_units_Z 16
_cell_length_a 8.690297
_cell_length_b 11.673346
_cell_length_c 9.015237
_cell_angle_alpha 89.122836
_cell_angle_beta 120.429903
_cell_angle_gamma 81.166219
_cell_volume 774.550943
_symmetry_space_group_name_H-M "P -1"
_symmetry_group_IT_number 2
_symmetry_cell_setting 'triclinic'
loop_
_space_group_symop_operation_xyz
x,y,z
-x,-y,-z
loop_
_atom_site_type_symbol
_atom_site_label
_atom_site_fract_x
_atom_site_fract_y
_atom_site_fract_z
Si Si1 0.898745 0.192802 0.163974
Si Si2 0.039121 0.394448 0.730425
Si Si3 0.893732 0.969298 0.307341
Si Si4 0.343097 0.557646 0.578271
Si Si5 0.297214 0.567462 0.879419
Si Si6 0.067417 0.805572 0.144865
Si Si7 0.192640 0.227328 0.552373
Si Si8 0.531998 0.312471 0.612932
O O1 0.752536 0.311651 0.056660
O O2 0.048845 0.214712 0.355119
O O3 0.796202 0.091383 0.181102
O O4 0.994874 0.152894 0.053152
O O5 0.156574 0.483710 0.852640
O O6 0.122178 0.342570 0.614566
O O7 0.831066 0.460261 0.604298
O O8 0.040103 0.295408 0.856358
O O9 0.765858 0.883430 0.310723
O O10 0.029358 0.906732 0.247283
O O11 0.000000 0.000000 0.500000
O O12 0.270568 0.612148 0.696910
O O13 0.478728 0.434672 0.674157
O O14 0.448413 0.650430 0.549933
O O15 0.500000 0.500000 0.000000
O O16 0.282711 0.763162 0.238466
O O17 0.378404 0.235269 0.559757
#
# Coordination Sequence:
#
# PCOD8042422 Si02
#       8
#     2   2   2   2   2   2   2   2
#     4  11  22  37  61  88 120 158 194 243 298 345
#     4  10  20  38  61  82 120 164 200 227 290 363
#     4   9  21  41  66  83 112 160 206 236 289 361
#     4  10  19  35  55  87 121 159 193 234 289 359
#     4  12  23  34  59  90 126 152 194 244 296 349
#     4  10  22  39  62  87 120 151 192 254 296 340
#     4  10  19  38  64  87 114 161 204 238 282 354
#     4  10  20  33  60  89 118 151 197 245 290 336
#
# _framework density 20.657131
#
# number of rings (size 3 to 8) (size 9 to 14) (size 15 to 20)
#    0.000    1.750    2.500    2.250    1.750    1.500 
#    0.000    3.125    2.750    0.000    0.000    0.000 
#    0.000    0.000    0.000    0.000    0.000    0.000 
#
# Total GULP energy -198280.936712 kJ/mol
# GULP energy per Si atom -12392.558545 kJ/mol
# Density = 2.061011 g / cm^3
# Si number density = 20.657131 Si / 1000 Ang^3
#
#
#
# Elastic Constant Matrix: (Units=GPa)
#
#
# Indices 1 2 3 4 5 6 
#
# 1 121.5663 50.7470 30.7785 -8.3232 3.3385 21.1858
# 2 50.7470 121.9309 38.1002 -6.6748 0.6349 8.4500
# 3 30.7785 38.1002 63.7287 -6.7889 -13.8145 -0.1066
# 4 -8.3232 -6.6748 -6.7889 22.8637 -3.0106 -9.2924
# 5 3.3385 0.6349 -13.8145 -3.0106 32.2987 -2.0186
# 6 21.1858 8.4500 -0.1066 -9.2924 -2.0186 24.7462
#
#
#
# Elastic Compliance Matrix: (Units=1/GPa)
#
#
# Indices 1 2 3 4 5 6 
#
# 1 0.012862 -0.002843 -0.005936 -0.003306 -0.004852 -0.011703
# 2 -0.002843 0.011409 -0.006116 -0.000679 -0.002732 -0.001966
# 3 -0.005936 -0.006116 0.026372 0.010761 0.013794 0.012449
# 4 -0.003306 -0.000679 0.010761 0.057542 0.011926 0.025689
# 5 -0.004852 -0.002732 0.013794 0.011926 0.039330 0.012833
# 6 -0.011703 -0.001966 0.012449 0.025689 0.012833 0.061848
#
#
# Mechanical properties :
#
#
# Convention : Reuss Voigt Hill
#
# Bulk Modulus (GPa) = 47.95218 60.71971 54.33595
# Shear Modulus (GPa) = 20.31674 28.48840 24.40257
#
# Velocity S-wave (km/s) = 3.13952 3.71766 3.44075
# Velocity P-wave (km/s) = 6.03373 6.91996 6.49199
#
# Compressibility (1/GPa) = 0.02085411
#
# Stress axis : x y z
#
# Youngs Moduli (GPa) = 77.74789 87.65090 37.91940
#
# Poissons Ratio (x) = 0.24919 0.22508
# Poissons Ratio (y) = 0.22104 0.23190
# Poissons Ratio (z) = 0.46148 0.53604
#
# Static dielectric constant tensor:
#      x y z
#    x 3.814060 0.133640 -0.367140 
#    y 0.133640 3.976480 -0.133430 
#    z -0.367140 -0.133430 3.627100 
# 
# 
# High freq. dielectric constant tensor:
#      x y z
#    x 1.805320 0.006800 -0.029140 
#    y 0.006800 1.806880 -0.009270 
#    z -0.029140 -0.009270 1.793940 
# 
# From -- ./inp_files/179401.got.cif
#   From: 2010.06.25/outbox.cif.g09.slc.cpg/sg2_90_cif.got.tgz:179401.got - 2010.06.27 13:26:56.
