data_PCOD8042123
_publ_section_title
;
Structure prediction by ZEFSAII (Michael W. Deem and Ramdas Pophale) SiO2 
 PCOD8042123
Probable space group: P -1
;
_chemical_formula_sum "Si O2"
_cell_formula_units_Z 14
_cell_length_a 12.347356
_cell_length_b 8.775578
_cell_length_c 8.003336
_cell_angle_alpha 74.971061
_cell_angle_beta 107.933836
_cell_angle_gamma 60.909109
_cell_volume 627.700424
_symmetry_space_group_name_H-M "P -1"
_symmetry_group_IT_number 2
_symmetry_cell_setting 'triclinic'
loop_
_space_group_symop_operation_xyz
x,y,z
-x,-y,-z
loop_
_atom_site_type_symbol
_atom_site_label
_atom_site_fract_x
_atom_site_fract_y
_atom_site_fract_z
Si Si1 0.152359 0.704289 0.098490
Si Si2 0.444728 0.255832 0.737816
Si Si3 0.405732 0.890145 0.501111
Si Si4 0.255911 0.700168 0.489353
Si Si5 0.945235 0.918086 0.219674
Si Si6 0.691608 0.734285 0.823090
Si Si7 0.295521 0.113694 0.867660
O O1 0.268172 0.666375 0.302881
O O2 0.197897 0.496940 0.107879
O O3 0.995625 0.823333 0.082018
O O4 0.141671 0.842094 0.905404
O O5 0.501563 0.228293 0.586081
O O6 0.357449 0.485441 0.688424
O O7 0.337281 0.195593 0.713436
O O8 0.575457 0.119610 0.967867
O O9 0.306234 0.830759 0.528620
O O10 0.523145 0.821932 0.722195
O O11 0.301424 0.128645 0.347682
O O12 0.087981 0.818656 0.431909
O O13 0.843960 0.867705 0.260529
O O14 0.736207 0.755367 0.020437
#
# Coordination Sequence:
#
# PCOD8042123 Si02
#       7
#     2   2   2   2   2   2   2
#     4   9  18  33  55  87 103 139 185 224 272 308
#     4  10  20  35  60  78 108 151 184 213 269 325
#     4  10  19  34  58  84 108 135 190 229 260 323
#     4  10  19  35  59  81 101 147 189 222 256 325
#     4   9  20  36  56  85 106 144 186 222 263 329
#     4  10  20  32  55  85 113 138 172 237 280 301
#     4  10  22  37  53  84 116 140 179 223 271 336
#
# _framework density 22.303633999999999
#
# number of rings (size 3 to 8) (size 9 to 14) (size 15 to 20)
#    0.857    1.429    1.429    2.143    2.000    1.143 
#    0.000    0.714    6.286    0.857    0.000    0.000 
#    0.000    0.000    0.000    0.000    0.000    0.000 
#
# Total GULP energy -173509.589631 kJ/mol
# GULP energy per Si atom -12393.542116 kJ/mol
# Density = 2.225287 g / cm^3
# Si number density = 22.303634 Si / 1000 Ang^3
#
#
#
# Elastic Constant Matrix: (Units=GPa)
#
#
# Indices 1 2 3 4 5 6 
#
# 1 130.8365 35.1927 16.5496 -8.9821 17.1511 40.5154
# 2 35.1927 104.0503 44.4390 -48.1179 11.1205 16.1341
# 3 16.5496 44.4390 47.6854 -25.4861 8.8676 4.9809
# 4 -8.9821 -48.1179 -25.4861 37.9957 -4.7261 0.2588
# 5 17.1511 11.1205 8.8676 -4.7261 16.4189 5.3310
# 6 40.5154 16.1341 4.9809 0.2588 5.3310 34.3536
#
#
#
# Elastic Compliance Matrix: (Units=1/GPa)
#
#
# Indices 1 2 3 4 5 6 
#
# 1 0.013462 -0.000974 -0.000301 0.000793 -0.008443 -0.014071
# 2 -0.000974 0.031314 -0.009783 0.032755 -0.001535 -0.012148
# 3 -0.000301 -0.009783 0.038519 0.012039 -0.010701 0.000935
# 4 0.000793 0.032755 0.012039 0.075979 -0.001679 -0.018376
# 5 -0.008443 -0.001535 -0.010701 -0.001679 0.075911 0.000463
# 6 -0.014071 -0.012148 0.000935 -0.018376 0.000463 0.051340
#
#
# Mechanical properties :
#
#
# Convention : Reuss Voigt Hill
#
# Bulk Modulus (GPa) = 16.34536 52.77053 34.55795
# Shear Modulus (GPa) = 15.19600 30.17970 22.68785
#
# Velocity S-wave (km/s) = 2.61305 3.68248 3.19286
# Velocity P-wave (km/s) = 4.05568 6.46470 5.39633
#
# Compressibility (1/GPa) = 0.06117943
#
# Stress axis : x y z
#
# Youngs Moduli (GPa) = 74.28549 31.93481 25.96098
#
# Poissons Ratio (x) = 0.03109 0.00781
# Poissons Ratio (y) = 0.07232 0.25398
# Poissons Ratio (z) = 0.02236 0.31242
#
# Static dielectric constant tensor:
#      x y z
#    x 3.768090 0.116960 0.075900 
#    y 0.116960 3.790660 -0.256410 
#    z 0.075900 -0.256410 3.768240 
# 
# 
# High freq. dielectric constant tensor:
#      x y z
#    x 1.857510 0.012830 0.006190 
#    y 0.012830 1.866990 -0.023840 
#    z 0.006190 -0.023840 1.858740 
# 
# From -- ./inp_files/414340.got.cif
#   From: 2010.06.25/outbox.cif.g09.slc.cpg/sg2_208_cif.got.tgz:414340.got - 2010.06.27 13:26:56.
