data_PCOD8042164
_publ_section_title
;
Structure prediction by ZEFSAII (Michael W. Deem and Ramdas Pophale) SiO2 
 PCOD8042164
Probable space group: P -1
;
_chemical_formula_sum "Si O2"
_cell_formula_units_Z 10
_cell_length_a 10.184899
_cell_length_b 9.683056
_cell_length_c 10.184841
_cell_angle_alpha 42.437422
_cell_angle_beta 118.805636
_cell_angle_gamma 136.816406
_cell_volume 460.371165
_symmetry_space_group_name_H-M "P -1"
_symmetry_group_IT_number 2
_symmetry_cell_setting 'triclinic'
loop_
_space_group_symop_operation_xyz
x,y,z
-x,-y,-z
loop_
_atom_site_type_symbol
_atom_site_label
_atom_site_fract_x
_atom_site_fract_y
_atom_site_fract_z
Si Si1 0.591562 0.861938 0.870581
Si Si2 0.993387 0.147627 0.773563
Si Si3 0.482973 0.770195 0.350174
Si Si4 0.611275 0.424621 0.279549
Si Si5 0.842109 0.832235 0.428039
O O1 0.432496 0.713309 0.783908
O O2 0.786596 0.077692 0.730314
O O3 0.546381 0.012309 0.839729
O O4 0.594056 0.657856 0.100515
O O5 0.169805 0.457139 0.663416
O O6 0.025736 0.058337 0.714721
O O7 0.000000 0.000000 0.000000
O O8 0.516562 0.757467 0.531520
O O9 0.687234 0.883659 0.303721
O O10 0.295489 0.488983 0.397850
O O11 0.000000 0.000000 0.500000
#
# Coordination Sequence:
#
# PCOD8042164 Si02
#       5
#     2   2   2   2   2
#     4  10  19  34  59  83 108 146 187 227 276 328
#     4   9  19  36  56  80 110 144 184 229 272 325
#     4  10  21  36  56  82 111 147 186 226 276 332
#     4   9  19  34  55  83 113 141 183 234 274 325
#     4  10  21  37  56  81 116 148 181 229 280 328
#
# _framework density 21.721603000000002
#
# number of rings (size 3 to 8) (size 9 to 14) (size 15 to 20)
#    0.000    2.400    0.000    1.800    0.000    4.800 
#    0.000   16.000    0.000   22.800    0.000    0.000 
#    0.000    0.000    0.000    0.000    0.000    0.000 
#
# Total GULP energy -123891.816995 kJ/mol
# GULP energy per Si atom -12389.181700 kJ/mol
# Density = 2.167216 g / cm^3
# Si number density = 21.721603 Si / 1000 Ang^3
#
#
#
# Elastic Constant Matrix: (Units=GPa)
#
#
# Indices 1 2 3 4 5 6 
#
# 1 119.9312 41.6660 2.3646 -16.8719 2.8757 -2.9166
# 2 41.6660 123.5012 13.5132 8.8689 9.5181 -1.6379
# 3 2.3646 13.5132 36.6166 -2.5384 3.1229 -1.6505
# 4 -16.8719 8.8689 -2.5384 26.2599 -16.4719 5.3828
# 5 2.8757 9.5181 3.1229 -16.4719 22.4850 -8.3897
# 6 -2.9166 -1.6379 -1.6505 5.3828 -8.3897 29.3802
#
#
#
# Elastic Compliance Matrix: (Units=1/GPa)
#
#
# Indices 1 2 3 4 5 6 
#
# 1 0.014114 -0.008227 0.002203 0.024030 0.019845 0.002330
# 2 -0.008227 0.015087 -0.004848 -0.025619 -0.024366 -0.002512
# 3 0.002203 -0.004848 0.029226 0.008288 0.004264 0.001289
# 4 0.024030 -0.025619 0.008288 0.124591 0.100628 0.007331
# 5 0.019845 -0.024366 0.004264 0.100628 0.132983 0.020389
# 6 0.002330 -0.002512 0.001289 0.007331 0.020389 0.038679
#
#
# Mechanical properties :
#
#
# Convention : Reuss Voigt Hill
#
# Bulk Modulus (GPa) = 27.25980 43.90408 35.58194
# Shear Modulus (GPa) = 12.86496 30.45871 21.66183
#
# Velocity S-wave (km/s) = 2.43629 3.74870 3.16135
# Velocity P-wave (km/s) = 4.52669 6.24444 5.45362
#
# Compressibility (1/GPa) = 0.03668406
#
# Stress axis : x y z
#
# Youngs Moduli (GPa) = 70.85052 66.28028 34.21634
#
# Poissons Ratio (x) = 0.54529 -0.07538
# Poissons Ratio (y) = 0.58289 0.16587
# Poissons Ratio (z) = -0.15609 0.32131
#
# Static dielectric constant tensor:
#      x y z
#    x 4.430890 0.425440 -0.274310 
#    y 0.425440 4.263790 -0.114110 
#    z -0.274310 -0.114110 3.683310 
# 
# 
# High freq. dielectric constant tensor:
#      x y z
#    x 1.850280 0.006970 -0.008800 
#    y 0.006970 1.860890 0.006860 
#    z -0.008800 0.006860 1.832740 
# 
# From -- ./inp_files/144244.got.cif
#   From: 2010.06.25/outbox.cif.g09.slc.cpg/sg2_73_cif.got.tgz:144244.got - 2010.06.27 13:26:56.
