data_PCOD8042143
_publ_section_title
;
Structure prediction by ZEFSAII (Michael W. Deem and Ramdas Pophale) SiO2 
 PCOD8042143
Probable space group: P -1
;
_chemical_formula_sum "Si O2"
_cell_formula_units_Z 16
_cell_length_a 12.221481
_cell_length_b 11.616884
_cell_length_c 8.272785
_cell_angle_alpha 115.625786
_cell_angle_beta 85.463263
_cell_angle_gamma 50.432969
_cell_volume 702.139872
_symmetry_space_group_name_H-M "P -1"
_symmetry_group_IT_number 2
_symmetry_cell_setting 'triclinic'
loop_
_space_group_symop_operation_xyz
x,y,z
-x,-y,-z
loop_
_atom_site_type_symbol
_atom_site_label
_atom_site_fract_x
_atom_site_fract_y
_atom_site_fract_z
Si Si1 0.839222 0.027244 0.028302
Si Si2 0.271202 0.015966 0.509342
Si Si3 0.536828 0.674631 0.078605
Si Si4 0.024458 0.725840 0.542112
Si Si5 0.257985 0.716598 0.074975
Si Si6 0.903009 0.067265 0.384700
Si Si7 0.319508 0.296111 0.209471
Si Si8 0.364271 0.013994 0.836235
O O1 0.941280 0.842731 0.789269
O O2 0.687310 0.076797 0.140577
O O3 0.771186 0.213092 0.061711
O O4 0.940527 0.993719 0.148181
O O5 0.302102 0.081333 0.698899
O O6 0.117156 0.192246 0.521873
O O7 0.446431 0.867550 0.303555
O O8 0.236330 0.902053 0.507054
O O9 0.692619 0.476088 0.035121
O O10 0.400521 0.683853 0.100115
O O11 0.591986 0.677771 0.900846
O O12 0.139437 0.745334 0.482119
O O13 0.145484 0.501118 0.419632
O O14 0.095317 0.881991 0.312491
O O15 0.436531 0.157547 0.264160
O O16 0.279362 0.204175 0.056428
#
# Coordination Sequence:
#
# PCOD8042143 Si02
#       8
#     2   2   2   2   2   2   2   2
#     4  10  20  41  61  88 119 154 193 241 291 350
#     4  11  22  37  61  91 116 155 197 243 291 347
#     4  11  22  35  60  85 120 154 191 236 291 349
#     4  11  21  36  63  87 118 153 197 238 297 347
#     4  10  19  34  58  87 119 148 186 234 294 344
#     4  10  21  35  60  89 124 150 189 240 296 353
#     4  11  24  43  60  83 118 162 199 241 288 349
#     4  10  24  43  61  82 119 157 201 245 288 340
#
# _framework density 22.787483000000002
#
# number of rings (size 3 to 8) (size 9 to 14) (size 15 to 20)
#    0.000    1.500    3.750    2.625    3.500    3.500 
#    0.000    2.500    0.000    0.000    0.000    0.000 
#    0.000    0.000    0.000    0.000    0.000    0.000 
#
# Total GULP energy -198239.705775 kJ/mol
# GULP energy per Si atom -12389.981611 kJ/mol
# Density = 2.273562 g / cm^3
# Si number density = 22.787483 Si / 1000 Ang^3
#
#
#
# Elastic Constant Matrix: (Units=GPa)
#
#
# Indices 1 2 3 4 5 6 
#
# 1 48.3929 17.9777 18.5391 2.9625 17.7512 -18.4033
# 2 17.9777 86.4926 47.9824 18.2581 10.9604 -9.7757
# 3 18.5391 47.9824 73.9240 -2.4696 12.6055 -20.3497
# 4 2.9625 18.2581 -2.4696 37.5803 -2.2799 0.8829
# 5 17.7512 10.9604 12.6055 -2.2799 35.0042 -8.1365
# 6 -18.4033 -9.7757 -20.3497 0.8829 -8.1365 21.6048
#
#
#
# Elastic Compliance Matrix: (Units=1/GPa)
#
#
# Indices 1 2 3 4 5 6 
#
# 1 0.035815 -0.004268 0.003240 -0.001892 -0.011777 0.027271
# 2 -0.004268 0.023537 -0.016749 -0.012112 -0.002065 -0.009044
# 3 0.003240 -0.016749 0.030458 0.009257 -0.001429 0.022953
# 4 -0.001892 -0.012112 0.009257 0.033453 0.004009 0.001770
# 5 -0.011777 -0.002065 -0.001429 0.004009 0.036235 0.001170
# 6 0.027271 -0.009044 0.022953 0.001770 0.001170 0.087412
#
#
# Mechanical properties :
#
#
# Convention : Reuss Voigt Hill
#
# Bulk Modulus (GPa) = 18.43103 41.97867 30.20485
# Shear Modulus (GPa) = 16.63632 27.12521 21.88077
#
# Velocity S-wave (km/s) = 2.70490 3.45390 3.10209
# Velocity P-wave (km/s) = 4.22624 5.86239 5.11022
#
# Compressibility (1/GPa) = 0.05425633
#
# Stress axis : x y z
#
# Youngs Moduli (GPa) = 27.92133 42.48696 32.83243
#
# Poissons Ratio (x) = 0.18132 -0.10639
# Poissons Ratio (y) = 0.11916 0.54991
# Poissons Ratio (z) = -0.09047 0.71161
#
# Static dielectric constant tensor:
#      x y z
#    x 4.063400 -0.156900 -0.022680 
#    y -0.156900 4.395700 -0.076120 
#    z -0.022680 -0.076120 4.393400 
# 
# 
# High freq. dielectric constant tensor:
#      x y z
#    x 1.896110 -0.007150 -0.006270 
#    y -0.007150 1.893770 -0.015850 
#    z -0.006270 -0.015850 1.896550 
# 
# From -- ./inp_files/263063.got.cif
#   From: 2010.06.25/outbox.cif.g09.slc.cpg/sg2_132_cif.got.tgz:263063.got - 2010.06.27 13:26:56.
