data_PCOD8042492
_publ_section_title
;
Structure prediction by ZEFSAII (Michael W. Deem and Ramdas Pophale) SiO2 
 PCOD8042492
Probable space group: P -1
;
_chemical_formula_sum "Si O2"
_cell_formula_units_Z 16
_cell_length_a 9.000898
_cell_length_b 17.320499
_cell_length_c 6.892759
_cell_angle_alpha 106.755705
_cell_angle_beta 89.859042
_cell_angle_gamma 55.450318
_cell_volume 828.509688
_symmetry_space_group_name_H-M "P -1"
_symmetry_group_IT_number 2
_symmetry_cell_setting 'triclinic'
loop_
_space_group_symop_operation_xyz
x,y,z
-x,-y,-z
loop_
_atom_site_type_symbol
_atom_site_label
_atom_site_fract_x
_atom_site_fract_y
_atom_site_fract_z
Si Si1 0.473144 0.406048 0.237626
Si Si2 0.601746 0.746998 0.903265
Si Si3 0.896159 0.935912 0.848824
Si Si4 0.938427 0.752642 0.834656
Si Si5 0.738104 0.368514 0.536931
Si Si6 0.737785 0.106795 0.257281
Si Si7 0.801548 0.267490 0.863664
Si Si8 0.695337 0.123022 0.717008
O O1 0.356065 0.361595 0.187602
O O2 0.574113 0.376907 0.425868
O O3 0.332035 0.524668 0.297802
O O4 0.619269 0.362986 0.031407
O O5 0.791719 0.730917 0.858390
O O6 0.453583 0.815797 0.790018
O O7 0.514515 0.801504 0.149880
O O8 0.840872 0.859860 0.804602
O O9 0.119019 0.865846 0.764274
O O10 0.796652 0.013245 0.728653
O O11 0.838704 0.994697 0.095104
O O12 0.094526 0.665295 0.632636
O O13 0.020059 0.756096 0.042630
O O14 0.805856 0.290244 0.654892
O O15 0.690871 0.108744 0.480768
O O16 0.804583 0.169281 0.807893
#
# Coordination Sequence:
#
# PCOD8042492 Si02
#       8
#     2   2   2   2   2   2   2   2
#     4   9  19  37  59  83 104 132 177 224 265 309
#     4  10  22  37  52  77 114 143 171 214 263 318
#     4  10  20  35  54  80 107 136 180 224 260 305
#     4  11  23  36  50  77 115 146 173 212 261 317
#     4  10  20  36  61  82 102 136 178 222 266 310
#     4  10  19  35  58  80 101 137 182 223 264 306
#     4  10  19  35  57  82 107 134 177 223 263 309
#     4  10  20  35  58  80 103 139 180 222 264 307
#
# _framework density 19.311781
#
# number of rings (size 3 to 8) (size 9 to 14) (size 15 to 20)
#    0.000    2.000    0.000    6.000    0.000    4.500 
#    0.000    1.875    0.000    0.000    0.000    0.000 
#    0.000    0.000    0.000    0.000    0.000    0.000 
#
# Total GULP energy -198418.390797 kJ/mol
# GULP energy per Si atom -12401.149425 kJ/mol
# Density = 1.926783 g / cm^3
# Si number density = 19.311781 Si / 1000 Ang^3
#
#
#
# Elastic Constant Matrix: (Units=GPa)
#
#
# Indices 1 2 3 4 5 6 
#
# 1 105.0659 19.5111 12.1045 1.7929 -18.3244 12.9715
# 2 19.5111 60.9055 16.6548 -0.2628 -6.4675 8.9031
# 3 12.1045 16.6548 113.3108 -8.1428 -14.1541 4.9661
# 4 1.7929 -0.2628 -8.1428 26.2348 1.1268 0.0477
# 5 -18.3244 -6.4675 -14.1541 1.1268 13.4362 2.8505
# 6 12.9715 8.9031 4.9661 0.0477 2.8505 18.1189
#
#
#
# Elastic Compliance Matrix: (Units=1/GPa)
#
#
# Indices 1 2 3 4 5 6 
#
# 1 0.016330 -0.000488 0.002477 -0.001537 0.028292 -0.016577
# 2 -0.000488 0.019447 -0.001175 -0.000535 0.009711 -0.010411
# 3 0.002477 -0.001175 0.011194 0.002626 0.015819 -0.006760
# 4 -0.001537 -0.000535 0.002626 0.039163 -0.003089 0.001026
# 5 0.028292 0.009711 0.015819 -0.003089 0.145699 -0.052275
# 6 -0.016577 -0.010411 -0.006760 0.001026 -0.052275 0.082248
#
#
# Mechanical properties :
#
#
# Convention : Reuss Voigt Hill
#
# Bulk Modulus (GPa) = 20.57619 41.75811 31.16715
# Shear Modulus (GPa) = 15.21356 26.95876 21.08616
#
# Velocity S-wave (km/s) = 2.80980 3.74033 3.30795
# Velocity P-wave (km/s) = 4.60483 6.35008 5.54653
#
# Compressibility (1/GPa) = 0.04859987
#
# Stress axis : x y z
#
# Youngs Moduli (GPa) = 61.23599 51.42106 89.32988
#
# Poissons Ratio (x) = 0.02509 -0.22130
# Poissons Ratio (y) = 0.02988 0.10501
# Poissons Ratio (z) = -0.15170 0.06044
#
# Static dielectric constant tensor:
#      x y z
#    x 3.242830 0.093940 -0.024630 
#    y 0.093940 3.474730 0.153800 
#    z -0.024630 0.153800 3.689590 
# 
# 
# High freq. dielectric constant tensor:
#      x y z
#    x 1.720450 0.008750 -0.003340 
#    y 0.008750 1.753360 0.008000 
#    z -0.003340 0.008000 1.764390 
# 
# From -- ./inp_files/48255.got.cif
#   From: 2010.06.25/outbox.cif.g09.slc.cpg/sg2_25_cif.got.tgz:48255.got - 2010.06.27 13:26:56.
