data_PCOD8042246
_publ_section_title
;
Structure prediction by ZEFSAII (Michael W. Deem and Ramdas Pophale) SiO2 
 PCOD8042246
Probable space group: P -1
;
_chemical_formula_sum "Si O2"
_cell_formula_units_Z 16
_cell_length_a 15.109845
_cell_length_b 8.241825
_cell_length_c 14.493506
_cell_angle_alpha 40.965730
_cell_angle_beta 131.419041
_cell_angle_gamma 142.466999
_cell_volume 711.941478
_symmetry_space_group_name_H-M "P -1"
_symmetry_group_IT_number 2
_symmetry_cell_setting 'triclinic'
loop_
_space_group_symop_operation_xyz
x,y,z
-x,-y,-z
loop_
_atom_site_type_symbol
_atom_site_label
_atom_site_fract_x
_atom_site_fract_y
_atom_site_fract_z
Si Si1 0.671505 0.672563 0.271820
Si Si2 0.093885 0.982674 0.859142
Si Si3 0.816503 0.903079 0.720717
Si Si4 0.917993 0.434595 0.831715
Si Si5 0.087027 0.755639 0.528798
Si Si6 0.199015 0.587501 0.422275
Si Si7 0.799216 0.308196 0.190442
Si Si8 0.402555 0.635240 0.078874
O O1 0.674186 0.438307 0.442156
O O2 0.506061 0.523745 0.185410
O O3 0.769450 0.731141 0.224463
O O4 0.726239 0.978390 0.234252
O O5 0.987568 0.055498 0.801341
O O6 0.983679 0.718508 0.823345
O O7 0.157442 0.872583 0.026018
O O8 0.703756 0.546205 0.827742
O O9 0.810492 0.923796 0.595283
O O10 0.771116 0.099390 0.655389
O O11 0.800242 0.408617 0.690835
O O12 0.041067 0.454579 0.845568
O O13 0.191789 0.719216 0.681291
O O14 0.000000 0.500000 0.500000
O O15 0.960279 0.721283 0.520225
O O16 0.703853 0.438807 0.050078
O O17 0.500000 0.000000 0.000000
#
# Coordination Sequence:
#
# PCOD8042246 Si02
#       8
#     2   2   2   2   2   2   2   2
#     4  10  21  36  58  84 124 160 188 242 294 350
#     4  10  19  34  60  91 112 150 201 252 289 331
#     4  11  21  37  61  87 116 156 196 242 290 356
#     4   9  19  33  57  91 117 143 196 251 294 343
#     4   9  19  35  57  92 118 146 189 250 292 342
#     4  10  21  36  56  91 122 151 188 241 307 349
#     4   9  18  36  59  85 118 154 196 241 294 348
#     4  10  22  41  58  84 117 163 198 237 295 352
#
# _framework density 22.473758
#
# number of rings (size 3 to 8) (size 9 to 14) (size 15 to 20)
#    0.000    2.250    2.500    0.000    3.500    2.500 
#    2.250    3.750    0.000    3.750    0.000    0.000 
#    0.000    0.000    0.000    0.000    0.000    0.000 
#
# Total GULP energy -198234.832606 kJ/mol
# GULP energy per Si atom -12389.677038 kJ/mol
# Density = 2.242261 g / cm^3
# Si number density = 22.473758 Si / 1000 Ang^3
#
#
#
# Elastic Constant Matrix: (Units=GPa)
#
#
# Indices 1 2 3 4 5 6 
#
# 1 64.3377 21.0596 50.7732 6.1022 6.6246 10.6002
# 2 21.0596 32.0154 33.7710 -2.2435 -6.2118 15.2891
# 3 50.7732 33.7710 203.5170 22.7816 -5.2926 20.3193
# 4 6.1022 -2.2435 22.7816 30.5160 10.9542 2.0456
# 5 6.6246 -6.2118 -5.2926 10.9542 47.2450 3.7225
# 6 10.6002 15.2891 20.3193 2.0456 3.7225 31.7365
#
#
#
# Elastic Compliance Matrix: (Units=1/GPa)
#
#
# Indices 1 2 3 4 5 6 
#
# 1 0.023219 -0.013180 -0.003807 -0.000974 -0.005325 0.001719
# 2 -0.013180 0.057811 -0.004897 0.008939 0.008553 -0.021892
# 3 -0.003807 -0.004897 0.007499 -0.005910 0.002183 -0.001045
# 4 -0.000974 0.008939 -0.005910 0.041310 -0.008784 -0.001829
# 5 -0.005325 0.008553 0.002183 -0.008784 0.025807 -0.006200
# 6 0.001719 -0.021892 -0.001045 -0.001829 -0.006200 0.042996
#
#
# Mechanical properties :
#
#
# Convention : Reuss Voigt Hill
#
# Bulk Modulus (GPa) = 22.34105 56.78642 39.56373
# Shear Modulus (GPa) = 19.43030 34.85059 27.14045
#
# Velocity S-wave (km/s) = 2.94356 3.94220 3.47890
# Velocity P-wave (km/s) = 4.63845 6.78557 5.81202
#
# Compressibility (1/GPa) = 0.04476065
#
# Stress axis : x y z
#
# Youngs Moduli (GPa) = 43.06881 17.29765 133.35756
#
# Poissons Ratio (x) = 0.22798 0.50763
# Poissons Ratio (y) = 0.56765 0.65310
# Poissons Ratio (z) = 0.16394 0.08471
#
# Static dielectric constant tensor:
#      x y z
#    x 4.026720 0.225740 -0.141240 
#    y 0.225740 3.686340 0.129270 
#    z -0.141240 0.129270 4.868040 
# 
# 
# High freq. dielectric constant tensor:
#      x y z
#    x 1.858060 -0.001110 -0.001570 
#    y -0.001110 1.833120 0.000950 
#    z -0.001570 0.000950 1.919630 
# 
# From -- ./inp_files/528119.got.cif
#   From: 2010.06.25/outbox.cif.g09.slc.cpg/sg2_265_cif.got.tgz:528119.got - 2010.06.27 13:26:56.
