data_PCOD8042776
_publ_section_title
;
Structure prediction by ZEFSAII (Michael W. Deem and Ramdas Pophale) SiO2 
 PCOD8042776
Probable space group: P -1
;
_chemical_formula_sum "Si O2"
_cell_formula_units_Z 16
_cell_length_a 11.407910
_cell_length_b 4.911226
_cell_length_c 18.637113
_cell_angle_alpha 78.409174
_cell_angle_beta 127.965533
_cell_angle_gamma 112.889198
_cell_volume 757.331378
_symmetry_space_group_name_H-M "P -1"
_symmetry_group_IT_number 2
_symmetry_cell_setting 'triclinic'
loop_
_space_group_symop_operation_xyz
x,y,z
-x,-y,-z
loop_
_atom_site_type_symbol
_atom_site_label
_atom_site_fract_x
_atom_site_fract_y
_atom_site_fract_z
Si Si1 0.127530 0.839268 0.695657
Si Si2 0.475225 0.138170 0.793567
Si Si3 0.842606 0.680620 0.698587
Si Si4 0.363405 0.966635 0.393137
Si Si5 0.906248 0.788976 0.883840
Si Si6 0.798297 0.146060 0.932337
Si Si7 0.537455 0.302978 0.306756
Si Si8 0.116791 0.397374 0.596561
O O1 0.131012 0.548907 0.671734
O O2 0.013290 0.729823 0.726129
O O3 0.308069 0.026710 0.779557
O O4 0.062279 0.044051 0.608142
O O5 0.613308 0.054328 0.891383
O O6 0.532273 0.491045 0.779861
O O7 0.451064 0.979621 0.715651
O O8 0.714882 0.363742 0.647983
O O9 0.870881 0.724865 0.791276
O O10 0.772987 0.926954 0.628982
O O11 0.500000 0.000000 0.500000
O O12 0.433224 0.198474 0.343295
O O13 0.853731 0.496025 0.926478
O O14 0.814742 0.001953 0.868605
O O15 0.096665 0.943983 0.962885
O O16 0.715194 0.503322 0.386236
O O17 0.000000 0.500000 0.500000
#
# Coordination Sequence:
#
# PCOD8042776 Si02
#       8
#     2   2   2   2   2   2   2   2
#     4  10  23  37  57  85 109 158 191 232 295 344
#     4  10  19  37  58  85 112 149 190 242 281 331
#     4  12  24  41  59  81 128 152 191 237 297 358
#     4  12  26  40  57  85 113 159 192 241 295 347
#     4  10  21  35  59  92 113 158 183 236 298 338
#     4  10  19  35  61  88 121 141 200 238 277 348
#     4  10  21  35  58  81 110 144 198 234 289 339
#     4  10  21  38  59  79 106 146 199 249 280 325
#
# _framework density 21.126816999999999
#
# number of rings (size 3 to 8) (size 9 to 14) (size 15 to 20)
#    0.000    1.500    0.000    6.000    3.500    0.000 
#    0.000    0.625    0.000    0.000    0.000   12.250 
#    0.000    0.000    0.000    0.000    0.000    0.000 
#
# Total GULP energy -198349.312689 kJ/mol
# GULP energy per Si atom -12396.832043 kJ/mol
# Density = 2.107873 g / cm^3
# Si number density = 21.126817 Si / 1000 Ang^3
#
#
#
# Elastic Constant Matrix: (Units=GPa)
#
#
# Indices 1 2 3 4 5 6 
#
# 1 108.4434 24.1231 50.8788 5.5531 22.7074 2.1140
# 2 24.1231 78.0706 23.9808 7.5198 0.3053 -9.1148
# 3 50.8788 23.9808 109.1940 13.0026 22.6634 4.1285
# 4 5.5531 7.5198 13.0026 22.6156 -7.3614 3.8574
# 5 22.7074 0.3053 22.6634 -7.3614 33.8742 -1.7219
# 6 2.1140 -9.1148 4.1285 3.8574 -1.7219 32.3213
#
#
#
# Elastic Compliance Matrix: (Units=1/GPa)
#
#
# Indices 1 2 3 4 5 6 
#
# 1 0.013196 -0.002825 -0.003823 -0.002092 -0.006782 -0.001283
# 2 -0.002825 0.015356 -0.002573 -0.002825 0.003134 0.005348
# 3 -0.003823 -0.002573 0.014615 -0.009345 -0.009310 -0.001723
# 4 -0.002092 -0.002825 -0.009345 0.058510 0.020122 -0.005377
# 5 -0.006782 0.003134 -0.009310 0.020122 0.044768 0.002500
# 6 -0.001283 0.005348 -0.001723 -0.005377 0.002500 0.033527
#
#
# Mechanical properties :
#
#
# Convention : Reuss Voigt Hill
#
# Bulk Modulus (GPa) = 40.44326 54.85259 47.64792
# Shear Modulus (GPa) = 24.19507 30.87723 27.53615
#
# Velocity S-wave (km/s) = 3.38780 3.82713 3.61414
# Velocity P-wave (km/s) = 5.87261 6.74900 6.32600
#
# Compressibility (1/GPa) = 0.02472600
#
# Stress axis : x y z
#
# Youngs Moduli (GPa) = 75.78251 65.12000 68.42487
#
# Poissons Ratio (x) = 0.18396 0.26158
# Poissons Ratio (y) = 0.21408 0.17602
# Poissons Ratio (z) = 0.28970 0.16752
#
# Static dielectric constant tensor:
#      x y z
#    x 4.091110 -0.203330 0.529110 
#    y -0.203330 4.004130 0.167570 
#    z 0.529110 0.167570 3.770320 
# 
# 
# High freq. dielectric constant tensor:
#      x y z
#    x 1.832040 -0.019450 0.039920 
#    y -0.019450 1.836960 0.016460 
#    z 0.039920 0.016460 1.803730 
# 
# From -- ./inp_files/564082.got.cif
#   From: 2010.06.25/outbox.cif.g09.slc.cpg/sg2_283_cif.got.tgz:564082.got - 2010.06.27 13:26:56.
