data_PCOD8042609
_publ_section_title
;
Structure prediction by ZEFSAII (Michael W. Deem and Ramdas Pophale) SiO2 
 PCOD8042609
Probable space group: P -1
;
_chemical_formula_sum "Si O2"
_cell_formula_units_Z 8
_cell_length_a 16.504634
_cell_length_b 10.040102
_cell_length_c 14.872460
_cell_angle_alpha 42.557321
_cell_angle_beta 161.995037
_cell_angle_gamma 146.798735
_cell_volume 390.808274
_symmetry_space_group_name_H-M "P -1"
_symmetry_group_IT_number 2
_symmetry_cell_setting 'triclinic'
loop_
_space_group_symop_operation_xyz
x,y,z
-x,-y,-z
loop_
_atom_site_type_symbol
_atom_site_label
_atom_site_fract_x
_atom_site_fract_y
_atom_site_fract_z
Si Si1 0.358377 0.712568 0.674052
Si Si2 0.372120 0.211113 0.746308
Si Si3 0.268577 0.843732 0.694585
Si Si4 0.159617 0.232729 0.985308
O O1 0.479863 0.880543 0.810892
O O2 0.138505 0.409526 0.621844
O O3 0.135856 0.758382 0.358504
O O4 0.698937 0.811804 0.931198
O O5 0.351398 0.113365 0.670940
O O6 0.638471 0.226646 0.082156
O O7 0.513142 0.503983 0.749240
O O8 0.000000 0.000000 0.500000
O O9 0.000000 0.000000 0.000000
#
# Coordination Sequence:
#
# PCOD8042609 Si02
#       4
#     2   2   2   2
#     4  10  21  37  60  83 112 145 189 231 271 330
#     4  10  19  35  59  83 113 142 185 233 276 326
#     4   9  20  34  58  89 107 142 189 236 276 315
#     4  11  23  39  57  81 115 153 183 222 280 336
#
# _framework density 20.470396000000001
#
# number of rings (size 3 to 8) (size 9 to 14) (size 15 to 20)
#    0.000    2.000    2.500    0.750    3.500    3.000 
#    0.000    2.500    0.000    0.000    0.000    0.000 
#    0.000    0.000    0.000    0.000    0.000    0.000 
#
# Total GULP energy -99135.339883 kJ/mol
# GULP energy per Si atom -12391.917485 kJ/mol
# Density = 2.042380 g / cm^3
# Si number density = 20.470396 Si / 1000 Ang^3
#
#
#
# Elastic Constant Matrix: (Units=GPa)
#
#
# Indices 1 2 3 4 5 6 
#
# 1 132.0528 69.8907 -2.0840 15.9198 14.6595 -34.9575
# 2 69.8907 128.0237 10.7342 20.0992 5.7544 -16.8997
# 3 -2.0840 10.7342 32.1140 4.1709 11.4940 -5.9136
# 4 15.9198 20.0992 4.1709 25.4713 -1.7984 -1.7302
# 5 14.6595 5.7544 11.4940 -1.7984 31.5296 2.4366
# 6 -34.9575 -16.8997 -5.9136 -1.7302 2.4366 40.5343
#
#
#
# Elastic Compliance Matrix: (Units=1/GPa)
#
#
# Indices 1 2 3 4 5 6 
#
# 1 0.017478 -0.006910 0.011532 -0.007276 -0.012591 0.014321
# 2 -0.006910 0.012353 -0.005359 -0.004486 0.002806 -0.001951
# 3 0.011532 -0.005359 0.046202 -0.011129 -0.023049 0.015363
# 4 -0.007276 -0.004486 -0.011129 0.049429 0.011724 -0.008364
# 5 -0.012591 0.002806 -0.023049 0.011724 0.047319 -0.015395
# 6 0.014321 -0.001951 0.015363 -0.008364 -0.015395 0.039018
#
#
# Mechanical properties :
#
#
# Convention : Reuss Voigt Hill
#
# Bulk Modulus (GPa) = 13.41173 49.91915 31.66544
# Shear Modulus (GPa) = 20.99740 33.75036 27.37388
#
# Velocity S-wave (km/s) = 3.20620 4.06487 3.66080
# Velocity P-wave (km/s) = 4.50248 6.81688 5.77677
#
# Compressibility (1/GPa) = 0.07456157
#
# Stress axis : x y z
#
# Youngs Moduli (GPa) = 57.21514 80.95087 21.64393
#
# Poissons Ratio (x) = 0.55935 -0.24961
# Poissons Ratio (y) = 0.39534 0.11598
# Poissons Ratio (z) = -0.65983 0.43378
#
# Static dielectric constant tensor:
#      x y z
#    x 4.136660 -0.788870 -0.822840 
#    y -0.788870 4.209070 0.602620 
#    z -0.822840 0.602620 8.943130 
# 
# 
# High freq. dielectric constant tensor:
#      x y z
#    x 1.795300 -0.038570 0.003350 
#    y -0.038570 1.782670 -0.000020 
#    z 0.003350 -0.000020 1.791230 
# 
# From -- ./inp_files/15092.got.cif
#   From: 2010.06.25/outbox.cif.g09.slc.cpg/sg2_8_cif.got.tgz:15092.got - 2010.06.27 13:26:56.
