data_PCOD8042091
_publ_section_title
;
Structure prediction by ZEFSAII (Michael W. Deem and Ramdas Pophale) SiO2 
 PCOD8042091
Probable space group: P -1
;
_chemical_formula_sum "Si O2"
_cell_formula_units_Z 16
_cell_length_a 16.086731
_cell_length_b 5.391542
_cell_length_c 27.883008
_cell_angle_alpha 85.671835
_cell_angle_beta 162.954733
_cell_angle_gamma 94.229614
_cell_volume 706.853879
_symmetry_space_group_name_H-M "P -1"
_symmetry_group_IT_number 2
_symmetry_cell_setting 'triclinic'
loop_
_space_group_symop_operation_xyz
x,y,z
-x,-y,-z
loop_
_atom_site_type_symbol
_atom_site_label
_atom_site_fract_x
_atom_site_fract_y
_atom_site_fract_z
Si Si1 0.316534 0.246262 0.769617
Si Si2 0.840552 0.031900 0.185612
Si Si3 0.755332 0.202890 0.852536
Si Si4 0.826118 0.068613 0.450070
Si Si5 0.928023 0.125402 0.125625
Si Si6 0.478690 0.467758 0.207720
Si Si7 0.016133 0.664169 0.120590
Si Si8 0.229867 0.484497 0.815864
O O1 0.327936 0.358150 0.720959
O O2 0.311321 0.456586 0.805277
O O3 0.029438 0.080541 0.609438
O O4 0.592467 0.080584 0.933274
O O5 0.979382 0.109410 0.210781
O O6 0.933733 0.254198 0.270419
O O7 0.958966 0.761489 0.271082
O O8 0.500000 0.000000 0.000000
O O9 0.776433 0.400930 0.904749
O O10 0.767875 0.322737 0.804933
O O11 0.429270 0.118502 0.678250
O O12 0.000000 0.000000 0.000000
O O13 0.683345 0.335382 0.359559
O O14 0.000000 0.000000 0.500000
O O15 0.033696 0.393740 0.160157
O O16 0.087490 0.893417 0.192223
O O17 0.301279 0.290006 0.076158
O O18 0.500000 0.500000 0.000000
#
# Coordination Sequence:
#
# PCOD8042091 Si02
#       8
#     2   2   2   2   2   2   2   2
#     4  11  22  37  60  94 132 174 205 266 336 397
#     4  10  19  34  57  88 132 158 201 270 336 383
#     4  12  24  45  63  89 129 181 231 274 316 385
#     4  12  25  42  62  94 136 179 222 269 332 390
#     4  11  22  38  61  97 129 161 216 271 335 389
#     4  11  24  40  62  90 136 174 224 266 327 384
#     4  11  24  37  64  90 121 173 220 269 311 387
#     4  10  20  35  56  90 130 164 206 261 334 393
#
# _framework density 22.635514000000001
#
# number of rings (size 3 to 8) (size 9 to 14) (size 15 to 20)
#    0.000    1.000    5.000    3.750    7.000    1.000 
#    0.000    0.000    0.000    0.000    0.000    5.250 
#    0.000    0.000    0.000    0.000    0.000    0.000 
#
# Total GULP energy -198221.607617 kJ/mol
# GULP energy per Si atom -12388.850476 kJ/mol
# Density = 2.258399 g / cm^3
# Si number density = 22.635514 Si / 1000 Ang^3
#
#
#
# Elastic Constant Matrix: (Units=GPa)
#
#
# Indices 1 2 3 4 5 6 
#
# 1 172.5404 65.1760 17.2388 1.9522 17.3432 -11.1380
# 2 65.1760 163.1219 8.1578 -4.6403 7.2568 -15.5235
# 3 17.2388 8.1578 40.5856 4.1914 17.0738 -4.1130
# 4 1.9522 -4.6403 4.1914 16.7907 1.1165 -7.8020
# 5 17.3432 7.2568 17.0738 1.1165 23.0709 6.2446
# 6 -11.1380 -15.5235 -4.1130 -7.8020 6.2446 41.3180
#
#
#
# Elastic Compliance Matrix: (Units=1/GPa)
#
#
# Indices 1 2 3 4 5 6 
#
# 1 0.007412 -0.002577 -0.000343 -0.000384 -0.004941 0.001670
# 2 -0.002577 0.007641 0.000164 0.003961 -0.001642 0.003189
# 3 -0.000343 0.000164 0.038687 -0.004006 -0.030299 0.007643
# 4 -0.000384 0.003961 -0.004006 0.068932 -0.005337 0.014809
# 5 -0.004941 -0.001642 -0.030299 -0.005337 0.074939 -0.017299
# 6 0.001670 0.003189 0.007643 0.014809 -0.017299 0.032022
#
#
# Mechanical properties :
#
#
# Convention : Reuss Voigt Hill
#
# Bulk Modulus (GPa) = 20.73485 61.93255 41.33370
# Shear Modulus (GPa) = 19.90279 35.28093 27.59186
#
# Velocity S-wave (km/s) = 2.96847 3.95226 3.49515
# Velocity P-wave (km/s) = 4.57485 6.94603 5.88118
#
# Compressibility (1/GPa) = 0.04822799
#
# Stress axis : x y z
#
# Youngs Moduli (GPa) = 134.91436 130.87524 25.84876
#
# Poissons Ratio (x) = 0.33720 0.00886
# Poissons Ratio (y) = 0.34761 -0.00423
# Poissons Ratio (z) = 0.04625 -0.02140
#
# Static dielectric constant tensor:
#      x y z
#    x 4.345000 -0.183530 0.106020 
#    y -0.183530 3.914480 0.135780 
#    z 0.106020 0.135780 3.720770 
# 
# 
# High freq. dielectric constant tensor:
#      x y z
#    x 1.907090 -0.005290 0.001950 
#    y -0.005290 1.907080 0.015660 
#    z 0.001950 0.015660 1.831070 
# 
# From -- ./inp_files/90810.got.cif
#   From: 2010.06.25/outbox.cif.g09.slc.cpg/sg2_46_cif.got.tgz:90810.got - 2010.06.27 13:26:56.
