data_PCOD8042823
_publ_section_title
;
Structure prediction by ZEFSAII (Michael W. Deem and Ramdas Pophale) SiO2 
 PCOD8042823
Probable space group: P -1
;
_chemical_formula_sum "Si O2"
_cell_formula_units_Z 16
_cell_length_a 9.949723
_cell_length_b 14.649621
_cell_length_c 8.961246
_cell_angle_alpha 92.404794
_cell_angle_beta 110.444753
_cell_angle_gamma 136.867438
_cell_volume 741.501270
_symmetry_space_group_name_H-M "P -1"
_symmetry_group_IT_number 2
_symmetry_cell_setting 'triclinic'
loop_
_space_group_symop_operation_xyz
x,y,z
-x,-y,-z
loop_
_atom_site_type_symbol
_atom_site_label
_atom_site_fract_x
_atom_site_fract_y
_atom_site_fract_z
Si Si1 0.302491 0.227909 0.232512
Si Si2 0.683165 0.113278 0.449055
Si Si3 0.008873 0.430332 0.127165
Si Si4 0.521714 0.144625 0.814238
Si Si5 0.653848 0.554024 0.848647
Si Si6 0.661805 0.294179 0.555814
Si Si7 0.819627 0.910998 0.125451
Si Si8 0.844438 0.729197 0.234227
O O1 0.363304 0.365494 0.255995
O O2 0.466110 0.264962 0.421246
O O3 0.343574 0.200211 0.086253
O O4 0.029919 0.082385 0.164882
O O5 0.695785 0.229556 0.444457
O O6 0.945098 0.210874 0.590999
O O7 0.500000 0.000000 0.500000
O O8 0.586118 0.012503 0.256691
O O9 0.208237 0.455590 0.181739
O O10 0.088714 0.524777 0.315000
O O11 0.000000 0.500000 0.000000
O O12 0.749485 0.252999 0.019939
O O13 0.582684 0.215596 0.680497
O O14 0.331700 0.113892 0.812696
O O15 0.389585 0.384794 0.763874
O O16 0.794949 0.645212 0.061789
O O17 0.927091 0.873254 0.236028
#
# Coordination Sequence:
#
# PCOD8042823 Si02
#       8
#     2   2   2   2   2   2   2   2
#     4  10  23  40  59  88 130 162 189 250 323 364
#     4  10  20  35  60  92 122 154 204 259 300 346
#     4  10  20  37  61  87 118 157 204 255 298 351
#     4  10  21  37  64  91 115 158 214 255 289 360
#     4  10  21  37  59  88 123 160 201 248 305 364
#     4  10  21  38  61  87 122 162 199 250 308 360
#     4  10  21  39  62  89 122 162 203 247 305 368
#     4  10  19  35  62  89 116 161 211 249 290 363
#
# _framework density 21.577845
#
# number of rings (size 3 to 8) (size 9 to 14) (size 15 to 20)
#    0.000    2.000    0.000    5.250    0.000    7.500 
#    0.000    5.000    0.000    0.000    0.000    0.000 
#    0.000    0.000    0.000    0.000    0.000    0.000 
#
# Total GULP energy -198373.265687 kJ/mol
# GULP energy per Si atom -12398.329105 kJ/mol
# Density = 2.152873 g / cm^3
# Si number density = 21.577845 Si / 1000 Ang^3
#
#
#
# Elastic Constant Matrix: (Units=GPa)
#
#
# Indices 1 2 3 4 5 6 
#
# 1 102.1067 23.1031 48.1945 13.9771 -3.8240 -18.2794
# 2 23.1031 69.6798 33.7654 10.6264 -5.5054 -15.2734
# 3 48.1945 33.7654 92.7850 30.9995 5.6978 -16.7939
# 4 13.9771 10.6264 30.9995 32.0268 -4.6506 -1.8541
# 5 -3.8240 -5.5054 5.6978 -4.6506 26.5988 5.2885
# 6 -18.2794 -15.2734 -16.7939 -1.8541 5.2885 27.3130
#
#
#
# Elastic Compliance Matrix: (Units=1/GPa)
#
#
# Indices 1 2 3 4 5 6 
#
# 1 0.013824 -0.000253 -0.006943 0.001432 0.002799 0.004397
# 2 -0.000253 0.018943 -0.006235 0.000807 0.004202 0.005832
# 3 -0.006943 -0.006235 0.026551 -0.022047 -0.013689 0.009346
# 4 0.001432 0.000807 -0.022047 0.053426 0.016777 -0.011768
# 5 0.002799 0.004202 -0.013689 0.016777 0.047156 -0.012186
# 6 0.004397 0.005832 0.009346 -0.011768 -0.012186 0.050124
#
#
# Mechanical properties :
#
#
# Convention : Reuss Voigt Hill
#
# Bulk Modulus (GPa) = 30.80900 52.74416 41.77658
# Shear Modulus (GPa) = 20.18535 27.82163 24.00349
#
# Velocity S-wave (km/s) = 3.06186 3.59466 3.33890
# Velocity P-wave (km/s) = 5.17774 6.45953 5.85383
#
# Compressibility (1/GPa) = 0.03245805
#
# Stress axis : x y z
#
# Youngs Moduli (GPa) = 72.33895 52.78862 37.66315
#
# Poissons Ratio (x) = 0.01333 0.26149
# Poissons Ratio (y) = 0.01827 0.23482
# Poissons Ratio (z) = 0.50224 0.32912
#
# Static dielectric constant tensor:
#      x y z
#    x 3.952330 -0.306320 -0.200750 
#    y -0.306320 4.064380 0.539810 
#    z -0.200750 0.539810 4.137920 
# 
# 
# High freq. dielectric constant tensor:
#      x y z
#    x 1.851370 -0.014860 0.000970 
#    y -0.014860 1.836060 0.026260 
#    z 0.000970 0.026260 1.842470 
# 
# From -- ./inp_files/207940.got.cif
#   From: 2010.06.25/outbox.cif.g09.slc.cpg/sg2_104_cif.got.tgz:207940.got - 2010.06.27 13:26:56.
