data_PCOD8042560
_publ_section_title
;
Structure prediction by ZEFSAII (Michael W. Deem and Ramdas Pophale) SiO2 
 PCOD8042560
Probable space group: P -1
;
_chemical_formula_sum "Si O2"
_cell_formula_units_Z 14
_cell_length_a 10.861419
_cell_length_b 11.105942
_cell_length_c 11.219999
_cell_angle_alpha 121.747850
_cell_angle_beta 124.640601
_cell_angle_gamma 36.321153
_cell_volume 653.053883
_symmetry_space_group_name_H-M "P -1"
_symmetry_group_IT_number 2
_symmetry_cell_setting 'triclinic'
loop_
_space_group_symop_operation_xyz
x,y,z
-x,-y,-z
loop_
_atom_site_type_symbol
_atom_site_label
_atom_site_fract_x
_atom_site_fract_y
_atom_site_fract_z
Si Si1 0.321308 0.341544 0.651593
Si Si2 0.017928 0.990636 0.698118
Si Si3 0.088925 0.162510 0.626906
Si Si4 0.597012 0.255062 0.053180
Si Si5 0.112946 0.412732 0.333784
Si Si6 0.523703 0.013755 0.781384
Si Si7 0.682701 0.302102 0.874930
O O1 0.281975 0.329645 0.487894
O O2 0.461662 0.120718 0.674152
O O3 0.453189 0.395858 0.754090
O O4 0.098132 0.519729 0.693919
O O5 0.876019 0.124509 0.804222
O O6 0.991417 0.133062 0.661716
O O7 0.939340 0.897180 0.547321
O O8 0.265252 0.809674 0.785331
O O9 0.340842 0.023790 0.720581
O O10 0.951726 0.400587 0.673541
O O11 0.365503 0.496367 0.053487
O O12 0.538654 0.128594 0.947022
O O13 0.733763 0.212479 0.989807
O O14 0.239822 0.221901 0.214479
#
# Coordination Sequence:
#
# PCOD8042560 Si02
#       7
#     2   2   2   2   2   2   2
#     4   9  19  33  57  88 114 148 198 239 286 346
#     4  11  23  41  61  84 118 156 192 241 288 337
#     4  10  24  40  59  88 115 152 204 233 278 355
#     4  10  23  38  60  89 116 151 197 236 288 350
#     4  10  19  35  58  84 118 154 189 241 291 335
#     4  10  21  38  58  85 118 151 190 241 289 337
#     4  10  21  39  61  87 119 151 190 243 292 340
#
# _framework density 21.437739000000001
#
# number of rings (size 3 to 8) (size 9 to 14) (size 15 to 20)
#    0.000    2.000    0.000    2.571    0.000   14.286 
#    0.000    5.000    0.000    0.000    0.000    0.000 
#    0.000    0.000    0.000    0.000    0.000    0.000 
#
# Total GULP energy -173618.436614 kJ/mol
# GULP energy per Si atom -12401.316901 kJ/mol
# Density = 2.138895 g / cm^3
# Si number density = 21.437739 Si / 1000 Ang^3
#
#
#
# Elastic Constant Matrix: (Units=GPa)
#
#
# Indices 1 2 3 4 5 6 
#
# 1 46.6604 12.8945 15.6685 3.1225 12.0598 1.5914
# 2 12.8945 93.2233 21.3265 13.2202 6.5293 -2.3095
# 3 15.6685 21.3265 79.6036 1.1804 13.6477 1.1316
# 4 3.1225 13.2202 1.1804 34.9756 4.3812 0.0133
# 5 12.0598 6.5293 13.6477 4.3812 31.1070 -1.4518
# 6 1.5914 -2.3095 1.1316 0.0133 -1.4518 19.8528
#
#
#
# Elastic Compliance Matrix: (Units=1/GPa)
#
#
# Indices 1 2 3 4 5 6 
#
# 1 0.025253 -0.002284 -0.002925 -0.000275 -0.008116 -0.002717
# 2 -0.002284 0.012349 -0.002863 -0.004399 0.000253 0.001804
# 3 -0.002925 -0.002863 0.014760 0.001473 -0.005010 -0.001307
# 4 -0.000275 -0.004399 0.001473 0.030729 -0.003985 -0.000886
# 5 -0.008116 0.000253 -0.005010 -0.003985 0.038175 0.003760
# 6 -0.002717 0.001804 -0.001307 -0.000886 0.003760 0.051148
#
#
# Mechanical properties :
#
#
# Convention : Reuss Voigt Hill
#
# Bulk Modulus (GPa) = 27.60889 35.47405 31.54147
# Shear Modulus (GPa) = 24.92147 28.49360 26.70753
#
# Velocity S-wave (km/s) = 3.41325 3.64968 3.53344
# Velocity P-wave (km/s) = 5.33295 5.86034 5.60285
#
# Compressibility (1/GPa) = 0.03622022
#
# Stress axis : x y z
#
# Youngs Moduli (GPa) = 39.59870 80.98118 67.74858
#
# Poissons Ratio (x) = 0.18494 0.19814
# Poissons Ratio (y) = 0.09044 0.19394
# Poissons Ratio (z) = 0.11581 0.23182
#
# Static dielectric constant tensor:
#      x y z
#    x 3.638930 0.043480 0.190460 
#    y 0.043480 3.784230 -0.001710 
#    z 0.190460 -0.001710 3.950820 
# 
# 
# High freq. dielectric constant tensor:
#      x y z
#    x 1.819350 0.006620 0.015940 
#    y 0.006620 1.843690 -0.001080 
#    z 0.015940 -0.001080 1.843200 
# 
# From -- ./inp_files/82716.got.cif
#   From: 2010.06.25/outbox.cif.g09.slc.cpg/sg2_42_cif.got.tgz:82716.got - 2010.06.27 13:26:56.
