data_PCOD8042871
_publ_section_title
;
Structure prediction by ZEFSAII (Michael W. Deem and Ramdas Pophale) SiO2 
 PCOD8042871
Probable space group: P -1
;
_chemical_formula_sum "Si O2"
_cell_formula_units_Z 16
_cell_length_a 7.431148
_cell_length_b 7.809266
_cell_length_c 15.582823
_cell_angle_alpha 111.792009
_cell_angle_beta 94.578477
_cell_angle_gamma 125.238281
_cell_volume 632.175902
_symmetry_space_group_name_H-M "P -1"
_symmetry_group_IT_number 2
_symmetry_cell_setting 'triclinic'
loop_
_space_group_symop_operation_xyz
x,y,z
-x,-y,-z
loop_
_atom_site_type_symbol
_atom_site_label
_atom_site_fract_x
_atom_site_fract_y
_atom_site_fract_z
Si Si1 0.531926 0.005326 0.292298
Si Si2 0.696757 0.433948 0.275008
Si Si3 0.697292 0.443371 0.910729
Si Si4 0.852911 0.015269 0.623492
Si Si5 0.208185 0.292357 0.289019
Si Si6 0.457070 0.164511 0.572750
Si Si7 0.563789 0.349334 0.069838
Si Si8 0.918487 0.111960 0.077517
O O1 0.728005 0.280581 0.312619
O O2 0.434788 0.829652 0.174253
O O3 0.312778 0.954953 0.324266
O O4 0.649541 0.943996 0.355507
O O5 0.439856 0.346271 0.270328
O O6 0.694461 0.362815 0.162713
O O7 0.902710 0.722349 0.347744
O O8 0.541350 0.517395 0.890132
O O9 0.953855 0.620351 0.905627
O O10 0.747822 0.484167 0.022359
O O11 0.896401 0.868057 0.658341
O O12 0.730612 0.857744 0.501326
O O13 0.291646 0.557439 0.360497
O O14 0.992275 0.135909 0.183998
O O15 0.500000 0.000000 0.500000
O O16 0.366086 0.069914 0.976776
O O17 0.000000 0.000000 0.000000
#
# Coordination Sequence:
#
# PCOD8042871 Si02
#       8
#     2   2   2   2   2   2   2   2
#     4  10  22  42  62  86 129 163 201 255 306 366
#     4  11  23  40  60  95 129 158 205 251 302 369
#     4  10  20  37  61  88 121 162 206 251 298 358
#     4  10  25  39  65  91 121 163 203 255 314 356
#     4  11  21  41  69  91 124 158 207 257 302 361
#     4  10  21  45  66  90 121 160 208 256 309 366
#     4  10  22  36  61  90 124 159 211 250 289 372
#     4  10  19  35  63  92 116 163 200 245 304 357
#
# _framework density 25.309411999999998
#
# number of rings (size 3 to 8) (size 9 to 14) (size 15 to 20)
#    0.000    1.750    3.750    0.375    5.250    2.500 
#    0.000    1.250    0.000    0.000    0.000    0.000 
#    0.000    0.000    0.000    0.000    0.000    0.000 
#
# Total GULP energy -198333.437924 kJ/mol
# GULP energy per Si atom -12395.839870 kJ/mol
# Density = 2.525181 g / cm^3
# Si number density = 25.309412 Si / 1000 Ang^3
#
#
#
# Elastic Constant Matrix: (Units=GPa)
#
#
# Indices 1 2 3 4 5 6 
#
# 1 11.4311 16.9329 12.3870 -4.7424 -1.6937 0.8939
# 2 16.9329 193.7488 57.1777 -11.6234 11.1122 -20.6071
# 3 12.3870 57.1777 146.3537 -0.6884 13.3188 -21.8364
# 4 -4.7424 -11.6234 -0.6884 48.0724 -6.9356 3.7385
# 5 -1.6937 11.1122 13.3188 -6.9356 31.7063 4.5359
# 6 0.8939 -20.6071 -21.8364 3.7385 4.5359 24.5193
#
#
#
# Elastic Compliance Matrix: (Units=1/GPa)
#
#
# Indices 1 2 3 4 5 6 
#
# 1 0.133444 -0.011639 -0.014163 0.016544 0.025717 -0.034540
# 2 -0.011639 0.007252 -0.000439 -0.000533 -0.004092 0.006967
# 3 -0.014163 -0.000439 0.010566 -0.003309 -0.007401 0.011432
# 4 0.016544 -0.000533 -0.003309 0.024304 0.009120 -0.009391
# 5 0.025717 -0.004092 -0.007401 0.009120 0.042340 -0.020191
# 6 -0.034540 0.006967 0.011432 -0.009391 -0.020191 0.063246
#
#
# Mechanical properties :
#
#
# Convention : Reuss Voigt Hill
#
# Bulk Modulus (GPa) = 10.12350 58.28099 34.20225
# Shear Modulus (GPa) = 13.64033 38.52866 26.08449
#
# Velocity S-wave (km/s) = 2.32403 3.90591 3.21382
# Velocity P-wave (km/s) = 3.34815 6.58930 5.22633
#
# Compressibility (1/GPa) = 0.09878004
#
# Stress axis : x y z
#
# Youngs Moduli (GPa) = 7.49380 137.89968 94.63932
#
# Poissons Ratio (x) = 1.60500 1.34041
# Poissons Ratio (y) = 0.08722 0.04151
# Poissons Ratio (z) = 0.10614 0.06049
#
# Static dielectric constant tensor:
#      x y z
#    x 4.249810 -0.113220 0.143430 
#    y -0.113220 5.294390 -0.167340 
#    z 0.143430 -0.167340 5.056640 
# 
# 
# High freq. dielectric constant tensor:
#      x y z
#    x 1.980250 -0.003000 -0.012540 
#    y -0.003000 2.026420 -0.010230 
#    z -0.012540 -0.010230 2.016680 
# 
# From -- ./inp_files/495475.got.cif
#   From: 2010.06.25/outbox.cif.g09.slc.cpg/sg2_248_cif.got.tgz:495475.got - 2010.06.27 13:26:56.
