data_PCOD8042462
_publ_section_title
;
Structure prediction by ZEFSAII (Michael W. Deem and Ramdas Pophale) SiO2 
 PCOD8042462
Probable space group: P -1
;
_chemical_formula_sum "Si O2"
_cell_formula_units_Z 16
_cell_length_a 9.133906
_cell_length_b 11.738641
_cell_length_c 10.754131
_cell_angle_alpha 50.335909
_cell_angle_beta 119.107727
_cell_angle_gamma 108.731840
_cell_volume 775.423014
_symmetry_space_group_name_H-M "P -1"
_symmetry_group_IT_number 2
_symmetry_cell_setting 'triclinic'
loop_
_space_group_symop_operation_xyz
x,y,z
-x,-y,-z
loop_
_atom_site_type_symbol
_atom_site_label
_atom_site_fract_x
_atom_site_fract_y
_atom_site_fract_z
Si Si1 0.625109 0.413716 0.360798
Si Si2 0.162155 0.491458 0.857283
Si Si3 0.369294 0.642983 0.030008
Si Si4 0.886472 0.549033 0.533040
Si Si5 0.286271 0.883767 0.302864
Si Si6 0.664217 0.099234 0.973180
Si Si7 0.897781 0.851907 0.223034
Si Si8 0.320993 0.209741 0.066672
O O1 0.733831 0.455671 0.256713
O O2 0.445973 0.490669 0.221202
O O3 0.706892 0.472872 0.483740
O O4 0.613540 0.234594 0.489470
O O5 0.217539 0.323922 0.029851
O O6 0.965180 0.496946 0.734015
O O7 0.200880 0.597610 0.916468
O O8 0.325220 0.751879 0.046896
O O9 0.494519 0.724081 0.928596
O O10 0.876920 0.727343 0.407263
O O11 0.000000 0.500000 0.500000
O O12 0.337346 0.855095 0.202520
O O13 0.087001 0.863698 0.246528
O O14 0.336465 0.050346 0.250869
O O15 0.500000 0.000000 0.000000
O O16 0.830733 0.006602 0.141002
O O17 0.776788 0.806405 0.091833
#
# Coordination Sequence:
#
# PCOD8042462 Si02
#       8
#     2   2   2   2   2   2   2   2
#     4  10  18  35  60  88 110 144 204 240 274 326
#     4  10  19  33  57  83 116 150 191 229 287 348
#     4  11  21  37  55  83 118 160 181 223 300 356
#     4  10  15  31  59  84 110 141 194 245 267 326
#     4  11  21  32  61  92 108 142 200 253 273 316
#     4  11  21  37  56  82 122 153 185 232 293 349
#     4  11  18  34  60  89 108 142 200 243 277 320
#     4  10  17  32  54  83 109 144 183 236 278 331
#
# _framework density 20.633897999999999
#
# number of rings (size 3 to 8) (size 9 to 14) (size 15 to 20)
#    0.000    1.500    8.750    3.000    0.000    0.500 
#    0.000    3.125    0.000    6.750    0.000    0.000 
#    0.000    0.000    0.000    0.000    0.000    0.000 
#
# Total GULP energy -198307.958793 kJ/mol
# GULP energy per Si atom -12394.247425 kJ/mol
# Density = 2.058693 g / cm^3
# Si number density = 20.633898 Si / 1000 Ang^3
#
#
#
# Elastic Constant Matrix: (Units=GPa)
#
#
# Indices 1 2 3 4 5 6 
#
# 1 39.6034 9.7379 16.6106 -1.4244 5.0132 -2.6014
# 2 9.7379 111.1149 55.2767 -6.3719 5.1512 -2.7021
# 3 16.6106 55.2767 98.1370 -27.4648 10.9940 0.3989
# 4 -1.4244 -6.3719 -27.4648 46.2895 6.3957 6.2164
# 5 5.0132 5.1512 10.9940 6.3957 18.2618 -3.2223
# 6 -2.6014 -2.7021 0.3989 6.2164 -3.2223 26.1976
#
#
#
# Elastic Compliance Matrix: (Units=1/GPa)
#
#
# Indices 1 2 3 4 5 6 
#
# 1 0.027861 0.000153 -0.004978 -0.001982 -0.003489 0.002899
# 2 0.000153 0.013189 -0.009191 -0.004590 0.003923 0.003087
# 3 -0.004978 -0.009191 0.022201 0.014932 -0.015921 -0.007282
# 4 -0.001982 -0.004590 0.014932 0.034262 -0.021203 -0.011636
# 5 -0.003489 0.003923 -0.015921 -0.021203 0.074172 0.014455
# 6 0.002899 0.003087 -0.007282 -0.011636 0.014455 0.043428
#
#
# Mechanical properties :
#
#
# Convention : Reuss Voigt Hill
#
# Bulk Modulus (GPa) = 28.39295 45.78953 37.09124
# Shear Modulus (GPa) = 19.61677 29.29845 24.45761
#
# Velocity S-wave (km/s) = 3.08670 3.77227 3.44657
# Velocity P-wave (km/s) = 5.14721 6.41973 5.81836
#
# Compressibility (1/GPa) = 0.03522001
#
# Stress axis : x y z
#
# Youngs Moduli (GPa) = 35.89207 75.82304 45.04202
#
# Poissons Ratio (x) = -0.01161 0.22421
# Poissons Ratio (y) = -0.00550 0.41399
# Poissons Ratio (z) = 0.17866 0.69690
#
# Static dielectric constant tensor:
#      x y z
#    x 3.511990 0.011190 0.324680 
#    y 0.011190 4.028850 -0.339100 
#    z 0.324680 -0.339100 4.142410 
# 
# 
# High freq. dielectric constant tensor:
#      x y z
#    x 1.766240 0.007730 0.019620 
#    y 0.007730 1.802440 -0.025010 
#    z 0.019620 -0.025010 1.803940 
# 
# From -- ./inp_files/392175.got.cif
#   From: 2010.06.25/outbox.cif.g09.slc.cpg/sg2_197_cif.got.tgz:392175.got - 2010.06.27 13:26:56.
