data_PCOD8042006
_publ_section_title
;
Structure prediction by ZEFSAII (Michael W. Deem and Ramdas Pophale) SiO2 
 PCOD8042006
Probable space group: P -1
;
_chemical_formula_sum "Si O2"
_cell_formula_units_Z 16
_cell_length_a 5.222328
_cell_length_b 14.242927
_cell_length_c 14.526384
_cell_angle_alpha 117.510827
_cell_angle_beta 58.623982
_cell_angle_gamma 87.225013
_cell_volume 756.284542
_symmetry_space_group_name_H-M "P -1"
_symmetry_group_IT_number 2
_symmetry_cell_setting 'triclinic'
loop_
_space_group_symop_operation_xyz
x,y,z
-x,-y,-z
loop_
_atom_site_type_symbol
_atom_site_label
_atom_site_fract_x
_atom_site_fract_y
_atom_site_fract_z
Si Si1 0.254885 0.324620 0.227946
Si Si2 0.311372 0.030872 0.454832
Si Si3 0.368964 0.185508 0.793542
Si Si4 0.390436 0.723362 0.036428
Si Si5 0.825681 0.489216 0.801114
Si Si6 0.478877 0.636207 0.626666
Si Si7 0.511785 0.408079 0.590223
Si Si8 0.181200 0.733507 0.368560
O O1 0.230709 0.454273 0.266164
O O2 0.396334 0.293646 0.290912
O O3 0.911898 0.313222 0.276355
O O4 0.496031 0.242445 0.067794
O O5 0.181005 0.167665 0.524420
O O6 0.500000 0.000000 0.500000
O O7 0.549087 0.951422 0.294762
O O8 0.000000 0.000000 0.500000
O O9 0.525308 0.204278 0.867702
O O10 0.537246 0.222351 0.692546
O O11 0.986533 0.254854 0.889006
O O12 0.587600 0.586229 0.958450
O O13 0.775234 0.370256 0.757932
O O14 0.203249 0.463992 0.741785
O O15 0.636700 0.501910 0.566452
O O16 0.588298 0.649434 0.507564
O O17 0.784873 0.310307 0.552526
#
# Coordination Sequence:
#
# PCOD8042006 Si02
#       8
#     2   2   2   2   2   2   2   2
#     4   9  19  36  53  81 117 151 187 230 273 342
#     4  10  23  42  61  81 109 151 205 248 283 325
#     4  11  23  39  59  81 111 163 198 232 281 337
#     4  10  22  39  57  82 120 153 200 224 282 351
#     4   9  22  34  54  84 126 146 188 231 292 337
#     4  10  19  34  56  80 122 151 186 224 292 357
#     4  10  21  33  55  85 120 152 185 233 294 352
#     4  11  23  37  59  84 122 149 190 248 291 335
#
# _framework density 21.156056
#
# number of rings (size 3 to 8) (size 9 to 14) (size 15 to 20)
#    0.750    1.250    1.250    2.250    8.750    2.500 
#    0.000    0.000    0.000    0.000    0.000    5.250 
#    0.000    0.000    0.000    0.000    0.000    0.000 
#
# Total GULP energy -198210.395931 kJ/mol
# GULP energy per Si atom -12388.149746 kJ/mol
# Density = 2.110790 g / cm^3
# Si number density = 21.156056 Si / 1000 Ang^3
#
#
#
# Elastic Constant Matrix: (Units=GPa)
#
#
# Indices 1 2 3 4 5 6 
#
# 1 111.0893 25.2518 26.0463 5.1980 9.5001 -24.6090
# 2 25.2518 43.2532 39.5030 8.5822 -1.2424 -24.9406
# 3 26.0463 39.5030 97.9844 19.8906 8.3155 -13.8607
# 4 5.1980 8.5822 19.8906 24.1259 -4.9818 3.6881
# 5 9.5001 -1.2424 8.3155 -4.9818 45.3613 -3.6524
# 6 -24.6090 -24.9406 -13.8607 3.6881 -3.6524 26.3961
#
#
#
# Elastic Compliance Matrix: (Units=1/GPa)
#
#
# Indices 1 2 3 4 5 6 
#
# 1 0.012094 0.003435 -0.001385 -0.005203 -0.001605 0.014299
# 2 0.003435 0.104011 -0.024373 -0.029815 0.010920 0.094357
# 3 -0.001385 -0.024373 0.020444 -0.007070 -0.005983 -0.013425
# 4 -0.005203 -0.029815 -0.007070 0.067030 0.005278 -0.045369
# 5 -0.001605 0.010920 -0.005983 0.005278 0.025034 0.008407
# 6 0.014299 0.094357 -0.013425 -0.045369 0.008407 0.140822
#
#
# Mechanical properties :
#
#
# Convention : Reuss Voigt Hill
#
# Bulk Modulus (GPa) = 10.88086 48.21435 29.54761
# Shear Modulus (GPa) = 11.24320 29.94506 20.59413
#
# Velocity S-wave (km/s) = 2.30780 3.76631 3.12338
# Velocity P-wave (km/s) = 3.50080 6.46164 5.19655
#
# Compressibility (1/GPa) = 0.09190448
#
# Stress axis : x y z
#
# Youngs Moduli (GPa) = 82.68714 9.61435 48.91525
#
# Poissons Ratio (x) = -0.03303 0.06773
# Poissons Ratio (y) = -0.28405 1.19220
# Poissons Ratio (z) = 0.11448 0.23433
#
# Static dielectric constant tensor:
#      x y z
#    x 3.804220 -0.210490 -0.014460 
#    y -0.210490 3.643050 0.240810 
#    z -0.014460 0.240810 4.092740 
# 
# 
# High freq. dielectric constant tensor:
#      x y z
#    x 1.841060 -0.012900 -0.001770 
#    y -0.012900 1.773110 -0.002250 
#    z -0.001770 -0.002250 1.829040 
# 
# From -- ./inp_files/483910.got.cif
#   From: 2010.06.25/outbox.cif.g09.slc.cpg/sg2_242_cif.got.tgz:483910.got - 2010.06.27 13:26:56.
