data_PCOD8042305
_publ_section_title
;
Structure prediction by ZEFSAII (Michael W. Deem and Ramdas Pophale) SiO2 
 PCOD8042305
Probable space group: P -1
;
_chemical_formula_sum "Si O2"
_cell_formula_units_Z 16
_cell_length_a 14.286032
_cell_length_b 11.191479
_cell_length_c 9.778629
_cell_angle_alpha 75.671822
_cell_angle_beta 39.829505
_cell_angle_gamma 55.886448
_cell_volume 778.014405
_symmetry_space_group_name_H-M "P -1"
_symmetry_group_IT_number 2
_symmetry_cell_setting 'triclinic'
loop_
_space_group_symop_operation_xyz
x,y,z
-x,-y,-z
loop_
_atom_site_type_symbol
_atom_site_label
_atom_site_fract_x
_atom_site_fract_y
_atom_site_fract_z
Si Si1 0.140911 0.528031 0.896009
Si Si2 0.066429 0.356414 0.646301
Si Si3 0.981648 0.679798 0.585879
Si Si4 0.399265 0.048766 0.954081
Si Si5 0.648715 0.364046 0.467231
Si Si6 0.512921 0.195162 0.576838
Si Si7 0.378615 0.529409 0.255297
Si Si8 0.460356 0.208771 0.324703
O O1 0.172261 0.635482 0.737251
O O2 0.326501 0.362703 0.755341
O O3 0.000000 0.500000 0.000000
O O4 0.074958 0.618090 0.088248
O O5 0.010548 0.522650 0.626238
O O6 0.265105 0.242305 0.520623
O O7 0.058027 0.277322 0.542415
O O8 0.166994 0.656330 0.420431
O O9 0.813095 0.812629 0.828070
O O10 0.505622 0.085286 0.720054
O O11 0.500000 0.000000 0.000000
O O12 0.409798 0.909377 0.908300
O O13 0.500000 0.500000 0.500000
O O14 0.676857 0.207536 0.432264
O O15 0.576600 0.397431 0.694598
O O16 0.541881 0.137213 0.403832
O O17 0.431721 0.367901 0.294430
O O18 0.500000 0.500000 0.000000
#
# Coordination Sequence:
#
# PCOD8042305 Si02
#       8
#     2   2   2   2   2   2   2   2
#     4  11  18  34  66  96 126 155 212 272 322 370
#     4  10  19  34  62  94 121 152 215 277 308 369
#     4  10  22  37  59  94 125 164 216 263 323 376
#     4  12  25  41  65  91 132 176 216 268 321 396
#     4  10  22  38  62  98 130 160 211 269 332 379
#     4  11  23  39  63  93 132 171 209 273 329 381
#     4  11  24  39  67  96 128 168 215 275 328 378
#     4  11  22  41  63  98 127 167 220 260 327 391
#
# _framework density 20.565170999999999
#
# number of rings (size 3 to 8) (size 9 to 14) (size 15 to 20)
#    0.000    1.250    6.250    1.125    5.250    0.000 
#    0.000    0.625    0.000    1.500    0.000    0.000 
#    0.000    0.000    0.000    0.000    0.000    0.000 
#
# Total GULP energy -198310.513555 kJ/mol
# GULP energy per Si atom -12394.407097 kJ/mol
# Density = 2.051836 g / cm^3
# Si number density = 20.565171 Si / 1000 Ang^3
#
#
#
# Elastic Constant Matrix: (Units=GPa)
#
#
# Indices 1 2 3 4 5 6 
#
# 1 138.5092 34.8275 57.5195 -4.9257 25.4803 3.9096
# 2 34.8275 44.8450 18.4247 1.7122 2.6709 -1.8617
# 3 57.5195 18.4247 114.1021 -0.1675 21.9468 -3.3632
# 4 -4.9257 1.7122 -0.1675 36.0480 0.8878 9.7566
# 5 25.4803 2.6709 21.9468 0.8878 47.6713 -1.4042
# 6 3.9096 -1.8617 -3.3632 9.7566 -1.4042 21.0961
#
#
#
# Elastic Compliance Matrix: (Units=1/GPa)
#
#
# Indices 1 2 3 4 5 6 
#
# 1 0.011925 -0.007683 -0.004103 0.003563 -0.004282 -0.005475
# 2 -0.007683 0.028996 -0.001280 -0.004112 0.003322 0.005902
# 3 -0.004103 -0.001280 0.011702 -0.001140 -0.003017 0.002839
# 4 0.003563 -0.004112 -0.001140 0.032966 -0.002252 -0.016601
# 5 -0.004282 0.003322 -0.003017 -0.002252 0.024607 0.003285
# 6 -0.005475 0.005902 0.002839 -0.016601 0.003285 0.057287
#
#
# Mechanical properties :
#
#
# Convention : Reuss Voigt Hill
#
# Bulk Modulus (GPa) = 37.75100 57.66664 47.70882
# Shear Modulus (GPa) = 24.69805 33.40870 29.05338
#
# Velocity S-wave (km/s) = 3.46925 4.03492 3.76273
# Velocity P-wave (km/s) = 5.86892 7.05756 6.49051
#
# Compressibility (1/GPa) = 0.02648937
#
# Stress axis : x y z
#
# Youngs Moduli (GPa) = 83.86093 34.48745 85.45867
#
# Poissons Ratio (x) = 0.26498 0.35065
# Poissons Ratio (y) = 0.64433 0.10938
# Poissons Ratio (z) = 0.34409 0.04414
#
# Static dielectric constant tensor:
#      x y z
#    x 4.207040 0.243940 0.049500 
#    y 0.243940 3.755720 -0.271590 
#    z 0.049500 -0.271590 4.238650 
# 
# 
# High freq. dielectric constant tensor:
#      x y z
#    x 1.814210 -0.001970 0.021290 
#    y -0.001970 1.774270 -0.004580 
#    z 0.021290 -0.004580 1.806840 
# 
# From -- ./inp_files/306890.got.cif
#   From: 2010.06.25/outbox.cif.g09.slc.cpg/sg2_154_cif.got.tgz:306890.got - 2010.06.27 13:26:56.
