data_PCOD8042162
_publ_section_title
;
Structure prediction by ZEFSAII (Michael W. Deem and Ramdas Pophale) SiO2 
 PCOD8042162
Probable space group: P -1
;
_chemical_formula_sum "Si O2"
_cell_formula_units_Z 16
_cell_length_a 19.981140
_cell_length_b 8.990493
_cell_length_c 13.226129
_cell_angle_alpha 99.903651
_cell_angle_beta 155.990473
_cell_angle_gamma 92.708363
_cell_volume 819.259144
_symmetry_space_group_name_H-M "P -1"
_symmetry_group_IT_number 2
_symmetry_cell_setting 'triclinic'
loop_
_space_group_symop_operation_xyz
x,y,z
-x,-y,-z
loop_
_atom_site_type_symbol
_atom_site_label
_atom_site_fract_x
_atom_site_fract_y
_atom_site_fract_z
Si Si1 0.200583 0.037812 0.493346
Si Si2 0.267690 0.391407 0.041505
Si Si3 0.812830 0.717689 0.857917
Si Si4 0.603736 0.591353 0.256802
Si Si5 0.378729 0.607512 0.567450
Si Si6 0.497737 0.733342 0.307913
Si Si7 0.499260 0.004956 0.211151
Si Si8 0.104248 0.923694 0.569768
O O1 0.397538 0.043814 0.739283
O O2 0.177087 0.033112 0.580121
O O3 0.212230 0.217178 0.492898
O O4 0.031274 0.871207 0.182904
O O5 0.050345 0.278636 0.689769
O O6 0.282686 0.343558 0.171571
O O7 0.412610 0.353290 0.174669
O O8 0.330429 0.596440 0.136731
O O9 0.789685 0.543786 0.751237
O O10 0.701201 0.790997 0.647031
O O11 0.660452 0.463387 0.378633
O O12 0.471102 0.628135 0.153663
O O13 0.500000 0.500000 0.000000
O O14 0.376586 0.786212 0.576436
O O15 0.490191 0.907813 0.293356
O O16 0.281798 0.935362 0.873832
O O17 0.000000 0.000000 0.500000
#
# Coordination Sequence:
#
# PCOD8042162 Si02
#       8
#     2   2   2   2   2   2   2   2
#     4  10  22  37  60  84 115 147 192 237 281 333
#     4   9  18  37  60  81 110 158 191 228 281 346
#     4   9  19  38  60  82 112 157 192 224 286 343
#     4   9  18  32  54  81 108 149 188 225 274 339
#     4  10  19  34  59  81 114 150 190 233 280 340
#     4   9  20  35  58  84 115 151 186 239 280 333
#     4  11  22  36  55  89 117 146 187 239 292 323
#     4  11  21  36  61  81 115 151 191 231 284 346
#
# _framework density 19.529838000000002
#
# number of rings (size 3 to 8) (size 9 to 14) (size 15 to 20)
#    0.000    2.500    1.250    2.625    1.750    6.500 
#    0.000    2.500    5.500    0.000    0.000    0.000 
#    0.000    0.000    0.000    0.000    0.000    0.000 
#
# Total GULP energy -198281.650708 kJ/mol
# GULP energy per Si atom -12392.603169 kJ/mol
# Density = 1.948539 g / cm^3
# Si number density = 19.529838 Si / 1000 Ang^3
#
#
#
# Elastic Constant Matrix: (Units=GPa)
#
#
# Indices 1 2 3 4 5 6 
#
# 1 87.1707 43.4975 39.3273 -7.6239 -3.3891 14.5468
# 2 43.4975 163.2639 44.1645 3.4089 -5.7238 20.5266
# 3 39.3273 44.1645 100.5805 -1.4385 -6.9745 1.0551
# 4 -7.6239 3.4089 -1.4385 26.7409 3.0132 0.0682
# 5 -3.3891 -5.7238 -6.9745 3.0132 30.8271 3.1200
# 6 14.5468 20.5266 1.0551 0.0682 3.1200 24.8454
#
#
#
# Elastic Compliance Matrix: (Units=1/GPa)
#
#
# Indices 1 2 3 4 5 6 
#
# 1 0.016711 -0.002061 -0.005439 0.004691 0.000568 -0.007934
# 2 -0.002061 0.008192 -0.002659 -0.001924 0.001450 -0.005625
# 3 -0.005439 -0.002659 0.013283 -0.000679 0.001511 0.004629
# 4 0.004691 -0.001924 -0.000679 0.039368 -0.003766 -0.000763
# 5 0.000568 0.001450 0.001511 -0.003766 0.034074 -0.005864
# 6 -0.007934 -0.005625 0.004629 -0.000763 -0.005864 0.050083
#
#
# Mechanical properties :
#
#
# Convention : Reuss Voigt Hill
#
# Bulk Modulus (GPa) = 55.96980 67.22153 61.59567
# Shear Modulus (GPa) = 26.59786 31.41774 29.00780
#
# Velocity S-wave (km/s) = 3.69441 4.01522 3.85815
# Velocity P-wave (km/s) = 6.84975 7.48269 7.17320
#
# Compressibility (1/GPa) = 0.01786678
#
# Stress axis : x y z
#
# Youngs Moduli (GPa) = 59.84255 122.07489 75.28401
#
# Poissons Ratio (x) = 0.25163 0.40947
# Poissons Ratio (y) = 0.12335 0.20018
# Poissons Ratio (z) = 0.32549 0.32459
#
# Static dielectric constant tensor:
#      x y z
#    x 3.555040 0.334360 -0.090160 
#    y 0.334360 3.901210 0.288190 
#    z -0.090160 0.288190 3.544690 
# 
# 
# High freq. dielectric constant tensor:
#      x y z
#    x 1.752910 0.027690 -0.011700 
#    y 0.027690 1.761960 0.021500 
#    z -0.011700 0.021500 1.750770 
# 
# From -- ./inp_files/542552.got.cif
#   From: 2010.06.25/outbox.cif.g09.slc.cpg/sg2_272_cif.got.tgz:542552.got - 2010.06.27 13:26:56.
