data_PCOD8042327
_publ_section_title
;
Structure prediction by ZEFSAII (Michael W. Deem and Ramdas Pophale) SiO2 
 PCOD8042327
Probable space group: P -1
;
_chemical_formula_sum "Si O2"
_cell_formula_units_Z 16
_cell_length_a 14.091523
_cell_length_b 10.590733
_cell_length_c 8.557711
_cell_angle_alpha 139.065142
_cell_angle_beta 87.919949
_cell_angle_gamma 82.750684
_cell_volume 812.900198
_symmetry_space_group_name_H-M "P -1"
_symmetry_group_IT_number 2
_symmetry_cell_setting 'triclinic'
loop_
_space_group_symop_operation_xyz
x,y,z
-x,-y,-z
loop_
_atom_site_type_symbol
_atom_site_label
_atom_site_fract_x
_atom_site_fract_y
_atom_site_fract_z
Si Si1 0.823069 0.979680 0.760190
Si Si2 0.324661 0.231158 0.548424
Si Si3 0.687773 0.349244 0.211082
Si Si4 0.469860 0.885385 0.040433
Si Si5 0.968836 0.021102 0.200879
Si Si6 0.829017 0.795938 0.923232
Si Si7 0.666998 0.707648 0.033192
Si Si8 0.799130 0.392655 0.550498
O O1 0.781387 0.821546 0.512986
O O2 0.934811 0.975587 0.700008
O O3 0.811831 0.932959 0.900000
O O4 0.759873 0.204534 0.950200
O O5 0.331210 0.424971 0.632426
O O6 0.345593 0.265685 0.758036
O O7 0.406108 0.046311 0.309768
O O8 0.587695 0.277175 0.164597
O O9 0.737612 0.327133 0.355897
O O10 0.561937 0.758715 0.008299
O O11 0.500000 0.000000 0.000000
O O12 0.886198 0.214084 0.432227
O O13 0.919752 0.834759 0.058187
O O14 0.000000 0.000000 0.000000
O O15 0.731248 0.850975 0.088028
O O16 0.851106 0.566834 0.653595
O O17 0.724025 0.479033 0.777655
#
# Coordination Sequence:
#
# PCOD8042327 Si02
#       8
#     2   2   2   2   2   2   2   2
#     4  10  20  37  62  91 118 153 207 254 289 341
#     4  11  23  42  59  84 128 159 195 236 296 368
#     4  11  21  38  61  92 114 156 199 246 300 340
#     4  11  24  42  66  92 113 149 204 252 294 345
#     4  10  19  34  63  94 116 152 205 255 297 335
#     4   9  19  37  58  88 119 152 199 249 295 335
#     4  10  23  42  57  86 126 162 187 243 300 359
#     4  10  20  36  60  89 118 152 199 246 296 343
#
# _framework density 19.682611999999999
#
# number of rings (size 3 to 8) (size 9 to 14) (size 15 to 20)
#    0.750    1.000    3.750    2.625    0.000    5.500 
#    4.500    1.250    0.000    0.000    0.000    0.000 
#    0.000    0.000    0.000    0.000    0.000    0.000 
#
# Total GULP energy -198257.592017 kJ/mol
# GULP energy per Si atom -12391.099501 kJ/mol
# Density = 1.963781 g / cm^3
# Si number density = 19.682612 Si / 1000 Ang^3
#
#
#
# Elastic Constant Matrix: (Units=GPa)
#
#
# Indices 1 2 3 4 5 6 
#
# 1 165.4886 25.7826 55.7530 9.2714 24.0965 -18.2568
# 2 25.7826 20.8117 23.5692 -0.1380 2.8808 -8.8962
# 3 55.7530 23.5692 108.7325 11.7857 7.5721 -5.9428
# 4 9.2714 -0.1380 11.7857 25.9902 5.5661 3.4671
# 5 24.0965 2.8808 7.5721 5.5661 35.0287 6.5335
# 6 -18.2568 -8.8962 -5.9428 3.4671 6.5335 20.9243
#
#
#
# Elastic Compliance Matrix: (Units=1/GPa)
#
#
# Indices 1 2 3 4 5 6 
#
# 1 0.009723 -0.004195 -0.002942 -0.001774 -0.006981 0.008338
# 2 -0.004195 0.082862 -0.014415 0.006177 -0.007145 0.028683
# 3 -0.002942 -0.014415 0.014023 -0.005187 0.001828 -0.004424
# 4 -0.001774 0.006177 -0.005187 0.043163 -0.003841 -0.006347
# 5 -0.006981 -0.007145 0.001828 -0.003841 0.037844 -0.019790
# 6 0.008338 0.028683 -0.004424 -0.006347 -0.019790 0.073236
#
#
# Mechanical properties :
#
#
# Convention : Reuss Voigt Hill
#
# Bulk Modulus (GPa) = 15.74677 56.13805 35.94241
# Shear Modulus (GPa) = 15.37873 29.05052 22.21462
#
# Velocity S-wave (km/s) = 2.79827 3.84598 3.36317
# Velocity P-wave (km/s) = 4.29629 6.95022 5.77770
#
# Compressibility (1/GPa) = 0.06350509
#
# Stress axis : x y z
#
# Youngs Moduli (GPa) = 102.84642 12.06825 71.30987
#
# Poissons Ratio (x) = 0.05062 0.20981
# Poissons Ratio (y) = 0.43141 1.02792
# Poissons Ratio (z) = 0.30259 0.17396
#
# Static dielectric constant tensor:
#      x y z
#    x 4.101220 -0.115800 0.260190 
#    y -0.115800 3.284380 0.200090 
#    z 0.260190 0.200090 3.669400 
# 
# 
# High freq. dielectric constant tensor:
#      x y z
#    x 1.782210 -0.007220 0.013910 
#    y -0.007220 1.730420 0.017230 
#    z 0.013910 0.017230 1.769420 
# 
# From -- ./inp_files/304388.got.cif
#   From: 2010.06.25/outbox.cif.g09.slc.cpg/sg2_153_cif.got.tgz:304388.got - 2010.06.27 13:26:56.
