data_PCOD8042911
_publ_section_title
;
Structure prediction by ZEFSAII (Michael W. Deem and Ramdas Pophale) SiO2 
 PCOD8042911
Probable space group: P -1
;
_chemical_formula_sum "Si O2"
_cell_formula_units_Z 14
_cell_length_a 9.654518
_cell_length_b 19.543527
_cell_length_c 9.897847
_cell_angle_alpha 125.473221
_cell_angle_beta 117.584924
_cell_angle_gamma 26.733873
_cell_volume 676.360679
_symmetry_space_group_name_H-M "P -1"
_symmetry_group_IT_number 2
_symmetry_cell_setting 'triclinic'
loop_
_space_group_symop_operation_xyz
x,y,z
-x,-y,-z
loop_
_atom_site_type_symbol
_atom_site_label
_atom_site_fract_x
_atom_site_fract_y
_atom_site_fract_z
Si Si1 0.773655 0.950765 0.423184
Si Si2 0.404540 0.615869 0.197537
Si Si3 0.430213 0.563072 0.688178
Si Si4 0.660784 0.142692 0.958472
Si Si5 0.785520 0.905389 0.682467
Si Si6 0.502236 0.752289 0.290549
Si Si7 0.137035 0.486388 0.171760
O O1 0.882403 0.867945 0.525562
O O2 0.031306 0.800183 0.259341
O O3 0.440078 0.068099 0.365463
O O4 0.728294 0.073436 0.541309
O O5 0.569240 0.513898 0.295134
O O6 0.529387 0.649990 0.257401
O O7 0.500000 0.500000 0.000000
O O8 0.500000 0.500000 0.500000
O O9 0.705950 0.498507 0.782284
O O10 0.084146 0.763548 0.753974
O O11 0.619579 0.208532 0.871169
O O12 0.584873 0.080232 0.833210
O O13 0.420323 0.295033 0.133499
O O14 0.000000 0.000000 0.000000
O O15 0.852799 0.630085 0.312285
O O16 0.000000 0.500000 0.000000
#
# Coordination Sequence:
#
# PCOD8042911 Si02
#       7
#     2   2   2   2   2   2   2
#     4  10  22  43  66  93 130 171 220 271 337 396
#     4  12  26  41  66  97 142 176 211 278 345 395
#     4  12  23  42  68  99 129 174 235 271 318 399
#     4  10  19  35  64  95 126 167 221 271 319 386
#     4  10  21  38  69  97 121 168 231 276 312 389
#     4  10  23  41  62  93 129 177 213 264 341 394
#     4  10  21  38  65  97 135 173 222 270 330 400
#
# _framework density 20.699014999999999
#
# number of rings (size 3 to 8) (size 9 to 14) (size 15 to 20)
#    0.000    1.429    2.857    3.000    8.000    0.000 
#    0.000    5.000    0.000    0.000    0.000    0.000 
#    0.000    0.000    0.000    0.000    0.000    0.000 
#
# Total GULP energy -173498.949050 kJ/mol
# GULP energy per Si atom -12392.782075 kJ/mol
# Density = 2.065190 g / cm^3
# Si number density = 20.699015 Si / 1000 Ang^3
#
#
#
# Elastic Constant Matrix: (Units=GPa)
#
#
# Indices 1 2 3 4 5 6 
#
# 1 126.2664 64.9321 33.3411 -1.3630 10.9825 10.1040
# 2 64.9321 130.5943 41.9470 9.2662 -5.7169 -3.4058
# 3 33.3411 41.9470 94.6611 22.5060 3.9971 5.8436
# 4 -1.3630 9.2662 22.5060 43.4656 -4.5805 0.9965
# 5 10.9825 -5.7169 3.9971 -4.5805 28.5225 2.1115
# 6 10.1040 -3.4058 5.8436 0.9965 2.1115 39.5050
#
#
#
# Elastic Compliance Matrix: (Units=1/GPa)
#
#
# Indices 1 2 3 4 5 6 
#
# 1 0.012141 -0.005930 -0.001737 0.002084 -0.005053 -0.003142
# 2 -0.005930 0.012060 -0.003523 -0.000480 0.004908 0.002827
# 3 -0.001737 -0.003523 0.014684 -0.007197 -0.003127 -0.001683
# 4 0.002084 -0.000480 -0.007197 0.027390 0.004541 -0.000443
# 5 -0.005053 0.004908 -0.003127 0.004541 0.039159 -0.000030
# 6 -0.003142 0.002827 -0.001683 -0.000443 -0.000030 0.026622
#
#
# Mechanical properties :
#
#
# Convention : Reuss Voigt Hill
#
# Bulk Modulus (GPa) = 60.58439 70.21801 65.40120
# Shear Modulus (GPa) = 31.26222 36.38538 33.82380
#
# Velocity S-wave (km/s) = 3.89051 4.19720 4.04676
# Velocity P-wave (km/s) = 7.03663 7.58193 7.31436
#
# Compressibility (1/GPa) = 0.01650590
#
# Stress axis : x y z
#
# Youngs Moduli (GPa) = 82.36470 82.91952 68.10125
#
# Poissons Ratio (x) = 0.49169 0.11827
# Poissons Ratio (y) = 0.48840 0.23993
# Poissons Ratio (z) = 0.14304 0.29213
#
# Static dielectric constant tensor:
#      x y z
#    x 3.554370 -0.026400 0.094730 
#    y -0.026400 5.010770 0.790160 
#    z 0.094730 0.790160 4.168590 
# 
# 
# High freq. dielectric constant tensor:
#      x y z
#    x 1.794980 -0.005150 0.024780 
#    y -0.005150 1.822420 0.029320 
#    z 0.024780 0.029320 1.800720 
# 
# From -- ./inp_files/185104.got.cif
#   From: 2010.06.25/outbox.cif.g09.slc.cpg/sg2_93_cif.got.tgz:185104.got - 2010.06.27 13:26:56.
