data_PCOD8042243
_publ_section_title
;
Structure prediction by ZEFSAII (Michael W. Deem and Ramdas Pophale) SiO2 
 PCOD8042243
Probable space group: P -1
;
_chemical_formula_sum "Si O2"
_cell_formula_units_Z 16
_cell_length_a 9.011268
_cell_length_b 19.523910
_cell_length_c 5.224118
_cell_angle_alpha 103.691996
_cell_angle_beta 121.904460
_cell_angle_gamma 61.014639
_cell_volume 682.292011
_symmetry_space_group_name_H-M "P -1"
_symmetry_group_IT_number 2
_symmetry_cell_setting 'triclinic'
loop_
_space_group_symop_operation_xyz
x,y,z
-x,-y,-z
loop_
_atom_site_type_symbol
_atom_site_label
_atom_site_fract_x
_atom_site_fract_y
_atom_site_fract_z
Si Si1 0.619909 0.083330 0.275733
Si Si2 0.681864 0.667423 0.143889
Si Si3 0.247747 0.407865 0.359589
Si Si4 0.910399 0.353509 0.061378
Si Si5 0.860830 0.412026 0.566967
Si Si6 0.212514 0.095459 0.736546
Si Si7 0.990693 0.818211 0.882728
Si Si8 0.633406 0.168772 0.883272
O O1 0.601885 0.127656 0.565482
O O2 0.754859 0.992402 0.370399
O O3 0.407503 0.099349 0.003678
O O4 0.713022 0.110817 0.149227
O O5 0.630812 0.625375 0.299783
O O6 0.569215 0.760535 0.155425
O O7 0.910903 0.643547 0.329328
O O8 0.619268 0.638335 0.801211
O O9 0.181562 0.499281 0.348558
O O10 0.057491 0.392339 0.173617
O O11 0.766897 0.398392 0.206574
O O12 0.024893 0.260892 0.125502
O O13 0.785456 0.376820 0.703850
O O14 0.142080 0.143377 0.451229
O O15 0.065871 0.126610 0.869627
O O16 0.212173 0.797322 0.001285
#
# Coordination Sequence:
#
# PCOD8042243 Si02
#       8
#     2   2   2   2   2   2   2   2
#     4  11  26  46  70  97 128 168 222 277 319 376
#     4  10  20  33  56  89 123 159 204 270 310 371
#     4  10  19  34  60  90 119 164 219 267 315 374
#     4  10  20  33  56  89 123 159 204 270 310 371
#     4  10  19  34  60  90 119 164 219 267 315 374
#     4  11  26  46  70  97 128 168 222 277 319 376
#     4  12  26  42  66  98 137 176 213 260 332 401
#     4  12  26  42  66  98 137 176 213 260 332 401
#
# _framework density 23.450368999999998
#
# number of rings (size 3 to 8) (size 9 to 14) (size 15 to 20)
#    0.000    1.250    0.000    7.500   10.500    5.000 
#    0.000    0.000    0.000    8.250    0.000    0.000 
#    0.000    0.000    0.000    0.000    0.000    0.000 
#
# Total GULP energy -198343.715405 kJ/mol
# GULP energy per Si atom -12396.482213 kJ/mol
# Density = 2.339699 g / cm^3
# Si number density = 23.450369 Si / 1000 Ang^3
#
#
#
# Elastic Constant Matrix: (Units=GPa)
#
#
# Indices 1 2 3 4 5 6 
#
# 1 60.7587 37.5019 44.8025 4.9934 -42.7050 1.6745
# 2 37.5019 161.1145 67.1522 11.5187 -31.8624 5.9620
# 3 44.8025 67.1522 138.7927 9.2980 -71.9277 0.4363
# 4 4.9934 11.5187 9.2980 35.4407 -2.9260 -24.3623
# 5 -42.7050 -31.8624 -71.9277 -2.9260 59.2247 -0.0780
# 6 1.6745 5.9620 0.4363 -24.3623 -0.0780 26.9359
#
#
#
# Elastic Compliance Matrix: (Units=1/GPa)
#
#
# Indices 1 2 3 4 5 6 
#
# 1 0.039589 -0.004499 0.009354 -0.012064 0.036874 -0.012421
# 2 -0.004499 0.009161 -0.004865 -0.006877 -0.004575 -0.007903
# 3 0.009354 -0.004865 0.024429 -0.008609 0.033361 -0.007590
# 4 -0.012064 -0.006877 -0.008609 0.091272 -0.018233 0.084910
# 5 0.036874 -0.004575 0.033361 -0.018233 0.080604 -0.018077
# 6 -0.012421 -0.007903 -0.007590 0.084910 -0.018077 0.116515
#
#
# Mechanical properties :
#
#
# Convention : Reuss Voigt Hill
#
# Bulk Modulus (GPa) = 13.66899 73.28658 43.47778
# Shear Modulus (GPa) = 12.95412 38.40089 25.67751
#
# Velocity S-wave (km/s) = 2.35288 4.05104 3.31263
# Velocity P-wave (km/s) = 3.63634 7.29389 5.76298
#
# Compressibility (1/GPa) = 0.07315830
#
# Stress axis : x y z
#
# Youngs Moduli (GPa) = 25.25938 109.15416 40.93527
#
# Poissons Ratio (x) = 0.49113 -0.38292
# Poissons Ratio (y) = 0.11365 0.19917
# Poissons Ratio (z) = -0.23628 0.53108
#
# Static dielectric constant tensor:
#      x y z
#    x 4.407160 -0.021560 -1.091980 
#    y -0.021560 4.179330 0.056400 
#    z -1.091980 0.056400 5.336700 
# 
# 
# High freq. dielectric constant tensor:
#      x y z
#    x 1.911010 0.003240 -0.042480 
#    y 0.003240 1.936110 0.003850 
#    z -0.042480 0.003850 1.943290 
# 
# From -- ./inp_files/48431.got.cif
#   From: 2010.06.25/outbox.cif.g09.slc.cpg/sg2_25_cif.got.tgz:48431.got - 2010.06.27 13:26:56.
