data_PCOD8042177
_publ_section_title
;
Structure prediction by ZEFSAII (Michael W. Deem and Ramdas Pophale) SiO2 
 PCOD8042177
Probable space group: P -1
;
_chemical_formula_sum "Si O2"
_cell_formula_units_Z 16
_cell_length_a 11.820404
_cell_length_b 17.350306
_cell_length_c 8.418119
_cell_angle_alpha 100.192820
_cell_angle_beta 69.813289
_cell_angle_gamma 149.688131
_cell_volume 790.722687
_symmetry_space_group_name_H-M "P -1"
_symmetry_group_IT_number 2
_symmetry_cell_setting 'triclinic'
loop_
_space_group_symop_operation_xyz
x,y,z
-x,-y,-z
loop_
_atom_site_type_symbol
_atom_site_label
_atom_site_fract_x
_atom_site_fract_y
_atom_site_fract_z
Si Si1 0.240507 0.333618 0.627462
Si Si2 0.059004 0.708459 0.419620
Si Si3 0.499455 0.970103 0.808898
Si Si4 0.414875 0.505924 0.904004
Si Si5 0.862088 0.437647 0.380529
Si Si6 0.660148 0.890099 0.587293
Si Si7 0.813817 0.822199 0.629413
Si Si8 0.007155 0.649773 0.793518
O O1 0.500000 0.500000 0.500000
O O2 0.243723 0.355244 0.819811
O O3 0.192417 0.215717 0.563870
O O4 0.046224 0.273763 0.602255
O O5 0.991469 0.662659 0.619845
O O6 0.947084 0.570898 0.327245
O O7 0.348200 0.880760 0.315571
O O8 0.607155 0.942748 0.720930
O O9 0.224743 0.822237 0.827078
O O10 0.500000 0.000000 0.000000
O O11 0.649376 0.677060 0.771526
O O12 0.500000 0.500000 0.000000
O O13 0.247490 0.478954 0.046359
O O14 0.568135 0.265361 0.468931
O O15 0.948946 0.417244 0.215636
O O16 0.000000 0.500000 0.500000
O O17 0.713127 0.853975 0.684308
O O18 0.900071 0.025340 0.405648
#
# Coordination Sequence:
#
# PCOD8042177 Si02
#       8
#     2   2   2   2   2   2   2   2
#     4  10  19  34  59  86 115 159 203 245 301 357
#     4  11  20  39  62  87 121 162 210 254 305 366
#     4  11  23  38  62  93 123 159 206 262 310 366
#     4  11  23  38  60  94 127 158 207 256 312 371
#     4   9  20  37  60  89 119 163 208 254 305 371
#     4  10  21  39  64  92 125 163 215 248 315 369
#     4  10  21  39  64  90 124 169 204 257 306 375
#     4  10  22  38  60  89 124 161 204 256 315 367
#
# _framework density 20.234653000000002
#
# number of rings (size 3 to 8) (size 9 to 14) (size 15 to 20)
#    0.000    1.750    1.250    4.125    0.000    2.000 
#    0.000    3.125    0.000    7.500    0.000    0.000 
#    0.000    0.000    0.000    0.000    0.000    0.000 
#
# Total GULP energy -198223.899472 kJ/mol
# GULP energy per Si atom -12388.993717 kJ/mol
# Density = 2.018860 g / cm^3
# Si number density = 20.234653 Si / 1000 Ang^3
#
#
#
# Elastic Constant Matrix: (Units=GPa)
#
#
# Indices 1 2 3 4 5 6 
#
# 1 85.0591 48.8199 41.1462 -2.8637 -9.5099 5.1679
# 2 48.8199 151.2657 51.3695 -7.7172 -10.7799 1.4427
# 3 41.1462 51.3695 98.0686 -4.7615 -4.7741 -1.3898
# 4 -2.8637 -7.7172 -4.7615 33.2216 5.4898 -1.0957
# 5 -9.5099 -10.7799 -4.7741 5.4898 29.7320 -2.7522
# 6 5.1679 1.4427 -1.3898 -1.0957 -2.7522 38.4803
#
#
#
# Elastic Compliance Matrix: (Units=1/GPa)
#
#
# Indices 1 2 3 4 5 6 
#
# 1 0.016652 -0.003431 -0.005097 -0.000689 0.003198 -0.002083
# 2 -0.003431 0.008934 -0.003114 0.001098 0.001453 0.000149
# 3 -0.005097 -0.003114 0.014005 0.000982 -0.000572 0.001294
# 4 -0.000689 0.001098 0.000982 0.031349 -0.005398 0.000593
# 5 0.003198 0.001453 -0.000572 -0.005398 0.036268 0.001936
# 6 -0.002083 0.000149 0.001294 0.000593 0.001936 0.026464
#
#
# Mechanical properties :
#
#
# Convention : Reuss Voigt Hill
#
# Bulk Modulus (GPa) = 61.32239 68.56273 64.94256
# Shear Modulus (GPa) = 30.79011 33.15730 31.97370
#
# Velocity S-wave (km/s) = 3.90507 4.05240 3.97942
# Velocity P-wave (km/s) = 7.12069 7.47351 7.29923
#
# Compressibility (1/GPa) = 0.01630726
#
# Stress axis : x y z
#
# Youngs Moduli (GPa) = 60.05248 111.93431 71.40452
#
# Poissons Ratio (x) = 0.38403 0.36394
# Poissons Ratio (y) = 0.20603 0.22236
# Poissons Ratio (z) = 0.30608 0.34857
#
# Static dielectric constant tensor:
#      x y z
#    x 5.805480 4.292390 2.180600 
#    y 4.292390 14.279100 5.974300 
#    z 2.180600 5.974300 7.104990 
# 
# 
# High freq. dielectric constant tensor:
#      x y z
#    x 1.787820 0.003420 -0.025220 
#    y 0.003420 1.815690 -0.000280 
#    z -0.025220 -0.000280 1.767030 
# 
# From -- ./inp_files/277750.got.cif
#   From: 2010.06.25/outbox.cif.g09.slc.cpg/sg2_139_cif.got.tgz:277750.got - 2010.06.27 13:26:56.
