data_PCOD8042489
_publ_section_title
;
Structure prediction by ZEFSAII (Michael W. Deem and Ramdas Pophale) SiO2 
 PCOD8042489
Probable space group: P -1
;
_chemical_formula_sum "Si O2"
_cell_formula_units_Z 16
_cell_length_a 29.822885
_cell_length_b 11.851243
_cell_length_c 19.661367
_cell_angle_alpha 29.768318
_cell_angle_beta 21.115653
_cell_angle_gamma 19.377900
_cell_volume 826.452099
_symmetry_space_group_name_H-M "P -1"
_symmetry_group_IT_number 2
_symmetry_cell_setting 'triclinic'
loop_
_space_group_symop_operation_xyz
x,y,z
-x,-y,-z
loop_
_atom_site_type_symbol
_atom_site_label
_atom_site_fract_x
_atom_site_fract_y
_atom_site_fract_z
Si Si1 0.661327 0.600088 0.559311
Si Si2 0.775084 0.911717 0.413374
Si Si3 0.404218 0.230035 0.831681
Si Si4 0.378089 0.765262 0.093543
Si Si5 0.025998 0.703209 0.631573
Si Si6 0.397124 0.367820 0.526019
Si Si7 0.865557 0.233003 0.183662
Si Si8 0.720050 0.230950 0.184588
O O1 0.635968 0.400281 0.740402
O O2 0.833016 0.517967 0.388795
O O3 0.704079 0.485068 0.480811
O O4 0.476748 0.006180 0.615788
O O5 0.897300 0.522018 0.427727
O O6 0.594047 0.100768 0.613746
O O7 0.895870 0.932326 0.272808
O O8 0.706682 0.107740 0.336972
O O9 0.253563 0.466010 0.860863
O O10 0.328565 0.440833 0.899048
O O11 0.457837 0.892634 0.943673
O O12 0.500000 0.500000 0.000000
O O13 0.180027 0.109496 0.159963
O O14 0.000000 0.000000 0.500000
O O15 0.238801 0.631567 0.667579
O O16 0.562710 0.331657 0.306657
O O17 0.071570 0.065276 0.987762
#
# Coordination Sequence:
#
# PCOD8042489 Si02
#       8
#     2   2   2   2   2   2   2   2
#     4  10  23  40  59  82 121 163 190 241 291 349
#     4  11  18  34  59  87 119 145 194 252 297 334
#     4  11  19  33  58  89 119 148 192 255 294 337
#     4  11  22  37  59  88 118 149 200 245 292 347
#     4  10  19  35  57  81 111 150 193 240 287 339
#     4  11  21  42  59  85 126 155 198 236 290 359
#     4  11  20  34  60  91 114 151 195 246 301 339
#     4  11  20  34  59  89 117 152 195 246 294 339
#
# _framework density 19.359864000000002
#
# number of rings (size 3 to 8) (size 9 to 14) (size 15 to 20)
#    0.000    1.250    3.750    6.000    0.000    0.000 
#    2.250    1.875    0.000    3.750    0.000    0.000 
#    0.000    0.000    0.000    0.000    0.000    0.000 
#
# Total GULP energy -198340.542709 kJ/mol
# GULP energy per Si atom -12396.283919 kJ/mol
# Density = 1.931580 g / cm^3
# Si number density = 19.359864 Si / 1000 Ang^3
#
#
#
# Elastic Constant Matrix: (Units=GPa)
#
#
# Indices 1 2 3 4 5 6 
#
# 1 93.5333 28.4505 31.6876 1.2232 8.1069 8.4197
# 2 28.4505 88.3523 28.6695 -1.5756 6.6814 20.6171
# 3 31.6876 28.6695 89.0223 7.4525 -10.5179 -4.2955
# 4 1.2232 -1.5756 7.4525 39.3853 3.7023 -6.8759
# 5 8.1069 6.6814 -10.5179 3.7023 23.0049 -0.3813
# 6 8.4197 20.6171 -4.2955 -6.8759 -0.3813 31.5675
#
#
#
# Elastic Compliance Matrix: (Units=1/GPa)
#
#
# Indices 1 2 3 4 5 6 
#
# 1 0.013934 -0.001246 -0.005648 0.000640 -0.007294 -0.003620
# 2 -0.001246 0.017247 -0.006673 0.000678 -0.007925 -0.011788
# 3 -0.005648 -0.006673 0.017523 -0.003248 0.012590 0.007694
# 4 0.000640 0.000678 -0.003248 0.027445 -0.006244 0.004847
# 5 -0.007294 -0.007925 0.012590 -0.006244 0.055237 0.008142
# 6 -0.003620 -0.011788 0.007694 0.004847 0.008142 0.042543
#
#
# Mechanical properties :
#
#
# Convention : Reuss Voigt Hill
#
# Bulk Modulus (GPa) = 46.36222 49.83588 48.09905
# Shear Modulus (GPa) = 24.00917 30.93157 27.47037
#
# Velocity S-wave (km/s) = 3.52540 4.00148 3.77096
# Velocity P-wave (km/s) = 6.36952 6.86636 6.62260
#
# Compressibility (1/GPa) = 0.02156929
#
# Stress axis : x y z
#
# Youngs Moduli (GPa) = 71.76857 57.98110 57.06712
#
# Poissons Ratio (x) = 0.07227 0.32233
# Poissons Ratio (y) = 0.08945 0.38079
# Poissons Ratio (z) = 0.40537 0.38689
#
# Static dielectric constant tensor:
#      x y z
#    x 3.566030 0.229590 -0.046940 
#    y 0.229590 3.822200 0.093340 
#    z -0.046940 0.093340 2.972310 
# 
# 
# High freq. dielectric constant tensor:
#      x y z
#    x 1.731750 0.031890 -0.024020 
#    y 0.031890 1.757540 0.007690 
#    z -0.024020 0.007690 1.752080 
# 
# From -- ./inp_files/422739.got.cif
#   From: 2010.06.25/outbox.cif.g09.slc.cpg/sg2_212_cif.got.tgz:422739.got - 2010.06.27 13:26:56.
