data_PCOD8042204
_publ_section_title
;
Structure prediction by ZEFSAII (Michael W. Deem and Ramdas Pophale) SiO2 
 PCOD8042204
Probable space group: P -1
;
_chemical_formula_sum "Si O2"
_cell_formula_units_Z 16
_cell_length_a 11.554805
_cell_length_b 8.972180
_cell_length_c 12.168423
_cell_angle_alpha 52.290386
_cell_angle_beta 106.783138
_cell_angle_gamma 129.079509
_cell_volume 765.039744
_symmetry_space_group_name_H-M "P -1"
_symmetry_group_IT_number 2
_symmetry_cell_setting 'triclinic'
loop_
_space_group_symop_operation_xyz
x,y,z
-x,-y,-z
loop_
_atom_site_type_symbol
_atom_site_label
_atom_site_fract_x
_atom_site_fract_y
_atom_site_fract_z
Si Si1 0.658905 0.068340 0.641130
Si Si2 0.826961 0.249726 0.972383
Si Si3 0.844974 0.509195 0.066814
Si Si4 0.686054 0.141180 0.370305
Si Si5 0.287561 0.608156 0.299529
Si Si6 0.383550 0.389744 0.115929
Si Si7 0.573044 0.761824 0.183092
Si Si8 0.329231 0.271860 0.561616
O O1 0.733767 0.182532 0.492307
O O2 0.735651 0.270490 0.661513
O O3 0.482090 0.941271 0.649523
O O4 0.690482 0.882057 0.765156
O O5 0.823459 0.429426 0.811289
O O6 0.977735 0.270440 0.978171
O O7 0.825627 0.312652 0.069871
O O8 0.674087 0.985730 0.029001
O O9 0.790655 0.390583 0.224865
O O10 0.751974 0.596490 0.954756
O O11 0.703912 0.948893 0.413557
O O12 0.460219 0.775648 0.224847
O O13 0.233732 0.351425 0.443069
O O14 0.471359 0.525715 0.190653
O O15 0.500000 0.500000 0.000000
O O16 0.695303 0.773421 0.292579
O O17 0.500000 0.500000 0.500000
#
# Coordination Sequence:
#
# PCOD8042204 Si02
#       8
#     2   2   2   2   2   2   2   2
#     4  11  22  36  63  94 125 162 204 256 317 367
#     4  11  23  41  66  89 125 169 212 260 310 363
#     4  11  24  43  61  93 130 165 207 261 315 367
#     4  11  21  38  58  92 130 160 199 258 318 369
#     4  11  21  38  64  97 122 161 217 259 304 370
#     4  12  24  38  64  99 127 163 205 261 315 371
#     4  11  21  38  64  93 125 159 214 260 299 368
#     4  10  19  34  59  93 124 151 202 266 304 356
#
# _framework density 20.913947
#
# number of rings (size 3 to 8) (size 9 to 14) (size 15 to 20)
#    0.000    1.000    6.250    2.625    1.750    0.000 
#    0.000    5.000    0.000    0.000    0.000    0.000 
#    0.000    0.000    0.000    0.000    0.000    0.000 
#
# Total GULP energy -198366.477287 kJ/mol
# GULP energy per Si atom -12397.904830 kJ/mol
# Density = 2.086635 g / cm^3
# Si number density = 20.913947 Si / 1000 Ang^3
#
#
#
# Elastic Constant Matrix: (Units=GPa)
#
#
# Indices 1 2 3 4 5 6 
#
# 1 96.2827 34.5553 58.2755 1.5507 8.5752 -3.0938
# 2 34.5553 63.6140 32.1633 4.0600 -2.1664 -18.0556
# 3 58.2755 32.1633 135.1406 12.7433 4.4121 -11.4505
# 4 1.5507 4.0600 12.7433 31.5258 -10.6295 1.9159
# 5 8.5752 -2.1664 4.4121 -10.6295 27.7255 4.9841
# 6 -3.0938 -18.0556 -11.4505 1.9159 4.9841 29.0434
#
#
#
# Elastic Compliance Matrix: (Units=1/GPa)
#
#
# Indices 1 2 3 4 5 6 
#
# 1 0.016859 -0.007802 -0.005883 0.001725 -0.003343 -0.004914
# 2 -0.007802 0.024741 -0.001072 -0.002948 0.000838 0.014178
# 3 -0.005883 -0.001072 0.011103 -0.005219 -0.002733 0.003898
# 4 0.001725 -0.002948 -0.005219 0.040519 0.017281 -0.009345
# 5 -0.003343 0.000838 -0.002733 0.017281 0.046016 -0.009949
# 6 -0.004914 0.014178 0.003898 -0.009345 -0.009949 0.046582
#
#
# Mechanical properties :
#
#
# Convention : Reuss Voigt Hill
#
# Bulk Modulus (GPa) = 43.12378 60.55838 51.84108
# Shear Modulus (GPa) = 22.41515 28.99516 25.70515
#
# Velocity S-wave (km/s) = 3.27736 3.72748 3.50964
# Velocity P-wave (km/s) = 5.91488 6.89524 6.42379
#
# Compressibility (1/GPa) = 0.02318906
#
# Stress axis : x y z
#
# Youngs Moduli (GPa) = 59.31578 40.41931 90.06372
#
# Poissons Ratio (x) = 0.31535 0.52984
# Poissons Ratio (y) = 0.46279 0.09654
# Poissons Ratio (z) = 0.34895 0.04332
#
# Static dielectric constant tensor:
#      x y z
#    x 3.715710 -0.214360 0.176380 
#    y -0.214360 3.482940 0.226990 
#    z 0.176380 0.226990 4.652180 
# 
# 
# High freq. dielectric constant tensor:
#      x y z
#    x 1.795150 -0.018720 0.006800 
#    y -0.018720 1.790590 0.015850 
#    z 0.006800 0.015850 1.844620 
# 
# From -- ./inp_files/418957.got.cif
#   From: 2010.06.25/outbox.cif.g09.slc.cpg/sg2_210_cif.got.tgz:418957.got - 2010.06.27 13:26:56.
