data_PCOD8042970
_publ_section_title
;
Structure prediction by ZEFSAII (Michael W. Deem and Ramdas Pophale) SiO2 
 PCOD8042970
Probable space group: P -1
;
_chemical_formula_sum "Si O2"
_cell_formula_units_Z 14
_cell_length_a 7.013163
_cell_length_b 13.301536
_cell_length_c 11.753123
_cell_angle_alpha 62.221021
_cell_angle_beta 84.544713
_cell_angle_gamma 118.615878
_cell_volume 776.764998
_symmetry_space_group_name_H-M "P -1"
_symmetry_group_IT_number 2
_symmetry_cell_setting 'triclinic'
loop_
_space_group_symop_operation_xyz
x,y,z
-x,-y,-z
loop_
_atom_site_type_symbol
_atom_site_label
_atom_site_fract_x
_atom_site_fract_y
_atom_site_fract_z
Si Si1 0.734255 0.081507 0.309392
Si Si2 0.908357 0.345207 0.720450
Si Si3 0.311897 0.636056 0.482365
Si Si4 0.269885 0.839434 0.971628
Si Si5 0.201703 0.832308 0.493671
Si Si6 0.849210 0.871008 0.365122
Si Si7 0.197962 0.940139 0.134354
O O1 0.833020 0.180605 0.138487
O O2 0.823863 0.182510 0.359885
O O3 0.448821 0.980195 0.369149
O O4 0.828543 0.986125 0.364084
O O5 0.745778 0.377820 0.642792
O O6 0.851839 0.204605 0.735980
O O7 0.185498 0.478736 0.623680
O O8 0.840540 0.309561 0.877841
O O9 0.191973 0.700397 0.519712
O O10 0.591906 0.724914 0.436581
O O11 0.553739 0.923246 0.907059
O O12 0.204254 0.931005 0.000904
O O13 0.990551 0.836184 0.457098
O O14 0.982795 0.937956 0.200335
#
# Coordination Sequence:
#
# PCOD8042970 Si02
#       7
#     2   2   2   2   2   2   2
#     4  10  20  32  56  74 104 136 168 206 267 288
#     4   9  18  36  52  74 106 134 170 207 247 313
#     4  10  20  34  55  74 103 139 170 201 260 295
#     4   9  17  35  52  75 108 131 162 216 250 306
#     4  10  19  36  50  78 103 134 171 215 240 308
#     4  11  19  32  54  80 101 131 169 214 253 300
#     4   9  17  31  54  73 109 122 160 218 253 291
#
# _framework density 18.02347
#
# number of rings (size 3 to 8) (size 9 to 14) (size 15 to 20)
#    0.857    1.429    2.857    1.286    0.000    1.143 
#    0.000    0.714    0.000    0.857    0.000    0.000 
#    0.000    0.000    0.000    0.000    0.000    0.000 
#
# Total GULP energy -173442.898156 kJ/mol
# GULP energy per Si atom -12388.778440 kJ/mol
# Density = 1.798245 g / cm^3
# Si number density = 18.023470 Si / 1000 Ang^3
#
#
#
# Elastic Constant Matrix: (Units=GPa)
#
#
# Indices 1 2 3 4 5 6 
#
# 1 89.2986 19.8814 35.9653 -0.4144 -7.8081 14.7849
# 2 19.8814 29.7401 30.9716 -2.6656 -5.9898 9.3570
# 3 35.9653 30.9716 126.2984 5.9646 0.4581 8.7818
# 4 -0.4144 -2.6656 5.9646 32.3097 3.0290 -3.0887
# 5 -7.8081 -5.9898 0.4581 3.0290 24.5093 1.0630
# 6 14.7849 9.3570 8.7818 -3.0887 1.0630 16.1976
#
#
#
# Elastic Compliance Matrix: (Units=1/GPa)
#
#
# Indices 1 2 3 4 5 6 
#
# 1 0.015253 -0.002811 -0.002838 -0.001044 0.004844 -0.011277
# 2 -0.002811 0.059487 -0.012225 0.003326 0.014566 -0.025492
# 3 -0.002838 -0.012225 0.011641 -0.002527 -0.003932 0.003118
# 4 -0.001044 0.003326 -0.002527 0.032694 -0.003812 0.006887
# 5 0.004844 0.014566 -0.003932 -0.003812 0.047078 -0.014520
# 6 -0.011277 -0.025492 0.003118 0.006887 -0.014520 0.087334
#
#
# Mechanical properties :
#
#
# Convention : Reuss Voigt Hill
#
# Bulk Modulus (GPa) = 19.75001 46.55264 33.15133
# Shear Modulus (GPa) = 16.33393 25.17122 20.75258
#
# Velocity S-wave (km/s) = 3.01368 3.74114 3.39694
# Velocity P-wave (km/s) = 4.80535 6.67431 5.81541
#
# Compressibility (1/GPa) = 0.05063288
#
# Stress axis : x y z
#
# Youngs Moduli (GPa) = 65.56022 16.81045 85.90589
#
# Poissons Ratio (x) = 0.04725 0.24383
# Poissons Ratio (y) = 0.18428 1.05017
# Poissons Ratio (z) = 0.18608 0.20550
#
# Static dielectric constant tensor:
#      x y z
#    x 3.115540 0.000950 -0.161270 
#    y 0.000950 3.107120 0.128540 
#    z -0.161270 0.128540 3.439810 
# 
# 
# High freq. dielectric constant tensor:
#      x y z
#    x 1.682260 0.006350 -0.005680 
#    y 0.006350 1.667050 0.009780 
#    z -0.005680 0.009780 1.701610 
# 
# From -- ./inp_files/366807.got.cif
#   From: 2010.06.25/outbox.cif.g09.slc.cpg/sg2_184_cif.got.tgz:366807.got - 2010.06.27 13:26:56.
