data_PCOD8042304
_publ_section_title
;
Structure prediction by ZEFSAII (Michael W. Deem and Ramdas Pophale) SiO2 
 PCOD8042304
Probable space group: P -1
;
_chemical_formula_sum "Si O2"
_cell_formula_units_Z 16
_cell_length_a 11.483772
_cell_length_b 18.894682
_cell_length_c 9.051276
_cell_angle_alpha 29.561167
_cell_angle_beta 50.378583
_cell_angle_gamma 52.581202
_cell_volume 739.063994
_symmetry_space_group_name_H-M "P -1"
_symmetry_group_IT_number 2
_symmetry_cell_setting 'triclinic'
loop_
_space_group_symop_operation_xyz
x,y,z
-x,-y,-z
loop_
_atom_site_type_symbol
_atom_site_label
_atom_site_fract_x
_atom_site_fract_y
_atom_site_fract_z
Si Si1 0.043006 0.200186 0.990493
Si Si2 0.334658 0.294094 0.629080
Si Si3 0.918088 0.005926 0.209319
Si Si4 0.104598 0.527643 0.545450
Si Si5 0.686223 0.267204 0.895825
Si Si6 0.462452 0.402804 0.066641
Si Si7 0.377662 0.679635 0.470371
Si Si8 0.044060 0.739683 0.743308
O O1 0.218706 0.175636 0.952531
O O2 0.009347 0.370024 0.656900
O O3 0.019158 0.083942 0.100398
O O4 0.937354 0.189645 0.238424
O O5 0.253791 0.445884 0.488817
O O6 0.355644 0.301619 0.419041
O O7 0.495488 0.249536 0.665659
O O8 0.750094 0.096153 0.166127
O O9 0.914983 0.842415 0.566948
O O10 0.000000 0.000000 0.000000
O O11 0.173188 0.637906 0.402321
O O12 0.010731 0.418605 0.909785
O O13 0.585651 0.297791 0.773367
O O14 0.598396 0.301660 0.058523
O O15 0.500000 0.500000 0.000000
O O16 0.382768 0.509459 0.812021
O O17 0.205206 0.748636 0.518625
#
# Coordination Sequence:
#
# PCOD8042304 Si02
#       8
#     2   2   2   2   2   2   2   2
#     4  10  22  41  67  94 121 165 216 265 308 364
#     4  10  20  37  60  95 127 154 202 267 311 372
#     4  11  24  45  62  87 133 170 214 252 312 382
#     4  10  20  38  66  96 127 153 217 267 311 358
#     4  11  22  39  64  94 128 168 205 262 312 375
#     4  10  19  34  62  93 125 160 202 257 318 366
#     4  11  21  34  62  93 130 158 205 252 325 366
#     4  11  22  40  66  95 121 171 210 262 312 376
#
# _framework density 21.649006
#
# number of rings (size 3 to 8) (size 9 to 14) (size 15 to 20)
#    0.000    1.500    3.750    3.750    5.250    0.500 
#    2.250    0.625    2.750    3.750    0.000    0.000 
#    0.000    0.000    0.000    0.000    0.000    0.000 
#
# Total GULP energy -198231.636551 kJ/mol
# GULP energy per Si atom -12389.477284 kJ/mol
# Density = 2.159973 g / cm^3
# Si number density = 21.649006 Si / 1000 Ang^3
#
#
#
# Elastic Constant Matrix: (Units=GPa)
#
#
# Indices 1 2 3 4 5 6 
#
# 1 76.5322 16.2983 24.3274 8.1577 16.6746 -9.6184
# 2 16.2983 98.6679 29.2797 12.0637 11.3519 -6.6430
# 3 24.3274 29.2797 83.3280 2.3609 23.7229 -6.3409
# 4 8.1577 12.0637 2.3609 28.5875 -4.9704 8.4353
# 5 16.6746 11.3519 23.7229 -4.9704 33.1383 0.3713
# 6 -9.6184 -6.6430 -6.3409 8.4353 0.3713 27.4581
#
#
#
# Elastic Compliance Matrix: (Units=1/GPa)
#
#
# Indices 1 2 3 4 5 6 
#
# 1 0.017654 0.000393 -0.001711 -0.009293 -0.009287 0.008865
# 2 0.000393 0.012548 -0.002962 -0.007170 -0.003504 0.004739
# 3 -0.001711 -0.002962 0.016914 -0.002549 -0.010655 0.003517
# 4 -0.009293 -0.007170 -0.002549 0.050018 0.016696 -0.021170
# 5 -0.009287 -0.003504 -0.010655 0.016696 0.046319 -0.012317
# 6 0.008865 0.004739 0.003517 -0.021170 -0.012317 0.048154
#
#
# Mechanical properties :
#
#
# Convention : Reuss Voigt Hill
#
# Bulk Modulus (GPa) = 25.93594 44.25988 35.09791
# Shear Modulus (GPa) = 23.47192 30.41162 26.94177
#
# Velocity S-wave (km/s) = 3.29630 3.75208 3.53155
# Velocity P-wave (km/s) = 5.14720 6.26574 5.73381
#
# Compressibility (1/GPa) = 0.03855654
#
# Stress axis : x y z
#
# Youngs Moduli (GPa) = 56.64305 79.69299 59.12153
#
# Poissons Ratio (x) = -0.03130 0.10113
# Poissons Ratio (y) = -0.02225 0.17515
# Poissons Ratio (z) = 0.09689 0.23609
#
# Static dielectric constant tensor:
#      x y z
#    x 3.812360 -0.098980 0.195930 
#    y -0.098980 4.006340 0.162200 
#    z 0.195930 0.162200 4.191210 
# 
# 
# High freq. dielectric constant tensor:
#      x y z
#    x 1.835380 -0.002980 0.019400 
#    y -0.002980 1.848970 0.012790 
#    z 0.019400 0.012790 1.839430 
# 
# From -- ./inp_files/282611.got.cif
#   From: 2010.06.25/outbox.cif.g09.slc.cpg/sg2_142_cif.got.tgz:282611.got - 2010.06.27 13:26:56.
