data_PCOD8042667
_publ_section_title
;
Structure prediction by ZEFSAII (Michael W. Deem and Ramdas Pophale) SiO2 
 PCOD8042667
Probable space group: P -1
;
_chemical_formula_sum "Si O2"
_cell_formula_units_Z 16
_cell_length_a 20.091688
_cell_length_b 10.996584
_cell_length_c 13.633753
_cell_angle_alpha 148.162299
_cell_angle_beta 147.028128
_cell_angle_gamma 31.131146
_cell_volume 749.395549
_symmetry_space_group_name_H-M "P -1"
_symmetry_group_IT_number 2
_symmetry_cell_setting 'triclinic'
loop_
_space_group_symop_operation_xyz
x,y,z
-x,-y,-z
loop_
_atom_site_type_symbol
_atom_site_label
_atom_site_fract_x
_atom_site_fract_y
_atom_site_fract_z
Si Si1 0.357839 0.795355 0.939941
Si Si2 0.200593 0.986788 0.691752
Si Si3 0.101463 0.859664 0.116780
Si Si4 0.916620 0.870059 0.066027
Si Si5 0.446316 0.209149 0.665002
Si Si6 0.859115 0.619295 0.268693
Si Si7 0.820266 0.716396 0.503730
Si Si8 0.084698 0.626601 0.295884
O O1 0.441205 0.479468 0.807696
O O2 0.315557 0.958577 0.896024
O O3 0.213658 0.865244 0.868541
O O4 0.448629 0.894161 0.182022
O O5 0.218925 0.083365 0.672830
O O6 0.041903 0.210375 0.674196
O O7 0.208953 0.699357 0.508861
O O8 0.999157 0.946845 0.143508
O O9 0.202247 0.986618 0.337903
O O10 0.181160 0.547032 0.972942
O O11 0.000000 0.000000 0.000000
O O12 0.034269 0.690659 0.166274
O O13 0.855610 0.685173 0.820205
O O14 0.294133 0.264796 0.548520
O O15 0.500000 0.000000 0.500000
O O16 0.797029 0.625927 0.304826
O O17 0.028002 0.491272 0.404193
#
# Coordination Sequence:
#
# PCOD8042667 Si02
#       8
#     2   2   2   2   2   2   2   2
#     4  10  26  41  63  92 122 165 213 263 298 374
#     4  10  19  35  59  96 127 160 204 251 323 365
#     4  10  21  32  56  90 127 161 189 245 310 368
#     4  10  19  36  56  95 132 156 201 249 314 376
#     4  11  27  46  65  85 123 171 216 258 302 364
#     4  10  21  38  63  96 129 155 194 261 318 374
#     4  10  24  39  62  93 123 165 207 245 311 378
#     4   9  19  29  58  93 132 161 184 254 321 373
#
# _framework density 21.350542000000001
#
# number of rings (size 3 to 8) (size 9 to 14) (size 15 to 20)
#    0.000    2.000    1.250    0.750   15.750    1.000 
#    0.000    0.625    0.000    1.500    0.000    0.000 
#    0.000    0.000    0.000    0.000    0.000    0.000 
#
# Total GULP energy -198276.128912 kJ/mol
# GULP energy per Si atom -12392.258057 kJ/mol
# Density = 2.130195 g / cm^3
# Si number density = 21.350542 Si / 1000 Ang^3
#
#
#
# Elastic Constant Matrix: (Units=GPa)
#
#
# Indices 1 2 3 4 5 6 
#
# 1 90.6153 16.8434 17.4490 -4.2512 -10.1756 1.4636
# 2 16.8434 55.4180 29.3725 -1.2781 -6.8850 5.9447
# 3 17.4490 29.3725 88.7992 5.3133 -11.8038 1.4359
# 4 -4.2512 -1.2781 5.3133 30.6560 2.3600 -5.5184
# 5 -10.1756 -6.8850 -11.8038 2.3600 28.5521 2.7284
# 6 1.4636 5.9447 1.4359 -5.5184 2.7284 30.5809
#
#
#
# Elastic Compliance Matrix: (Units=1/GPa)
#
#
# Indices 1 2 3 4 5 6 
#
# 1 0.012177 -0.002646 -0.001201 0.001548 0.003078 -0.000007
# 2 -0.002646 0.023210 -0.006860 0.000889 0.002135 -0.004093
# 3 -0.001201 -0.006860 0.014533 -0.003346 0.004228 -0.000272
# 4 0.001548 0.000889 -0.003346 0.034956 -0.004136 0.006587
# 5 0.003078 0.002135 0.004228 -0.004136 0.039204 -0.005005
# 6 -0.000007 -0.004093 -0.000272 0.006587 -0.005005 0.035144
#
#
# Mechanical properties :
#
#
# Convention : Reuss Voigt Hill
#
# Bulk Modulus (GPa) = 35.08030 40.24025 37.66027
# Shear Modulus (GPa) = 26.29636 29.36897 27.83267
#
# Velocity S-wave (km/s) = 3.51329 3.71288 3.61446
# Velocity P-wave (km/s) = 5.73794 6.10483 5.92423
#
# Compressibility (1/GPa) = 0.02850603
#
# Stress axis : x y z
#
# Youngs Moduli (GPa) = 82.12144 43.08527 68.80726
#
# Poissons Ratio (x) = 0.11398 0.08264
# Poissons Ratio (y) = 0.21725 0.47205
# Poissons Ratio (z) = 0.09864 0.29559
#
# Static dielectric constant tensor:
#      x y z
#    x 3.627070 0.118160 -0.258550 
#    y 0.118160 4.591520 1.839960 
#    z -0.258550 1.839960 6.786970 
# 
# 
# High freq. dielectric constant tensor:
#      x y z
#    x 1.824450 0.025160 -0.023110 
#    y 0.025160 1.805740 0.019920 
#    z -0.023110 0.019920 1.842730 
# 
# From -- ./inp_files/541186.got.cif
#   From: 2010.06.25/outbox.cif.g09.slc.cpg/sg2_271_cif.got.tgz:541186.got - 2010.06.27 13:26:56.
