data_PCOD8042993
_publ_section_title
;
Structure prediction by ZEFSAII (Michael W. Deem and Ramdas Pophale) SiO2 
 PCOD8042993
Probable space group: P -1
;
_chemical_formula_sum "Si O2"
_cell_formula_units_Z 16
_cell_length_a 12.329477
_cell_length_b 14.909127
_cell_length_c 15.537480
_cell_angle_alpha 30.738093
_cell_angle_beta 142.024640
_cell_angle_gamma 120.154126
_cell_volume 745.955795
_symmetry_space_group_name_H-M "P -1"
_symmetry_group_IT_number 2
_symmetry_cell_setting 'triclinic'
loop_
_space_group_symop_operation_xyz
x,y,z
-x,-y,-z
loop_
_atom_site_type_symbol
_atom_site_label
_atom_site_fract_x
_atom_site_fract_y
_atom_site_fract_z
Si Si1 0.209113 0.334881 0.146278
Si Si2 0.043563 0.666953 0.162455
Si Si3 0.553985 0.774893 0.244563
Si Si4 0.564044 0.384540 0.355569
Si Si5 0.103694 0.207136 0.352564
Si Si6 0.314690 0.839689 0.205036
Si Si7 0.280920 0.819148 0.889062
Si Si8 0.008275 0.294233 0.702908
O O1 0.431353 0.309867 0.282002
O O2 0.240206 0.196629 0.364533
O O3 0.147019 0.261010 0.083107
O O4 0.019252 0.572113 0.856332
O O5 0.205423 0.412700 0.471625
O O6 0.153262 0.788917 0.103746
O O7 0.954525 0.736693 0.145936
O O8 0.509964 0.765897 0.324528
O O9 0.396105 0.744101 0.114584
O O10 0.500000 0.000000 0.000000
O O11 0.580465 0.302957 0.529048
O O12 0.796286 0.305663 0.530436
O O13 0.423572 0.638074 0.057726
O O14 0.945183 0.146986 0.267019
O O15 0.258118 0.030950 0.664745
O O16 0.200693 0.088332 0.947093
O O17 0.000000 0.500000 0.500000
#
# Coordination Sequence:
#
# PCOD8042993 Si02
#       8
#     2   2   2   2   2   2   2   2
#     4  10  21  36  61  92 127 165 207 253 316 372
#     4  11  22  41  64  94 127 160 212 262 310 373
#     4  12  23  33  62  99 128 157 214 264 312 361
#     4  10  22  39  64  89 123 168 213 250 316 382
#     4   9  20  33  56  86 137 166 197 251 324 374
#     4  11  24  40  64  90 126 169 210 258 316 377
#     4  10  19  36  54  91 130 165 204 255 313 369
#     4  11  24  46  65  89 124 170 212 261 318 377
#
# _framework density 21.448992000000001
#
# number of rings (size 3 to 8) (size 9 to 14) (size 15 to 20)
#    0.000    1.500    2.500    4.125    7.000    0.000 
#    0.000    4.375    0.000    0.000    0.000    0.000 
#    0.000    0.000    0.000    0.000    0.000    0.000 
#
# Total GULP energy -198384.367875 kJ/mol
# GULP energy per Si atom -12399.022992 kJ/mol
# Density = 2.140017 g / cm^3
# Si number density = 21.448992 Si / 1000 Ang^3
#
#
#
# Elastic Constant Matrix: (Units=GPa)
#
#
# Indices 1 2 3 4 5 6 
#
# 1 51.7458 13.9220 6.4255 3.9652 -0.8834 3.9150
# 2 13.9220 93.0088 12.6322 8.1256 2.5024 5.5377
# 3 6.4255 12.6322 65.6088 -8.1768 -4.5661 -1.3954
# 4 3.9652 8.1256 -8.1768 43.5712 6.4200 -1.2874
# 5 -0.8834 2.5024 -4.5661 6.4200 26.2966 -5.6958
# 6 3.9150 5.5377 -1.3954 -1.2874 -5.6958 25.8643
#
#
#
# Elastic Compliance Matrix: (Units=1/GPa)
#
#
# Indices 1 2 3 4 5 6 
#
# 1 0.020582 -0.002529 -0.001785 -0.001890 0.000509 -0.002652
# 2 -0.002529 0.011881 -0.002502 -0.002288 -0.001694 -0.002783
# 3 -0.001785 -0.002502 0.016568 0.003405 0.002760 0.002477
# 4 -0.001890 -0.002288 0.003405 0.024974 -0.005119 0.001075
# 5 0.000509 -0.001694 0.002760 -0.005119 0.041976 0.009424
# 6 -0.002652 -0.002783 0.002477 0.001075 0.009424 0.041923
#
#
# Mechanical properties :
#
#
# Convention : Reuss Voigt Hill
#
# Bulk Modulus (GPa) = 28.25053 30.70252 29.47653
# Shear Modulus (GPa) = 27.27232 30.97200 29.12216
#
# Velocity S-wave (km/s) = 3.56967 3.80410 3.68875
# Velocity P-wave (km/s) = 5.49452 5.80002 5.64933
#
# Compressibility (1/GPa) = 0.03539757
#
# Stress axis : x y z
#
# Youngs Moduli (GPa) = 48.58732 84.16661 60.35890
#
# Poissons Ratio (x) = 0.21285 0.10776
# Poissons Ratio (y) = 0.12288 0.15103
# Poissons Ratio (z) = 0.08674 0.21060
#
# Static dielectric constant tensor:
#      x y z
#    x 3.782230 0.293990 -0.112560 
#    y 0.293990 4.302140 -0.003130 
#    z -0.112560 -0.003130 3.883890 
# 
# 
# High freq. dielectric constant tensor:
#      x y z
#    x 1.815700 0.015430 -0.006300 
#    y 0.015430 1.853200 -0.001850 
#    z -0.006300 -0.001850 1.842410 
# 
# From -- ./inp_files/238712.got.cif
#   From: 2010.06.25/outbox.cif.g09.slc.cpg/sg2_120_cif.got.tgz:238712.got - 2010.06.27 13:26:56.
