data_PCOD8042909
_publ_section_title
;
Structure prediction by ZEFSAII (Michael W. Deem and Ramdas Pophale) SiO2 
 PCOD8042909
Probable space group: P -1
;
_chemical_formula_sum "Si O2"
_cell_formula_units_Z 16
_cell_length_a 8.370497
_cell_length_b 9.004342
_cell_length_c 11.596320
_cell_angle_alpha 86.456816
_cell_angle_beta 116.925834
_cell_angle_gamma 115.847616
_cell_volume 691.222152
_symmetry_space_group_name_H-M "P -1"
_symmetry_group_IT_number 2
_symmetry_cell_setting 'triclinic'
loop_
_space_group_symop_operation_xyz
x,y,z
-x,-y,-z
loop_
_atom_site_type_symbol
_atom_site_label
_atom_site_fract_x
_atom_site_fract_y
_atom_site_fract_z
Si Si1 0.591291 0.150117 0.802410
Si Si2 0.706392 0.717350 0.667787
Si Si3 0.108044 0.522746 0.243642
Si Si4 0.540320 0.467805 0.191808
Si Si5 0.031949 0.263470 0.689234
Si Si6 0.340657 0.040676 0.515862
Si Si7 0.902919 0.032618 0.857532
Si Si8 0.325022 0.633547 0.980943
O O1 0.722534 0.334431 0.784274
O O2 0.383622 0.058778 0.666147
O O3 0.695301 0.030057 0.828807
O O4 0.563403 0.184366 0.926590
O O5 0.806891 0.599601 0.672205
O O6 0.528820 0.631611 0.707121
O O7 0.629226 0.777092 0.526770
O O8 0.874804 0.887589 0.767721
O O9 0.055530 0.602239 0.335174
O O10 0.912894 0.422948 0.103270
O O11 0.589878 0.356154 0.121129
O O12 0.736653 0.643115 0.280330
O O13 0.363955 0.500647 0.076871
O O14 0.886480 0.109087 0.568131
O O15 0.039844 0.205148 0.826987
O O16 0.500000 0.000000 0.500000
O O17 0.000000 0.000000 0.000000
#
# Coordination Sequence:
#
# PCOD8042909 Si02
#       8
#     2   2   2   2   2   2   2   2
#     4  11  20  38  63  90 122 169 205 254 304 366
#     4  11  22  37  66  98 118 158 221 262 300 365
#     4  10  19  35  64  95 122 154 214 265 297 362
#     4  10  22  38  63  98 128 161 200 262 328 368
#     4   9  21  41  63  88 128 172 200 256 321 365
#     4  11  21  44  65  86 125 169 218 251 301 373
#     4  10  21  33  62  90 125 159 209 248 305 372
#     4  10  21  36  62  93 133 158 198 251 334 366
#
# _framework density 23.147409
#
# number of rings (size 3 to 8) (size 9 to 14) (size 15 to 20)
#    0.000    1.750    5.000    1.125    7.000    0.500 
#    0.000    1.875   11.000    0.000    0.000    0.000 
#    0.000    0.000    0.000    0.000    0.000    0.000 
#
# Total GULP energy -198304.875133 kJ/mol
# GULP energy per Si atom -12394.054696 kJ/mol
# Density = 2.309472 g / cm^3
# Si number density = 23.147409 Si / 1000 Ang^3
#
#
#
# Elastic Constant Matrix: (Units=GPa)
#
#
# Indices 1 2 3 4 5 6 
#
# 1 59.5367 41.0053 33.6298 -4.3002 15.1351 -6.2159
# 2 41.0053 94.5347 45.9609 -2.4738 12.5558 -15.5673
# 3 33.6298 45.9609 139.2696 16.5544 16.3992 -0.7119
# 4 -4.3002 -2.4738 16.5544 36.1128 -10.4790 8.0561
# 5 15.1351 12.5558 16.3992 -10.4790 28.6295 -0.2934
# 6 -6.2159 -15.5673 -0.7119 8.0561 -0.2934 36.5655
#
#
#
# Elastic Compliance Matrix: (Units=1/GPa)
#
#
# Indices 1 2 3 4 5 6 
#
# 1 0.026808 -0.009190 -0.002645 0.001368 -0.008123 0.000227
# 2 -0.009190 0.017232 -0.003388 0.000194 -0.000630 0.005661
# 3 -0.002645 -0.003388 0.010417 -0.006903 -0.005612 -0.000213
# 4 0.001368 0.000194 -0.006903 0.037709 0.016867 -0.007992
# 5 -0.008123 -0.000630 -0.005612 0.016867 0.048836 -0.005083
# 6 0.000227 0.005661 -0.000213 -0.007992 -0.005083 0.031513
#
#
# Mechanical properties :
#
#
# Convention : Reuss Voigt Hill
#
# Bulk Modulus (GPa) = 41.64696 59.39254 50.51975
# Shear Modulus (GPa) = 23.70074 31.77790 27.73932
#
# Velocity S-wave (km/s) = 3.20332 3.70922 3.46551
# Velocity P-wave (km/s) = 5.63141 6.63766 6.15513
#
# Compressibility (1/GPa) = 0.02401136
#
# Stress axis : x y z
#
# Youngs Moduli (GPa) = 37.30285 58.03094 95.99352
#
# Poissons Ratio (x) = 0.53330 0.25394
# Poissons Ratio (y) = 0.34281 0.32519
# Poissons Ratio (z) = 0.09868 0.19659
#
# Static dielectric constant tensor:
#      x y z
#    x 4.154940 -0.274300 0.114060 
#    y -0.274300 4.145550 0.249560 
#    z 0.114060 0.249560 4.026910 
# 
# 
# High freq. dielectric constant tensor:
#      x y z
#    x 1.899220 -0.022930 0.010900 
#    y -0.022930 1.904230 0.013480 
#    z 0.010900 0.013480 1.911210 
# 
# From -- ./inp_files/307184.got.cif
#   From: 2010.06.25/outbox.cif.g09.slc.cpg/sg2_154_cif.got.tgz:307184.got - 2010.06.27 13:26:56.
