data_PCOD8042570
_publ_section_title
;
Structure prediction by ZEFSAII (Michael W. Deem and Ramdas Pophale) SiO2 
 PCOD8042570
Probable space group: P -1
;
_chemical_formula_sum "Si O2"
_cell_formula_units_Z 16
_cell_length_a 11.367094
_cell_length_b 9.966517
_cell_length_c 17.353587
_cell_angle_alpha 123.316092
_cell_angle_beta 145.999165
_cell_angle_gamma 49.800293
_cell_volume 839.254590
_symmetry_space_group_name_H-M "P -1"
_symmetry_group_IT_number 2
_symmetry_cell_setting 'triclinic'
loop_
_space_group_symop_operation_xyz
x,y,z
-x,-y,-z
loop_
_atom_site_type_symbol
_atom_site_label
_atom_site_fract_x
_atom_site_fract_y
_atom_site_fract_z
Si Si1 0.325549 0.846484 0.820446
Si Si2 0.108110 0.319540 0.281622
Si Si3 0.040798 0.166416 0.044458
Si Si4 0.640314 0.600186 0.146486
Si Si5 0.857396 0.912337 0.639452
Si Si6 0.526470 0.745779 0.424367
Si Si7 0.544941 0.444300 0.814691
Si Si8 0.577129 0.024590 0.925980
O O1 0.510800 0.645896 0.860826
O O2 0.389709 0.943919 0.815866
O O3 0.061852 0.865949 0.673054
O O4 0.324225 0.941051 0.929859
O O5 0.154372 0.240215 0.196301
O O6 0.902521 0.512372 0.232204
O O7 0.336113 0.333497 0.446126
O O8 0.033820 0.189772 0.253652
O O9 0.211948 0.117999 0.050541
O O10 0.804183 0.321528 0.939156
O O11 0.000000 0.000000 0.000000
O O12 0.627104 0.585499 0.226974
O O13 0.540068 0.802700 0.134001
O O14 0.500000 0.500000 0.000000
O O15 0.733963 0.120864 0.654689
O O16 0.659738 0.848660 0.482948
O O17 0.518907 0.594280 0.317795
#
# Coordination Sequence:
#
# PCOD8042570 Si02
#       8
#     2   2   2   2   2   2   2   2
#     4  11  22  39  56  83 130 155 190 238 302 354
#     4  10  19  35  58  87 117 143 191 253 284 332
#     4  12  21  33  62  89 117 148 198 248 292 338
#     4  12  19  35  58  89 117 146 193 245 294 332
#     4   9  18  36  59  84 117 151 190 243 286 338
#     4   9  21  34  60  94 113 150 203 244 284 337
#     4  12  21  35  63  89 117 154 198 248 282 350
#     4  11  24  36  56  90 121 159 188 241 302 353
#
# _framework density 19.064536
#
# number of rings (size 3 to 8) (size 9 to 14) (size 15 to 20)
#    0.750    0.500    5.000    2.250    0.000    2.500 
#    0.000    1.250    0.000    8.250    0.000    0.000 
#    0.000    0.000    0.000    0.000    0.000    0.000 
#
# Total GULP energy -198363.392106 kJ/mol
# GULP energy per Si atom -12397.712007 kJ/mol
# Density = 1.902114 g / cm^3
# Si number density = 19.064536 Si / 1000 Ang^3
#
#
#
# Elastic Constant Matrix: (Units=GPa)
#
#
# Indices 1 2 3 4 5 6 
#
# 1 90.6179 49.3827 30.7396 9.5713 1.2975 -13.3879
# 2 49.3827 103.0050 28.8401 -8.8820 4.7964 -13.8838
# 3 30.7396 28.8401 83.5478 -0.7019 -13.5368 -12.2159
# 4 9.5713 -8.8820 -0.7019 19.4002 -9.3211 2.6001
# 5 1.2975 4.7964 -13.5368 -9.3211 31.2317 2.4713
# 6 -13.3879 -13.8838 -12.2159 2.6001 2.4713 35.3677
#
#
#
# Elastic Compliance Matrix: (Units=1/GPa)
#
#
# Indices 1 2 3 4 5 6 
#
# 1 0.020402 -0.009008 -0.005153 -0.018600 -0.007589 0.004304
# 2 -0.009008 0.015651 -0.001708 0.011678 0.000617 0.001242
# 3 -0.005153 -0.001708 0.016301 0.006598 0.009363 0.001870
# 4 -0.018600 0.011678 0.006598 0.080026 0.026348 -0.007902
# 5 -0.007589 0.000617 0.009363 0.026348 0.044513 -0.004444
# 6 0.004304 0.001242 0.001870 -0.007902 -0.004444 0.031928
#
#
# Mechanical properties :
#
#
# Convention : Reuss Voigt Hill
#
# Bulk Modulus (GPa) = 48.51242 55.01062 51.76152
# Shear Modulus (GPa) = 20.20753 28.41379 24.31066
#
# Velocity S-wave (km/s) = 3.25922 3.86476 3.57484
# Velocity P-wave (km/s) = 6.29802 6.98804 6.65198
#
# Compressibility (1/GPa) = 0.02061328
#
# Stress axis : x y z
#
# Youngs Moduli (GPa) = 49.01534 63.89304 61.34661
#
# Poissons Ratio (x) = 0.57558 0.31614
# Poissons Ratio (y) = 0.44155 0.10481
# Poissons Ratio (z) = 0.25259 0.10916
#
# Static dielectric constant tensor:
#      x y z
#    x 3.484750 -0.211720 -0.001900 
#    y -0.211720 3.489040 -0.054710 
#    z -0.001900 -0.054710 3.312080 
# 
# 
# High freq. dielectric constant tensor:
#      x y z
#    x 1.723410 -0.029370 -0.002000 
#    y -0.029370 1.740230 -0.009960 
#    z -0.002000 -0.009960 1.724100 
# 
# From -- ./inp_files/402665.got.cif
#   From: 2010.06.25/outbox.cif.g09.slc.cpg/sg2_202_cif.got.tgz:402665.got - 2010.06.27 13:26:56.
