data_PCOD8042250
_publ_section_title
;
Structure prediction by ZEFSAII (Michael W. Deem and Ramdas Pophale) SiO2 
 PCOD8042250
Probable space group: P -1
;
_chemical_formula_sum "Si O2"
_cell_formula_units_Z 16
_cell_length_a 21.407962
_cell_length_b 9.238867
_cell_length_c 18.978752
_cell_angle_alpha 44.533132
_cell_angle_beta 19.396775
_cell_angle_gamma 53.280502
_cell_volume 828.380923
_symmetry_space_group_name_H-M "P -1"
_symmetry_group_IT_number 2
_symmetry_cell_setting 'triclinic'
loop_
_space_group_symop_operation_xyz
x,y,z
-x,-y,-z
loop_
_atom_site_type_symbol
_atom_site_label
_atom_site_fract_x
_atom_site_fract_y
_atom_site_fract_z
Si Si1 0.915715 0.656238 0.215302
Si Si2 0.853613 0.546703 0.478025
Si Si3 0.545684 0.464817 0.043086
Si Si4 0.322784 0.016498 0.633808
Si Si5 0.494578 0.000122 0.306184
Si Si6 0.983799 0.681622 0.507407
Si Si7 0.121067 0.667155 0.755218
Si Si8 0.080315 0.970806 0.179365
O O1 0.930148 0.576033 0.306978
O O2 0.756477 0.784486 0.330287
O O3 0.847947 0.450401 0.307947
O O4 0.137686 0.797526 0.908861
O O5 0.617317 0.492810 0.746992
O O6 0.904776 0.343117 0.530227
O O7 0.947504 0.769016 0.344578
O O8 0.550129 0.218842 0.125321
O O9 0.500000 0.500000 0.000000
O O10 0.753165 0.637301 0.786750
O O11 0.500000 0.000000 0.500000
O O12 0.407360 0.053740 0.452849
O O13 0.340619 0.795308 0.503713
O O14 0.698646 0.945639 0.117018
O O15 0.000000 0.500000 0.500000
O O16 0.076470 0.910218 0.288191
O O17 0.003060 0.831736 0.806982
O O18 0.000000 0.500000 0.000000
#
# Coordination Sequence:
#
# PCOD8042250 Si02
#       8
#     2   2   2   2   2   2   2   2
#     4  11  25  42  59  90 125 165 204 256 309 361
#     4  11  20  37  65  93 122 151 207 263 305 355
#     4  12  18  33  63  97 120 151 200 256 310 356
#     4  11  24  40  65  90 120 155 212 264 306 353
#     4  12  22  39  64  93 119 164 205 248 309 369
#     4  10  19  34  61 100 119 151 201 264 307 354
#     4  12  26  43  59  85 132 174 204 244 305 375
#     4  11  22  39  65  95 124 157 208 256 305 367
#
# _framework density 19.314784
#
# number of rings (size 3 to 8) (size 9 to 14) (size 15 to 20)
#    0.000    0.750    8.750    0.750    3.500    1.500 
#    0.000    0.625    0.000    5.250    0.000    0.000 
#    0.000    0.000    0.000    0.000    0.000    0.000 
#
# Total GULP energy -198411.189052 kJ/mol
# GULP energy per Si atom -12400.699316 kJ/mol
# Density = 1.927082 g / cm^3
# Si number density = 19.314784 Si / 1000 Ang^3
#
#
#
# Elastic Constant Matrix: (Units=GPa)
#
#
# Indices 1 2 3 4 5 6 
#
# 1 96.4928 52.4341 24.3988 2.6597 9.9678 -10.9585
# 2 52.4341 95.6225 43.1528 6.6765 -1.7647 -2.6372
# 3 24.3988 43.1528 121.0583 20.4170 -4.2463 -6.0878
# 4 2.6597 6.6765 20.4170 26.4310 -12.9164 -1.4130
# 5 9.9678 -1.7647 -4.2463 -12.9164 37.7323 1.2260
# 6 -10.9585 -2.6372 -6.0878 -1.4130 1.2260 30.2900
#
#
#
# Elastic Compliance Matrix: (Units=1/GPa)
#
#
# Indices 1 2 3 4 5 6 
#
# 1 0.016381 -0.008931 0.000304 -0.002076 -0.005595 0.005340
# 2 -0.008931 0.017337 -0.004668 0.001580 0.003274 -0.002719
# 3 0.000304 -0.004668 0.011304 -0.008461 -0.001977 0.001661
# 4 -0.002076 0.001580 -0.008461 0.052836 0.017775 -0.000569
# 5 -0.005595 0.003274 -0.001977 0.017775 0.034083 -0.002687
# 6 0.005340 -0.002719 0.001661 -0.000569 -0.002687 0.035125
#
#
# Mechanical properties :
#
#
# Convention : Reuss Voigt Hill
#
# Bulk Modulus (GPa) = 54.25119 61.46055 57.85587
# Shear Modulus (GPa) = 25.02487 31.76984 28.39736
#
# Velocity S-wave (km/s) = 3.60340 4.06007 3.83853
# Velocity P-wave (km/s) = 6.74251 7.33951 7.04734
#
# Compressibility (1/GPa) = 0.01843278
#
# Stress axis : x y z
#
# Youngs Moduli (GPa) = 61.04553 57.68045 88.46154
#
# Poissons Ratio (x) = 0.51514 -0.02693
# Poissons Ratio (y) = 0.54520 0.41297
# Poissons Ratio (z) = -0.01858 0.26927
#
# Static dielectric constant tensor:
#      x y z
#    x 3.812200 -0.450850 0.203700 
#    y -0.450850 3.486890 0.133880 
#    z 0.203700 0.133880 3.920700 
# 
# 
# High freq. dielectric constant tensor:
#      x y z
#    x 1.754010 -0.029080 0.010410 
#    y -0.029080 1.726680 0.015300 
#    z 0.010410 0.015300 1.770880 
# 
# From -- ./inp_files/306277.got.cif
#   From: 2010.06.25/outbox.cif.g09.slc.cpg/sg2_154_cif.got.tgz:306277.got - 2010.06.27 13:26:56.
