data_PCOD8042986
_publ_section_title
;
Structure prediction by ZEFSAII (Michael W. Deem and Ramdas Pophale) SiO2 
 PCOD8042986
Probable space group: P -1
;
_chemical_formula_sum "Si O2"
_cell_formula_units_Z 14
_cell_length_a 15.876390
_cell_length_b 8.906352
_cell_length_c 16.473578
_cell_angle_alpha 92.442031
_cell_angle_beta 162.499714
_cell_angle_gamma 90.019449
_cell_volume 693.292223
_symmetry_space_group_name_H-M "P -1"
_symmetry_group_IT_number 2
_symmetry_cell_setting 'triclinic'
loop_
_space_group_symop_operation_xyz
x,y,z
-x,-y,-z
loop_
_atom_site_type_symbol
_atom_site_label
_atom_site_fract_x
_atom_site_fract_y
_atom_site_fract_z
Si Si1 0.189507 0.474432 0.748507
Si Si2 0.550673 0.184572 0.550074
Si Si3 0.117526 0.870390 0.706088
Si Si4 0.321636 0.177733 0.836465
Si Si5 0.930923 0.333353 0.204599
Si Si6 0.458737 0.624281 0.294882
Si Si7 0.116974 0.361257 0.059725
O O1 0.157962 0.295507 0.736751
O O2 0.102567 0.549264 0.752194
O O3 0.000000 0.500000 0.500000
O O4 0.500000 0.500000 0.000000
O O5 0.589125 0.251558 0.678042
O O6 0.295732 0.258799 0.277002
O O7 0.500000 0.000000 0.500000
O O8 0.846393 0.245161 0.776347
O O9 0.047909 0.827052 0.734766
O O10 0.830857 0.861321 0.391486
O O11 0.298702 0.035640 0.872651
O O12 0.344068 0.762734 0.875577
O O13 0.209517 0.384200 0.409291
O O14 0.662745 0.317865 0.898831
O O15 0.316133 0.449765 0.175973
O O16 0.000000 0.500000 0.000000
#
# Coordination Sequence:
#
# PCOD8042986 Si02
#       7
#     2   2   2   2   2   2   2
#     4  12  21  36  57  83 111 151 207 252 286 350
#     4  11  22  41  69  97 121 163 211 249 293 373
#     4  10  20  34  57  76 109 149 192 243 299 350
#     4  10  19  36  54  79 103 148 203 246 286 349
#     4  12  22  36  57  89 122 158 199 259 311 349
#     4  11  23  39  60  91 125 161 200 245 316 369
#     4  10  20  40  66  91 125 164 205 242 296 383
#
# _framework density 20.193505999999999
#
# number of rings (size 3 to 8) (size 9 to 14) (size 15 to 20)
#    0.000    1.143    2.857    6.429    0.000    0.000 
#    0.000    4.286    0.000    0.000    0.000    0.000 
#    0.000    0.000    0.000    0.000    0.000    0.000 
#
# Total GULP energy -173457.168773 kJ/mol
# GULP energy per Si atom -12389.797769 kJ/mol
# Density = 2.014754 g / cm^3
# Si number density = 20.193506 Si / 1000 Ang^3
#
#
#
# Elastic Constant Matrix: (Units=GPa)
#
#
# Indices 1 2 3 4 5 6 
#
# 1 75.1774 37.0006 16.9360 1.2298 -1.0018 2.4533
# 2 37.0006 118.1382 33.5818 -9.2449 1.3613 10.1040
# 3 16.9360 33.5818 116.5472 -8.8199 1.9912 2.5334
# 4 1.2298 -9.2449 -8.8199 37.3571 7.2795 -0.2099
# 5 -1.0018 1.3613 1.9912 7.2795 39.6196 1.6918
# 6 2.4533 10.1040 2.5334 -0.2099 1.6918 31.2255
#
#
#
# Elastic Compliance Matrix: (Units=1/GPa)
#
#
# Indices 1 2 3 4 5 6 
#
# 1 0.016007 -0.004914 -0.001102 -0.002200 0.001018 0.000352
# 2 -0.004914 0.011092 -0.002215 0.002509 -0.000728 -0.002967
# 3 -0.001102 -0.002215 0.009533 0.001892 -0.000782 0.000085
# 4 -0.002200 0.002509 0.001892 0.028988 -0.005550 -0.000297
# 5 0.001018 -0.000728 -0.000782 -0.005550 0.026403 -0.001249
# 6 0.000352 -0.002967 0.000085 -0.000297 -0.001249 0.033016
#
#
# Mechanical properties :
#
#
# Convention : Reuss Voigt Hill
#
# Bulk Modulus (GPa) = 49.57784 53.87773 51.72778
# Shear Modulus (GPa) = 33.73254 36.46340 35.09797
#
# Velocity S-wave (km/s) = 4.09157 4.25396 4.17355
# Velocity P-wave (km/s) = 6.85025 7.13210 6.99260
#
# Compressibility (1/GPa) = 0.02017030
#
# Stress axis : x y z
#
# Youngs Moduli (GPa) = 62.47381 90.15589 104.89635
#
# Poissons Ratio (x) = 0.44303 0.11555
# Poissons Ratio (y) = 0.30700 0.23236
# Poissons Ratio (z) = 0.06882 0.19970
#
# Static dielectric constant tensor:
#      x y z
#    x 3.720810 0.015180 0.329680 
#    y 0.015180 4.320890 0.013280 
#    z 0.329680 0.013280 3.899520 
# 
# 
# High freq. dielectric constant tensor:
#      x y z
#    x 1.756700 0.022630 0.015540 
#    y 0.022630 1.799470 -0.009770 
#    z 0.015540 -0.009770 1.812580 
# 
# From -- ./inp_files/47958.got.cif
#   From: 2010.06.25/outbox.cif.g09.slc.cpg/sg2_24_cif.got.tgz:47958.got - 2010.06.27 13:26:56.
