data_PCOD8042606
_publ_section_title
;
Structure prediction by ZEFSAII (Michael W. Deem and Ramdas Pophale) SiO2 
 PCOD8042606
Probable space group: P -1
;
_chemical_formula_sum "Si O2"
_cell_formula_units_Z 16
_cell_length_a 12.335771
_cell_length_b 10.637380
_cell_length_c 14.586005
_cell_angle_alpha 59.427427
_cell_angle_beta 30.708419
_cell_angle_gamma 80.343409
_cell_volume 664.820841
_symmetry_space_group_name_H-M "P -1"
_symmetry_group_IT_number 2
_symmetry_cell_setting 'triclinic'
loop_
_space_group_symop_operation_xyz
x,y,z
-x,-y,-z
loop_
_atom_site_type_symbol
_atom_site_label
_atom_site_fract_x
_atom_site_fract_y
_atom_site_fract_z
Si Si1 0.044410 0.187161 0.921064
Si Si2 0.598569 0.812787 0.021185
Si Si3 0.396387 0.651531 0.579599
Si Si4 0.026753 0.848304 0.804237
Si Si5 0.750890 0.110688 0.659868
Si Si6 0.522625 0.017410 0.277488
Si Si7 0.830077 0.456447 0.021999
Si Si8 0.661537 0.570187 0.950622
O O1 0.357275 0.360858 0.606375
O O2 0.959057 0.174035 0.091716
O O3 0.000000 0.000000 0.000000
O O4 0.827001 0.194735 0.018754
O O5 0.799813 0.871834 0.937971
O O6 0.515420 0.626677 0.101418
O O7 0.762422 0.981979 0.768687
O O8 0.331725 0.777466 0.266748
O O9 0.490775 0.832798 0.389486
O O10 0.360046 0.670887 0.707945
O O11 0.107154 0.471755 0.813060
O O12 0.315866 0.021969 0.489914
O O13 0.955425 0.667804 0.872867
O O14 0.528803 0.976385 0.794465
O O15 0.036222 0.251070 0.353659
O O16 0.672821 0.416815 0.053583
O O17 0.500000 0.500000 0.000000
#
# Coordination Sequence:
#
# PCOD8042606 Si02
#       8
#     2   2   2   2   2   2   2   2
#     4  10  20  32  53  86 114 146 190 245 295 345
#     4  10  22  39  67  91 115 165 209 246 309 364
#     4   9  17  35  58  79 114 151 192 235 290 363
#     4  10  19  35  59  82 116 155 196 244 299 364
#     4  11  21  42  66  87 122 163 206 250 304 372
#     4  10  19  36  58  86 121 151 193 249 304 353
#     4   9  19  37  58  80 113 162 196 236 302 361
#     4  11  23  42  63  90 126 158 204 259 307 354
#
# _framework density 24.066635999999999
#
# number of rings (size 3 to 8) (size 9 to 14) (size 15 to 20)
#    0.000    2.000    3.750    2.250    0.000    1.000 
#    9.000    3.750    0.000    0.000    0.000    0.000 
#    0.000    0.000    0.000    0.000    0.000    0.000 
#
# Total GULP energy -198319.907084 kJ/mol
# GULP energy per Si atom -12394.994193 kJ/mol
# Density = 2.401186 g / cm^3
# Si number density = 24.066636 Si / 1000 Ang^3
#
#
#
# Elastic Constant Matrix: (Units=GPa)
#
#
# Indices 1 2 3 4 5 6 
#
# 1 138.6588 28.2118 16.4597 5.0558 -20.3950 18.9759
# 2 28.2118 39.2213 22.8291 19.9080 -8.7890 -1.9936
# 3 16.4597 22.8291 85.3203 19.6272 -10.1988 10.9149
# 4 5.0558 19.9080 19.6272 33.5831 1.7093 -0.9780
# 5 -20.3950 -8.7890 -10.1988 1.7093 38.1495 -0.1201
# 6 18.9759 -1.9936 10.9149 -0.9780 -0.1201 34.4864
#
#
#
# Elastic Compliance Matrix: (Units=1/GPa)
#
#
# Indices 1 2 3 4 5 6 
#
# 1 0.010176 -0.008830 0.000998 0.002755 0.003529 -0.006335
# 2 -0.008830 0.049893 -0.006426 -0.024542 0.006185 0.009102
# 3 0.000998 -0.006426 0.015813 -0.005940 0.003528 -0.006082
# 4 0.002755 -0.024542 -0.005940 0.047792 -0.007910 0.000273
# 5 0.003529 0.006185 0.003528 -0.007910 0.030813 -0.002818
# 6 -0.006335 0.009102 -0.006082 0.000273 -0.002818 0.034932
#
#
# Mechanical properties :
#
#
# Convention : Reuss Voigt Hill
#
# Bulk Modulus (GPa) = 21.11182 44.24462 32.67822
# Shear Modulus (GPa) = 21.39277 34.29044 27.84160
#
# Velocity S-wave (km/s) = 2.98467 3.77876 3.40495
# Velocity P-wave (km/s) = 4.54631 6.12069 5.39128
#
# Compressibility (1/GPa) = 0.04736682
#
# Stress axis : x y z
#
# Youngs Moduli (GPa) = 98.27443 20.04271 63.23717
#
# Poissons Ratio (x) = 0.17697 -0.06312
# Poissons Ratio (y) = 0.86774 0.40637
# Poissons Ratio (z) = -0.09808 0.12880
#
# Static dielectric constant tensor:
#      x y z
#    x 4.688510 -0.627500 -0.474020 
#    y -0.627500 3.967300 0.372770 
#    z -0.474020 0.372770 4.785950 
# 
# 
# High freq. dielectric constant tensor:
#      x y z
#    x 1.966180 -0.009640 -0.007270 
#    y -0.009640 1.954770 0.021180 
#    z -0.007270 0.021180 1.948510 
# 
# From -- ./inp_files/519567.got.cif
#   From: 2010.06.25/outbox.cif.g09.slc.cpg/sg2_260_cif.got.tgz:519567.got - 2010.06.27 13:26:56.
