data_PCOD8042538
_publ_section_title
;
Structure prediction by ZEFSAII (Michael W. Deem and Ramdas Pophale) SiO2 
 PCOD8042538
Probable space group: P -1
;
_chemical_formula_sum "Si O2"
_cell_formula_units_Z 14
_cell_length_a 12.004325
_cell_length_b 12.619269
_cell_length_c 10.713960
_cell_angle_alpha 145.595326
_cell_angle_beta 83.082519
_cell_angle_gamma 76.264372
_cell_volume 727.988738
_symmetry_space_group_name_H-M "P -1"
_symmetry_group_IT_number 2
_symmetry_cell_setting 'triclinic'
loop_
_space_group_symop_operation_xyz
x,y,z
-x,-y,-z
loop_
_atom_site_type_symbol
_atom_site_label
_atom_site_fract_x
_atom_site_fract_y
_atom_site_fract_z
Si Si1 0.492285 0.271414 0.650173
Si Si2 0.788028 0.933520 0.152363
Si Si3 0.685749 0.826546 0.576670
Si Si4 0.511301 0.680095 0.022469
Si Si5 0.813555 0.339188 0.533735
Si Si6 0.810621 0.650678 0.642239
Si Si7 0.989898 0.566089 0.316161
O O1 0.371480 0.285495 0.606464
O O2 0.490558 0.215875 0.741767
O O3 0.643360 0.072019 0.380647
O O4 0.453660 0.528058 0.892243
O O5 0.840460 0.092010 0.274189
O O6 0.765701 0.851027 0.944198
O O7 0.902916 0.708574 0.003410
O O8 0.689029 0.768223 0.665979
O O9 0.846779 0.708038 0.392983
O O10 0.592049 0.105518 0.846883
O O11 0.666372 0.531072 0.803582
O O12 0.817790 0.435948 0.492541
O O13 0.933595 0.308341 0.577525
O O14 0.956009 0.558830 0.461610
#
# Coordination Sequence:
#
# PCOD8042538 Si02
#       7
#     2   2   2   2   2   2   2
#     4  10  22  39  57  77 103 141 184 220 261 312
#     4  10  19  35  58  78 106 145 177 212 259 314
#     4  10  21  36  55  78 112 142 164 224 271 306
#     4  10  22  39  57  77 103 141 184 220 261 312
#     4  10  19  35  58  78 106 145 177 212 259 314
#     4   9  21  34  51  85 111 137 173 213 263 321
#     4   9  21  35  51  83 113 135 176 213 261 321
#
# _framework density 19.231068
#
# number of rings (size 3 to 8) (size 9 to 14) (size 15 to 20)
#    0.857    1.429    0.000    3.857    0.000    6.857 
#    0.000    5.714    0.000    5.143    0.000    0.000 
#    0.000    0.000    0.000    0.000    0.000    0.000 
#
# Total GULP energy -173533.670674 kJ/mol
# GULP energy per Si atom -12395.262191 kJ/mol
# Density = 1.918730 g / cm^3
# Si number density = 19.231068 Si / 1000 Ang^3
#
#
#
# Elastic Constant Matrix: (Units=GPa)
#
#
# Indices 1 2 3 4 5 6 
#
# 1 94.1323 21.8705 20.7118 11.3490 1.4878 -22.8727
# 2 21.8705 17.1330 10.5028 -12.7170 -3.7914 2.9755
# 3 20.7118 10.5028 73.9464 2.4060 9.5540 -18.5875
# 4 11.3490 -12.7170 2.4060 2.5902 -1.8895 7.1549
# 5 1.4878 -3.7914 9.5540 -1.8895 25.4540 5.4284
# 6 -22.8727 2.9755 -18.5875 7.1549 5.4284 12.5493
#
#
#
# Elastic Compliance Matrix: (Units=1/GPa)
#
#
# Indices 1 2 3 4 5 6 
#
# 1 0.007619 0.005406 -0.005073 0.013832 0.004282 -0.004648
# 2 0.005406 0.020185 0.005865 -0.027064 -0.008531 0.032875
# 3 -0.005073 0.005865 0.015847 0.015230 -0.004993 0.006311
# 4 0.013832 -0.027064 0.015230 0.018293 -0.020413 0.052586
# 5 0.004282 -0.008531 -0.004993 -0.020413 0.038693 -0.002667
# 6 -0.004648 0.032875 0.006311 0.052586 -0.002667 0.043940
#
#
# Mechanical properties :
#
#
# Convention : Reuss Voigt Hill
#
# Bulk Modulus (GPa) = 17.84227 32.37576 25.10901
# Shear Modulus (GPa) = 33.14234 16.92715 25.03475
#
# Velocity S-wave (km/s) = 4.15586 2.97003 3.61194
# Velocity P-wave (km/s) = 5.68561 5.35099 5.52084
#
# Compressibility (1/GPa) = 0.05604669
#
# Stress axis : x y z
#
# Youngs Moduli (GPa) = 131.24982 49.54121 63.10261
#
# Poissons Ratio (x) = -0.26780 0.32015
# Poissons Ratio (y) = -0.70949 -0.37012
# Poissons Ratio (z) = 0.66589 -0.29058
#
# Static dielectric constant tensor:
#      x y z
#    x 3.602070 0.093650 0.005690 
#    y 0.093650 3.381180 0.076630 
#    z 0.005690 0.076630 3.481020 
# 
# 
# High freq. dielectric constant tensor:
#      x y z
#    x 1.757940 0.003810 -0.003230 
#    y 0.003810 1.731890 0.006160 
#    z -0.003230 0.006160 1.751750 
# 
# From -- ./inp_files/414950.got.cif
#   From: 2010.06.25/outbox.cif.g09.slc.cpg/sg2_208_cif.got.tgz:414950.got - 2010.06.27 13:26:56.
