data_PCOD8042698
_publ_section_title
;
Structure prediction by ZEFSAII (Michael W. Deem and Ramdas Pophale) SiO2 
 PCOD8042698
Probable space group: P -1
;
_chemical_formula_sum "Si O2"
_cell_formula_units_Z 16
_cell_length_a 8.616320
_cell_length_b 10.167226
_cell_length_c 14.060323
_cell_angle_alpha 96.005015
_cell_angle_beta 67.564304
_cell_angle_gamma 137.357887
_cell_volume 740.106049
_symmetry_space_group_name_H-M "P -1"
_symmetry_group_IT_number 2
_symmetry_cell_setting 'triclinic'
loop_
_space_group_symop_operation_xyz
x,y,z
-x,-y,-z
loop_
_atom_site_type_symbol
_atom_site_label
_atom_site_fract_x
_atom_site_fract_y
_atom_site_fract_z
Si Si1 0.299497 0.983048 0.505555
Si Si2 0.423380 0.799344 0.923040
Si Si3 0.888428 0.948330 0.154537
Si Si4 0.184637 0.914145 0.987224
Si Si5 0.729990 0.657882 0.663611
Si Si6 0.780917 0.998308 0.682129
Si Si7 0.561807 0.609171 0.895271
Si Si8 0.665607 0.734858 0.378979
O O1 0.023577 0.784229 0.601693
O O2 0.500000 0.000000 0.500000
O O3 0.287494 0.960988 0.393164
O O4 0.390402 0.186616 0.523804
O O5 0.172553 0.746031 0.968006
O O6 0.613692 0.954374 0.804402
O O7 0.350282 0.598818 0.922385
O O8 0.559142 0.903983 0.000116
O O9 0.700944 0.830884 0.277866
O O10 0.773382 0.991616 0.117009
O O11 0.171721 0.152963 0.140008
O O12 0.921532 0.822626 0.085158
O O13 0.723070 0.810260 0.663706
O O14 0.597747 0.537514 0.787715
O O15 0.576946 0.506458 0.597548
O O16 0.082245 0.199793 0.649428
O O17 0.500000 0.500000 0.000000
#
# Coordination Sequence:
#
# PCOD8042698 Si02
#       8
#     2   2   2   2   2   2   2   2
#     4  11  25  43  66  90 124 161 205 265 321 362
#     4   9  18  35  54  88 124 156 207 252 306 365
#     4  10  19  35  60  87 119 168 209 247 309 369
#     4   9  18  31  58  84 118 157 212 242 302 367
#     4  10  22  40  65  92 122 160 215 253 301 382
#     4  10  21  41  64  89 121 164 207 258 314 366
#     4  10  20  35  58  88 126 166 204 249 302 371
#     4  11  21  40  65  90 121 163 208 256 310 372
#
# _framework density 21.618524000000001
#
# number of rings (size 3 to 8) (size 9 to 14) (size 15 to 20)
#    0.000    2.000    5.000    1.500    7.000    2.500 
#    0.000    0.625    2.750    0.000    0.000    0.000 
#    0.000    0.000    0.000    0.000    0.000    0.000 
#
# Total GULP energy -198303.809049 kJ/mol
# GULP energy per Si atom -12393.988066 kJ/mol
# Density = 2.156932 g / cm^3
# Si number density = 21.618524 Si / 1000 Ang^3
#
#
#
# Elastic Constant Matrix: (Units=GPa)
#
#
# Indices 1 2 3 4 5 6 
#
# 1 136.5652 17.2710 36.1924 5.5723 7.5971 6.4442
# 2 17.2710 75.6817 10.5458 9.2480 -9.6711 12.7066
# 3 36.1924 10.5458 71.9160 9.2987 17.6001 7.7737
# 4 5.5723 9.2480 9.2987 27.4373 2.2105 2.8034
# 5 7.5971 -9.6711 17.6001 2.2105 35.7951 3.8540
# 6 6.4442 12.7066 7.7737 2.8034 3.8540 24.3875
#
#
#
# Elastic Compliance Matrix: (Units=1/GPa)
#
#
# Indices 1 2 3 4 5 6 
#
# 1 0.008593 -0.001396 -0.004068 0.000143 -0.000184 -0.000234
# 2 -0.001396 0.016606 -0.001968 -0.004361 0.006908 -0.008247
# 3 -0.004068 -0.001968 0.019100 -0.004072 -0.008575 -0.002165
# 4 0.000143 -0.004361 -0.004072 0.039471 -0.001562 -0.000758
# 5 -0.000184 0.006908 -0.008575 -0.001562 0.034816 -0.006139
# 6 -0.000234 -0.008247 -0.002165 -0.000758 -0.006139 0.047111
#
#
# Mechanical properties :
#
#
# Convention : Reuss Voigt Hill
#
# Bulk Modulus (GPa) = 33.97238 45.79792 39.88515
# Shear Modulus (GPa) = 26.26457 32.20088 29.23273
#
# Velocity S-wave (km/s) = 3.48934 3.86360 3.68123
# Velocity P-wave (km/s) = 5.65531 6.41356 6.04633
#
# Compressibility (1/GPa) = 0.02943568
#
# Stress axis : x y z
#
# Youngs Moduli (GPa) = 116.38055 60.21879 52.35654
#
# Poissons Ratio (x) = 0.08405 0.21297
# Poissons Ratio (y) = 0.16244 0.10304
# Poissons Ratio (z) = 0.47339 0.11851
#
# Static dielectric constant tensor:
#      x y z
#    x 4.005860 -0.022680 -0.018610 
#    y -0.022680 3.819690 0.263140 
#    z -0.018610 0.263140 4.222740 
# 
# 
# High freq. dielectric constant tensor:
#      x y z
#    x 1.839770 0.008060 0.011490 
#    y 0.008060 1.829130 0.015140 
#    z 0.011490 0.015140 1.855770 
# 
# From -- ./inp_files/499194.got.cif
#   From: 2010.06.25/outbox.cif.g09.slc.cpg/sg2_250_cif.got.tgz:499194.got - 2010.06.27 13:26:56.
