data_PCOD8042768
_publ_section_title
;
Structure prediction by ZEFSAII (Michael W. Deem and Ramdas Pophale) SiO2 
 PCOD8042768
Probable space group: P -1
;
_chemical_formula_sum "Si O2"
_cell_formula_units_Z 14
_cell_length_a 22.370922
_cell_length_b 11.726430
_cell_length_c 9.656327
_cell_angle_alpha 131.874335
_cell_angle_beta 142.521246
_cell_angle_gamma 29.565737
_cell_volume 758.345251
_symmetry_space_group_name_H-M "P -1"
_symmetry_group_IT_number 2
_symmetry_cell_setting 'triclinic'
loop_
_space_group_symop_operation_xyz
x,y,z
-x,-y,-z
loop_
_atom_site_type_symbol
_atom_site_label
_atom_site_fract_x
_atom_site_fract_y
_atom_site_fract_z
Si Si1 0.846164 0.587057 0.780472
Si Si2 0.205639 0.554979 0.174188
Si Si3 0.803483 0.105698 0.483323
Si Si4 0.959648 0.706577 0.666113
Si Si5 0.952999 0.884362 0.308049
Si Si6 0.229851 0.047556 0.211515
Si Si7 0.470353 0.446037 0.541719
O O1 0.785109 0.596345 0.822270
O O2 0.728079 0.842208 0.701394
O O3 0.892182 0.390117 0.608325
O O4 0.000000 0.500000 0.000000
O O5 0.132141 0.794262 0.303335
O O6 0.370658 0.408696 0.304141
O O7 0.111647 0.610729 0.914660
O O8 0.623974 0.326490 0.349971
O O9 0.874395 0.918265 0.578868
O O10 0.837002 0.987184 0.301966
O O11 0.852410 0.806891 0.681383
O O12 0.000000 0.500000 0.500000
O O13 0.880135 0.928874 0.062551
O O14 0.000000 0.000000 0.500000
O O15 0.377086 0.777607 0.286484
O O16 0.500000 0.500000 0.500000
#
# Coordination Sequence:
#
# PCOD8042768 Si02
#       7
#     2   2   2   2   2   2   2
#     4  10  19  35  61  87 124 150 201 251 305 339
#     4  10  21  40  61  93 120 161 205 249 303 357
#     4  10  22  36  64  89 123 157 207 243 301 360
#     4  12  22  38  66  94 118 158 210 254 305 351
#     4  11  19  36  62  95 120 149 207 256 295 356
#     4  11  22  39  64  85 126 164 192 251 312 355
#     4  10  22  42  63  83 128 165 201 243 308 365
#
# _framework density 18.461248999999999
#
# number of rings (size 3 to 8) (size 9 to 14) (size 15 to 20)
#    0.857    0.571    5.714    1.286    2.000    2.286 
#    0.000    0.714    3.143    0.000    0.000    0.000 
#    0.000    0.000    0.000    0.000    0.000    0.000 
#
# Total GULP energy -173436.347994 kJ/mol
# GULP energy per Si atom -12388.310571 kJ/mol
# Density = 1.841923 g / cm^3
# Si number density = 18.461249 Si / 1000 Ang^3
#
#
#
# Elastic Constant Matrix: (Units=GPa)
#
#
# Indices 1 2 3 4 5 6 
#
# 1 132.4557 53.1035 33.9411 -5.0181 -3.1565 13.3621
# 2 53.1035 117.6711 47.8127 -5.4352 -14.9129 17.2185
# 3 33.9411 47.8127 68.8482 6.7264 -5.4636 1.8777
# 4 -5.0181 -5.4352 6.7264 31.2362 -0.8573 -2.5341
# 5 -3.1565 -14.9129 -5.4636 -0.8573 31.1365 3.2988
# 6 13.3621 17.2185 1.8777 -2.5341 3.2988 42.8736
#
#
#
# Elastic Compliance Matrix: (Units=1/GPa)
#
#
# Indices 1 2 3 4 5 6 
#
# 1 0.009681 -0.003016 -0.002842 0.001497 -0.000758 -0.001534
# 2 -0.003016 0.015074 -0.008738 0.003782 0.006011 -0.004970
# 3 -0.002842 -0.008738 0.022471 -0.006593 -0.001040 0.003101
# 4 0.001497 0.003782 -0.006593 0.034396 0.001732 0.000203
# 5 -0.000758 0.006011 -0.001040 0.001732 0.035287 -0.004745
# 6 -0.001534 -0.004970 0.003101 0.000203 -0.004745 0.026040
#
#
# Mechanical properties :
#
#
# Convention : Reuss Voigt Hill
#
# Bulk Modulus (GPa) = 55.45617 65.40996 60.43306
# Shear Modulus (GPa) = 28.06576 33.32377 30.69477
#
# Velocity S-wave (km/s) = 3.90327 4.25322 4.08200
# Velocity P-wave (km/s) = 7.10060 7.72190 7.41775
#
# Compressibility (1/GPa) = 0.01803226
#
# Stress axis : x y z
#
# Youngs Moduli (GPa) = 103.29774 66.34055 44.50126
#
# Poissons Ratio (x) = 0.20010 0.12649
# Poissons Ratio (y) = 0.31158 0.38886
# Poissons Ratio (z) = 0.29361 0.57969
#
# Static dielectric constant tensor:
#      x y z
#    x 3.651720 0.323200 -0.032490 
#    y 0.323200 3.197870 -0.060270 
#    z -0.032490 -0.060270 3.131440 
# 
# 
# High freq. dielectric constant tensor:
#      x y z
#    x 1.732390 0.011950 -0.002560 
#    y 0.011950 1.719660 0.010660 
#    z -0.002560 0.010660 1.684670 
# 
# From -- ./inp_files/174323.got.cif
#   From: 2010.06.25/outbox.cif.g09.slc.cpg/sg2_88_cif.got.tgz:174323.got - 2010.06.27 13:26:56.
