data_PCOD8042274
_publ_section_title
;
Structure prediction by ZEFSAII (Michael W. Deem and Ramdas Pophale) SiO2 
 PCOD8042274
Probable space group: P -1
;
_chemical_formula_sum "Si O2"
_cell_formula_units_Z 16
_cell_length_a 14.602397
_cell_length_b 8.381729
_cell_length_c 24.348400
_cell_angle_alpha 45.609861
_cell_angle_beta 160.418229
_cell_angle_gamma 128.122638
_cell_volume 702.800878
_symmetry_space_group_name_H-M "P -1"
_symmetry_group_IT_number 2
_symmetry_cell_setting 'triclinic'
loop_
_space_group_symop_operation_xyz
x,y,z
-x,-y,-z
loop_
_atom_site_type_symbol
_atom_site_label
_atom_site_fract_x
_atom_site_fract_y
_atom_site_fract_z
Si Si1 0.871902 0.132342 0.674756
Si Si2 0.536151 0.431525 0.663573
Si Si3 0.828328 0.626507 0.976370
Si Si4 0.184067 0.766647 0.864695
Si Si5 0.401595 0.271604 0.983037
Si Si6 0.696940 0.973937 0.911006
Si Si7 0.257603 0.067073 0.241892
Si Si8 0.314046 0.323042 0.457020
O O1 0.603051 0.312436 0.458380
O O2 0.076479 0.282836 0.783147
O O3 0.788769 0.942080 0.715943
O O4 0.013793 0.001221 0.734154
O O5 0.841150 0.437115 0.809855
O O6 0.326195 0.337790 0.525674
O O7 0.570031 0.242249 0.775568
O O8 0.705903 0.405269 0.981169
O O9 0.675569 0.844388 0.872384
O O10 0.768318 0.684968 0.862984
O O11 0.001443 0.629580 0.754675
O O12 0.432458 0.830900 0.952897
O O13 0.500000 0.500000 0.000000
O O14 0.473259 0.115861 0.114570
O O15 0.026592 0.940125 0.114970
O O16 0.559008 0.925539 0.434062
O O17 0.500000 0.500000 0.500000
#
# Coordination Sequence:
#
# PCOD8042274 Si02
#       8
#     2   2   2   2   2   2   2   2
#     4  11  25  41  59  92 127 163 195 244 314 363
#     4  11  20  36  65  92 127 152 199 256 302 360
#     4  11  19  35  63  95 122 156 199 252 305 348
#     4  12  25  40  61  88 129 163 200 248 301 364
#     4  11  23  44  68  86 112 162 220 251 289 352
#     4  10  19  37  64  96 114 156 206 262 292 339
#     4  10  19  34  61  91 124 154 197 247 301 362
#     4  12  19  35  61  92 119 158 203 244 295 353
#
# _framework density 22.766051000000001
#
# number of rings (size 3 to 8) (size 9 to 14) (size 15 to 20)
#    0.000    1.000    6.250    1.875    0.000    2.500 
#    0.000    6.875    0.000    0.000    0.000    0.000 
#    0.000    0.000    0.000    0.000    0.000    0.000 
#
# Total GULP energy -198251.686387 kJ/mol
# GULP energy per Si atom -12390.730399 kJ/mol
# Density = 2.271423 g / cm^3
# Si number density = 22.766051 Si / 1000 Ang^3
#
#
#
# Elastic Constant Matrix: (Units=GPa)
#
#
# Indices 1 2 3 4 5 6 
#
# 1 115.1532 26.5077 44.8260 -25.9635 9.9905 38.9139
# 2 26.5077 62.2020 20.9919 -13.0071 -1.8058 19.4378
# 3 44.8260 20.9919 92.0511 -22.0350 -0.1033 17.9052
# 4 -25.9635 -13.0071 -22.0350 28.5554 -6.4174 0.9892
# 5 9.9905 -1.8058 -0.1033 -6.4174 28.4806 -7.1925
# 6 38.9139 19.4378 17.9052 0.9892 -7.1925 38.2409
#
#
#
# Elastic Compliance Matrix: (Units=1/GPa)
#
#
# Indices 1 2 3 4 5 6 
#
# 1 0.022863 0.002824 -0.002158 0.019031 -0.010149 -0.026091
# 2 0.002824 0.022156 -0.000653 0.012570 -0.000347 -0.014220
# 3 -0.002158 -0.000653 0.015403 0.010216 0.001915 -0.004588
# 4 0.019031 0.012570 0.010216 0.067320 0.001234 -0.032048
# 5 -0.010149 -0.000347 0.001915 0.001234 0.043415 0.017741
# 6 -0.026091 -0.014220 -0.004588 -0.032048 0.017741 0.066242
#
#
# Mechanical properties :
#
#
# Convention : Reuss Voigt Hill
#
# Bulk Modulus (GPa) = 16.54342 50.45083 33.49713
# Shear Modulus (GPa) = 19.41576 30.86078 25.13827
#
# Velocity S-wave (km/s) = 2.92351 3.68579 3.32656
# Velocity P-wave (km/s) = 4.32184 6.34996 5.43141
#
# Compressibility (1/GPa) = 0.06044700
#
# Stress axis : x y z
#
# Youngs Moduli (GPa) = 43.73951 45.13489 64.92070
#
# Poissons Ratio (x) = -0.12744 0.14010
# Poissons Ratio (y) = -0.12350 0.04239
# Poissons Ratio (z) = 0.09439 0.02947
#
# Static dielectric constant tensor:
#      x y z
#    x 4.118330 0.243040 -0.028950 
#    y 0.243040 3.868080 -0.048790 
#    z -0.028950 -0.048790 4.040870 
# 
# 
# High freq. dielectric constant tensor:
#      x y z
#    x 1.895440 -0.000960 -0.008580 
#    y -0.000960 1.881190 -0.014430 
#    z -0.008580 -0.014430 1.884400 
# 
# From -- ./inp_files/209294.got.cif
#   From: 2010.06.25/outbox.cif.g09.slc.cpg/sg2_105_cif.got.tgz:209294.got - 2010.06.27 13:26:56.
