data_PCOD8042387
_publ_section_title
;
Structure prediction by ZEFSAII (Michael W. Deem and Ramdas Pophale) SiO2 
 PCOD8042387
Probable space group: P -1
;
_chemical_formula_sum "Si O2"
_cell_formula_units_Z 16
_cell_length_a 12.468056
_cell_length_b 16.804884
_cell_length_c 24.736772
_cell_angle_alpha 19.730854
_cell_angle_beta 28.274779
_cell_angle_gamma 38.352077
_cell_volume 795.732045
_symmetry_space_group_name_H-M "P -1"
_symmetry_group_IT_number 2
_symmetry_cell_setting 'triclinic'
loop_
_space_group_symop_operation_xyz
x,y,z
-x,-y,-z
loop_
_atom_site_type_symbol
_atom_site_label
_atom_site_fract_x
_atom_site_fract_y
_atom_site_fract_z
Si Si1 0.785686 0.745767 0.674626
Si Si2 0.419549 0.214718 0.560763
Si Si3 0.104096 0.541913 0.850817
Si Si4 0.231564 0.156218 0.199313
Si Si5 0.226232 0.627817 0.353325
Si Si6 0.420927 0.952947 0.504010
Si Si7 0.271779 0.113462 0.083590
Si Si8 0.576242 0.213695 0.100042
O O1 0.634750 0.769556 0.778332
O O2 0.674021 0.826207 0.618139
O O3 0.790265 0.463616 0.847206
O O4 0.045183 0.919464 0.458819
O O5 0.274401 0.412492 0.506579
O O6 0.373552 0.084355 0.604393
O O7 0.703601 0.344445 0.354808
O O8 0.333433 0.016457 0.773714
O O9 0.855525 0.595071 0.912563
O O10 0.795613 0.300708 0.239410
O O11 0.091412 0.257691 0.047351
O O12 0.262240 0.096732 0.162125
O O13 0.478796 0.184848 0.100732
O O14 0.000000 0.500000 0.500000
O O15 0.180390 0.839571 0.275855
O O16 0.457903 0.744046 0.140481
O O17 0.500000 0.000000 0.500000
#
# Coordination Sequence:
#
# PCOD8042387 Si02
#       8
#     2   2   2   2   2   2   2   2
#     4   9  20  33  48  83 119 153 184 215 264 356
#     4   8  18  36  55  80 114 145 192 237 261 342
#     4   8  18  34  51  87 122 137 180 231 279 350
#     4  11  20  34  58  85 120 149 175 229 287 341
#     4  10  22  43  62  77 110 150 191 241 291 323
#     4   8  15  28  52  78 116 144 168 226 281 321
#     4  10  22  39  57  88 112 142 195 236 279 347
#     4  10  19  35  54  79 120 156 183 219 279 336
#
# _framework density 20.10727
#
# number of rings (size 3 to 8) (size 9 to 14) (size 15 to 20)
#    0.750    2.000    1.250    0.750    1.750    3.000 
#    6.750    1.875    0.000    1.500    0.000    0.000 
#    0.000    0.000    0.000    0.000    0.000    0.000 
#
# Total GULP energy -198239.851337 kJ/mol
# GULP energy per Si atom -12389.990709 kJ/mol
# Density = 2.006151 g / cm^3
# Si number density = 20.107270 Si / 1000 Ang^3
#
#
#
# Elastic Constant Matrix: (Units=GPa)
#
#
# Indices 1 2 3 4 5 6 
#
# 1 78.1889 40.0423 24.6983 -19.9203 4.3853 -1.4967
# 2 40.0423 104.2586 48.3096 -37.9807 6.4649 -6.9446
# 3 24.6983 48.3096 59.3794 -33.3517 -1.7789 0.9040
# 4 -19.9203 -37.9807 -33.3517 38.1364 -4.9968 4.6727
# 5 4.3853 6.4649 -1.7789 -4.9968 23.1410 1.9428
# 6 -1.4967 -6.9446 0.9040 4.6727 1.9428 15.8593
#
#
#
# Elastic Compliance Matrix: (Units=1/GPa)
#
#
# Indices 1 2 3 4 5 6 
#
# 1 0.016355 -0.004565 -0.001794 0.002353 -0.001380 -0.000878
# 2 -0.004565 0.019231 -0.010689 0.005896 -0.004680 0.007436
# 3 -0.001794 -0.010689 0.045088 0.032155 0.015311 -0.018770
# 4 0.002353 0.005896 0.032155 0.066102 0.016374 -0.020511
# 5 -0.001380 -0.004680 0.015311 0.016374 0.050677 -0.014085
# 6 -0.000878 0.007436 -0.018770 -0.020511 -0.014085 0.075066
#
#
# Mechanical properties :
#
#
# Convention : Reuss Voigt Hill
#
# Bulk Modulus (GPa) = 21.47002 51.99193 36.73097
# Shear Modulus (GPa) = 15.52108 24.01246 19.76677
#
# Velocity S-wave (km/s) = 2.78135 3.45949 3.13879
# Velocity P-wave (km/s) = 4.58426 6.47077 5.60742
#
# Compressibility (1/GPa) = 0.04657658
#
# Stress axis : x y z
#
# Youngs Moduli (GPa) = 61.14504 51.99910 22.17864
#
# Poissons Ratio (x) = 0.23739 0.03980
# Poissons Ratio (y) = 0.27915 0.23707
# Poissons Ratio (z) = 0.10972 0.55582
#
# Static dielectric constant tensor:
#      x y z
#    x 3.299320 -0.061280 0.110490 
#    y -0.061280 3.557980 -0.322510 
#    z 0.110490 -0.322510 3.853610 
# 
# 
# High freq. dielectric constant tensor:
#      x y z
#    x 1.759970 -0.002250 0.007410 
#    y -0.002250 1.755650 -0.022370 
#    z 0.007410 -0.022370 1.788760 
# 
# From -- ./inp_files/610754.got.cif
#   From: 2010.06.25/outbox.cif.g09.slc.cpg/sg2_306_cif.got.tgz:610754.got - 2010.06.27 13:26:56.
