data_PCOD8042160
_publ_section_title
;
Structure prediction by ZEFSAII (Michael W. Deem and Ramdas Pophale) SiO2 
 PCOD8042160
Probable space group: P -1
;
_chemical_formula_sum "Si O2"
_cell_formula_units_Z 14
_cell_length_a 12.370807
_cell_length_b 9.232620
_cell_length_c 9.275167
_cell_angle_alpha 69.271885
_cell_angle_beta 73.078224
_cell_angle_gamma 120.140114
_cell_volume 698.245202
_symmetry_space_group_name_H-M "P -1"
_symmetry_group_IT_number 2
_symmetry_cell_setting 'triclinic'
loop_
_space_group_symop_operation_xyz
x,y,z
-x,-y,-z
loop_
_atom_site_type_symbol
_atom_site_label
_atom_site_fract_x
_atom_site_fract_y
_atom_site_fract_z
Si Si1 0.524286 0.603462 0.801714
Si Si2 0.182883 0.851365 0.856323
Si Si3 0.035334 0.891591 0.320880
Si Si4 0.378657 0.778039 0.701794
Si Si5 0.123255 0.373536 0.785132
Si Si6 0.266007 0.198104 0.894298
Si Si7 0.145792 0.990788 0.545173
O O1 0.458113 0.716751 0.785879
O O2 0.435213 0.420264 0.780498
O O3 0.702314 0.769858 0.634317
O O4 0.500000 0.500000 0.000000
O O5 0.276524 0.777774 0.858087
O O6 0.280982 0.081783 0.806746
O O7 0.174357 0.873196 0.680056
O O8 0.016678 0.680071 0.052713
O O9 0.919119 0.673641 0.352243
O O10 0.970049 0.002674 0.331027
O O11 0.071797 0.851364 0.476928
O O12 0.194995 0.055191 0.115295
O O13 0.274640 0.613186 0.670609
O O14 0.500000 0.000000 0.500000
O O15 0.147699 0.220194 0.881227
#
# Coordination Sequence:
#
# PCOD8042160 Si02
#       7
#     2   2   2   2   2   2   2
#     4  11  23  40  61  86 122 162 197 245 303 358
#     4  11  20  38  59  94 117 158 196 256 293 352
#     4  10  19  34  58  93 113 154 198 255 282 351
#     4  11  24  38  61  89 123 158 200 248 301 355
#     4  10  20  38  60  87 122 156 203 238 301 356
#     4  10  19  36  62  87 120 154 205 239 299 353
#     4  11  20  33  62  88 123 145 203 243 301 335
#
# _framework density 20.050263000000001
#
# number of rings (size 3 to 8) (size 9 to 14) (size 15 to 20)
#    0.000    1.429    5.714    1.286    0.000    1.714 
#    0.000    1.429    0.000    0.000    0.000    0.000 
#    0.000    0.000    0.000    0.000    0.000    0.000 
#
# Total GULP energy -173605.804846 kJ/mol
# GULP energy per Si atom -12400.414632 kJ/mol
# Density = 2.000463 g / cm^3
# Si number density = 20.050263 Si / 1000 Ang^3
#
#
#
# Elastic Constant Matrix: (Units=GPa)
#
#
# Indices 1 2 3 4 5 6 
#
# 1 75.4741 43.7629 26.5748 9.7336 11.2783 0.0374
# 2 43.7629 123.3610 42.4385 6.5587 4.3170 11.6988
# 3 26.5748 42.4385 81.4818 11.9034 14.6274 10.5902
# 4 9.7336 6.5587 11.9034 33.3259 0.8787 -2.9345
# 5 11.2783 4.3170 14.6274 0.8787 23.4284 -2.6126
# 6 0.0374 11.6988 10.5902 -2.9345 -2.6126 33.6983
#
#
#
# Elastic Compliance Matrix: (Units=1/GPa)
#
#
# Indices 1 2 3 4 5 6 
#
# 1 0.018590 -0.005799 -0.001585 -0.003401 -0.006576 0.001684
# 2 -0.005799 0.011834 -0.004659 0.000739 0.003233 -0.002323
# 3 -0.001585 -0.004659 0.018598 -0.005474 -0.010400 -0.005509
# 4 -0.003401 0.000739 -0.005474 0.033111 0.004198 0.004676
# 5 -0.006576 0.003233 -0.010400 0.004198 0.052322 0.006575
# 6 0.001684 -0.002323 -0.005509 0.004676 0.006575 0.033128
#
#
# Mechanical properties :
#
#
# Convention : Reuss Voigt Hill
#
# Bulk Modulus (GPa) = 40.09810 56.20769 48.15290
# Shear Modulus (GPa) = 25.00247 29.25989 27.13118
#
# Velocity S-wave (km/s) = 3.53510 3.82426 3.68252
# Velocity P-wave (km/s) = 6.05845 6.89885 6.49227
#
# Compressibility (1/GPa) = 0.02493884
#
# Stress axis : x y z
#
# Youngs Moduli (GPa) = 53.79165 84.50266 53.76784
#
# Poissons Ratio (x) = 0.49000 0.08520
# Poissons Ratio (y) = 0.31192 0.25049
# Poissons Ratio (z) = 0.08524 0.39367
#
# Static dielectric constant tensor:
#      x y z
#    x 3.758190 0.164680 -0.049560 
#    y 0.164680 3.767840 0.115390 
#    z -0.049560 0.115390 3.429360 
# 
# 
# High freq. dielectric constant tensor:
#      x y z
#    x 1.778460 0.012650 -0.009870 
#    y 0.012650 1.786190 0.005600 
#    z -0.009870 0.005600 1.767360 
# 
# From -- ./inp_files/150962.got.cif
#   From: 2010.06.25/outbox.cif.g09.slc.cpg/sg2_76_cif.got.tgz:150962.got - 2010.06.27 13:26:56.
