data_PCOD8042764
_publ_section_title
;
Structure prediction by ZEFSAII (Michael W. Deem and Ramdas Pophale) SiO2 
 PCOD8042764
Probable space group: P -1
;
_chemical_formula_sum "Si O2"
_cell_formula_units_Z 16
_cell_length_a 17.433068
_cell_length_b 14.903936
_cell_length_c 5.953119
_cell_angle_alpha 67.982659
_cell_angle_beta 90.093686
_cell_angle_gamma 40.258305
_cell_volume 812.801337
_symmetry_space_group_name_H-M "P -1"
_symmetry_group_IT_number 2
_symmetry_cell_setting 'triclinic'
loop_
_space_group_symop_operation_xyz
x,y,z
-x,-y,-z
loop_
_atom_site_type_symbol
_atom_site_label
_atom_site_fract_x
_atom_site_fract_y
_atom_site_fract_z
Si Si1 0.840511 0.006448 0.094522
Si Si2 0.850220 0.443489 0.986067
Si Si3 0.249690 0.763507 0.764150
Si Si4 0.122309 0.747295 0.478639
Si Si5 0.903131 0.562395 0.131858
Si Si6 0.326166 0.509874 0.321205
Si Si7 0.068799 0.284356 0.776541
Si Si8 0.585372 0.335676 0.513727
O O1 0.805820 0.078372 0.279220
O O2 0.833357 0.898002 0.160957
O O3 0.733998 0.162416 0.776013
O O4 0.995795 0.882624 0.175986
O O5 0.906825 0.307928 0.293096
O O6 0.802447 0.591628 0.977986
O O7 0.718637 0.538648 0.769824
O O8 0.970135 0.338422 0.908818
O O9 0.140039 0.830780 0.529416
O O10 0.388322 0.647037 0.747387
O O11 0.282111 0.653910 0.061861
O O12 0.259579 0.580677 0.500574
O O13 0.840511 0.723485 0.100678
O O14 0.981998 0.419191 0.451173
O O15 0.000000 0.500000 0.000000
O O16 0.490387 0.338329 0.499678
O O17 0.500000 0.500000 0.500000
#
# Coordination Sequence:
#
# PCOD8042764 Si02
#       8
#     2   2   2   2   2   2   2   2
#     4  12  24  36  59  85 122 150 197 244 287 345
#     4  10  19  35  61  86 120 148 192 238 291 351
#     4  11  24  37  60  77 117 158 202 241 287 341
#     4  11  22  38  57  87 116 152 196 246 294 332
#     4   9  18  34  60  86 123 147 180 236 300 354
#     4  11  22  40  59  80 118 157 203 237 286 344
#     4  10  20  36  56  94 118 148 186 239 299 345
#     4  12  25  42  55  79 118 165 203 239 281 340
#
# _framework density 19.685006000000001
#
# number of rings (size 3 to 8) (size 9 to 14) (size 15 to 20)
#    0.000    1.250    5.000    0.750    1.750    2.000 
#    0.000    0.000    0.000    0.750    0.000   13.125 
#    0.000    0.000    0.000    0.000    0.000    0.000 
#
# Total GULP energy -198219.203143 kJ/mol
# GULP energy per Si atom -12388.700196 kJ/mol
# Density = 1.964020 g / cm^3
# Si number density = 19.685006 Si / 1000 Ang^3
#
#
#
# Elastic Constant Matrix: (Units=GPa)
#
#
# Indices 1 2 3 4 5 6 
#
# 1 137.5082 68.0619 47.1500 12.0224 14.8686 25.5291
# 2 68.0619 88.4935 28.3468 17.1921 -3.1514 29.7216
# 3 47.1500 28.3468 81.2175 7.4853 -0.3391 -4.0837
# 4 12.0224 17.1921 7.4853 26.7297 -3.4810 6.4050
# 5 14.8686 -3.1514 -0.3391 -3.4810 39.6671 12.0861
# 6 25.5291 29.7216 -4.0837 6.4050 12.0861 51.5588
#
#
#
# Elastic Compliance Matrix: (Units=1/GPa)
#
#
# Indices 1 2 3 4 5 6 
#
# 1 0.014538 -0.009565 -0.005208 0.000473 -0.005983 -0.000753
# 2 -0.009565 0.025002 -0.003023 -0.007234 0.008248 -0.010951
# 3 -0.005208 -0.003023 0.016860 -0.001866 -0.000110 0.005914
# 4 0.000473 -0.007234 -0.001866 0.043471 0.003810 -0.002505
# 5 -0.005983 0.008248 -0.000110 0.003810 0.031375 -0.009629
# 6 -0.000753 -0.010951 0.005914 -0.002505 -0.009629 0.029118
#
#
# Mechanical properties :
#
#
# Convention : Reuss Voigt Hill
#
# Bulk Modulus (GPa) = 48.05729 66.03740 57.04734
# Shear Modulus (GPa) = 24.64377 34.50181 29.57279
#
# Velocity S-wave (km/s) = 3.54207 4.19106 3.88016
# Velocity P-wave (km/s) = 6.41829 7.55248 7.00836
#
# Compressibility (1/GPa) = 0.02080850
#
# Stress axis : x y z
#
# Youngs Moduli (GPa) = 68.78662 39.99623 59.31219
#
# Poissons Ratio (x) = 0.38256 0.30888
# Poissons Ratio (y) = 0.65794 0.17930
# Poissons Ratio (z) = 0.35823 0.12091
#
# Static dielectric constant tensor:
#      x y z
#    x 4.354540 0.301120 0.307510 
#    y 0.301120 3.640900 0.286850 
#    z 0.307510 0.286850 3.586500 
# 
# 
# High freq. dielectric constant tensor:
#      x y z
#    x 1.777230 0.018110 0.005150 
#    y 0.018110 1.742100 0.041620 
#    z 0.005150 0.041620 1.760300 
# 
# From -- ./inp_files/80865.got.cif
#   From: 2010.06.25/outbox.cif.g09.slc.cpg/sg2_41_cif.got.tgz:80865.got - 2010.06.27 13:26:56.
