data_PCOD8042803
_publ_section_title
;
Structure prediction by ZEFSAII (Michael W. Deem and Ramdas Pophale) SiO2 
 PCOD8042803
Probable space group: P -1
;
_chemical_formula_sum "Si O2"
_cell_formula_units_Z 16
_cell_length_a 13.452290
_cell_length_b 8.924399
_cell_length_c 11.238903
_cell_angle_alpha 79.801211
_cell_angle_beta 135.473148
_cell_angle_gamma 123.179670
_cell_volume 737.862682
_symmetry_space_group_name_H-M "P -1"
_symmetry_group_IT_number 2
_symmetry_cell_setting 'triclinic'
loop_
_space_group_symop_operation_xyz
x,y,z
-x,-y,-z
loop_
_atom_site_type_symbol
_atom_site_label
_atom_site_fract_x
_atom_site_fract_y
_atom_site_fract_z
Si Si1 0.530835 0.532618 0.663946
Si Si2 0.934809 0.851915 0.224260
Si Si3 0.245234 0.535085 0.972826
Si Si4 0.986783 0.265947 0.461424
Si Si5 0.294438 0.680149 0.739991
Si Si6 0.080287 0.677892 0.958351
Si Si7 0.347508 0.120763 0.127795
Si Si8 0.141450 0.254059 0.370419
O O1 0.500000 0.500000 0.500000
O O2 0.629768 0.452508 0.818580
O O3 0.615156 0.750738 0.741107
O O4 0.334571 0.396816 0.573251
O O5 0.960940 0.826170 0.386252
O O6 0.920077 0.691715 0.152834
O O7 0.758508 0.841353 0.060127
O O8 0.108880 0.066918 0.308077
O O9 0.167712 0.647743 0.925837
O O10 0.338434 0.620041 0.910735
O O11 0.789011 0.207308 0.321078
O O12 0.141756 0.495712 0.559320
O O13 0.987531 0.180169 0.348219
O O14 0.471893 0.814922 0.793132
O O15 0.230958 0.897226 0.102311
O O16 0.000000 0.500000 0.000000
O O17 0.896774 0.645909 0.776973
#
# Coordination Sequence:
#
# PCOD8042803 Si02
#       8
#     2   2   2   2   2   2   2   2
#     4  11  24  41  63  91 128 166 215 262 308 369
#     4   9  22  36  61  92 126 161 202 248 316 375
#     4  10  22  41  61  94 125 168 208 257 318 370
#     4  10  19  35  61  97 128 163 200 253 315 374
#     4  10  20  37  65  95 132 161 205 261 318 379
#     4  11  24  44  64  88 124 171 218 260 309 374
#     4  10  23  42  65  94 125 167 210 260 318 373
#     4  11  21  40  61  90 125 165 210 256 309 368
#
# _framework density 21.684252999999998
#
# number of rings (size 3 to 8) (size 9 to 14) (size 15 to 20)
#    0.000    1.750    2.500    1.125    1.750    4.000 
#    0.000    6.250    0.000    0.000    0.000    0.000 
#    0.000    0.000    0.000    0.000    0.000    0.000 
#
# Total GULP energy -198224.300421 kJ/mol
# GULP energy per Si atom -12389.018776 kJ/mol
# Density = 2.163490 g / cm^3
# Si number density = 21.684253 Si / 1000 Ang^3
#
#
#
# Elastic Constant Matrix: (Units=GPa)
#
#
# Indices 1 2 3 4 5 6 
#
# 1 67.7538 33.8519 21.2018 4.8246 -6.5259 -3.4652
# 2 33.8519 134.8930 52.7983 4.1669 -0.8667 -12.9397
# 3 21.2018 52.7983 100.1816 -0.0479 -7.1028 0.5402
# 4 4.8246 4.1669 -0.0479 28.9791 4.1939 -7.4343
# 5 -6.5259 -0.8667 -7.1028 4.1939 31.5722 1.0376
# 6 -3.4652 -12.9397 0.5402 -7.4343 1.0376 28.5388
#
#
#
# Elastic Compliance Matrix: (Units=1/GPa)
#
#
# Indices 1 2 3 4 5 6 
#
# 1 0.017654 -0.003775 -0.001488 -0.003043 0.003630 -0.000465
# 2 -0.003775 0.010751 -0.005023 0.000553 -0.001844 0.004722
# 3 -0.001488 -0.005023 0.013145 -0.000114 0.002620 -0.002832
# 4 -0.003043 0.000553 -0.000114 0.038407 -0.006074 0.010109
# 5 0.003630 -0.001844 0.002620 -0.006074 0.033876 -0.003259
# 6 -0.000465 0.004722 -0.002832 0.010109 -0.003259 0.039930
#
#
# Mechanical properties :
#
#
# Convention : Reuss Voigt Hill
#
# Bulk Modulus (GPa) = 47.67072 57.61471 52.64272
# Shear Modulus (GPa) = 27.57440 30.81643 29.19542
#
# Velocity S-wave (km/s) = 3.56986 3.77390 3.67330
# Velocity P-wave (km/s) = 6.24689 6.75405 6.50542
#
# Compressibility (1/GPa) = 0.02097724
#
# Stress axis : x y z
#
# Youngs Moduli (GPa) = 56.64528 93.01702 76.07465
#
# Poissons Ratio (x) = 0.35114 0.11321
# Poissons Ratio (y) = 0.21384 0.38212
# Poissons Ratio (z) = 0.08430 0.46722
#
# Static dielectric constant tensor:
#      x y z
#    x 3.916930 -0.349250 0.059390 
#    y -0.349250 4.054970 0.096720 
#    z 0.059390 0.096720 4.014970 
# 
# 
# High freq. dielectric constant tensor:
#      x y z
#    x 1.837250 -0.019530 -0.003050 
#    y -0.019530 1.853470 -0.001790 
#    z -0.003050 -0.001790 1.857240 
# 
# From -- ./inp_files/225751.got.cif
#   From: 2010.06.25/outbox.cif.g09.slc.cpg/sg2_113_cif.got.tgz:225751.got - 2010.06.27 13:26:56.
