data_PCOD8042136
_publ_section_title
;
Structure prediction by ZEFSAII (Michael W. Deem and Ramdas Pophale) SiO2 
 PCOD8042136
Probable space group: P -1
;
_chemical_formula_sum "Si O2"
_cell_formula_units_Z 14
_cell_length_a 12.085160
_cell_length_b 14.035975
_cell_length_c 8.178513
_cell_angle_alpha 148.557172
_cell_angle_beta 108.774214
_cell_angle_gamma 79.868933
_cell_volume 671.360260
_symmetry_space_group_name_H-M "P -1"
_symmetry_group_IT_number 2
_symmetry_cell_setting 'triclinic'
loop_
_space_group_symop_operation_xyz
x,y,z
-x,-y,-z
loop_
_atom_site_type_symbol
_atom_site_label
_atom_site_fract_x
_atom_site_fract_y
_atom_site_fract_z
Si Si1 0.909389 0.573523 0.680086
Si Si2 0.796580 0.915748 0.075988
Si Si3 0.585340 0.983691 0.872228
Si Si4 0.015731 0.169838 0.629975
Si Si5 0.488525 0.326487 0.860940
Si Si6 0.691025 0.255036 0.070533
Si Si7 0.736926 0.884282 0.377595
O O1 0.801376 0.403255 0.404758
O O2 0.000000 0.500000 0.500000
O O3 0.971365 0.636950 0.978688
O O4 0.863954 0.746096 0.828062
O O5 0.892012 0.115334 0.389354
O O6 0.733341 0.896161 0.195833
O O7 0.699205 0.904657 0.871989
O O8 0.509921 0.852114 0.510195
O O9 0.500000 0.000000 0.000000
O O10 0.623233 0.184234 0.101157
O O11 0.137207 0.169262 0.584684
O O12 0.000000 0.000000 0.500000
O O13 0.368843 0.281439 0.850308
O O14 0.500000 0.500000 0.000000
O O15 0.606187 0.358394 0.074471
O O16 0.729079 0.084142 0.741455
#
# Coordination Sequence:
#
# PCOD8042136 Si02
#       7
#     2   2   2   2   2   2   2
#     4  10  19  34  58  86 113 147 188 233 280 329
#     4  10  19  37  60  85 113 150 187 229 281 337
#     4  11  23  38  58  85 114 149 191 232 279 335
#     4   8  17  33  57  83 111 146 183 226 279 332
#     4  11  23  38  56  82 113 149 190 233 281 334
#     4  11  21  37  57  82 113 149 187 234 281 331
#     4   9  18  37  58  79 113 152 184 227 280 332
#
# _framework density 20.853186000000001
#
# number of rings (size 3 to 8) (size 9 to 14) (size 15 to 20)
#    0.000    2.286    0.000    6.857    0.000    2.286 
#    0.000   13.571    0.000    0.000    0.000    1.000 
#    0.000    0.000    0.000    0.000    0.000    0.000 
#
# Total GULP energy -173499.395527 kJ/mol
# GULP energy per Si atom -12392.813966 kJ/mol
# Density = 2.080572 g / cm^3
# Si number density = 20.853186 Si / 1000 Ang^3
#
#
#
# Elastic Constant Matrix: (Units=GPa)
#
#
# Indices 1 2 3 4 5 6 
#
# 1 123.8181 36.8572 51.5644 5.3928 -3.6952 21.2083
# 2 36.8572 86.8481 29.0152 8.6482 3.2298 7.2858
# 3 51.5644 29.0152 117.4009 13.6003 12.7284 12.1942
# 4 5.3928 8.6482 13.6003 24.9373 5.5001 2.8753
# 5 -3.6952 3.2298 12.7284 5.5001 36.8581 2.7451
# 6 21.2083 7.2858 12.1942 2.8753 2.7451 30.9702
#
#
#
# Elastic Compliance Matrix: (Units=1/GPa)
#
#
# Indices 1 2 3 4 5 6 
#
# 1 0.011943 -0.003349 -0.004242 0.000871 0.003279 -0.006092
# 2 -0.003349 0.013771 -0.001511 -0.003103 -0.000557 -0.000014
# 3 -0.004242 -0.001511 0.011689 -0.004048 -0.003677 -0.000640
# 4 0.000871 -0.003103 -0.004048 0.044468 -0.004731 -0.001982
# 5 0.003279 -0.000557 -0.003677 -0.004731 0.029697 -0.002860
# 6 -0.006092 -0.000014 -0.000640 -0.001982 -0.002860 0.037154
#
#
# Mechanical properties :
#
#
# Convention : Reuss Voigt Hill
#
# Bulk Modulus (GPa) = 52.08579 62.54897 57.31738
# Shear Modulus (GPa) = 28.84734 32.59515 30.72125
#
# Velocity S-wave (km/s) = 3.72338 3.95787 3.84241
# Velocity P-wave (km/s) = 6.59669 7.13767 6.87251
#
# Compressibility (1/GPa) = 0.01919910
#
# Stress axis : x y z
#
# Youngs Moduli (GPa) = 83.73004 72.61411 85.55413
#
# Poissons Ratio (x) = 0.24319 0.36289
# Poissons Ratio (y) = 0.28042 0.12930
# Poissons Ratio (z) = 0.35515 0.10975
#
# Static dielectric constant tensor:
#      x y z
#    x 3.810250 0.127960 0.142720 
#    y 0.127960 3.330180 -0.030210 
#    z 0.142720 -0.030210 3.984290 
# 
# 
# High freq. dielectric constant tensor:
#      x y z
#    x 1.830010 0.005830 0.015130 
#    y 0.005830 1.790180 -0.007020 
#    z 0.015130 -0.007020 1.822770 
# 
# From -- ./inp_files/274903.got.cif
#   From: 2010.06.25/outbox.cif.g09.slc.cpg/sg2_138_cif.got.tgz:274903.got - 2010.06.27 13:26:56.
