data_PCOD8042577
_publ_section_title
;
Structure prediction by ZEFSAII (Michael W. Deem and Ramdas Pophale) SiO2 
 PCOD8042577
Probable space group: P -1
;
_chemical_formula_sum "Si O2"
_cell_formula_units_Z 14
_cell_length_a 8.833289
_cell_length_b 12.406345
_cell_length_c 12.755693
_cell_angle_alpha 37.672177
_cell_angle_beta 53.642894
_cell_angle_gamma 70.064748
_cell_volume 664.228930
_symmetry_space_group_name_H-M "P -1"
_symmetry_group_IT_number 2
_symmetry_cell_setting 'triclinic'
loop_
_space_group_symop_operation_xyz
x,y,z
-x,-y,-z
loop_
_atom_site_type_symbol
_atom_site_label
_atom_site_fract_x
_atom_site_fract_y
_atom_site_fract_z
Si Si1 0.021975 0.885322 0.421567
Si Si2 0.300612 0.377511 0.630872
Si Si3 0.258608 0.531760 0.941763
Si Si4 0.898908 0.200471 0.324510
Si Si5 0.350362 0.119319 0.972992
Si Si6 0.591431 0.449346 0.755990
Si Si7 0.899045 0.476075 0.762147
O O1 0.150817 0.847436 0.496439
O O2 0.903992 0.688997 0.578687
O O3 0.879464 0.008705 0.420862
O O4 0.152312 0.992814 0.194170
O O5 0.500000 0.500000 0.500000
O O6 0.291608 0.178355 0.836034
O O7 0.312116 0.388704 0.491132
O O8 0.112619 0.442244 0.698097
O O9 0.207581 0.592112 0.031603
O O10 0.115611 0.336112 0.119790
O O11 0.249555 0.693834 0.740928
O O12 0.478376 0.517882 0.845540
O O13 0.439620 0.290853 0.878578
O O14 0.500000 0.000000 0.000000
O O15 0.763299 0.377598 0.796866
#
# Coordination Sequence:
#
# PCOD8042577 Si02
#       7
#     2   2   2   2   2   2   2
#     4  10  19  35  58  88 119 153 203 247 293 341
#     4  10  23  40  63  87 116 162 210 240 291 366
#     4  10  20  36  64  89 122 160 205 236 304 361
#     4   9  19  33  60  88 117 158 202 249 281 354
#     4  11  23  39  63  88 116 153 211 253 290 353
#     4  11  23  41  62  91 124 161 198 246 308 361
#     4  11  23  40  63  90 127 159 196 248 307 363
#
# _framework density 21.077069999999999
#
# number of rings (size 3 to 8) (size 9 to 14) (size 15 to 20)
#    0.000    1.714    1.429    3.429   12.000    0.000 
#    0.000    5.000    0.000    0.000    0.000    0.000 
#    0.000    0.000    0.000    0.000    0.000    0.000 
#
# Total GULP energy -173497.582350 kJ/mol
# GULP energy per Si atom -12392.684454 kJ/mol
# Density = 2.102910 g / cm^3
# Si number density = 21.077070 Si / 1000 Ang^3
#
#
#
# Elastic Constant Matrix: (Units=GPa)
#
#
# Indices 1 2 3 4 5 6 
#
# 1 86.5800 19.5713 15.9308 13.6770 13.6656 -20.3826
# 2 19.5713 62.9059 24.8113 17.0384 4.9520 -19.9398
# 3 15.9308 24.8113 111.0013 15.1179 22.3639 -13.5842
# 4 13.6770 17.0384 15.1179 42.7693 -4.9892 0.4287
# 5 13.6656 4.9520 22.3639 -4.9892 25.8310 -1.0074
# 6 -20.3826 -19.9398 -13.5842 0.4287 -1.0074 27.5435
#
#
#
# Elastic Compliance Matrix: (Units=1/GPa)
#
#
# Indices 1 2 3 4 5 6 
#
# 1 0.017859 0.001786 0.002912 -0.009180 -0.013476 0.015595
# 2 0.001786 0.025318 -0.000662 -0.011395 -0.006675 0.019257
# 3 0.002912 -0.000662 0.013561 -0.007201 -0.014235 0.007955
# 4 -0.009180 -0.011395 -0.007201 0.035859 0.019483 -0.018440
# 5 -0.013476 -0.006675 -0.014235 0.019483 0.062436 -0.019845
# 6 0.015595 0.019257 0.007955 -0.018440 -0.019845 0.065272
#
#
# Mechanical properties :
#
#
# Convention : Reuss Voigt Hill
#
# Bulk Modulus (GPa) = 15.42989 42.34600 28.88794
# Shear Modulus (GPa) = 21.38231 32.57368 26.97800
#
# Velocity S-wave (km/s) = 3.18855 3.93549 3.58155
# Velocity P-wave (km/s) = 4.57082 6.38635 5.55328
#
# Compressibility (1/GPa) = 0.06480929
#
# Stress axis : x y z
#
# Youngs Moduli (GPa) = 55.99385 39.49736 73.73892
#
# Poissons Ratio (x) = -0.07053 -0.21470
# Poissons Ratio (y) = -0.09999 0.04881
# Poissons Ratio (z) = -0.16303 0.02615
#
# Static dielectric constant tensor:
#      x y z
#    x 3.615550 -0.049800 0.357380 
#    y -0.049800 3.689050 0.018070 
#    z 0.357380 0.018070 4.305260 
# 
# 
# High freq. dielectric constant tensor:
#      x y z
#    x 1.807820 -0.013160 0.019940 
#    y -0.013160 1.810880 0.014600 
#    z 0.019940 0.014600 1.838620 
# 
# From -- ./inp_files/193950.got.cif
#   From: 2010.06.25/outbox.cif.g09.slc.cpg/sg2_97_cif.got.tgz:193950.got - 2010.06.27 13:26:56.
