data_PCOD8042426
_publ_section_title
;
Structure prediction by ZEFSAII (Michael W. Deem and Ramdas Pophale) SiO2 
 PCOD8042426
Probable space group: P -1
;
_chemical_formula_sum "Si O2"
_cell_formula_units_Z 16
_cell_length_a 13.090957
_cell_length_b 9.060183
_cell_length_c 14.365473
_cell_angle_alpha 146.282364
_cell_angle_beta 72.407725
_cell_angle_gamma 100.574484
_cell_volume 894.117042
_symmetry_space_group_name_H-M "P -1"
_symmetry_group_IT_number 2
_symmetry_cell_setting 'triclinic'
loop_
_space_group_symop_operation_xyz
x,y,z
-x,-y,-z
loop_
_atom_site_type_symbol
_atom_site_label
_atom_site_fract_x
_atom_site_fract_y
_atom_site_fract_z
Si Si1 0.790189 0.930367 0.621018
Si Si2 0.742386 0.544248 0.953905
Si Si3 0.265997 0.107150 0.586204
Si Si4 0.911217 0.751779 0.139536
Si Si5 0.394507 0.496125 0.851926
Si Si6 0.945877 0.795734 0.655966
Si Si7 0.355273 0.493530 0.229172
Si Si8 0.710965 0.918105 0.827043
O O1 0.761624 0.802502 0.464839
O O2 0.909025 0.816034 0.567887
O O3 0.699561 0.879061 0.697222
O O4 0.796796 0.242357 0.769709
O O5 0.835431 0.715886 0.052481
O O6 0.645498 0.561924 0.064103
O O7 0.695988 0.642033 0.917092
O O8 0.161111 0.209774 0.728466
O O9 0.366085 0.260055 0.668247
O O10 0.295146 0.788183 0.423100
O O11 0.967178 0.012222 0.240183
O O12 0.000000 0.500000 0.000000
O O13 0.521772 0.484140 0.815795
O O14 0.339684 0.780675 0.974839
O O15 0.839850 0.873446 0.791460
O O16 0.000000 0.500000 0.500000
O O17 0.348827 0.299867 0.217406
#
# Coordination Sequence:
#
# PCOD8042426 Si02
#       8
#     2   2   2   2   2   2   2   2
#     4   8  18  37  53  75 115 140 174 219 270 313
#     4   9  19  36  56  83 107 139 187 225 253 329
#     4  10  21  35  57  84 107 135 188 226 257 327
#     4  11  19  37  58  78 108 145 178 220 272 317
#     4  10  19  37  58  78 112 145 173 227 277 312
#     4  10  19  35  56  76 111 144 173 218 277 308
#     4  11  20  36  58  83 105 145 184 222 270 314
#     4   9  20  38  53  78 113 145 177 221 265 330
#
# _framework density 17.894749999999998
#
# number of rings (size 3 to 8) (size 9 to 14) (size 15 to 20)
#    0.750    1.500    1.250    2.625    0.000    0.500 
#    4.500    1.250    0.000    0.000    0.000    0.000 
#    0.000    0.000    0.000    0.000    0.000    0.000 
#
# Total GULP energy -198306.592509 kJ/mol
# GULP energy per Si atom -12394.162032 kJ/mol
# Density = 1.785402 g / cm^3
# Si number density = 17.894750 Si / 1000 Ang^3
#
#
#
# Elastic Constant Matrix: (Units=GPa)
#
#
# Indices 1 2 3 4 5 6 
#
# 1 94.4109 26.6499 47.5804 -5.7168 9.6972 7.4988
# 2 26.6499 66.7813 38.6695 6.2181 10.4858 -0.6119
# 3 47.5804 38.6695 93.0938 0.7146 10.1467 -6.3902
# 4 -5.7168 6.2181 0.7146 24.3254 -1.9330 1.1280
# 5 9.6972 10.4858 10.1467 -1.9330 32.9257 -2.0678
# 6 7.4988 -0.6119 -6.3902 1.1280 -2.0678 24.8735
#
#
#
# Elastic Compliance Matrix: (Units=1/GPa)
#
#
# Indices 1 2 3 4 5 6 
#
# 1 0.016134 -0.002226 -0.007654 0.004774 -0.001860 -0.007256
# 2 -0.002226 0.021287 -0.007242 -0.006058 -0.004295 -0.000748
# 3 -0.007654 -0.007242 0.018208 -0.000851 -0.000674 0.006789
# 4 0.004774 -0.006058 -0.000851 0.044221 0.003159 -0.003550
# 5 -0.001860 -0.004295 -0.000674 0.003159 0.032860 0.002870
# 6 -0.007256 -0.000748 0.006789 -0.003550 0.002870 0.044516
#
#
# Mechanical properties :
#
#
# Convention : Reuss Voigt Hill
#
# Bulk Modulus (GPa) = 46.75677 53.34284 50.04980
# Shear Modulus (GPa) = 22.87317 25.85067 24.36192
#
# Velocity S-wave (km/s) = 3.57908 3.80491 3.69372
# Velocity P-wave (km/s) = 6.57763 7.01263 6.79861
#
# Compressibility (1/GPa) = 0.02138728
#
# Stress axis : x y z
#
# Youngs Moduli (GPa) = 61.98146 46.97652 54.92184
#
# Poissons Ratio (x) = 0.10455 0.42035
# Poissons Ratio (y) = 0.13795 0.39772
# Poissons Ratio (z) = 0.47438 0.34018
#
# Static dielectric constant tensor:
#      x y z
#    x 3.304780 -0.081880 0.033220 
#    y -0.081880 3.207480 -0.104050 
#    z 0.033220 -0.104050 3.348810 
# 
# 
# High freq. dielectric constant tensor:
#      x y z
#    x 1.692720 0.000890 -0.005040 
#    y 0.000890 1.679560 0.001370 
#    z -0.005040 0.001370 1.692470 
# 
# From -- ./inp_files/529194.got.cif
#   From: 2010.06.25/outbox.cif.g09.slc.cpg/sg2_265_cif.got.tgz:529194.got - 2010.06.27 13:26:56.
