data_PCOD8042919
_publ_section_title
;
Structure prediction by ZEFSAII (Michael W. Deem and Ramdas Pophale) SiO2 
 PCOD8042919
Probable space group: P -1
;
_chemical_formula_sum "Si O2"
_cell_formula_units_Z 16
_cell_length_a 12.342505
_cell_length_b 8.814359
_cell_length_c 14.337102
_cell_angle_alpha 51.534335
_cell_angle_beta 52.577492
_cell_angle_gamma 38.405567
_cell_volume 735.130475
_symmetry_space_group_name_H-M "P -1"
_symmetry_group_IT_number 2
_symmetry_cell_setting 'triclinic'
loop_
_space_group_symop_operation_xyz
x,y,z
-x,-y,-z
loop_
_atom_site_type_symbol
_atom_site_label
_atom_site_fract_x
_atom_site_fract_y
_atom_site_fract_z
Si Si1 0.369230 0.314254 0.039455
Si Si2 0.614540 0.333734 0.596045
Si Si3 0.739460 0.843439 0.006066
Si Si4 0.126475 0.584884 0.609226
Si Si5 0.752465 0.789562 0.691368
Si Si6 0.554571 0.999907 0.368350
Si Si7 0.651145 0.333183 0.229220
Si Si8 0.920362 0.314754 0.195458
O O1 0.325035 0.169937 0.055123
O O2 0.251302 0.387894 0.165923
O O3 0.327128 0.551061 0.917334
O O4 0.580487 0.113135 0.034721
O O5 0.500000 0.500000 0.500000
O O6 0.801400 0.280531 0.522521
O O7 0.520784 0.464650 0.693683
O O8 0.654553 0.069996 0.675966
O O9 0.906308 0.830887 0.905496
O O10 0.788306 0.619189 0.132095
O O11 0.038797 0.718661 0.703921
O O12 0.961813 0.644911 0.612122
O O13 0.297783 0.283308 0.642296
O O14 0.637684 0.827494 0.648563
O O15 0.646173 0.124705 0.269582
O O16 0.500000 0.000000 0.500000
O O17 0.822416 0.207432 0.255884
#
# Coordination Sequence:
#
# PCOD8042919 Si02
#       8
#     2   2   2   2   2   2   2   2
#     4  10  20  38  63  96 130 163 211 273 325 378
#     4  12  21  42  68  98 131 168 216 277 324 375
#     4   9  17  33  61  96 132 161 201 272 330 372
#     4  12  24  42  69 100 128 169 221 269 325 379
#     4  12  25  44  70  99 129 168 219 274 328 381
#     4  12  26  49  64  88 140 181 213 261 323 396
#     4  11  23  41  66  93 131 178 214 260 328 385
#     4  10  19  35  64  99 126 161 218 268 318 381
#
# _framework density 21.764845000000001
#
# number of rings (size 3 to 8) (size 9 to 14) (size 15 to 20)
#    0.000    1.000    5.000    3.375    0.000    1.000 
#    2.250    0.625    0.000    0.000    0.000    0.000 
#    0.000    0.000    0.000    0.000    0.000    0.000 
#
# Total GULP energy -198341.998600 kJ/mol
# GULP energy per Si atom -12396.374912 kJ/mol
# Density = 2.171531 g / cm^3
# Si number density = 21.764845 Si / 1000 Ang^3
#
#
#
# Elastic Constant Matrix: (Units=GPa)
#
#
# Indices 1 2 3 4 5 6 
#
# 1 125.2543 16.8692 40.4447 1.3829 -19.1236 -11.6733
# 2 16.8692 33.7132 8.6506 0.0813 -8.4609 -7.7832
# 3 40.4447 8.6506 113.9971 -1.6927 -3.7832 4.6398
# 4 1.3829 0.0813 -1.6927 24.6418 -2.6515 -6.6705
# 5 -19.1236 -8.4609 -3.7832 -2.6515 35.9830 -1.4152
# 6 -11.6733 -7.7832 4.6398 -6.6705 -1.4152 32.6659
#
#
#
# Elastic Compliance Matrix: (Units=1/GPa)
#
#
# Indices 1 2 3 4 5 6 
#
# 1 0.010564 -0.002170 -0.003576 0.000825 0.004952 0.004149
# 2 -0.002170 0.035161 -0.001964 0.003066 0.007481 0.008831
# 3 -0.003576 -0.001964 0.010275 -0.000132 -0.001421 -0.003294
# 4 0.000825 0.003066 -0.000132 0.043789 0.004773 0.010193
# 5 0.004952 0.007481 -0.001421 0.004773 0.032626 0.006142
# 6 0.004149 0.008831 -0.003294 0.010193 0.006142 0.037015
#
#
# Mechanical properties :
#
#
# Convention : Reuss Voigt Hill
#
# Bulk Modulus (GPa) = 24.64228 44.98818 34.81523
# Shear Modulus (GPa) = 25.20479 32.45816 28.83147
#
# Velocity S-wave (km/s) = 3.40671 3.86594 3.64357
# Velocity P-wave (km/s) = 5.17888 6.37513 5.80789
#
# Compressibility (1/GPa) = 0.04058066
#
# Stress axis : x y z
#
# Youngs Moduli (GPa) = 94.65891 28.44091 97.32623
#
# Poissons Ratio (x) = 0.06171 0.34801
# Poissons Ratio (y) = 0.20539 0.19114
# Poissons Ratio (z) = 0.33847 0.05586
#
# Static dielectric constant tensor:
#      x y z
#    x 4.122350 -0.237870 -0.214870 
#    y -0.237870 3.846030 0.001820 
#    z -0.214870 0.001820 4.036000 
# 
# 
# High freq. dielectric constant tensor:
#      x y z
#    x 1.853270 -0.025210 -0.012210 
#    y -0.025210 1.821700 0.004460 
#    z -0.012210 0.004460 1.869630 
# 
# From -- ./inp_files/306353.got.cif
#   From: 2010.06.25/outbox.cif.g09.slc.cpg/sg2_154_cif.got.tgz:306353.got - 2010.06.27 13:26:56.
