data_PCOD8042313
_publ_section_title
;
Structure prediction by ZEFSAII (Michael W. Deem and Ramdas Pophale) SiO2 
 PCOD8042313
Probable space group: P -1
;
_chemical_formula_sum "Si O2"
_cell_formula_units_Z 14
_cell_length_a 8.940586
_cell_length_b 8.848374
_cell_length_c 12.246521
_cell_angle_alpha 117.837215
_cell_angle_beta 104.722348
_cell_angle_gamma 49.331240
_cell_volume 647.980564
_symmetry_space_group_name_H-M "P -1"
_symmetry_group_IT_number 2
_symmetry_cell_setting 'triclinic'
loop_
_space_group_symop_operation_xyz
x,y,z
-x,-y,-z
loop_
_atom_site_type_symbol
_atom_site_label
_atom_site_fract_x
_atom_site_fract_y
_atom_site_fract_z
Si Si1 0.293005 0.936555 0.027954
Si Si2 0.877903 0.297600 0.994192
Si Si3 0.620438 0.522550 0.828079
Si Si4 0.373654 0.060903 0.302952
Si Si5 0.036362 0.666270 0.591326
Si Si6 0.336717 0.410160 0.753613
Si Si7 0.337973 0.482885 0.419475
O O1 0.469970 0.775944 0.922139
O O2 0.216585 0.820053 0.034791
O O3 0.114649 0.137596 0.991604
O O4 0.369618 0.019203 0.159441
O O5 0.819540 0.392900 0.893259
O O6 0.789677 0.498574 0.128317
O O7 0.520539 0.410405 0.794342
O O8 0.686404 0.495921 0.706936
O O9 0.388265 0.254283 0.388927
O O10 0.174312 0.112492 0.336152
O O11 0.566193 0.845516 0.325025
O O12 0.197222 0.566496 0.683200
O O13 0.132143 0.686086 0.507467
O O14 0.000000 0.500000 0.500000
O O15 0.500000 0.500000 0.500000
#
# Coordination Sequence:
#
# PCOD8042313 Si02
#       7
#     2   2   2   2   2   2   2
#     4  10  19  35  65  99 120 164 205 261 314 367
#     4  10  19  34  63 100 128 154 209 260 314 370
#     4  11  21  39  62  93 134 160 202 258 320 374
#     4  11  22  41  71  93 120 166 221 256 309 372
#     4  10  23  42  65  88 126 167 215 258 301 377
#     4  11  19  38  69  94 120 165 218 259 301 376
#     4  11  25  44  62  89 134 173 200 261 322 370
#
# _framework density 21.605585999999999
#
# number of rings (size 3 to 8) (size 9 to 14) (size 15 to 20)
#    0.000    1.429    5.714    0.857    0.000    2.857 
#    0.000    5.714    0.000    0.000    0.000    0.000 
#    0.000    0.000    0.000    0.000    0.000    0.000 
#
# Total GULP energy -173550.420986 kJ/mol
# GULP energy per Si atom -12396.458642 kJ/mol
# Density = 2.155641 g / cm^3
# Si number density = 21.605586 Si / 1000 Ang^3
#
#
#
# Elastic Constant Matrix: (Units=GPa)
#
#
# Indices 1 2 3 4 5 6 
#
# 1 67.3062 29.8047 42.8928 2.1827 -13.4599 -10.3107
# 2 29.8047 107.9414 36.1318 13.1429 -24.6932 -18.3304
# 3 42.8928 36.1318 127.3616 -3.3434 -26.7909 -0.8785
# 4 2.1827 13.1429 -3.3434 27.9201 13.6290 1.3710
# 5 -13.4599 -24.6932 -26.7909 13.6290 31.6374 0.4404
# 6 -10.3107 -18.3304 -0.8785 1.3710 0.4404 20.3139
#
#
#
# Elastic Compliance Matrix: (Units=1/GPa)
#
#
# Indices 1 2 3 4 5 6 
#
# 1 0.022008 0.000426 -0.006097 -0.006780 0.007292 0.011591
# 2 0.000426 0.022531 -0.001333 -0.025116 0.027157 0.021596
# 3 -0.006097 -0.001333 0.011599 -0.000458 0.006439 -0.003905
# 4 -0.006780 -0.025116 -0.000458 0.076679 -0.055489 -0.030096
# 5 0.007292 0.027157 0.006439 -0.055489 0.084840 0.030390
# 6 0.011591 0.021596 -0.003905 -0.030096 0.030390 0.075801
#
#
# Mechanical properties :
#
#
# Convention : Reuss Voigt Hill
#
# Bulk Modulus (GPa) = 23.73643 57.80753 40.77198
# Shear Modulus (GPa) = 15.55170 28.89296 22.22233
#
# Velocity S-wave (km/s) = 2.68582 3.66087 3.21057
# Velocity P-wave (km/s) = 4.54183 6.68455 5.71452
#
# Compressibility (1/GPa) = 0.04212934
#
# Stress axis : x y z
#
# Youngs Moduli (GPa) = 45.43826 44.38371 86.21638
#
# Poissons Ratio (x) = -0.01891 0.52564
# Poissons Ratio (y) = -0.01936 0.11495
# Poissons Ratio (z) = 0.27703 0.05917
#
# Static dielectric constant tensor:
#      x y z
#    x 4.627250 -0.734960 -0.519600 
#    y -0.734960 4.078980 0.469260 
#    z -0.519600 0.469260 4.323170 
# 
# 
# High freq. dielectric constant tensor:
#      x y z
#    x 1.825840 -0.019100 0.001300 
#    y -0.019100 1.834980 0.004090 
#    z 0.001300 0.004090 1.867350 
# 
# From -- ./inp_files/179808.got.cif
#   From: 2010.06.25/outbox.cif.g09.slc.cpg/sg2_90_cif.got.tgz:179808.got - 2010.06.27 13:26:56.
