data_PCOD8042148
_publ_section_title
;
Structure prediction by ZEFSAII (Michael W. Deem and Ramdas Pophale) SiO2 
 PCOD8042148
Probable space group: P -1
;
_chemical_formula_sum "Si O2"
_cell_formula_units_Z 16
_cell_length_a 16.525151
_cell_length_b 16.480887
_cell_length_c 8.807212
_cell_angle_alpha 105.508833
_cell_angle_beta 120.815608
_cell_angle_gamma 24.934969
_cell_volume 728.453549
_symmetry_space_group_name_H-M "P -1"
_symmetry_group_IT_number 2
_symmetry_cell_setting 'triclinic'
loop_
_space_group_symop_operation_xyz
x,y,z
-x,-y,-z
loop_
_atom_site_type_symbol
_atom_site_label
_atom_site_fract_x
_atom_site_fract_y
_atom_site_fract_z
Si Si1 0.305659 0.981552 0.019866
Si Si2 0.998879 0.188174 0.394831
Si Si3 0.093853 0.375344 0.856763
Si Si4 0.193420 0.680519 0.400917
Si Si5 0.039964 0.339011 0.086301
Si Si6 0.681614 0.235112 0.453868
Si Si7 0.356217 0.024139 0.767253
Si Si8 0.354910 0.431500 0.977876
O O1 0.370862 0.968482 0.916153
O O2 0.027594 0.168255 0.848107
O O3 0.525542 0.727354 0.121493
O O4 0.288041 0.068804 0.179111
O O5 0.227777 0.067696 0.544635
O O6 0.842041 0.329728 0.471358
O O7 0.115377 0.998649 0.397608
O O8 0.812174 0.357501 0.157462
O O9 0.171891 0.260620 0.721809
O O10 0.917091 0.604754 0.764176
O O11 0.957987 0.426644 0.874910
O O12 0.354835 0.189821 0.104255
O O13 0.462521 0.427691 0.465294
O O14 0.174352 0.797183 0.453182
O O15 0.806804 0.488931 0.020720
O O16 0.581509 0.285377 0.219867
#
# Coordination Sequence:
#
# PCOD8042148 Si02
#       8
#     2   2   2   2   2   2   2   2
#     4  10  19  35  62  84 121 159 196 244 297 353
#     4  11  24  40  63  92 124 160 198 248 304 360
#     4   9  17  32  64  85 112 162 204 245 297 353
#     4  10  22  41  64  91 119 160 203 249 295 356
#     4  10  19  34  58  88 116 160 202 239 304 353
#     4  11  22  43  65  88 122 158 205 247 296 361
#     4   9  17  35  58  86 114 155 202 245 293 353
#     4  12  23  38  63  91 124 162 198 247 303 362
#
# _framework density 21.964337
#
# number of rings (size 3 to 8) (size 9 to 14) (size 15 to 20)
#    0.000    1.750    5.000    0.375    0.000    1.500 
#    0.000    2.500    0.000    0.000    0.000    0.000 
#    0.000    0.000    0.000    0.000    0.000    0.000 
#
# Total GULP energy -198239.829236 kJ/mol
# GULP energy per Si atom -12389.989327 kJ/mol
# Density = 2.191435 g / cm^3
# Si number density = 21.964337 Si / 1000 Ang^3
#
#
#
# Elastic Constant Matrix: (Units=GPa)
#
#
# Indices 1 2 3 4 5 6 
#
# 1 87.3799 25.9360 31.2361 -7.1863 -2.1956 7.3770
# 2 25.9360 135.7350 22.0293 -10.0842 -8.7564 30.1184
# 3 31.2361 22.0293 45.6714 -17.4799 -11.8913 12.3902
# 4 -7.1863 -10.0842 -17.4799 20.3945 5.3238 -0.9113
# 5 -2.1956 -8.7564 -11.8913 5.3238 11.3172 -4.0947
# 6 7.3770 30.1184 12.3902 -0.9113 -4.0947 39.1697
#
#
#
# Elastic Compliance Matrix: (Units=1/GPa)
#
#
# Indices 1 2 3 4 5 6 
#
# 1 0.017141 -0.002349 -0.016878 -0.006241 -0.012394 0.002476
# 2 -0.002349 0.009675 0.001302 0.003674 0.004178 -0.006887
# 3 -0.016878 0.001302 0.059757 0.034998 0.039806 -0.011749
# 4 -0.006241 0.003674 0.034998 0.078861 -0.002735 -0.011171
# 5 -0.012394 0.004178 0.039806 -0.002735 0.132413 0.000308
# 6 0.002476 -0.006887 -0.011749 -0.011171 0.000308 0.033848
#
#
# Mechanical properties :
#
#
# Convention : Reuss Voigt Hill
#
# Bulk Modulus (GPa) = 19.71431 47.46546 33.58989
# Shear Modulus (GPa) = 13.00548 26.81527 19.91037
#
# Velocity S-wave (km/s) = 2.43599 3.49786 3.01406
# Velocity P-wave (km/s) = 4.11183 6.16203 5.23821
#
# Compressibility (1/GPa) = 0.05072457
#
# Stress axis : x y z
#
# Youngs Moduli (GPa) = 58.33964 103.35494 16.73434
#
# Poissons Ratio (x) = 0.24274 0.28244
# Poissons Ratio (y) = 0.13702 -0.02178
# Poissons Ratio (z) = 0.98463 -0.13453
#
# Static dielectric constant tensor:
#      x y z
#    x 4.159230 0.254020 0.225090 
#    y 0.254020 4.617650 0.023530 
#    z 0.225090 0.023530 3.233930 
# 
# 
# High freq. dielectric constant tensor:
#      x y z
#    x 1.875850 0.006070 0.013730 
#    y 0.006070 1.898110 -0.003230 
#    z 0.013730 -0.003230 1.779880 
# 
# From -- ./inp_files/315287.got.cif
#   From: 2010.06.25/outbox.cif.g09.slc.cpg/sg2_158_cif.got.tgz:315287.got - 2010.06.27 13:26:56.
