data_PCOD8042738
_publ_section_title
;
Structure prediction by ZEFSAII (Michael W. Deem and Ramdas Pophale) SiO2 
 PCOD8042738
Probable space group: P -1
;
_chemical_formula_sum "Si O2"
_cell_formula_units_Z 12
_cell_length_a 8.354661
_cell_length_b 11.717488
_cell_length_c 7.350934
_cell_angle_alpha 95.966865
_cell_angle_beta 125.793652
_cell_angle_gamma 54.830883
_cell_volume 446.744883
_symmetry_space_group_name_H-M "P -1"
_symmetry_group_IT_number 2
_symmetry_cell_setting 'triclinic'
loop_
_space_group_symop_operation_xyz
x,y,z
-x,-y,-z
loop_
_atom_site_type_symbol
_atom_site_label
_atom_site_fract_x
_atom_site_fract_y
_atom_site_fract_z
Si Si1 0.616491 0.580393 0.549390
Si Si2 0.638937 0.930464 0.333602
Si Si3 0.425510 0.370868 0.079879
Si Si4 0.278558 0.914136 0.283561
Si Si5 0.808481 0.040642 0.212861
Si Si6 0.130462 0.607384 0.633388
O O1 0.500000 0.500000 0.500000
O O2 0.698338 0.604610 0.799754
O O3 0.406248 0.741140 0.340426
O O4 0.858612 0.474461 0.556868
O O5 0.370374 0.955523 0.169794
O O6 0.854264 0.761894 0.518746
O O7 0.615436 0.048461 0.471951
O O8 0.717273 0.943694 0.183700
O O9 0.545302 0.209381 0.057869
O O10 0.662345 0.370082 0.245784
O O11 0.196199 0.500432 0.825889
O O12 0.969715 0.007923 0.126157
O O13 0.000000 0.000000 0.500000
#
# Coordination Sequence:
#
# PCOD8042738 Si02
#       6
#     2   2   2   2   2   2
#     4  10  19  35  58  84 116 151 190 237 290 344
#     4  10  19  34  60  84 112 156 193 234 287 348
#     4  10  18  34  58  83 117 148 192 237 286 347
#     4  10  19  33  60  84 110 156 198 226 290 351
#     4  10  15  33  60  78 109 157 188 232 286 339
#     4  10  20  33  57  87 113 149 192 241 288 335
#
# _framework density 26.860969999999998
#
# number of rings (size 3 to 8) (size 9 to 14) (size 15 to 20)
#    0.000    2.000    6.667    1.000    0.000    0.667 
#    0.000    1.667    3.667    1.000    0.000    0.000 
#    0.000    0.000    0.000    0.000    0.000    0.000 
#
# Total GULP energy -148761.726163 kJ/mol
# GULP energy per Si atom -12396.810514 kJ/mol
# Density = 2.679983 g / cm^3
# Si number density = 26.860970 Si / 1000 Ang^3
#
#
#
# Elastic Constant Matrix: (Units=GPa)
#
#
# Indices 1 2 3 4 5 6 
#
# 1 198.4049 48.9892 87.7402 -2.5439 -17.4554 0.2520
# 2 48.9892 154.7232 38.5656 -24.0695 -10.8626 -5.6567
# 3 87.7402 38.5656 87.5802 -8.3324 -25.6454 -3.8273
# 4 -2.5439 -24.0695 -8.3324 45.8524 0.1496 -13.5258
# 5 -17.4554 -10.8626 -25.6454 0.1496 60.6381 11.9267
# 6 0.2520 -5.6567 -3.8273 -13.5258 11.9267 36.5932
#
#
#
# Elastic Compliance Matrix: (Units=1/GPa)
#
#
# Indices 1 2 3 4 5 6 
#
# 1 0.009425 -0.001093 -0.009606 -0.002292 -0.001207 -0.001692
# 2 -0.001093 0.008121 -0.001991 0.004691 -0.000280 0.002880
# 3 -0.009606 -0.001991 0.024296 0.003175 0.006905 0.001223
# 4 -0.002292 0.004691 0.003175 0.028198 -0.000862 0.011777
# 5 -0.001207 -0.000280 0.006905 -0.000862 0.020241 -0.006229
# 6 -0.001692 0.002880 0.001223 0.011777 -0.006229 0.034295
#
#
# Mechanical properties :
#
#
# Convention : Reuss Voigt Hill
#
# Bulk Modulus (GPa) = 60.74692 87.92203 74.33447
# Shear Modulus (GPa) = 32.16606 46.31095 39.23850
#
# Velocity S-wave (km/s) = 3.46425 4.15673 3.82619
# Velocity P-wave (km/s) = 6.21818 7.47270 6.87412
#
# Compressibility (1/GPa) = 0.01646174
#
# Stress axis : x y z
#
# Youngs Moduli (GPa) = 106.10423 123.14069 41.15906
#
# Poissons Ratio (x) = 0.13457 0.39538
# Poissons Ratio (y) = 0.11595 0.08195
# Poissons Ratio (z) = 1.01925 0.24517
#
# Static dielectric constant tensor:
#      x y z
#    x 5.784380 -0.218010 -0.541090 
#    y -0.218010 5.156010 0.305600 
#    z -0.541090 0.305600 4.934610 
# 
# 
# High freq. dielectric constant tensor:
#      x y z
#    x 2.111720 0.003190 -0.014190 
#    y 0.003190 2.079320 0.014280 
#    z -0.014190 0.014280 2.095840 
# 
# From -- ./inp_files/170774.got.cif
#   From: 2010.06.25/outbox.cif.g09.slc.cpg/sg2_86_cif.got.tgz:170774.got - 2010.06.27 13:26:56.
