data_PCOD8042848
_publ_section_title
;
Structure prediction by ZEFSAII (Michael W. Deem and Ramdas Pophale) SiO2 
 PCOD8042848
Probable space group: P -1
;
_chemical_formula_sum "Si O2"
_cell_formula_units_Z 16
_cell_length_a 18.797905
_cell_length_b 11.932287
_cell_length_c 8.447150
_cell_angle_alpha 76.804599
_cell_angle_beta 64.339168
_cell_angle_gamma 29.739125
_cell_volume 799.598921
_symmetry_space_group_name_H-M "P -1"
_symmetry_group_IT_number 2
_symmetry_cell_setting 'triclinic'
loop_
_space_group_symop_operation_xyz
x,y,z
-x,-y,-z
loop_
_atom_site_type_symbol
_atom_site_label
_atom_site_fract_x
_atom_site_fract_y
_atom_site_fract_z
Si Si1 0.024178 0.237366 0.651284
Si Si2 0.940550 0.340744 0.346085
Si Si3 0.939118 0.595241 0.257840
Si Si4 0.849388 0.240429 0.295458
Si Si5 0.518540 0.352112 0.953566
Si Si6 0.177613 0.701342 0.061023
Si Si7 0.798957 0.872888 0.007527
Si Si8 0.654330 0.280683 0.531311
O O1 0.020990 0.379684 0.632970
O O2 0.005874 0.221001 0.492876
O O3 0.880222 0.357996 0.849285
O O4 0.203302 0.966368 0.625370
O O5 0.855724 0.576343 0.375624
O O6 0.824664 0.392836 0.363043
O O7 0.092912 0.154263 0.137366
O O8 0.119075 0.344749 0.085048
O O9 0.814415 0.830012 0.193942
O O10 0.735292 0.300853 0.489819
O O11 0.785076 0.324367 0.150662
O O12 0.039547 0.958411 0.193006
O O13 0.609064 0.257969 0.730424
O O14 0.616168 0.136590 0.041041
O O15 0.500000 0.500000 0.000000
O O16 0.344954 0.511653 0.052206
O O17 0.500000 0.500000 0.500000
#
# Coordination Sequence:
#
# PCOD8042848 Si02
#       8
#     2   2   2   2   2   2   2   2
#     4  11  22  37  63  90 122 153 210 249 297 356
#     4  10  19  35  63  86 111 153 206 248 285 347
#     4   9  20  39  65  88 116 164 205 246 294 356
#     4  10  21  39  60  85 125 157 207 238 299 365
#     4  12  24  38  60  91 127 155 199 250 307 359
#     4  10  23  36  57  90 122 165 191 249 305 355
#     4   9  20  38  60  90 115 159 207 239 298 351
#     4  11  23  39  58  90 120 164 191 249 310 356
#
# _framework density 20.010033
#
# number of rings (size 3 to 8) (size 9 to 14) (size 15 to 20)
#    0.750    1.000    2.500    1.875    3.500    1.000 
#    0.000    0.625    0.000    1.500    0.000    0.000 
#    0.000    0.000    0.000    0.000    0.000    0.000 
#
# Total GULP energy -198209.909111 kJ/mol
# GULP energy per Si atom -12388.119319 kJ/mol
# Density = 1.996449 g / cm^3
# Si number density = 20.010033 Si / 1000 Ang^3
#
#
#
# Elastic Constant Matrix: (Units=GPa)
#
#
# Indices 1 2 3 4 5 6 
#
# 1 137.7087 50.9877 22.5386 8.0341 -7.1638 11.7174
# 2 50.9877 125.1385 23.5304 -8.9302 -5.5910 -17.5594
# 3 22.5386 23.5304 48.9347 -4.2882 -14.3166 -3.4324
# 4 8.0341 -8.9302 -4.2882 25.4288 -2.7894 -4.5791
# 5 -7.1638 -5.5910 -14.3166 -2.7894 27.2492 -1.3844
# 6 11.7174 -17.5594 -3.4324 -4.5791 -1.3844 28.9721
#
#
#
# Elastic Compliance Matrix: (Units=1/GPa)
#
#
# Indices 1 2 3 4 5 6 
#
# 1 0.011461 -0.005962 -0.004440 -0.008515 -0.001934 -0.010213
# 2 -0.005962 0.012994 -0.001420 0.008485 0.001808 0.011546
# 3 -0.004440 -0.001420 0.028691 0.008518 0.014812 0.006388
# 4 -0.008515 0.008485 0.008518 0.050800 0.010098 0.018107
# 5 -0.001934 0.001808 0.014812 0.010098 0.045754 0.007415
# 6 -0.010213 0.011546 0.006388 0.018107 0.007415 0.049617
#
#
# Mechanical properties :
#
#
# Convention : Reuss Voigt Hill
#
# Bulk Modulus (GPa) = 33.89584 56.21057 45.05320
# Shear Modulus (GPa) = 21.47812 30.64502 26.06157
#
# Velocity S-wave (km/s) = 3.27978 3.91766 3.61283
# Velocity P-wave (km/s) = 5.59632 6.97254 6.32199
#
# Compressibility (1/GPa) = 0.02950215
#
# Stress axis : x y z
#
# Youngs Moduli (GPa) = 87.25165 76.96032 34.85391
#
# Poissons Ratio (x) = 0.45884 0.15476
# Poissons Ratio (y) = 0.52020 0.04948
# Poissons Ratio (z) = 0.38741 0.10926
#
# Static dielectric constant tensor:
#      x y z
#    x 3.504670 0.034200 -0.087330 
#    y 0.034200 3.504080 -0.167700 
#    z -0.087330 -0.167700 3.607000 
# 
# 
# High freq. dielectric constant tensor:
#      x y z
#    x 1.775740 0.002370 -0.000220 
#    y 0.002370 1.764600 -0.020870 
#    z -0.000220 -0.020870 1.771930 
# 
# From -- ./inp_files/331816.got.cif
#   From: 2010.06.25/outbox.cif.g09.slc.cpg/sg2_166_cif.got.tgz:331816.got - 2010.06.27 13:26:56.
