data_PCOD8042081
_publ_section_title
;
Structure prediction by ZEFSAII (Michael W. Deem and Ramdas Pophale) SiO2 
 PCOD8042081
Probable space group: P -1
;
_chemical_formula_sum "Si O2"
_cell_formula_units_Z 16
_cell_length_a 13.482338
_cell_length_b 10.477081
_cell_length_c 7.759000
_cell_angle_alpha 82.792799
_cell_angle_beta 114.341567
_cell_angle_gamma 55.990277
_cell_volume 730.031492
_symmetry_space_group_name_H-M "P -1"
_symmetry_group_IT_number 2
_symmetry_cell_setting 'triclinic'
loop_
_space_group_symop_operation_xyz
x,y,z
-x,-y,-z
loop_
_atom_site_type_symbol
_atom_site_label
_atom_site_fract_x
_atom_site_fract_y
_atom_site_fract_z
Si Si1 0.027653 0.491583 0.719935
Si Si2 0.382922 0.801877 0.632839
Si Si3 0.702280 0.584126 0.983808
Si Si4 0.078982 0.150697 0.455724
Si Si5 0.601778 0.307940 0.694212
Si Si6 0.056901 0.717413 0.289040
Si Si7 0.647088 0.469360 0.296155
Si Si8 0.878717 0.232882 0.010015
O O1 0.202802 0.364337 0.910630
O O2 0.000000 0.500000 0.500000
O O3 0.945554 0.689983 0.678732
O O4 0.964246 0.412708 0.772418
O O5 0.363547 0.822637 0.408327
O O6 0.391316 0.650414 0.740440
O O7 0.250727 0.981935 0.599023
O O8 0.534611 0.755823 0.792697
O O9 0.710529 0.479674 0.167850
O O10 0.782855 0.442211 0.912817
O O11 0.035049 0.178393 0.621341
O O12 0.981454 0.129502 0.271757
O O13 0.500000 0.500000 0.500000
O O14 0.499407 0.338134 0.773065
O O15 0.758082 0.217605 0.907537
O O16 0.228111 0.614463 0.455655
O O17 0.016583 0.840768 0.075026
#
# Coordination Sequence:
#
# PCOD8042081 Si02
#       8
#     2   2   2   2   2   2   2   2
#     4   9  19  40  63  85 114 158 205 242 280 351
#     4  11  22  38  56  91 126 149 193 250 301 347
#     4  11  20  36  64  90 111 161 205 239 285 353
#     4  10  24  39  57  91 124 154 192 247 302 346
#     4  10  19  34  57  85 116 155 191 239 284 354
#     4  11  20  40  65  85 118 156 205 239 289 349
#     4  11  19  36  62  89 113 157 199 237 288 356
#     4  11  20  39  61  88 117 157 203 233 294 353
#
# _framework density 21.916862999999999
#
# number of rings (size 3 to 8) (size 9 to 14) (size 15 to 20)
#    0.000    1.500    8.750    0.375    0.000    3.000 
#    2.250    2.500    0.000    3.750    0.000    0.000 
#    0.000    0.000    0.000    0.000    0.000    0.000 
#
# Total GULP energy -198264.004980 kJ/mol
# GULP energy per Si atom -12391.500311 kJ/mol
# Density = 2.186698 g / cm^3
# Si number density = 21.916863 Si / 1000 Ang^3
#
#
#
# Elastic Constant Matrix: (Units=GPa)
#
#
# Indices 1 2 3 4 5 6 
#
# 1 65.5789 23.2155 17.1753 4.8018 10.2556 -12.2732
# 2 23.2155 70.2489 27.6385 1.2462 8.4422 -29.6352
# 3 17.1753 27.6385 86.6008 7.3956 25.0447 -8.1776
# 4 4.8018 1.2462 7.3956 29.6709 -6.8991 4.1467
# 5 10.2556 8.4422 25.0447 -6.8991 42.2397 5.3526
# 6 -12.2732 -29.6352 -8.1776 4.1467 5.3526 31.8274
#
#
#
# Elastic Compliance Matrix: (Units=1/GPa)
#
#
# Indices 1 2 3 4 5 6 
#
# 1 0.018641 -0.002734 -0.000257 -0.004954 -0.005413 0.006133
# 2 -0.002734 0.028786 -0.003582 -0.005288 -0.007217 0.026731
# 3 -0.000257 -0.003582 0.016799 -0.007007 -0.010784 0.003609
# 4 -0.004954 -0.005288 -0.007007 0.042412 0.015465 -0.016761
# 5 -0.005413 -0.007217 -0.010784 0.015465 0.037881 -0.019963
# 6 0.006133 0.026731 0.003609 -0.016761 -0.019963 0.065142
#
#
# Mechanical properties :
#
#
# Convention : Reuss Voigt Hill
#
# Bulk Modulus (GPa) = 19.57692 39.83191 29.70441
# Shear Modulus (GPa) = 20.84788 31.04089 25.94439
#
# Velocity S-wave (km/s) = 3.08754 3.76746 3.44432
# Velocity P-wave (km/s) = 4.65428 6.09414 5.42222
#
# Compressibility (1/GPa) = 0.05108057
#
# Stress axis : x y z
#
# Youngs Moduli (GPa) = 53.64551 34.73961 59.52663
#
# Poissons Ratio (x) = 0.09497 0.01529
# Poissons Ratio (y) = 0.14666 0.21322
# Poissons Ratio (z) = 0.01378 0.12444
#
# Static dielectric constant tensor:
#      x y z
#    x 4.963700 0.473090 0.444080 
#    y 0.473090 4.547550 0.528890 
#    z 0.444080 0.528890 4.044450 
# 
# 
# High freq. dielectric constant tensor:
#      x y z
#    x 1.847370 -0.032890 0.018260 
#    y -0.032890 1.834860 0.026800 
#    z 0.018260 0.026800 1.869050 
# 
# From -- ./inp_files/305277.got.cif
#   From: 2010.06.25/outbox.cif.g09.slc.cpg/sg2_153_cif.got.tgz:305277.got - 2010.06.27 13:26:56.
