data_PCOD8042008
_publ_section_title
;
Structure prediction by ZEFSAII (Michael W. Deem and Ramdas Pophale) SiO2 
 PCOD8042008
Probable space group: P -1
;
_chemical_formula_sum "Si O2"
_cell_formula_units_Z 16
_cell_length_a 13.710512
_cell_length_b 8.942291
_cell_length_c 9.065853
_cell_angle_alpha 66.669723
_cell_angle_beta 75.028637
_cell_angle_gamma 49.290709
_cell_volume 773.662639
_symmetry_space_group_name_H-M "P -1"
_symmetry_group_IT_number 2
_symmetry_cell_setting 'triclinic'
loop_
_space_group_symop_operation_xyz
x,y,z
-x,-y,-z
loop_
_atom_site_type_symbol
_atom_site_label
_atom_site_fract_x
_atom_site_fract_y
_atom_site_fract_z
Si Si1 0.642383 0.107901 0.172177
Si Si2 0.885386 0.241378 0.182332
Si Si3 0.601827 0.796650 0.830848
Si Si4 0.899106 0.838910 0.678769
Si Si5 0.114677 0.512108 0.182200
Si Si6 0.398109 0.500341 0.830828
Si Si7 0.899166 0.862810 0.321156
Si Si8 0.357682 0.892423 0.172450
O O1 0.525759 0.097571 0.262630
O O2 0.600975 0.329730 0.151914
O O3 0.767834 0.919564 0.284007
O O4 0.679070 0.070879 0.999912
O O5 0.737843 0.391866 0.241269
O O6 0.977548 0.185306 0.305043
O O7 0.915417 0.031384 0.192763
O O8 0.907859 0.342153 0.000067
O O9 0.737794 0.632251 0.758942
O O10 0.600818 0.968803 0.847463
O O11 0.581044 0.669207 0.000183
O O12 0.915180 0.638053 0.807330
O O13 0.891269 0.858609 0.500000
O O14 0.767807 0.044991 0.715752
O O15 0.022440 0.640327 0.304918
O O16 0.525755 0.351267 0.737216
#
# Coordination Sequence:
#
# PCOD8042008 Si02
#       8
#     2   2   2   2   2   2   2   2
#     4  10  19  34  56  81 108 143 182 224 269 324
#     4  10  21  38  59  82 107 144 191 228 266 326
#     4   9  18  32  54  84 107 135 184 231 266 314
#     4  11  23  38  55  83 116 146 180 227 279 326
#     4  10  21  38  59  82 107 144 191 228 266 326
#     4   9  18  32  54  84 107 135 184 231 266 314
#     4  11  23  38  55  83 116 146 180 227 279 326
#     4  10  19  34  56  81 108 143 182 224 269 324
#
# _framework density 20.680847
#
# number of rings (size 3 to 8) (size 9 to 14) (size 15 to 20)
#    0.000    2.000    0.000    5.250    0.000    6.000 
#    0.000    6.250    0.000    0.000    0.000    0.000 
#    0.000    0.000    0.000    0.000    0.000    0.000 
#
# Total GULP energy -198310.158254 kJ/mol
# GULP energy per Si atom -12394.384891 kJ/mol
# Density = 2.063378 g / cm^3
# Si number density = 20.680847 Si / 1000 Ang^3
#
#
#
# Elastic Constant Matrix: (Units=GPa)
#
#
# Indices 1 2 3 4 5 6 
#
# 1 159.9771 70.4662 45.1277 13.3536 31.4088 -23.2025
# 2 70.4662 141.8719 36.9112 24.6544 5.1762 -25.6904
# 3 45.1277 36.9112 61.7168 14.1742 12.2197 -16.0775
# 4 13.3536 24.6544 14.1742 21.8684 7.0201 -12.3661
# 5 31.4088 5.1762 12.2197 7.0201 20.9067 -6.9152
# 6 -23.2025 -25.6904 -16.0775 -12.3661 -6.9152 39.1858
#
#
#
# Elastic Compliance Matrix: (Units=1/GPa)
#
#
# Indices 1 2 3 4 5 6 
#
# 1 0.013039 -0.005900 -0.003832 0.007844 -0.018000 0.001579
# 2 -0.005900 0.012559 -0.002277 -0.011586 0.011708 0.002216
# 3 -0.003832 -0.002277 0.023631 -0.007502 -0.004028 0.002856
# 4 0.007844 -0.011586 -0.007502 0.074279 -0.025184 0.012968
# 5 -0.018000 0.011708 -0.004028 -0.025184 0.083497 0.002153
# 6 0.001579 0.002216 0.002856 0.012968 0.002153 0.033551
#
#
# Mechanical properties :
#
#
# Convention : Reuss Voigt Hill
#
# Bulk Modulus (GPa) = 39.66495 74.28622 56.97558
# Shear Modulus (GPa) = 18.31648 30.46289 24.38968
#
# Velocity S-wave (km/s) = 2.97926 3.84213 3.43787
# Velocity P-wave (km/s) = 5.57277 7.46196 6.58547
#
# Compressibility (1/GPa) = 0.02521118
#
# Stress axis : x y z
#
# Youngs Moduli (GPa) = 76.69457 79.62490 42.31697
#
# Poissons Ratio (x) = 0.46977 0.16215
# Poissons Ratio (y) = 0.45248 0.09637
# Poissons Ratio (z) = 0.29387 0.18133
#
# Static dielectric constant tensor:
#      x y z
#    x 4.255720 -0.297440 -0.011660 
#    y -0.297440 4.109710 -0.077460 
#    z -0.011660 -0.077460 3.237490 
# 
# 
# High freq. dielectric constant tensor:
#      x y z
#    x 1.830320 -0.012220 -0.000400 
#    y -0.012220 1.824330 -0.004400 
#    z -0.000400 -0.004400 1.762590 
# 
# From -- ./inp_files/297870.got.cif
#   From: 2010.06.25/outbox.cif.g09.slc.cpg/sg2_149_cif.got.tgz:297870.got - 2010.06.27 13:26:56.
