data_PCOD8042561
_publ_section_title
;
Structure prediction by ZEFSAII (Michael W. Deem and Ramdas Pophale) SiO2 
 PCOD8042561
Probable space group: P -1
;
_chemical_formula_sum "Si O2"
_cell_formula_units_Z 16
_cell_length_a 18.198675
_cell_length_b 9.041411
_cell_length_c 12.779959
_cell_angle_alpha 103.700827
_cell_angle_beta 36.767204
_cell_angle_gamma 129.550598
_cell_volume 782.162690
_symmetry_space_group_name_H-M "P -1"
_symmetry_group_IT_number 2
_symmetry_cell_setting 'triclinic'
loop_
_space_group_symop_operation_xyz
x,y,z
-x,-y,-z
loop_
_atom_site_type_symbol
_atom_site_label
_atom_site_fract_x
_atom_site_fract_y
_atom_site_fract_z
Si Si1 0.708421 0.120531 0.773991
Si Si2 0.988434 0.257880 0.185421
Si Si3 0.630640 0.519583 0.229815
Si Si4 0.707536 0.842814 0.589078
Si Si5 0.100156 0.759463 0.939853
Si Si6 0.971418 0.532639 0.373208
Si Si7 0.490282 0.265464 0.556923
Si Si8 0.166781 0.368735 0.611259
O O1 0.831840 0.330968 0.585113
O O2 0.823325 0.225906 0.770160
O O3 0.693559 0.929317 0.724756
O O4 0.500000 0.000000 0.000000
O O5 0.958509 0.201590 0.088131
O O6 0.025305 0.469015 0.207418
O O7 0.801774 0.027805 0.420110
O O8 0.165159 0.321886 0.027173
O O9 0.503327 0.388734 0.250060
O O10 0.585863 0.353683 0.346491
O O11 0.626933 0.688004 0.303397
O O12 0.821164 0.793780 0.467904
O O13 0.335508 0.981472 0.707661
O O14 0.000000 0.500000 0.000000
O O15 0.026452 0.783265 0.127872
O O16 0.851507 0.556136 0.463089
O O17 0.651506 0.408716 0.487284
#
# Coordination Sequence:
#
# PCOD8042561 Si02
#       8
#     2   2   2   2   2   2   2   2
#     4  10  22  44  68  87 111 157 202 255 313 367
#     4  11  20  37  59  87 121 168 203 245 290 360
#     4  10  19  35  58  84 118 164 206 246 284 350
#     4  10  22  38  64  90 120 159 208 249 304 354
#     4  12  23  37  55  89 130 170 203 235 300 359
#     4  10  23  41  61  90 121 150 206 253 304 363
#     4  10  22  35  54  85 124 165 205 240 291 350
#     4  11  23  40  58  93 129 158 198 255 297 359
#
# _framework density 20.456102000000001
#
# number of rings (size 3 to 8) (size 9 to 14) (size 15 to 20)
#    0.000    1.500    3.750    1.500    0.000    3.000 
#    4.500    0.625    0.000    0.000    0.000    0.000 
#    0.000    0.000    0.000    0.000    0.000    0.000 
#
# Total GULP energy -198335.433909 kJ/mol
# GULP energy per Si atom -12395.964619 kJ/mol
# Density = 2.040954 g / cm^3
# Si number density = 20.456102 Si / 1000 Ang^3
#
#
#
# Elastic Constant Matrix: (Units=GPa)
#
#
# Indices 1 2 3 4 5 6 
#
# 1 105.8867 29.8590 7.6157 4.2497 -8.9673 3.5901
# 2 29.8590 82.7131 10.2554 4.2067 -1.6359 7.4793
# 3 7.6157 10.2554 62.8370 2.1320 -14.3906 7.3228
# 4 4.2497 4.2067 2.1320 33.0501 -0.4124 -5.2452
# 5 -8.9673 -1.6359 -14.3906 -0.4124 26.6828 1.2076
# 6 3.5901 7.4793 7.3228 -5.2452 1.2076 22.6254
#
#
#
# Elastic Compliance Matrix: (Units=1/GPa)
#
#
# Indices 1 2 3 4 5 6 
#
# 1 0.010860 -0.003738 0.000271 -0.001054 0.003596 -0.001012
# 2 -0.003738 0.014060 -0.001574 -0.001842 -0.001094 -0.003914
# 3 0.000271 -0.001574 0.019478 -0.002048 0.010779 -0.006877
# 4 -0.001054 -0.001842 -0.002048 0.032165 -0.001481 0.008975
# 5 0.003596 -0.001094 0.010779 -0.001481 0.044700 -0.006427
# 6 -0.001012 -0.003914 -0.006877 0.008975 -0.006427 0.050302
#
#
# Mechanical properties :
#
#
# Convention : Reuss Voigt Hill
#
# Bulk Modulus (GPa) = 29.14000 38.54409 33.84204
# Shear Modulus (GPa) = 25.89542 30.05212 27.97377
#
# Velocity S-wave (km/s) = 3.56181 3.83705 3.70199
# Velocity P-wave (km/s) = 5.58493 6.20595 5.90361
#
# Compressibility (1/GPa) = 0.03431709
#
# Stress axis : x y z
#
# Youngs Moduli (GPa) = 92.08357 71.12181 51.34107
#
# Poissons Ratio (x) = 0.26583 -0.01392
# Poissons Ratio (y) = 0.34418 0.08079
# Poissons Ratio (z) = -0.02496 0.11192
#
# Static dielectric constant tensor:
#      x y z
#    x 3.585800 0.104000 -0.109190 
#    y 0.104000 3.880800 -0.002130 
#    z -0.109190 -0.002130 3.706620 
# 
# 
# High freq. dielectric constant tensor:
#      x y z
#    x 1.792260 0.004610 -0.013770 
#    y 0.004610 1.798010 0.000160 
#    z -0.013770 0.000160 1.796970 
# 
# From -- ./inp_files/49414.got.cif
#   From: 2010.06.25/outbox.cif.g09.slc.cpg/sg2_25_cif.got.tgz:49414.got - 2010.06.27 13:26:56.
