data_PCOD8042407
_publ_section_title
;
Structure prediction by ZEFSAII (Michael W. Deem and Ramdas Pophale) SiO2 
 PCOD8042407
Probable space group: P -1
;
_chemical_formula_sum "Si O2"
_cell_formula_units_Z 16
_cell_length_a 11.146281
_cell_length_b 14.270248
_cell_length_c 11.917399
_cell_angle_alpha 57.493618
_cell_angle_beta 126.650840
_cell_angle_gamma 148.948128
_cell_volume 782.902574
_symmetry_space_group_name_H-M "P -1"
_symmetry_group_IT_number 2
_symmetry_cell_setting 'triclinic'
loop_
_space_group_symop_operation_xyz
x,y,z
-x,-y,-z
loop_
_atom_site_type_symbol
_atom_site_label
_atom_site_fract_x
_atom_site_fract_y
_atom_site_fract_z
Si Si1 0.646276 0.575821 0.256545
Si Si2 0.498683 0.823904 0.077451
Si Si3 0.251846 0.596163 0.679036
Si Si4 0.671297 0.441621 0.025664
Si Si5 0.764851 0.178733 0.892858
Si Si6 0.299200 0.705115 0.408676
Si Si7 0.332512 0.257834 0.443068
Si Si8 0.866183 0.870808 0.350835
O O1 0.777023 0.543487 0.303056
O O2 0.426672 0.419071 0.322186
O O3 0.849745 0.768699 0.310515
O O4 0.525774 0.575926 0.088650
O O5 0.314604 0.785276 0.075727
O O6 0.687886 0.869362 0.231129
O O7 0.335080 0.644227 0.028445
O O8 0.656583 0.993905 0.972674
O O9 0.404288 0.671484 0.830767
O O10 0.378767 0.751937 0.556074
O O11 0.989057 0.493189 0.628976
O O12 0.941138 0.652327 0.055326
O O13 0.657108 0.155895 0.726288
O O14 0.440466 0.689236 0.434716
O O15 0.205663 0.225693 0.506959
O O16 0.142784 0.077234 0.376355
#
# Coordination Sequence:
#
# PCOD8042407 Si02
#       8
#     2   2   2   2   2   2   2   2
#     4  10  20  35  55  80 107 143 181 221 267 317
#     4  10  20  34  55  81 110 140 178 221 270 326
#     4   9  19  36  58  78 109 147 184 220 262 315
#     4  10  20  35  55  80 107 143 181 221 267 317
#     4  10  19  35  55  79 110 141 176 223 274 316
#     4   9  18  36  57  76 107 146 177 224 266 311
#     4  10  19  35  55  79 110 141 176 223 274 316
#     4  10  20  34  55  81 110 140 178 221 270 326
#
# _framework density 20.436769999999999
#
# number of rings (size 3 to 8) (size 9 to 14) (size 15 to 20)
#    0.000    2.250    1.250    1.875    0.000    0.000 
#    0.000   12.500    0.000   13.500    0.000    0.000 
#    0.000    0.000    0.000    0.000    0.000    0.000 
#
# Total GULP energy -198324.798966 kJ/mol
# GULP energy per Si atom -12395.299935 kJ/mol
# Density = 2.039025 g / cm^3
# Si number density = 20.436770 Si / 1000 Ang^3
#
#
#
# Elastic Constant Matrix: (Units=GPa)
#
#
# Indices 1 2 3 4 5 6 
#
# 1 50.8045 10.0203 14.6800 14.6954 3.6166 -4.1017
# 2 10.0203 58.8284 33.9809 -1.3423 -0.6538 -0.9364
# 3 14.6800 33.9809 132.0510 -4.5302 -9.9081 0.4824
# 4 14.6954 -1.3423 -4.5302 26.9639 9.0201 -3.4682
# 5 3.6166 -0.6538 -9.9081 9.0201 22.5372 -6.4342
# 6 -4.1017 -0.9364 0.4824 -3.4682 -6.4342 17.2813
#
#
#
# Elastic Compliance Matrix: (Units=1/GPa)
#
#
# Indices 1 2 3 4 5 6 
#
# 1 0.025361 -0.003196 -0.002386 -0.014454 0.001604 0.003609
# 2 -0.003196 0.020458 -0.004974 0.002649 -0.002069 0.000250
# 3 -0.002386 -0.004974 0.009466 0.001378 0.004043 0.000682
# 4 -0.014454 0.002649 0.001378 0.051194 -0.017347 0.000490
# 5 0.001604 -0.002069 0.004043 -0.017347 0.057988 0.018265
# 6 0.003609 0.000250 0.000682 0.000490 0.018265 0.065616
#
#
# Mechanical properties :
#
#
# Convention : Reuss Voigt Hill
#
# Bulk Modulus (GPa) = 29.26319 39.89403 34.57861
# Shear Modulus (GPa) = 19.04133 25.55665 22.29899
#
# Velocity S-wave (km/s) = 3.05572 3.54011 3.30680
# Velocity P-wave (km/s) = 5.17686 6.02270 5.61573
#
# Compressibility (1/GPa) = 0.03417262
#
# Stress axis : x y z
#
# Youngs Moduli (GPa) = 39.43031 48.88114 105.63825
#
# Poissons Ratio (x) = 0.15624 0.25201
# Poissons Ratio (y) = 0.12603 0.52549
# Poissons Ratio (z) = 0.09406 0.24315
#
# Static dielectric constant tensor:
#      x y z
#    x 3.502310 0.142460 -0.086420 
#    y 0.142460 3.416040 -0.238930 
#    z -0.086420 -0.238930 4.126190 
# 
# 
# High freq. dielectric constant tensor:
#      x y z
#    x 1.789200 0.014360 -0.000710 
#    y 0.014360 1.765230 -0.013330 
#    z -0.000710 -0.013330 1.821540 
# 
# From -- ./inp_files/432352.got.cif
#   From: 2010.06.25/outbox.cif.g09.slc.cpg/sg2_217_cif.got.tgz:432352.got - 2010.06.27 13:26:56.
