data_PCOD8042352
_publ_section_title
;
Structure prediction by ZEFSAII (Michael W. Deem and Ramdas Pophale) SiO2 
 PCOD8042352
Probable space group: P -1
;
_chemical_formula_sum "Si O2"
_cell_formula_units_Z 12
_cell_length_a 5.118696
_cell_length_b 13.691054
_cell_length_c 7.225611
_cell_angle_alpha 65.432829
_cell_angle_beta 110.059701
_cell_angle_gamma 93.117075
_cell_volume 430.282460
_symmetry_space_group_name_H-M "P -1"
_symmetry_group_IT_number 2
_symmetry_cell_setting 'triclinic'
loop_
_space_group_symop_operation_xyz
x,y,z
-x,-y,-z
loop_
_atom_site_type_symbol
_atom_site_label
_atom_site_fract_x
_atom_site_fract_y
_atom_site_fract_z
Si Si1 0.527511 0.824649 0.179894
Si Si2 0.916207 0.078936 0.748143
Si Si3 0.897502 0.115933 0.265073
Si Si4 0.313692 0.611609 0.358583
Si Si5 0.246197 0.691132 0.682953
Si Si6 0.122607 0.327648 0.073224
O O1 0.852510 0.835437 0.270506
O O2 0.494570 0.698399 0.236152
O O3 0.385503 0.859182 0.318043
O O4 0.386852 0.892122 0.917206
O O5 0.924437 0.003721 0.617636
O O6 0.000000 0.000000 0.000000
O O7 0.816838 0.174444 0.404076
O O8 0.076713 0.200649 0.133482
O O9 0.500000 0.500000 0.500000
O O10 0.207648 0.654475 0.497145
O O11 0.031598 0.600587 0.182799
O O12 0.554761 0.653399 0.863620
O O13 0.023702 0.634073 0.797085
#
# Coordination Sequence:
#
# PCOD8042352 Si02
#       6
#     2   2   2   2   2   2
#     4  10  22  36  61 100 134 173 232 275 327 417
#     4  10  19  34  66  98 133 178 219 269 348 406
#     4   8  19  35  64  94 136 172 214 273 341 401
#     4  11  26  48  72  99 140 188 232 291 347 395
#     4  10  23  43  70 101 140 174 231 284 338 413
#     4   9  23  42  69 100 140 170 233 278 341 411
#
# _framework density 27.888655
#
# number of rings (size 3 to 8) (size 9 to 14) (size 15 to 20)
#    1.000    1.333    0.000    2.000    9.333    4.000 
#    0.000    7.500    0.000    0.000    0.000    0.000 
#    0.000    0.000    0.000    0.000    0.000    0.000 
#
# Total GULP energy -148779.532436 kJ/mol
# GULP energy per Si atom -12398.294370 kJ/mol
# Density = 2.782518 g / cm^3
# Si number density = 27.888655 Si / 1000 Ang^3
#
#
#
# Elastic Constant Matrix: (Units=GPa)
#
#
# Indices 1 2 3 4 5 6 
#
# 1 112.0495 29.1721 19.5244 -7.4319 -4.0591 -19.7653
# 2 29.1721 102.1751 57.0997 -5.7897 -9.9279 -41.3875
# 3 19.5244 57.0997 121.9673 17.6372 2.1413 -34.9357
# 4 -7.4319 -5.7897 17.6372 45.1265 -17.5943 -1.0854
# 5 -4.0591 -9.9279 2.1413 -17.5943 33.7010 6.1765
# 6 -19.7653 -41.3875 -34.9357 -1.0854 6.1765 40.6007
#
#
#
# Elastic Compliance Matrix: (Units=1/GPa)
#
#
# Indices 1 2 3 4 5 6 
#
# 1 0.010075 -0.000868 -0.000683 0.002576 0.001753 0.003233
# 2 -0.000868 0.020990 -0.007263 0.009157 0.008823 0.013626
# 3 -0.000683 -0.007263 0.015384 -0.010828 -0.010089 0.006746
# 4 0.002576 0.009157 -0.010828 0.037030 0.023262 -0.001278
# 5 0.001753 0.008823 -0.010089 0.023262 0.046230 -0.005244
# 6 0.003233 0.013626 0.006746 -0.001278 -0.005244 0.046663
#
#
# Mechanical properties :
#
#
# Convention : Reuss Voigt Hill
#
# Bulk Modulus (GPa) = 34.70047 60.86492 47.78270
# Shear Modulus (GPa) = 24.55693 39.24536 31.90115
#
# Velocity S-wave (km/s) = 2.97060 3.75536 3.38579
# Velocity P-wave (km/s) = 4.92295 6.37771 5.69696
#
# Compressibility (1/GPa) = 0.02881805
#
# Stress axis : x y z
#
# Youngs Moduli (GPa) = 99.25998 47.64176 65.00251
#
# Poissons Ratio (x) = 0.04137 0.04442
# Poissons Ratio (y) = 0.08620 0.47215
# Poissons Ratio (z) = 0.06783 0.34605
#
# Static dielectric constant tensor:
#      x y z
#    x 4.837310 -0.396960 -0.217280 
#    y -0.396960 5.389610 0.086880 
#    z -0.217280 0.086880 5.514470 
# 
# 
# High freq. dielectric constant tensor:
#      x y z
#    x 2.112210 -0.023450 -0.006160 
#    y -0.023450 2.123720 0.004330 
#    z -0.006160 0.004330 2.162340 
# 
# From -- ./inp_files/131530.got.cif
#   From: 2010.06.25/outbox.cif.g09.slc.cpg/sg2_66_cif.got.tgz:131530.got - 2010.06.27 13:26:56.
