data_PCOD8042505
_publ_section_title
;
Structure prediction by ZEFSAII (Michael W. Deem and Ramdas Pophale) SiO2 
 PCOD8042505
Probable space group: P -1
;
_chemical_formula_sum "Si O2"
_cell_formula_units_Z 16
_cell_length_a 14.199028
_cell_length_b 13.034641
_cell_length_c 9.258858
_cell_angle_alpha 138.732881
_cell_angle_beta 45.662038
_cell_angle_gamma 132.206319
_cell_volume 768.429845
_symmetry_space_group_name_H-M "P -1"
_symmetry_group_IT_number 2
_symmetry_cell_setting 'triclinic'
loop_
_space_group_symop_operation_xyz
x,y,z
-x,-y,-z
loop_
_atom_site_type_symbol
_atom_site_label
_atom_site_fract_x
_atom_site_fract_y
_atom_site_fract_z
Si Si1 0.761876 0.395225 0.322514
Si Si2 0.951112 0.578056 0.840622
Si Si3 0.315848 0.054693 0.697436
Si Si4 0.427276 0.261737 0.213362
Si Si5 0.310516 0.456991 0.738202
Si Si6 0.947766 0.245807 0.371781
Si Si7 0.761326 0.698475 0.788988
Si Si8 0.565434 0.051460 0.252247
O O1 0.921119 0.397805 0.160607
O O2 0.735182 0.470219 0.280248
O O3 0.729667 0.500970 0.604674
O O4 0.661871 0.213415 0.247303
O O5 0.896116 0.392171 0.644143
O O6 0.999029 0.709247 0.800599
O O7 0.822267 0.614451 0.094572
O O8 0.418536 0.073860 0.473275
O O9 0.368502 0.989526 0.715839
O O10 0.299211 0.234830 0.934567
O O11 0.171277 0.924807 0.671787
O O12 0.375663 0.310726 0.474981
O O13 0.568117 0.401940 0.162013
O O14 0.300184 0.241000 0.219964
O O15 0.457423 0.088778 0.994588
O O16 0.072512 0.221889 0.308418
#
# Coordination Sequence:
#
# PCOD8042505 Si02
#       8
#     2   2   2   2   2   2   2   2
#     4  10  20  37  57  83 113 144 186 230 264 331
#     4  10  20  35  58  87 109 145 185 225 278 326
#     4  10  19  35  57  83 116 149 174 224 283 330
#     4   9  20  39  56  79 112 145 186 232 269 322
#     4  10  20  38  61  76 111 151 184 227 276 320
#     4  10  19  35  58  85 115 140 183 230 270 332
#     4   9  20  36  56  82 113 144 181 229 276 321
#     4  10  20  35  58  83 114 145 182 226 278 325
#
# _framework density 20.821680000000001
#
# number of rings (size 3 to 8) (size 9 to 14) (size 15 to 20)
#    0.000    2.250    1.250    1.500    0.000    1.000 
#    6.750    0.625    5.500    0.000    0.000    0.000 
#    0.000    0.000    0.000    0.000    0.000    0.000 
#
# Total GULP energy -198321.759546 kJ/mol
# GULP energy per Si atom -12395.109972 kJ/mol
# Density = 2.077429 g / cm^3
# Si number density = 20.821680 Si / 1000 Ang^3
#
#
#
# Elastic Constant Matrix: (Units=GPa)
#
#
# Indices 1 2 3 4 5 6 
#
# 1 58.2720 8.3201 6.4494 -5.2434 -1.0214 21.4731
# 2 8.3201 87.2918 63.5824 6.2123 -0.3293 22.6436
# 3 6.4494 63.5824 144.4808 4.9491 -16.5754 19.0861
# 4 -5.2434 6.2123 4.9491 36.5317 5.0925 2.2766
# 5 -1.0214 -0.3293 -16.5754 5.0925 22.7691 -3.4730
# 6 21.4731 22.6436 19.0861 2.2766 -3.4730 24.5968
#
#
#
# Elastic Compliance Matrix: (Units=1/GPa)
#
#
# Indices 1 2 3 4 5 6 
#
# 1 0.027920 0.004731 -0.000111 0.005716 -0.004587 -0.029820
# 2 0.004731 0.021998 -0.008363 0.000461 -0.008581 -0.019146
# 3 -0.000111 -0.008363 0.011633 -0.001386 0.008671 0.000122
# 4 0.005716 0.000461 -0.001386 0.030042 -0.008739 -0.008353
# 5 -0.004587 -0.008581 0.008671 -0.008739 0.053930 0.013599
# 6 -0.029820 -0.019146 0.000122 -0.008353 0.013599 0.086914
#
#
# Mechanical properties :
#
#
# Convention : Reuss Voigt Hill
#
# Bulk Modulus (GPa) = 18.49618 49.63869 34.06743
# Shear Modulus (GPa) = 19.38407 30.89236 25.13822
#
# Velocity S-wave (km/s) = 3.05447 3.85601 3.47841
# Velocity P-wave (km/s) = 4.61975 6.61187 5.70346
#
# Compressibility (1/GPa) = 0.05406522
#
# Stress axis : x y z
#
# Youngs Moduli (GPa) = 35.81619 45.45952 85.96453
#
# Poissons Ratio (x) = -0.21507 0.00954
# Poissons Ratio (y) = -0.16945 0.71890
# Poissons Ratio (z) = 0.00398 0.38017
#
# Static dielectric constant tensor:
#      x y z
#    x 3.808840 0.290040 -0.171420 
#    y 0.290040 3.496200 0.277520 
#    z -0.171420 0.277520 4.162830 
# 
# 
# High freq. dielectric constant tensor:
#      x y z
#    x 1.817230 0.026470 -0.014570 
#    y 0.026470 1.790530 0.018430 
#    z -0.014570 0.018430 1.820760 
# 
# From -- ./inp_files/209234.got.cif
#   From: 2010.06.25/outbox.cif.g09.slc.cpg/sg2_105_cif.got.tgz:209234.got - 2010.06.27 13:26:56.
