data_PCOD8042153
_publ_section_title
;
Structure prediction by ZEFSAII (Michael W. Deem and Ramdas Pophale) SiO2 
 PCOD8042153
Probable space group: P -1
;
_chemical_formula_sum "Si O2"
_cell_formula_units_Z 16
_cell_length_a 7.797245
_cell_length_b 21.551816
_cell_length_c 5.235716
_cell_angle_alpha 110.183600
_cell_angle_beta 80.254367
_cell_angle_gamma 69.417559
_cell_volume 729.597483
_symmetry_space_group_name_H-M "P -1"
_symmetry_group_IT_number 2
_symmetry_cell_setting 'triclinic'
loop_
_space_group_symop_operation_xyz
x,y,z
-x,-y,-z
loop_
_atom_site_type_symbol
_atom_site_label
_atom_site_fract_x
_atom_site_fract_y
_atom_site_fract_z
Si Si1 0.318565 0.441415 0.965109
Si Si2 0.484939 0.873701 0.475902
Si Si3 0.770112 0.398395 0.778950
Si Si4 0.097593 0.012833 0.745994
Si Si5 0.865126 0.841901 0.103815
Si Si6 0.406002 0.203020 0.152947
Si Si7 0.183941 0.683833 0.850921
Si Si8 0.365032 0.359503 0.338155
O O1 0.191926 0.529431 0.146540
O O2 0.271524 0.401397 0.158211
O O3 0.542986 0.422335 0.878141
O O4 0.264960 0.414910 0.676066
O O5 0.699321 0.871114 0.408620
O O6 0.467188 0.832464 0.677048
O O7 0.325462 0.957787 0.622658
O O8 0.455892 0.829619 0.177602
O O9 0.868646 0.347041 0.437284
O O10 0.864002 0.355566 0.954763
O O11 0.069468 0.095695 0.889043
O O12 0.000000 0.000000 0.500000
O O13 0.000000 0.000000 0.000000
O O14 0.771324 0.820027 0.851274
O O15 0.054700 0.770624 0.043730
O O16 0.316202 0.291077 0.296284
O O17 0.404710 0.670044 0.767179
#
# Coordination Sequence:
#
# PCOD8042153 Si02
#       8
#     2   2   2   2   2   2   2   2
#     4   9  17  32  56  84 123 161 201 259 314 356
#     4  10  24  44  66  89 125 172 200 249 306 385
#     4   9  18  33  53  88 123 158 203 257 314 360
#     4  12  28  45  70 100 125 158 207 265 305 366
#     4  10  27  42  67  89 131 170 202 249 319 376
#     4  10  23  40  65  90 124 170 206 254 299 387
#     4  10  21  33  59  90 120 157 208 262 302 359
#     4  10  19  34  58  91 118 158 213 261 301 356
#
# _framework density 21.929897
#
# number of rings (size 3 to 8) (size 9 to 14) (size 15 to 20)
#    0.750    1.250    0.000    2.625    7.000    3.500 
#    0.000    0.000    0.000    4.500    0.000    0.000 
#    0.000    0.000    0.000    0.000    0.000    0.000 
#
# Total GULP energy -198369.602946 kJ/mol
# GULP energy per Si atom -12398.100184 kJ/mol
# Density = 2.187998 g / cm^3
# Si number density = 21.929897 Si / 1000 Ang^3
#
#
#
# Elastic Constant Matrix: (Units=GPa)
#
#
# Indices 1 2 3 4 5 6 
#
# 1 50.0924 46.4249 44.8003 5.4089 7.6365 10.8255
# 2 46.4249 200.3187 86.1047 -1.0327 16.3423 19.7413
# 3 44.8003 86.1047 133.3460 -18.2252 20.1568 8.6550
# 4 5.4089 -1.0327 -18.2252 50.9171 -1.2676 10.8845
# 5 7.6365 16.3423 20.1568 -1.2676 23.0716 7.8781
# 6 10.8255 19.7413 8.6550 10.8845 7.8781 24.3732
#
#
#
# Elastic Compliance Matrix: (Units=1/GPa)
#
#
# Indices 1 2 3 4 5 6 
#
# 1 0.033406 -0.002981 -0.009878 -0.005609 0.001759 -0.006979
# 2 -0.002981 0.007619 -0.003710 -0.000111 0.000015 -0.003485
# 3 -0.009878 -0.003710 0.015017 0.005746 -0.007569 0.001940
# 4 -0.005609 -0.000111 0.005746 0.024732 0.002092 -0.011180
# 5 0.001759 0.000015 -0.007569 0.002092 0.055248 -0.016897
# 6 -0.006979 -0.003485 0.001940 -0.011180 -0.016897 0.056716
#
#
# Mechanical properties :
#
#
# Convention : Reuss Voigt Hill
#
# Bulk Modulus (GPa) = 43.65868 82.04632 62.85250
# Shear Modulus (GPa) = 21.41224 33.43419 27.42321
#
# Velocity S-wave (km/s) = 3.12812 3.90884 3.54007
# Velocity P-wave (km/s) = 5.74442 7.60699 6.74035
#
# Compressibility (1/GPa) = 0.02290495
#
# Stress axis : x y z
#
# Youngs Moduli (GPa) = 29.93481 131.25040 66.59033
#
# Poissons Ratio (x) = 0.39119 0.65781
# Poissons Ratio (y) = 0.08922 0.24703
# Poissons Ratio (z) = 0.29571 0.48689
#
# Static dielectric constant tensor:
#      x y z
#    x 3.546910 -0.038670 0.088660 
#    y -0.038670 3.963310 -0.033250 
#    z 0.088660 -0.033250 4.033040 
# 
# 
# High freq. dielectric constant tensor:
#      x y z
#    x 1.835810 -0.001890 0.004030 
#    y -0.001890 1.871530 0.000730 
#    z 0.004030 0.000730 1.868190 
# 
# From -- ./inp_files/53440.got.cif
#   From: 2010.06.25/outbox.cif.g09.slc.cpg/sg2_27_cif.got.tgz:53440.got - 2010.06.27 13:26:56.
