data_PCOD8042652
_publ_section_title
;
Structure prediction by ZEFSAII (Michael W. Deem and Ramdas Pophale) SiO2 
 PCOD8042652
Probable space group: P -1
;
_chemical_formula_sum "Si O2"
_cell_formula_units_Z 16
_cell_length_a 9.037487
_cell_length_b 11.740479
_cell_length_c 10.804355
_cell_angle_alpha 88.316050
_cell_angle_beta 95.052620
_cell_angle_gamma 131.720654
_cell_volume 851.679889
_symmetry_space_group_name_H-M "P -1"
_symmetry_group_IT_number 2
_symmetry_cell_setting 'triclinic'
loop_
_space_group_symop_operation_xyz
x,y,z
-x,-y,-z
loop_
_atom_site_type_symbol
_atom_site_label
_atom_site_fract_x
_atom_site_fract_y
_atom_site_fract_z
Si Si1 0.179613 0.066360 0.099840
Si Si2 0.108262 0.858498 0.303849
Si Si3 0.991148 0.146978 0.242746
Si Si4 0.272322 0.469131 0.354025
Si Si5 0.250995 0.065702 0.544009
Si Si6 0.708120 0.657612 0.400959
Si Si7 0.354233 0.762920 0.298999
Si Si8 0.414531 0.069255 0.929450
O O1 0.171502 0.164570 0.195347
O O2 0.152769 0.932511 0.171137
O O3 0.379165 0.150341 0.028759
O O4 0.000000 0.000000 0.000000
O O5 0.203363 0.985368 0.412648
O O6 0.194318 0.776496 0.317506
O O7 0.870271 0.730486 0.303076
O O8 0.925295 0.051228 0.367819
O O9 0.091826 0.319775 0.270921
O O10 0.799565 0.068295 0.144112
O O11 0.492424 0.541918 0.322464
O O12 0.259216 0.429791 0.499229
O O13 0.245701 0.589610 0.328435
O O14 0.728369 0.787568 0.472408
O O15 0.456957 0.117245 0.603861
O O16 0.427640 0.801076 0.160846
O O17 0.500000 0.000000 0.000000
#
# Coordination Sequence:
#
# PCOD8042652 Si02
#       8
#     2   2   2   2   2   2   2   2
#     4  10  21  34  61  85 106 140 197 240 272 309
#     4  12  19  34  60  88 111 146 190 234 276 336
#     4  10  19  37  61  84 112 143 188 240 276 333
#     4  10  21  38  52  84 119 155 174 224 295 339
#     4  10  19  35  59  89 111 142 189 238 282 324
#     4  10  20  34  58  81 119 149 185 226 279 342
#     4  10  23  36  57  83 123 148 179 231 286 343
#     4  10  20  40  60  83 107 148 194 235 276 322
#
# _framework density 18.786403
#
# number of rings (size 3 to 8) (size 9 to 14) (size 15 to 20)
#    0.000    1.750    3.750    1.500    1.750    0.500 
#    0.000    2.500    0.000    0.000    0.000    0.000 
#    0.000    0.000    0.000    0.000    0.000    0.000 
#
# Total GULP energy -198328.479570 kJ/mol
# GULP energy per Si atom -12395.529973 kJ/mol
# Density = 1.874364 g / cm^3
# Si number density = 18.786403 Si / 1000 Ang^3
#
#
#
# Elastic Constant Matrix: (Units=GPa)
#
#
# Indices 1 2 3 4 5 6 
#
# 1 86.1903 23.5092 22.4420 -2.9071 -4.8060 -15.1939
# 2 23.5092 96.5338 31.1278 0.2947 2.1264 -9.6430
# 3 22.4420 31.1278 69.1650 -12.2761 -2.5013 -8.8055
# 4 -2.9071 0.2947 -12.2761 22.7508 -1.9261 5.0243
# 5 -4.8060 2.1264 -2.5013 -1.9261 29.8993 -8.5120
# 6 -15.1939 -9.6430 -8.8055 5.0243 -8.5120 30.0177
#
#
#
# Elastic Compliance Matrix: (Units=1/GPa)
#
#
# Indices 1 2 3 4 5 6 
#
# 1 0.014340 -0.001939 -0.002886 -0.000920 0.004171 0.007126
# 2 -0.001939 0.012893 -0.005717 -0.004007 -0.001470 0.001737
# 3 -0.002886 -0.005717 0.020129 0.010438 0.002768 0.001646
# 4 -0.000920 -0.004007 0.010438 0.051177 0.002438 -0.006566
# 5 0.004171 -0.001470 0.002768 0.002438 0.038281 0.012898
# 6 0.007126 0.001737 0.001646 -0.006566 0.012898 0.042718
#
#
# Mechanical properties :
#
#
# Convention : Reuss Voigt Hill
#
# Bulk Modulus (GPa) = 38.05175 45.11637 41.58406
# Shear Modulus (GPa) = 23.87992 28.18757 26.03374
#
# Velocity S-wave (km/s) = 3.56916 3.87773 3.72664
# Velocity P-wave (km/s) = 6.10607 6.64204 6.37968
#
# Compressibility (1/GPa) = 0.02628000
#
# Stress axis : x y z
#
# Youngs Moduli (GPa) = 69.73416 77.56281 49.67858
#
# Poissons Ratio (x) = 0.15040 0.14335
# Poissons Ratio (y) = 0.13522 0.28399
# Poissons Ratio (z) = 0.20122 0.44339
#
# Static dielectric constant tensor:
#      x y z
#    x 3.733320 -0.018850 -0.257200 
#    y -0.018850 3.497450 0.031550 
#    z -0.257200 0.031550 3.968280 
# 
# 
# High freq. dielectric constant tensor:
#      x y z
#    x 1.741220 -0.000930 0.006820 
#    y -0.000930 1.711560 -0.018370 
#    z 0.006820 -0.018370 1.723540 
# 
# From -- ./inp_files/379183.got.cif
#   From: 2010.06.25/outbox.cif.g09.slc.cpg/sg2_190_cif.got.tgz:379183.got - 2010.06.27 13:26:56.
