data_PCOD8042903
_publ_section_title
;
Structure prediction by ZEFSAII (Michael W. Deem and Ramdas Pophale) SiO2 
 PCOD8042903
Probable space group: P -1
;
_chemical_formula_sum "Si O2"
_cell_formula_units_Z 14
_cell_length_a 8.475607
_cell_length_b 12.861304
_cell_length_c 9.997465
_cell_angle_alpha 51.462368
_cell_angle_beta 73.339889
_cell_angle_gamma 102.129910
_cell_volume 698.169990
_symmetry_space_group_name_H-M "P -1"
_symmetry_group_IT_number 2
_symmetry_cell_setting 'triclinic'
loop_
_space_group_symop_operation_xyz
x,y,z
-x,-y,-z
loop_
_atom_site_type_symbol
_atom_site_label
_atom_site_fract_x
_atom_site_fract_y
_atom_site_fract_z
Si Si1 0.361371 0.856388 0.741988
Si Si2 0.416816 0.583312 0.860943
Si Si3 0.618768 0.715887 0.172281
Si Si4 0.397191 0.870766 0.019547
Si Si5 0.022863 0.367370 0.662794
Si Si6 0.081604 0.321878 0.980587
Si Si7 0.627983 0.642880 0.507162
O O1 0.389671 0.708890 0.846701
O O2 0.500000 0.000000 0.500000
O O3 0.424188 0.931646 0.813456
O O4 0.134973 0.791198 0.820444
O O5 0.209613 0.453033 0.954722
O O6 0.579147 0.687789 0.625680
O O7 0.500000 0.500000 0.000000
O O8 0.477837 0.754975 0.099314
O O9 0.826392 0.786346 0.990875
O O10 0.631307 0.755140 0.296922
O O11 0.542522 0.533659 0.330662
O O12 0.176382 0.792216 0.174696
O O13 0.500000 0.000000 0.000000
O O14 0.000000 0.500000 0.500000
O O15 0.080548 0.404976 0.774788
O O16 0.168935 0.346889 0.551344
#
# Coordination Sequence:
#
# PCOD8042903 Si02
#       7
#     2   2   2   2   2   2   2
#     4  11  25  44  60  91 132 168 206 256 317 378
#     4  11  23  40  65  91 127 164 210 258 315 374
#     4   9  17  36  62  88 117 150 205 256 305 352
#     4  11  24  40  61  88 126 166 205 255 308 370
#     4  10  19  35  64  93 121 151 208 260 303 360
#     4   9  21  40  64  90 120 164 205 263 307 367
#     4   9  18  34  60  92 114 152 199 259 304 356
#
# _framework density 20.052423000000001
#
# number of rings (size 3 to 8) (size 9 to 14) (size 15 to 20)
#    0.000    2.000    1.429    3.000    4.000    0.000 
#    5.143    3.571    0.000    0.000    0.000    0.000 
#    0.000    0.000    0.000    0.000    0.000    0.000 
#
# Total GULP energy -173474.258443 kJ/mol
# GULP energy per Si atom -12391.018460 kJ/mol
# Density = 2.000678 g / cm^3
# Si number density = 20.052423 Si / 1000 Ang^3
#
#
#
# Elastic Constant Matrix: (Units=GPa)
#
#
# Indices 1 2 3 4 5 6 
#
# 1 125.0055 32.1739 51.2653 2.3427 -20.6208 13.7560
# 2 32.1739 99.9977 37.8463 7.6901 -9.0768 21.0725
# 3 51.2653 37.8463 109.2025 11.4107 -23.2744 8.9246
# 4 2.3427 7.6901 11.4107 21.1671 -6.0501 -1.6807
# 5 -20.6208 -9.0768 -23.2744 -6.0501 32.5528 7.9021
# 6 13.7560 21.0725 8.9246 -1.6807 7.9021 30.6758
#
#
#
# Elastic Compliance Matrix: (Units=1/GPa)
#
#
# Indices 1 2 3 4 5 6 
#
# 1 0.011113 -0.000894 -0.003512 0.002285 0.005852 -0.004730
# 2 -0.000894 0.013755 -0.002591 -0.003369 0.003039 -0.009261
# 3 -0.003512 -0.002591 0.013821 -0.004399 0.006760 -0.002649
# 4 0.002285 -0.003369 -0.004399 0.052668 0.006217 0.003853
# 5 0.005852 0.003039 0.006760 0.006217 0.045656 -0.018099
# 6 -0.004730 -0.009261 -0.002649 0.003853 -0.018099 0.046726
#
#
# Mechanical properties :
#
#
# Convention : Reuss Voigt Hill
#
# Bulk Modulus (GPa) = 40.49470 64.08631 52.29051
# Shear Modulus (GPa) = 24.27608 31.07383 27.67496
#
# Velocity S-wave (km/s) = 3.48319 3.94080 3.71904
# Velocity P-wave (km/s) = 6.03449 7.26191 6.67647
#
# Compressibility (1/GPa) = 0.02469459
#
# Stress axis : x y z
#
# Youngs Moduli (GPa) = 89.98331 72.70088 72.35496
#
# Poissons Ratio (x) = 0.06501 0.25412
# Poissons Ratio (y) = 0.08047 0.18745
# Poissons Ratio (z) = 0.31604 0.18835
#
# Static dielectric constant tensor:
#      x y z
#    x -1.738560 -0.033300 1.031170 
#    y -0.033300 3.505020 0.371400 
#    z 1.031170 0.371400 3.504970 
# 
# 
# High freq. dielectric constant tensor:
#      x y z
#    x 1.802760 0.002970 -0.012320 
#    y 0.002970 1.760260 0.025100 
#    z -0.012320 0.025100 1.774060 
# 
# From -- ./inp_files/174041.got.cif
#   From: 2010.06.25/outbox.cif.g09.slc.cpg/sg2_88_cif.got.tgz:174041.got - 2010.06.27 13:26:56.
