data_PCOD8042705
_publ_section_title
;
Structure prediction by ZEFSAII (Michael W. Deem and Ramdas Pophale) SiO2 
 PCOD8042705
Probable space group: P -1
;
_chemical_formula_sum "Si O2"
_cell_formula_units_Z 16
_cell_length_a 31.414089
_cell_length_b 14.789650
_cell_length_c 10.085387
_cell_angle_alpha 43.811254
_cell_angle_beta 35.541080
_cell_angle_gamma 18.334220
_cell_volume 823.088741
_symmetry_space_group_name_H-M "P -1"
_symmetry_group_IT_number 2
_symmetry_cell_setting 'triclinic'
loop_
_space_group_symop_operation_xyz
x,y,z
-x,-y,-z
loop_
_atom_site_type_symbol
_atom_site_label
_atom_site_fract_x
_atom_site_fract_y
_atom_site_fract_z
Si Si1 0.279061 0.096335 0.708363
Si Si2 0.576999 0.774631 0.647269
Si Si3 0.490507 0.067527 0.807041
Si Si4 0.048830 0.238769 0.106260
Si Si5 0.060978 0.787695 0.775399
Si Si6 0.448706 0.433746 0.220133
Si Si7 0.116366 0.687805 0.033642
Si Si8 0.935406 0.931085 0.478838
O O1 0.128784 0.404796 0.846313
O O2 0.359441 0.067137 0.431192
O O3 0.436091 0.811923 0.701196
O O4 0.203226 0.088019 0.842615
O O5 0.775918 0.468848 0.458244
O O6 0.527113 0.702521 0.822964
O O7 0.500000 0.000000 0.500000
O O8 0.522509 0.897863 0.803120
O O9 0.307850 0.419568 0.864002
O O10 0.500000 0.000000 0.000000
O O11 0.072478 0.084159 0.104827
O O12 0.056539 0.182934 0.299959
O O13 0.986357 0.053647 0.695131
O O14 0.101262 0.655301 0.956486
O O15 0.255854 0.738650 0.432311
O O16 0.500000 0.500000 0.000000
O O17 0.042408 0.709308 0.313670
O O18 0.000000 0.000000 0.000000
#
# Coordination Sequence:
#
# PCOD8042705 Si02
#       8
#     2   2   2   2   2   2   2   2
#     4  11  22  37  60  86 124 160 199 250 313 362
#     4  11  19  37  66  91 118 165 217 251 299 369
#     4  12  23  40  65  92 124 157 212 264 307 364
#     4  11  21  36  59  89 120 155 201 255 303 355
#     4  10  19  35  60  88 121 157 206 249 298 370
#     4  11  21  40  65  93 126 161 209 255 309 372
#     4  10  21  37  58  88 122 159 196 252 312 357
#     4  10  21  37  61  90 119 158 205 251 307 361
#
# _framework density 19.438972
#
# number of rings (size 3 to 8) (size 9 to 14) (size 15 to 20)
#    0.000    1.250    5.000    2.625    0.000    0.000 
#    2.250    1.250    0.000    7.500    0.000    0.000 
#    0.000    0.000    0.000    0.000    0.000    0.000 
#
# Total GULP energy -198291.082198 kJ/mol
# GULP energy per Si atom -12393.192637 kJ/mol
# Density = 1.939473 g / cm^3
# Si number density = 19.438972 Si / 1000 Ang^3
#
#
#
# Elastic Constant Matrix: (Units=GPa)
#
#
# Indices 1 2 3 4 5 6 
#
# 1 127.3127 31.3189 77.0287 -4.2289 -10.9083 1.8667
# 2 31.3189 66.7257 22.5448 8.1156 -1.6527 -5.1791
# 3 77.0287 22.5448 117.0991 -1.2127 -7.3154 1.3579
# 4 -4.2289 8.1156 -1.2127 33.8857 -0.4998 -2.2597
# 5 -10.9083 -1.6527 -7.3154 -0.4998 40.0934 -4.1022
# 6 1.8667 -5.1791 1.3579 -2.2597 -4.1022 27.8314
#
#
#
# Elastic Compliance Matrix: (Units=1/GPa)
#
#
# Indices 1 2 3 4 5 6 
#
# 1 0.014229 -0.004150 -0.008394 0.002447 0.002117 -0.000807
# 2 -0.004150 0.018032 -0.000844 -0.004653 -0.000265 0.003258
# 3 -0.008394 -0.000844 0.014239 -0.000351 0.000246 -0.000281
# 4 0.002447 -0.004653 -0.000351 0.031043 0.000966 0.001650
# 5 0.002117 -0.000265 0.000246 0.000966 0.025942 0.003699
# 6 -0.000807 0.003258 -0.000281 0.001650 0.003699 0.037284
#
#
# Mechanical properties :
#
#
# Convention : Reuss Voigt Hill
#
# Bulk Modulus (GPa) = 50.70113 63.65801 57.17957
# Shear Modulus (GPa) = 28.71602 32.37845 30.54723
#
# Velocity S-wave (km/s) = 3.84766 4.08566 3.96844
# Velocity P-wave (km/s) = 6.77334 7.42129 7.10470
#
# Compressibility (1/GPa) = 0.01972343
#
# Stress axis : x y z
#
# Youngs Moduli (GPa) = 70.28111 55.45624 70.23077
#
# Poissons Ratio (x) = 0.23015 0.58950
# Poissons Ratio (y) = 0.29168 0.05929
# Poissons Ratio (z) = 0.58992 0.04681
#
# Static dielectric constant tensor:
#      x y z
#    x 3.013120 -0.430840 1.225150 
#    y -0.430840 3.451500 0.733540 
#    z 1.225150 0.733540 2.558570 
# 
# 
# High freq. dielectric constant tensor:
#      x y z
#    x 1.745830 -0.011320 -0.003890 
#    y -0.011320 1.765110 0.004680 
#    z -0.003890 0.004680 1.745190 
# 
# From -- ./inp_files/271613.got.cif
#   From: 2010.06.25/outbox.cif.g09.slc.cpg/sg2_136_cif.got.tgz:271613.got - 2010.06.27 13:26:56.
