data_PCOD8042358
_publ_section_title
;
Structure prediction by ZEFSAII (Michael W. Deem and Ramdas Pophale) SiO2 
 PCOD8042358
Probable space group: P -1
;
_chemical_formula_sum "Si O2"
_cell_formula_units_Z 16
_cell_length_a 8.904225
_cell_length_b 17.515706
_cell_length_c 12.052951
_cell_angle_alpha 49.824374
_cell_angle_beta 78.391781
_cell_angle_gamma 38.074493
_cell_volume 672.534081
_symmetry_space_group_name_H-M "P -1"
_symmetry_group_IT_number 2
_symmetry_cell_setting 'triclinic'
loop_
_space_group_symop_operation_xyz
x,y,z
-x,-y,-z
loop_
_atom_site_type_symbol
_atom_site_label
_atom_site_fract_x
_atom_site_fract_y
_atom_site_fract_z
Si Si1 0.624828 0.108552 0.781178
Si Si2 0.311262 0.929376 0.534502
Si Si3 0.445092 0.171470 0.179541
Si Si4 0.784375 0.621035 0.206262
Si Si5 0.259685 0.195812 0.574456
Si Si6 0.558928 0.641307 0.603827
Si Si7 0.287204 0.644916 0.065936
Si Si8 0.890836 0.342361 0.146984
O O1 0.503421 0.179678 0.858202
O O2 0.439865 0.127513 0.723693
O O3 0.558785 0.252748 0.597507
O O4 0.006060 0.871159 0.949462
O O5 0.396918 0.855491 0.718926
O O6 0.579018 0.847309 0.516887
O O7 0.304565 0.829383 0.558849
O O8 0.989542 0.179250 0.339910
O O9 0.141043 0.289071 0.169692
O O10 0.708975 0.941262 0.310315
O O11 0.340420 0.304264 0.971480
O O12 0.891848 0.446142 0.388796
O O13 0.085604 0.521417 0.270984
O O14 0.569196 0.515484 0.715137
O O15 0.156563 0.647741 0.985590
O O16 0.563691 0.559490 0.056381
#
# Coordination Sequence:
#
# PCOD8042358 Si02
#       8
#     2   2   2   2   2   2   2   2
#     4  10  19  35  50  79 112 140 180 223 266 322
#     4   9  19  35  54  78 113 138 178 226 266 319
#     4  11  19  36  54  81 114 142 174 221 271 321
#     4  10  20  31  52  80 110 142 181 217 270 321
#     4   9  17  31  48  78 105 138 170 221 270 309
#     4  10  19  35  52  85 109 140 176 226 276 312
#     4  11  20  34  56  79 113 144 173 219 274 329
#     4  10  19  36  52  81 114 138 178 216 274 328
#
# _framework density 23.790616
#
# number of rings (size 3 to 8) (size 9 to 14) (size 15 to 20)
#    0.000    2.250    5.000    3.000    0.000    5.500 
#    2.250    0.000    0.000    0.750    0.000    8.750 
#    0.000    0.000    0.000    0.000    0.000    0.000 
#
# Total GULP energy -198328.844450 kJ/mol
# GULP energy per Si atom -12395.552778 kJ/mol
# Density = 2.373647 g / cm^3
# Si number density = 23.790616 Si / 1000 Ang^3
#
#
#
# Elastic Constant Matrix: (Units=GPa)
#
#
# Indices 1 2 3 4 5 6 
#
# 1 17.6164 -6.1375 14.1665 3.3046 -2.2436 9.0387
# 2 -6.1375 12.4083 30.6286 -25.8641 17.2224 13.9039
# 3 14.1665 30.6286 115.5884 -3.6557 -5.4180 3.5554
# 4 3.3046 -25.8641 -3.6557 36.7516 3.3892 7.9778
# 5 -2.2436 17.2224 -5.4180 3.3892 10.4436 1.9173
# 6 9.0387 13.9039 3.5554 7.9778 1.9173 8.9342
#
#
#
# Elastic Compliance Matrix: (Units=1/GPa)
#
#
# Indices 1 2 3 4 5 6 
#
# 1 0.092855 -0.021831 -0.000948 -0.017564 0.072056 -0.059369
# 2 -0.021831 -0.005751 0.002797 -0.010441 0.002528 0.038703
# 3 -0.000948 0.002797 0.008556 0.005434 -0.000002 -0.011652
# 4 -0.017564 -0.010441 0.005434 0.018249 0.007792 0.013888
# 5 0.072056 0.002528 -0.000002 0.007792 0.124834 -0.110579
# 6 -0.059369 0.038703 -0.011652 0.013888 -0.110579 0.127727
#
#
# Mechanical properties :
#
#
# Convention : Reuss Voigt Hill
#
# Bulk Modulus (GPa) = 17.95365 24.76982 21.36173
# Shear Modulus (GPa) = 11.76474 18.35627 15.06050
#
# Velocity S-wave (km/s) = 2.22617 2.78074 2.51877
# Velocity P-wave (km/s) = 3.76440 4.55458 4.17821
#
# Compressibility (1/GPa) = 0.05569900
#
# Stress axis : x y z
#
# Youngs Moduli (GPa) = 10.76944 -173.88243 116.87056
#
# Poissons Ratio (x) = -3.79596 0.11074
# Poissons Ratio (y) = 0.23510 -0.32692
# Poissons Ratio (z) = 0.01020 0.48640
#
# Static dielectric constant tensor:
#      x y z
#    x 3.578320 0.066210 -0.124770 
#    y 0.066210 4.284180 -0.411610 
#    z -0.124770 -0.411610 4.614370 
# 
# 
# High freq. dielectric constant tensor:
#      x y z
#    x 1.884090 0.001280 -0.008310 
#    y 0.001280 1.931700 -0.016060 
#    z -0.008310 -0.016060 1.956110 
# 
# From -- ./inp_files/438414.got.cif
#   From: 2010.06.25/outbox.cif.g09.slc.cpg/sg2_220_cif.got.tgz:438414.got - 2010.06.27 13:26:56.
