data_PCOD8042805
_publ_section_title
;
Structure prediction by ZEFSAII (Michael W. Deem and Ramdas Pophale) SiO2 
 PCOD8042805
Probable space group: P -1
;
_chemical_formula_sum "Si O2"
_cell_formula_units_Z 16
_cell_length_a 22.254928
_cell_length_b 8.636400
_cell_length_c 8.628794
_cell_angle_alpha 117.226245
_cell_angle_beta 150.619790
_cell_angle_gamma 56.482999
_cell_volume 677.224417
_symmetry_space_group_name_H-M "P -1"
_symmetry_group_IT_number 2
_symmetry_cell_setting 'triclinic'
loop_
_space_group_symop_operation_xyz
x,y,z
-x,-y,-z
loop_
_atom_site_type_symbol
_atom_site_label
_atom_site_fract_x
_atom_site_fract_y
_atom_site_fract_z
Si Si1 0.960726 0.721239 0.769220
Si Si2 0.747320 0.013521 0.756116
Si Si3 0.017512 0.978420 0.257824
Si Si4 0.618626 0.537718 0.201500
Si Si5 0.666200 0.827389 0.239836
Si Si6 0.268630 0.811890 0.896987
Si Si7 0.373594 0.091728 0.152135
Si Si8 0.199854 0.364949 0.124630
O O1 0.821722 0.711361 0.510223
O O2 0.031661 0.806673 0.095594
O O3 0.934236 0.860531 0.628024
O O4 0.053729 0.511987 0.835563
O O5 0.658212 0.014458 0.405589
O O6 0.806288 0.803277 0.859531
O O7 0.866820 0.078410 0.008798
O O8 0.672970 0.157423 0.790359
O O9 0.109837 0.889394 0.572443
O O10 0.588682 0.732314 0.133650
O O11 0.673806 0.399424 0.119271
O O12 0.721636 0.520265 0.561316
O O13 0.500000 0.500000 0.000000
O O14 0.590708 0.869787 0.925377
O O15 0.310060 0.933516 0.917697
O O16 0.273774 0.281018 0.091532
O O17 0.500000 0.000000 0.500000
#
# Coordination Sequence:
#
# PCOD8042805 Si02
#       8
#     2   2   2   2   2   2   2   2
#     4  10  20  37  66 100 140 168 218 277 336 410
#     4   9  22  37  63  99 135 170 214 261 338 405
#     4  10  19  35  62 102 136 170 211 267 336 395
#     4  11  24  43  67  98 132 179 230 279 327 391
#     4  10  23  44  67  98 131 177 225 275 343 396
#     4  11  21  41  64  95 131 175 222 272 331 390
#     4  11  24  46  68  92 134 181 231 278 329 400
#     4  10  22  41  64  99 134 178 220 272 338 394
#
# _framework density 23.625845999999999
#
# number of rings (size 3 to 8) (size 9 to 14) (size 15 to 20)
#    0.000    1.750    2.500    1.125    1.750    3.000 
#    0.000   15.000    0.000    0.000    0.000    0.000 
#    0.000    0.000    0.000    0.000    0.000    0.000 
#
# Total GULP energy -198264.070432 kJ/mol
# GULP energy per Si atom -12391.504402 kJ/mol
# Density = 2.357207 g / cm^3
# Si number density = 23.625846 Si / 1000 Ang^3
#
#
#
# Elastic Constant Matrix: (Units=GPa)
#
#
# Indices 1 2 3 4 5 6 
#
# 1 121.5754 12.7453 35.8669 8.6956 -6.4604 3.1591
# 2 12.7453 54.8434 23.1105 11.2962 -0.0054 -19.9226
# 3 35.8669 23.1105 94.3062 6.7940 -20.5474 1.9476
# 4 8.6956 11.2962 6.7940 28.0671 -1.6756 1.7893
# 5 -6.4604 -0.0054 -20.5474 -1.6756 45.2900 11.6396
# 6 3.1591 -19.9226 1.9476 1.7893 11.6396 35.1109
#
#
#
# Elastic Compliance Matrix: (Units=1/GPa)
#
#
# Indices 1 2 3 4 5 6 
#
# 1 0.009419 -0.000914 -0.003184 -0.001699 0.000131 -0.001146
# 2 -0.000914 0.034478 -0.010173 -0.013400 -0.011595 0.024737
# 3 -0.003184 -0.010173 0.016428 0.002293 0.009572 -0.009688
# 4 -0.001699 -0.013400 0.002293 0.042041 0.005302 -0.011478
# 5 0.000131 -0.011595 0.009572 0.005302 0.031194 -0.017733
# 6 -0.001146 0.024737 -0.009688 -0.011478 -0.017733 0.049621
#
#
# Mechanical properties :
#
#
# Convention : Reuss Voigt Hill
#
# Bulk Modulus (GPa) = 31.46321 46.01892 38.74106
# Shear Modulus (GPa) = 22.49042 34.96041 28.72542
#
# Velocity S-wave (km/s) = 3.08870 3.85093 3.49068
# Velocity P-wave (km/s) = 5.10552 6.26844 5.71663
#
# Compressibility (1/GPa) = 0.03178316
#
# Stress axis : x y z
#
# Youngs Moduli (GPa) = 106.17282 29.00414 60.87107
#
# Poissons Ratio (x) = 0.02650 0.19380
# Poissons Ratio (y) = 0.09700 0.61927
# Poissons Ratio (z) = 0.33802 0.29507
#
# Static dielectric constant tensor:
#      x y z
#    x 4.358050 -0.133230 -0.025740 
#    y -0.133230 3.993740 0.310010 
#    z -0.025740 0.310010 4.202220 
# 
# 
# High freq. dielectric constant tensor:
#      x y z
#    x 1.938690 -0.010170 0.003580 
#    y -0.010170 1.912120 0.020810 
#    z 0.003580 0.020810 1.936910 
# 
# From -- ./inp_files/352355.got.cif
#   From: 2010.06.25/outbox.cif.g09.slc.cpg/sg2_177_cif.got.tgz:352355.got - 2010.06.27 13:26:56.
