data_PCOD8042197
_publ_section_title
;
Structure prediction by ZEFSAII (Michael W. Deem and Ramdas Pophale) SiO2 
 PCOD8042197
Probable space group: P -1
;
_chemical_formula_sum "Si O2"
_cell_formula_units_Z 16
_cell_length_a 8.098731
_cell_length_b 12.757456
_cell_length_c 12.004577
_cell_angle_alpha 65.205156
_cell_angle_beta 38.085456
_cell_angle_gamma 81.318910
_cell_volume 658.034230
_symmetry_space_group_name_H-M "P -1"
_symmetry_group_IT_number 2
_symmetry_cell_setting 'triclinic'
loop_
_space_group_symop_operation_xyz
x,y,z
-x,-y,-z
loop_
_atom_site_type_symbol
_atom_site_label
_atom_site_fract_x
_atom_site_fract_y
_atom_site_fract_z
Si Si1 0.252632 0.667510 0.369352
Si Si2 0.300918 0.613576 0.620532
Si Si3 0.959789 0.028217 0.770449
Si Si4 0.573934 0.059483 0.780726
Si Si5 0.283373 0.310522 0.464357
Si Si6 0.759967 0.428601 0.992699
Si Si7 0.870162 0.155398 0.359692
Si Si8 0.433171 0.343839 0.003800
O O1 0.279673 0.611528 0.499160
O O2 0.368297 0.811217 0.249873
O O3 0.447976 0.627212 0.196789
O O4 0.931630 0.630091 0.507762
O O5 0.617484 0.629308 0.492177
O O6 0.236334 0.729830 0.660542
O O7 0.091552 0.479172 0.828741
O O8 0.759034 0.995487 0.782151
O O9 0.169360 0.165000 0.599309
O O10 0.133852 0.930901 0.708088
O O11 0.763773 0.009046 0.994306
O O12 0.666693 0.069108 0.598927
O O13 0.574568 0.348676 0.223822
O O14 0.706762 0.555135 0.934397
O O15 0.687105 0.348084 0.953553
O O16 0.193794 0.212915 0.205289
#
# Coordination Sequence:
#
# PCOD8042197 Si02
#       8
#     2   2   2   2   2   2   2   2
#     4  10  20  39  64  90 124 159 203 258 308 367
#     4  10  23  41  63  89 123 164 206 256 309 360
#     4  10  19  34  59  91 124 161 203 249 309 366
#     4   9  18  33  58  93 124 158 200 254 302 366
#     4  11  23  41  60  91 126 161 207 254 305 369
#     4  10  21  38  61  88 121 163 207 256 304 367
#     4  10  19  36  62  89 124 161 202 257 304 364
#     4  10  19  37  67  93 116 163 210 245 317 368
#
# _framework density 24.314844999999998
#
# number of rings (size 3 to 8) (size 9 to 14) (size 15 to 20)
#    0.000    2.000    1.250    4.500    0.000    2.500 
#    0.000    7.500    0.000    0.000    0.000    0.000 
#    0.000    0.000    0.000    0.000    0.000    0.000 
#
# Total GULP energy -198246.194813 kJ/mol
# GULP energy per Si atom -12390.387176 kJ/mol
# Density = 2.425950 g / cm^3
# Si number density = 24.314845 Si / 1000 Ang^3
#
#
#
# Elastic Constant Matrix: (Units=GPa)
#
#
# Indices 1 2 3 4 5 6 
#
# 1 112.2871 13.0261 41.7479 -0.9332 0.7528 27.7815
# 2 13.0261 43.9038 41.2530 4.2809 -8.7113 10.2954
# 3 41.7479 41.2530 173.9179 -13.6715 7.4668 20.0710
# 4 -0.9332 4.2809 -13.6715 33.4636 7.2079 2.9956
# 5 0.7528 -8.7113 7.4668 7.2079 21.4498 -4.8180
# 6 27.7815 10.2954 20.0710 2.9956 -4.8180 15.5545
#
#
#
# Elastic Compliance Matrix: (Units=1/GPa)
#
#
# Indices 1 2 3 4 5 6 
#
# 1 0.018457 -0.000937 0.001562 0.007668 -0.013111 -0.039898
# 2 -0.000937 0.040831 -0.012024 -0.016001 0.026504 0.001453
# 3 0.001562 -0.012024 0.011924 0.011705 -0.017007 -0.017740
# 4 0.007668 -0.016001 0.011705 0.048048 -0.035636 -0.038500
# 5 -0.013111 0.026504 -0.017007 -0.035636 0.089776 0.062490
# 6 -0.039898 0.001453 -0.017740 -0.038500 0.062490 0.184252
#
#
# Mechanical properties :
#
#
# Convention : Reuss Voigt Hill
#
# Bulk Modulus (GPa) = 20.65452 58.01809 39.33630
# Shear Modulus (GPa) = 11.56810 29.69903 20.63357
#
# Velocity S-wave (km/s) = 2.18357 3.49870 2.91623
# Velocity P-wave (km/s) = 3.85621 6.34304 5.24902
#
# Compressibility (1/GPa) = 0.04841556
#
# Stress axis : x y z
#
# Youngs Moduli (GPa) = 54.18053 24.49134 83.86125
#
# Poissons Ratio (x) = 0.02294 -0.13098
# Poissons Ratio (y) = 0.05074 1.00831
# Poissons Ratio (z) = -0.08462 0.29447
#
# Static dielectric constant tensor:
#      x y z
#    x 4.280820 0.198970 -0.278270 
#    y 0.198970 4.185200 -0.116370 
#    z -0.278270 -0.116370 4.431080 
# 
# 
# High freq. dielectric constant tensor:
#      x y z
#    x 1.937980 0.013450 -0.006990 
#    y 0.013450 1.955770 -0.012860 
#    z -0.006990 -0.012860 1.975710 
# 
# From -- ./inp_files/398887.got.cif
#   From: 2010.06.25/outbox.cif.g09.slc.cpg/sg2_200_cif.got.tgz:398887.got - 2010.06.27 13:26:56.
