data_PCOD8042443
_publ_section_title
;
Structure prediction by ZEFSAII (Michael W. Deem and Ramdas Pophale) SiO2 
 PCOD8042443
Probable space group: P -1
;
_chemical_formula_sum "Si O2"
_cell_formula_units_Z 16
_cell_length_a 11.560782
_cell_length_b 30.198429
_cell_length_c 15.122843
_cell_angle_alpha 21.164130
_cell_angle_beta 151.525764
_cell_angle_gamma 150.601885
_cell_volume 867.181144
_symmetry_space_group_name_H-M "P -1"
_symmetry_group_IT_number 2
_symmetry_cell_setting 'triclinic'
loop_
_space_group_symop_operation_xyz
x,y,z
-x,-y,-z
loop_
_atom_site_type_symbol
_atom_site_label
_atom_site_fract_x
_atom_site_fract_y
_atom_site_fract_z
Si Si1 0.463919 0.322560 0.871099
Si Si2 0.606373 0.151417 0.800256
Si Si3 0.977759 0.892841 0.941133
Si Si4 0.082545 0.165022 0.414717
Si Si5 0.996602 0.716253 0.684661
Si Si6 0.863088 0.943539 0.099966
Si Si7 0.467513 0.403817 0.525659
Si Si8 0.318783 0.779474 0.074486
O O1 0.394759 0.322779 0.719992
O O2 0.417555 0.446486 0.654707
O O3 0.296367 0.196738 0.044971
O O4 0.754876 0.328912 0.069174
O O5 0.378457 0.201002 0.516820
O O6 0.654727 0.200589 0.840927
O O7 0.872745 0.195299 0.844605
O O8 0.500000 0.000000 0.000000
O O9 0.964838 0.016160 0.644873
O O10 0.140630 0.945778 0.039453
O O11 0.073646 0.272782 0.280177
O O12 0.925601 0.182000 0.191975
O O13 0.037598 0.859161 0.409803
O O14 0.777213 0.618453 0.661251
O O15 0.571999 0.863341 0.037413
O O16 0.000000 0.000000 0.000000
O O17 0.688606 0.364145 0.693765
#
# Coordination Sequence:
#
# PCOD8042443 Si02
#       8
#     2   2   2   2   2   2   2   2
#     4  11  22  36  57  84 112 145 186 223 274 331
#     4  10  19  39  53  79 113 144 180 228 269 324
#     4  10  21  36  52  83 115 140 178 226 277 323
#     4  10  20  33  60  81 105 147 182 225 273 332
#     4  10  19  35  56  82 108 144 183 223 274 327
#     4  10  20  32  53  83 118 140 169 231 281 324
#     4  10  21  38  57  81 112 146 183 231 269 321
#     4  11  19  36  57  79 107 147 188 216 277 327
#
# _framework density 18.450586000000001
#
# number of rings (size 3 to 8) (size 9 to 14) (size 15 to 20)
#    0.000    1.750    6.250    1.875    1.750    3.000 
#    0.000    0.625    0.000    0.750    0.000    0.000 
#    0.000    0.000    0.000    0.000    0.000    0.000 
#
# Total GULP energy -198240.722698 kJ/mol
# GULP energy per Si atom -12390.045169 kJ/mol
# Density = 1.840859 g / cm^3
# Si number density = 18.450586 Si / 1000 Ang^3
#
#
#
# Elastic Constant Matrix: (Units=GPa)
#
#
# Indices 1 2 3 4 5 6 
#
# 1 72.1101 19.3589 30.1762 -0.9505 23.7946 -16.4853
# 2 19.3589 66.4675 37.4223 12.6068 9.0236 -14.7073
# 3 30.1762 37.4223 71.4545 22.1664 19.6477 -5.2543
# 4 -0.9505 12.6068 22.1664 35.0337 1.1955 6.9288
# 5 23.7946 9.0236 19.6477 1.1955 25.4363 -4.0822
# 6 -16.4853 -14.7073 -5.2543 6.9288 -4.0822 25.6951
#
#
#
# Elastic Compliance Matrix: (Units=1/GPa)
#
#
# Indices 1 2 3 4 5 6 
#
# 1 0.024341 0.000555 -0.005932 0.002531 -0.016675 0.011389
# 2 0.000555 0.024974 -0.011388 -0.004568 0.001855 0.013848
# 3 -0.005932 -0.011388 0.030542 -0.014454 -0.013701 -0.002358
# 4 0.002531 -0.004568 -0.014454 0.042020 0.006147 -0.014301
# 5 -0.016675 0.001855 -0.013701 0.006147 0.063917 -0.003942
# 6 0.011389 0.013848 -0.002358 -0.014301 -0.003942 0.056899
#
#
# Mechanical properties :
#
#
# Convention : Reuss Voigt Hill
#
# Bulk Modulus (GPa) = 21.58664 42.66076 32.12370
# Shear Modulus (GPa) = 17.14283 25.43800 21.29042
#
# Velocity S-wave (km/s) = 3.05146 3.71713 3.40062
# Velocity P-wave (km/s) = 4.91328 6.44938 5.73301
#
# Compressibility (1/GPa) = 0.04632495
#
# Stress axis : x y z
#
# Youngs Moduli (GPa) = 41.08315 40.04156 32.74141
#
# Poissons Ratio (x) = -0.02221 0.19423
# Poissons Ratio (y) = -0.02278 0.37287
# Poissons Ratio (z) = 0.24372 0.45601
#
# Static dielectric constant tensor:
#      x y z
#    x 3.717570 -0.288200 0.271510 
#    y -0.288200 3.350500 0.137850 
#    z 0.271510 0.137850 3.373240 
# 
# 
# High freq. dielectric constant tensor:
#      x y z
#    x 1.715200 -0.025310 0.025430 
#    y -0.025310 1.707690 0.014010 
#    z 0.025430 0.014010 1.699620 
# 
# From -- ./inp_files/423774.got.cif
#   From: 2010.06.25/outbox.cif.g09.slc.cpg/sg2_212_cif.got.tgz:423774.got - 2010.06.27 13:26:56.
