data_PCOD8042720
_publ_section_title
;
Structure prediction by ZEFSAII (Michael W. Deem and Ramdas Pophale) SiO2 
 PCOD8042720
Probable space group: P -1
;
_chemical_formula_sum "Si O2"
_cell_formula_units_Z 16
_cell_length_a 16.205894
_cell_length_b 11.590956
_cell_length_c 13.622477
_cell_angle_alpha 91.398385
_cell_angle_beta 16.902063
_cell_angle_gamma 91.213098
_cell_volume 743.715004
_symmetry_space_group_name_H-M "P -1"
_symmetry_group_IT_number 2
_symmetry_cell_setting 'triclinic'
loop_
_space_group_symop_operation_xyz
x,y,z
-x,-y,-z
loop_
_atom_site_type_symbol
_atom_site_label
_atom_site_fract_x
_atom_site_fract_y
_atom_site_fract_z
Si Si1 0.220935 0.426866 0.807090
Si Si2 0.493579 0.283578 0.344149
Si Si3 0.615421 0.701247 0.045913
Si Si4 0.021417 0.261229 0.181519
Si Si5 0.057251 0.160438 0.715683
Si Si6 0.822637 0.968685 0.105025
Si Si7 0.648650 0.428400 0.997233
Si Si8 0.222383 0.292804 0.348878
O O1 0.500000 0.500000 0.500000
O O2 0.293187 0.310215 0.664022
O O3 0.000000 0.500000 0.000000
O O4 0.099193 0.386506 0.049656
O O5 0.342080 0.181121 0.454760
O O6 0.513416 0.396524 0.255480
O O7 0.803653 0.250292 0.031402
O O8 0.315640 0.748184 0.426801
O O9 0.622046 0.564471 0.017761
O O10 0.688413 0.758874 0.859222
O O11 0.846733 0.744501 0.860736
O O12 0.144096 0.163858 0.966842
O O13 0.130624 0.181882 0.517501
O O14 0.938730 0.035643 0.877329
O O15 0.500000 0.000000 0.500000
O O16 0.000000 0.000000 0.000000
O O17 0.972731 0.386749 0.623002
O O18 0.484913 0.361610 0.096634
#
# Coordination Sequence:
#
# PCOD8042720 Si02
#       8
#     2   2   2   2   2   2   2   2
#     4  12  23  37  56  83 119 157 187 228 292 360
#     4  10  20  35  58  86 114 147 191 243 288 342
#     4  12  23  40  57  88 129 160 194 244 290 348
#     4  12  26  40  60  90 121 158 199 242 301 356
#     4  10  21  39  62  86 110 145 200 247 287 340
#     4  12  25  45  67  88 115 152 197 253 304 354
#     4  10  19  35  60  90 121 160 199 235 285 348
#     4  10  21  37  62  89 119 161 203 238 283 344
#
# _framework density 21.513615999999999
#
# number of rings (size 3 to 8) (size 9 to 14) (size 15 to 20)
#    0.000    1.000    0.000    8.250    0.000    2.000 
#    0.000    1.250    0.000    0.000    0.000    0.000 
#    0.000    0.000    0.000    0.000    0.000    0.000 
#
# Total GULP energy -198391.694375 kJ/mol
# GULP energy per Si atom -12399.480898 kJ/mol
# Density = 2.146465 g / cm^3
# Si number density = 21.513616 Si / 1000 Ang^3
#
#
#
# Elastic Constant Matrix: (Units=GPa)
#
#
# Indices 1 2 3 4 5 6 
#
# 1 115.0901 33.3074 27.7177 -4.5800 -0.4396 0.2836
# 2 33.3074 73.1564 24.1148 -9.6494 11.2980 -7.7345
# 3 27.7177 24.1148 89.4400 -3.2859 4.0783 -9.4408
# 4 -4.5800 -9.6494 -3.2859 31.3962 -3.0117 5.1549
# 5 -0.4396 11.2980 4.0783 -3.0117 46.2486 -4.8865
# 6 0.2836 -7.7345 -9.4408 5.1549 -4.8865 26.3193
#
#
#
# Elastic Compliance Matrix: (Units=1/GPa)
#
#
# Indices 1 2 3 4 5 6 
#
# 1 0.010548 -0.004379 -0.002349 0.000406 0.001181 -0.002103
# 2 -0.004379 0.017975 -0.002881 0.003762 -0.003629 0.002885
# 3 -0.002349 -0.002881 0.013088 -0.000517 -0.000088 0.003958
# 4 0.000406 0.003762 -0.000517 0.034005 0.000753 -0.005605
# 5 0.001181 -0.003629 -0.000088 0.000753 0.022893 0.002992
# 6 -0.002103 0.002885 0.003958 -0.005605 0.002992 0.041939
#
#
# Mechanical properties :
#
#
# Convention : Reuss Voigt Hill
#
# Bulk Modulus (GPa) = 44.65857 49.77404 47.21630
# Shear Modulus (GPa) = 29.91695 33.62926 31.77311
#
# Velocity S-wave (km/s) = 3.73313 3.95797 3.84719
# Velocity P-wave (km/s) = 6.27575 6.63880 6.45983
#
# Compressibility (1/GPa) = 0.02239212
#
# Stress axis : x y z
#
# Youngs Moduli (GPa) = 94.80656 55.63423 76.40440
#
# Poissons Ratio (x) = 0.24364 0.17948
# Poissons Ratio (y) = 0.41519 0.22011
# Poissons Ratio (z) = 0.22270 0.16028
#
# Static dielectric constant tensor:
#      x y z
#    x 4.046180 -0.269220 0.142460 
#    y -0.269220 3.612330 -0.166620 
#    z 0.142460 -0.166620 4.134150 
# 
# 
# High freq. dielectric constant tensor:
#      x y z
#    x 1.862170 -0.012560 -0.003190 
#    y -0.012560 1.812890 -0.014450 
#    z -0.003190 -0.014450 1.861230 
# 
# From -- ./inp_files/452277.got.cif
#   From: 2010.06.25/outbox.cif.g09.slc.cpg/sg2_227_cif.got.tgz:452277.got - 2010.06.27 13:26:56.
