data_PCOD8042541
_publ_section_title
;
Structure prediction by ZEFSAII (Michael W. Deem and Ramdas Pophale) SiO2 
 PCOD8042541
Probable space group: P -1
;
_chemical_formula_sum "Si O2"
_cell_formula_units_Z 16
_cell_length_a 22.790875
_cell_length_b 16.138698
_cell_length_c 11.144949
_cell_angle_alpha 35.765204
_cell_angle_beta 150.339582
_cell_angle_gamma 154.706029
_cell_volume 860.274802
_symmetry_space_group_name_H-M "P -1"
_symmetry_group_IT_number 2
_symmetry_cell_setting 'triclinic'
loop_
_space_group_symop_operation_xyz
x,y,z
-x,-y,-z
loop_
_atom_site_type_symbol
_atom_site_label
_atom_site_fract_x
_atom_site_fract_y
_atom_site_fract_z
Si Si1 0.380152 0.141879 0.917173
Si Si2 0.420676 0.697125 0.500708
Si Si3 0.301806 0.562014 0.711594
Si Si4 0.788332 0.741158 0.419951
Si Si5 0.333978 0.297808 0.994419
Si Si6 0.377656 0.919937 0.984592
Si Si7 0.984539 0.418388 0.255119
Si Si8 0.058067 0.758470 0.865779
O O1 0.557865 0.286090 0.123021
O O2 0.401779 0.097744 0.873325
O O3 0.292413 0.225044 0.660644
O O4 0.254077 0.935033 0.006954
O O5 0.353877 0.667131 0.551276
O O6 0.312873 0.488867 0.488595
O O7 0.411870 0.834829 0.250418
O O8 0.612446 0.802809 0.724417
O O9 0.264536 0.361787 0.883743
O O10 0.126946 0.489082 0.518412
O O11 0.779975 0.820791 0.184656
O O12 0.976735 0.845748 0.650897
O O13 0.500000 0.500000 0.000000
O O14 0.193622 0.753989 0.801952
O O15 0.500000 0.000000 0.000000
O O16 0.005560 0.345259 0.255839
O O17 0.004295 0.601606 0.053206
#
# Coordination Sequence:
#
# PCOD8042541 Si02
#       8
#     2   2   2   2   2   2   2   2
#     4  11  21  31  54  88 112 127 173 224 264 302
#     4  10  16  33  59  74 111 141 167 201 273 334
#     4  10  16  31  56  89 108 126 164 217 280 327
#     4  10  15  32  51  86 113 133 158 210 278 328
#     4   8  14  26  52  79 111 135 155 191 279 343
#     4  11  25  40  52  70 103 151 192 216 244 301
#     4  10  18  33  53  74 106 150 171 200 270 328
#     4  10  18  28  51  84 116 137 159 208 273 329
#
# _framework density 18.598707999999998
#
# number of rings (size 3 to 8) (size 9 to 14) (size 15 to 20)
#    0.000    2.250    7.500    1.875    0.000    2.000 
#    0.000    1.250    0.000    0.750    0.000    0.000 
#    0.000    0.000    0.000    0.000    0.000    0.000 
#
# Total GULP energy -198229.536740 kJ/mol
# GULP energy per Si atom -12389.346046 kJ/mol
# Density = 1.855638 g / cm^3
# Si number density = 18.598708 Si / 1000 Ang^3
#
#
#
# Elastic Constant Matrix: (Units=GPa)
#
#
# Indices 1 2 3 4 5 6 
#
# 1 72.4994 31.2123 29.0243 4.6503 26.4111 -2.1466
# 2 31.2123 51.1870 30.4516 17.2036 13.6869 -6.2472
# 3 29.0243 30.4516 125.3326 26.0319 27.0903 3.3427
# 4 4.6503 17.2036 26.0319 32.0282 1.8224 5.0769
# 5 26.4111 13.6869 27.0903 1.8224 20.4624 0.8954
# 6 -2.1466 -6.2472 3.3427 5.0769 0.8954 19.3555
#
#
#
# Elastic Compliance Matrix: (Units=1/GPa)
#
#
# Indices 1 2 3 4 5 6 
#
# 1 0.030425 -0.010919 0.003322 0.000698 -0.036461 0.000780
# 2 -0.010919 0.038057 -0.001051 -0.020183 -0.008916 0.016960
# 3 0.003322 -0.001051 0.014285 -0.010507 -0.021619 0.001318
# 4 0.000698 -0.020183 -0.010507 0.052283 0.022702 -0.019386
# 5 -0.036461 -0.008916 -0.021619 0.022702 0.129156 -0.015117
# 6 0.000780 0.016960 0.001318 -0.019386 -0.015117 0.062782
#
#
# Mechanical properties :
#
#
# Convention : Reuss Voigt Hill
#
# Bulk Modulus (GPa) = 15.27379 47.82171 31.54775
# Shear Modulus (GPa) = 13.65723 24.92459 19.29091
#
# Velocity S-wave (km/s) = 2.71276 3.66474 3.22408
# Velocity P-wave (km/s) = 4.24761 6.60873 5.55507
#
# Compressibility (1/GPa) = 0.06547163
#
# Stress axis : x y z
#
# Youngs Moduli (GPa) = 32.86792 26.27665 70.00438
#
# Poissons Ratio (x) = 0.28690 -0.23258
# Poissons Ratio (y) = 0.35887 0.07359
# Poissons Ratio (z) = -0.10920 0.02762
#
# Static dielectric constant tensor:
#      x y z
#    x 2.934150 -0.265410 0.402300 
#    y -0.265410 3.382680 0.126750 
#    z 0.402300 0.126750 4.134420 
# 
# 
# High freq. dielectric constant tensor:
#      x y z
#    x 1.649410 -0.030750 0.037650 
#    y -0.030750 1.711540 0.013730 
#    z 0.037650 0.013730 1.740920 
# 
# From -- ./inp_files/328874.got.cif
#   From: 2010.06.25/outbox.cif.g09.slc.cpg/sg2_165_cif.got.tgz:328874.got - 2010.06.27 13:26:56.
