data_PCOD8042113
_publ_section_title
;
Structure prediction by ZEFSAII (Michael W. Deem and Ramdas Pophale) SiO2 
 PCOD8042113
Probable space group: P -1
;
_chemical_formula_sum "Si O2"
_cell_formula_units_Z 16
_cell_length_a 14.174594
_cell_length_b 16.042763
_cell_length_c 8.654812
_cell_angle_alpha 102.616440
_cell_angle_beta 127.021393
_cell_angle_gamma 38.407286
_cell_volume 839.192244
_symmetry_space_group_name_H-M "P -1"
_symmetry_group_IT_number 2
_symmetry_cell_setting 'triclinic'
loop_
_space_group_symop_operation_xyz
x,y,z
-x,-y,-z
loop_
_atom_site_type_symbol
_atom_site_label
_atom_site_fract_x
_atom_site_fract_y
_atom_site_fract_z
Si Si1 0.005394 0.711051 0.815508
Si Si2 0.837103 0.257619 0.785173
Si Si3 0.598748 0.554508 0.497837
Si Si4 0.959336 0.928166 0.388717
Si Si5 0.511427 0.851570 0.928939
Si Si6 0.823490 0.547268 0.923419
Si Si7 0.865066 0.339126 0.400869
Si Si8 0.309606 0.124020 0.681326
O O1 0.179080 0.619460 0.809045
O O2 0.767201 0.838867 0.558053
O O3 0.010049 0.796075 0.951917
O O4 0.057798 0.599395 0.927518
O O5 0.711737 0.411254 0.645924
O O6 0.660430 0.298315 0.695434
O O7 0.990476 0.115939 0.760123
O O8 0.665617 0.604436 0.659196
O O9 0.679316 0.500081 0.378004
O O10 0.117211 0.772287 0.583825
O O11 0.709363 0.063915 0.228525
O O12 0.000000 0.000000 0.500000
O O13 0.687116 0.680830 0.968462
O O14 0.486036 0.944397 0.818753
O O15 0.592901 0.841934 0.169196
O O16 0.000000 0.500000 0.000000
O O17 0.100609 0.236712 0.633466
#
# Coordination Sequence:
#
# PCOD8042113 Si02
#       8
#     2   2   2   2   2   2   2   2
#     4   9  20  38  59  80 116 145 183 238 277 323
#     4   9  18  33  56  82 108 148 190 225 272 330
#     4   9  17  33  54  82 111 147 188 222 274 337
#     4  10  19  34  58  81 110 149 190 226 271 331
#     4  10  19  36  59  80 110 152 190 220 279 341
#     4  11  22  35  58  87 113 141 183 239 281 325
#     4   8  17  35  58  77 111 149 185 224 273 331
#     4   8  18  36  58  78 105 153 187 223 271 340
#
# _framework density 19.065951999999999
#
# number of rings (size 3 to 8) (size 9 to 14) (size 15 to 20)
#    0.750    2.000    0.000    1.500    0.000    5.000 
#    0.000    3.125    0.000    0.000    0.000    0.000 
#    0.000    0.000    0.000    0.000    0.000    0.000 
#
# Total GULP energy -198293.124932 kJ/mol
# GULP energy per Si atom -12393.320308 kJ/mol
# Density = 1.902256 g / cm^3
# Si number density = 19.065952 Si / 1000 Ang^3
#
#
#
# Elastic Constant Matrix: (Units=GPa)
#
#
# Indices 1 2 3 4 5 6 
#
# 1 90.8515 29.7017 45.0183 15.7423 6.9501 2.0589
# 2 29.7017 63.3344 49.9440 21.9156 14.3948 2.7908
# 3 45.0183 49.9440 122.4226 30.3892 7.8494 7.9232
# 4 15.7423 21.9156 30.3892 31.2915 2.7622 4.8948
# 5 6.9501 14.3948 7.8494 2.7622 33.1010 6.2699
# 6 2.0589 2.7908 7.9232 4.8948 6.2699 25.3674
#
#
#
# Elastic Compliance Matrix: (Units=1/GPa)
#
#
# Indices 1 2 3 4 5 6 
#
# 1 0.014088 -0.003176 -0.003512 -0.001507 -0.000767 0.000783
# 2 -0.003176 0.029290 -0.007597 -0.011285 -0.010101 0.004082
# 3 -0.003512 -0.007597 0.014222 -0.006484 0.001680 -0.002485
# 4 -0.001507 -0.011285 -0.006484 0.047621 0.004077 -0.006808
# 5 -0.000767 -0.010101 0.001680 0.004077 0.035724 -0.008968
# 6 0.000783 0.004082 -0.002485 -0.006808 -0.008968 0.043214
#
#
# Mechanical properties :
#
#
# Convention : Reuss Voigt Hill
#
# Bulk Modulus (GPa) = 34.44709 58.43740 46.44224
# Shear Modulus (GPa) = 22.48151 28.08163 25.28157
#
# Velocity S-wave (km/s) = 3.43759 3.84196 3.64539
# Velocity P-wave (km/s) = 5.81916 7.09912 6.49077
#
# Compressibility (1/GPa) = 0.02903003
#
# Stress axis : x y z
#
# Youngs Moduli (GPa) = 70.98431 34.14136 70.31485
#
# Poissons Ratio (x) = 0.10842 0.24697
# Poissons Ratio (y) = 0.22543 0.53416
# Poissons Ratio (z) = 0.24932 0.25936
#
# Static dielectric constant tensor:
#      x y z
#    x 3.470410 -0.054150 0.125470 
#    y -0.054150 3.291740 0.215730 
#    z 0.125470 0.215730 3.460650 
# 
# 
# High freq. dielectric constant tensor:
#      x y z
#    x 1.733910 -0.005550 0.013220 
#    y -0.005550 1.725260 0.019730 
#    z 0.013220 0.019730 1.733400 
# 
# From -- ./inp_files/313749.got.cif
#   From: 2010.06.25/outbox.cif.g09.slc.cpg/sg2_157_cif.got.tgz:313749.got - 2010.06.27 13:26:56.
