data_PCOD8042758
_publ_section_title
;
Structure prediction by ZEFSAII (Michael W. Deem and Ramdas Pophale) SiO2 
 PCOD8042758
Probable space group: P -1
;
_chemical_formula_sum "Si O2"
_cell_formula_units_Z 16
_cell_length_a 14.247022
_cell_length_b 8.941664
_cell_length_c 11.738088
_cell_angle_alpha 67.601898
_cell_angle_beta 141.204864
_cell_angle_gamma 92.731219
_cell_volume 781.863913
_symmetry_space_group_name_H-M "P -1"
_symmetry_group_IT_number 2
_symmetry_cell_setting 'triclinic'
loop_
_space_group_symop_operation_xyz
x,y,z
-x,-y,-z
loop_
_atom_site_type_symbol
_atom_site_label
_atom_site_fract_x
_atom_site_fract_y
_atom_site_fract_z
Si Si1 0.368718 0.347378 0.472096
Si Si2 0.458314 0.040355 0.253282
Si Si3 0.512000 0.313754 0.372766
Si Si4 0.539235 0.344413 0.861109
Si Si5 0.866322 0.991781 0.290043
Si Si6 0.142665 0.723100 0.217408
Si Si7 0.880348 0.979136 0.048811
Si Si8 0.367540 0.174059 0.882508
O O1 0.419560 0.383047 0.384870
O O2 0.503888 0.342045 0.693889
O O3 0.192107 0.516014 0.286665
O O4 0.373156 0.148179 0.543607
O O5 0.481936 0.147079 0.350435
O O6 0.311192 0.982753 0.158783
O O7 0.412724 0.162324 0.062101
O O8 0.443695 0.469474 0.164821
O O9 0.706532 0.255838 0.584611
O O10 0.385638 0.342873 0.792352
O O11 0.707687 0.179551 0.102055
O O12 0.937374 0.964829 0.237747
O O13 0.811863 0.828661 0.308178
O O14 0.000000 0.000000 0.500000
O O15 0.991181 0.791468 0.143989
O O16 0.089406 0.855743 0.020249
O O17 0.500000 0.000000 0.000000
#
# Coordination Sequence:
#
# PCOD8042758 Si02
#       8
#     2   2   2   2   2   2   2   2
#     4  11  19  37  63  87 114 156 193 237 292 350
#     4  11  21  36  62  84 121 149 195 244 288 343
#     4  11  22  35  62  91 111 150 202 241 283 345
#     4  10  19  38  60  85 115 151 199 238 279 347
#     4  10  19  35  61  85 116 155 193 233 295 346
#     4  10  21  35  62  84 119 155 189 232 299 351
#     4  10  20  39  55  87 123 154 181 243 299 343
#     4   9  18  36  58  82 111 156 188 239 284 333
#
# _framework density 20.463918
#
# number of rings (size 3 to 8) (size 9 to 14) (size 15 to 20)
#    0.000    1.750    5.000    2.625    0.000    2.500 
#    0.000    4.375    0.000    7.500    0.000    0.875 
#    0.000    0.000    0.000    0.000    0.000    0.000 
#
# Total GULP energy -198245.942195 kJ/mol
# GULP energy per Si atom -12390.371387 kJ/mol
# Density = 2.041734 g / cm^3
# Si number density = 20.463918 Si / 1000 Ang^3
#
#
#
# Elastic Constant Matrix: (Units=GPa)
#
#
# Indices 1 2 3 4 5 6 
#
# 1 104.8786 49.3230 43.3263 1.3037 -12.3467 -2.9915
# 2 49.3230 110.6834 46.3542 -16.6128 -8.8171 -3.8838
# 3 43.3263 46.3542 75.4405 -6.7594 -6.4101 -2.4174
# 4 1.3037 -16.6128 -6.7594 27.1706 -3.5947 0.0171
# 5 -12.3467 -8.8171 -6.4101 -3.5947 22.4605 -12.0470
# 6 -2.9915 -3.8838 -2.4174 0.0171 -12.0470 26.9774
#
#
#
# Elastic Compliance Matrix: (Units=1/GPa)
#
#
# Indices 1 2 3 4 5 6 
#
# 1 0.014641 -0.004190 -0.005581 -0.003877 0.005878 0.003148
# 2 -0.004190 0.015075 -0.005498 0.008761 0.005385 0.003612
# 3 -0.005581 -0.005498 0.020183 0.002115 0.001427 0.001034
# 4 -0.003877 0.008761 0.002115 0.044534 0.012586 0.006613
# 5 0.005878 0.005385 0.001427 0.012586 0.069849 0.032739
# 6 0.003148 0.003612 0.001034 0.006613 0.032739 0.052645
#
#
# Mechanical properties :
#
#
# Convention : Reuss Voigt Hill
#
# Bulk Modulus (GPa) = 51.65148 63.22327 57.43738
# Shear Modulus (GPa) = 19.69123 25.45499 22.57311
#
# Velocity S-wave (km/s) = 3.10537 3.53072 3.32485
# Velocity P-wave (km/s) = 6.17680 6.89807 6.54737
#
# Compressibility (1/GPa) = 0.01936053
#
# Stress axis : x y z
#
# Youngs Moduli (GPa) = 68.30148 66.33339 49.54700
#
# Poissons Ratio (x) = 0.27796 0.27651
# Poissons Ratio (y) = 0.28621 0.27242
# Poissons Ratio (z) = 0.38118 0.36472
#
# Static dielectric constant tensor:
#      x y z
#    x 12.313410 4.049640 -3.653090 
#    y 4.049640 5.790570 -1.963550 
#    z -3.653090 -1.963550 5.047050 
# 
# 
# High freq. dielectric constant tensor:
#      x y z
#    x 1.801810 -0.003820 -0.020730 
#    y -0.003820 1.790710 -0.014010 
#    z -0.020730 -0.014010 1.774920 
# 
# From -- ./inp_files/333261.got.cif
#   From: 2010.06.25/outbox.cif.g09.slc.cpg/sg2_167_cif.got.tgz:333261.got - 2010.06.27 13:26:56.
