data_PCOD8042019
_publ_section_title
;
Structure prediction by ZEFSAII (Michael W. Deem and Ramdas Pophale) SiO2 
 PCOD8042019
Probable space group: P -1
;
_chemical_formula_sum "Si O2"
_cell_formula_units_Z 16
_cell_length_a 13.157679
_cell_length_b 8.587546
_cell_length_c 18.842727
_cell_angle_alpha 71.532766
_cell_angle_beta 24.151995
_cell_angle_gamma 76.114011
_cell_volume 819.648648
_symmetry_space_group_name_H-M "P -1"
_symmetry_group_IT_number 2
_symmetry_cell_setting 'triclinic'
loop_
_space_group_symop_operation_xyz
x,y,z
-x,-y,-z
loop_
_atom_site_type_symbol
_atom_site_label
_atom_site_fract_x
_atom_site_fract_y
_atom_site_fract_z
Si Si1 0.170326 0.559690 0.448359
Si Si2 0.940598 0.184080 0.423314
Si Si3 0.667964 0.916121 0.550172
Si Si4 0.406160 0.737271 0.481393
Si Si5 0.154646 0.439278 0.753646
Si Si6 0.488100 0.324673 0.070517
Si Si7 0.594409 0.380632 0.157077
Si Si8 0.024573 0.309201 0.699775
O O1 0.148019 0.753661 0.451767
O O2 0.456355 0.528266 0.257070
O O3 0.050055 0.458616 0.606718
O O4 0.000000 0.500000 0.500000
O O5 0.808445 0.300699 0.436105
O O6 0.240006 0.208324 0.220667
O O7 0.838600 0.993260 0.497535
O O8 0.457580 0.781030 0.736645
O O9 0.837205 0.840532 0.395200
O O10 0.545138 0.063183 0.566580
O O11 0.292648 0.629243 0.637241
O O12 0.667476 0.673052 0.300563
O O13 0.134188 0.366525 0.697847
O O14 0.890619 0.436473 0.961444
O O15 0.484467 0.345186 0.154384
O O16 0.500000 0.500000 0.000000
O O17 0.730480 0.240269 0.905254
#
# Coordination Sequence:
#
# PCOD8042019 Si02
#       8
#     2   2   2   2   2   2   2   2
#     4  11  18  34  56  81 108 150 182 219 273 332
#     4  10  19  36  54  77 116 141 180 227 266 325
#     4   9  22  37  52  83 117 142 176 228 284 326
#     4   9  20  38  59  81 108 146 181 229 286 299
#     4  10  19  38  65  77 107 144 191 229 260 337
#     4  11  18  33  59  82 109 145 188 228 260 325
#     4  10  21  34  56  86 106 145 188 219 277 328
#     4  10  19  34  56  84 108 146 185 218 277 327
#
# _framework density 19.520558000000001
#
# number of rings (size 3 to 8) (size 9 to 14) (size 15 to 20)
#    0.750    1.250    3.750    0.750    0.000    2.000 
#    0.000    3.125    0.000    0.000    0.000    0.000 
#    0.000    0.000    0.000    0.000    0.000    0.000 
#
# Total GULP energy -198227.972854 kJ/mol
# GULP energy per Si atom -12389.248303 kJ/mol
# Density = 1.947613 g / cm^3
# Si number density = 19.520558 Si / 1000 Ang^3
#
#
#
# Elastic Constant Matrix: (Units=GPa)
#
#
# Indices 1 2 3 4 5 6 
#
# 1 39.9216 2.7100 22.9718 6.9276 -1.8058 -11.8433
# 2 2.7100 74.8243 32.2086 5.6111 14.0870 -9.3320
# 3 22.9718 32.2086 150.4398 7.4123 -4.9433 -5.1444
# 4 6.9276 5.6111 7.4123 21.6943 5.1130 1.1501
# 5 -1.8058 14.0870 -4.9433 5.1130 31.2553 6.3480
# 6 -11.8433 -9.3320 -5.1444 1.1501 6.3480 26.5291
#
#
#
# Elastic Compliance Matrix: (Units=1/GPa)
#
#
# Indices 1 2 3 4 5 6 
#
# 1 0.034523 0.004374 -0.005182 -0.010697 -0.002501 0.017008
# 2 0.004374 0.018604 -0.004510 -0.002742 -0.010479 0.010249
# 3 -0.005182 -0.004510 0.008463 -0.000809 0.003842 -0.003143
# 4 -0.010697 -0.002742 -0.000809 0.052437 -0.006757 -0.006553
# 5 -0.002501 -0.010479 0.003842 -0.006757 0.041045 -0.013586
# 6 0.017008 0.010249 -0.003143 -0.006553 -0.013586 0.051818
#
#
# Mechanical properties :
#
#
# Convention : Reuss Voigt Hill
#
# Bulk Modulus (GPa) = 19.62503 42.32961 30.97732
# Shear Modulus (GPa) = 21.32117 29.71541 25.51829
#
# Velocity S-wave (km/s) = 3.30849 3.90585 3.61952
# Velocity P-wave (km/s) = 4.96691 6.48634 5.77680
#
# Compressibility (1/GPa) = 0.05095532
#
# Stress axis : x y z
#
# Youngs Moduli (GPa) = 28.96647 53.75163 118.16717
#
# Poissons Ratio (x) = -0.23513 0.61229
# Poissons Ratio (y) = -0.12671 0.53291
# Poissons Ratio (z) = 0.15009 0.24241
#
# Static dielectric constant tensor:
#      x y z
#    x 3.499320 -0.026580 -0.048970 
#    y -0.026580 3.454500 0.181670 
#    z -0.048970 0.181670 3.751470 
# 
# 
# High freq. dielectric constant tensor:
#      x y z
#    x 1.750490 -0.005680 -0.009440 
#    y -0.005680 1.745130 0.012010 
#    z -0.009440 0.012010 1.761240 
# 
# From -- ./inp_files/210566.got.cif
#   From: 2010.06.25/outbox.cif.g09.slc.cpg/sg2_106_cif.got.tgz:210566.got - 2010.06.27 13:26:56.
