data_PCOD8042565
_publ_section_title
;
Structure prediction by ZEFSAII (Michael W. Deem and Ramdas Pophale) SiO2 
 PCOD8042565
Probable space group: P -1
;
_chemical_formula_sum "Si O2"
_cell_formula_units_Z 14
_cell_length_a 10.200671
_cell_length_b 9.314152
_cell_length_c 11.703931
_cell_angle_alpha 57.367222
_cell_angle_beta 141.840777
_cell_angle_gamma 110.678409
_cell_volume 573.196894
_symmetry_space_group_name_H-M "P -1"
_symmetry_group_IT_number 2
_symmetry_cell_setting 'triclinic'
loop_
_space_group_symop_operation_xyz
x,y,z
-x,-y,-z
loop_
_atom_site_type_symbol
_atom_site_label
_atom_site_fract_x
_atom_site_fract_y
_atom_site_fract_z
Si Si1 0.331493 0.081473 0.501777
Si Si2 0.586489 0.366952 0.952851
Si Si3 0.480473 0.730335 0.647532
Si Si4 0.725389 0.427791 0.624785
Si Si5 0.303280 0.828305 0.118424
Si Si6 0.033346 0.255000 0.388343
Si Si7 0.284316 0.125071 0.836123
O O1 0.347689 0.193478 0.349430
O O2 0.490863 0.132549 0.686019
O O3 0.097703 0.128209 0.378860
O O4 0.368129 0.879687 0.587624
O O5 0.776299 0.283993 0.201734
O O6 0.581186 0.573259 0.865408
O O7 0.615259 0.306530 0.867233
O O8 0.364269 0.297936 0.869625
O O9 0.302887 0.653426 0.483452
O O10 0.500000 0.500000 0.500000
O O11 0.840529 0.272227 0.852103
O O12 0.882214 0.566919 0.658212
O O13 0.178443 0.011207 0.908275
O O14 0.116304 0.170752 0.600291
O O15 0.500000 0.000000 0.000000
#
# Coordination Sequence:
#
# PCOD8042565 Si02
#       7
#     2   2   2   2   2   2   2
#     4  10  19  35  58  85 118 155 186 236 294 344
#     4  11  21  35  62  88 114 151 196 238 281 342
#     4  10  19  35  58  86 118 152 189 236 294 337
#     4  11  16  36  61  84 113 153 190 237 281 343
#     4  10  19  36  59  82 118 153 192 233 288 336
#     4  12  21  35  65  90 113 147 202 236 285 340
#     4  10  19  38  59  84 118 153 193 240 281 336
#
# _framework density 24.424417999999999
#
# number of rings (size 3 to 8) (size 9 to 14) (size 15 to 20)
#    0.000    1.429    8.571    0.000    0.000    4.571 
#    0.000    2.143    0.000    6.000    0.000    3.000 
#    0.000    0.000    0.000    0.000    0.000    0.000 
#
# Total GULP energy -173490.502064 kJ/mol
# GULP energy per Si atom -12392.178719 kJ/mol
# Density = 2.436883 g / cm^3
# Si number density = 24.424418 Si / 1000 Ang^3
#
#
#
# Elastic Constant Matrix: (Units=GPa)
#
#
# Indices 1 2 3 4 5 6 
#
# 1 29.7241 25.6514 39.2428 -13.3150 -10.6646 9.2015
# 2 25.6514 143.0769 60.8019 -24.2095 -1.8458 -1.9485
# 3 39.2428 60.8019 138.5053 -30.0016 -23.9012 10.2316
# 4 -13.3150 -24.2095 -30.0016 43.9679 12.3900 -13.6442
# 5 -10.6646 -1.8458 -23.9012 12.3900 22.2496 -13.5492
# 6 9.2015 -1.9485 10.2316 -13.6442 -13.5492 26.8270
#
#
#
# Elastic Compliance Matrix: (Units=1/GPa)
#
#
# Indices 1 2 3 4 5 6 
#
# 1 0.062441 -0.005675 -0.012748 0.001053 0.007468 -0.012660
# 2 -0.005675 0.010001 -0.003063 0.004267 -0.005627 0.003169
# 3 -0.012748 -0.003063 0.014241 0.002884 0.010745 0.005612
# 4 0.001053 0.004267 0.002884 0.033146 -0.007129 0.012106
# 5 0.007468 -0.005627 0.010745 -0.007129 0.082401 0.030923
# 6 -0.012660 0.003169 0.005612 0.012106 0.030923 0.061483
#
#
# Mechanical properties :
#
#
# Convention : Reuss Voigt Hill
#
# Bulk Modulus (GPa) = 22.87821 62.52206 42.70013
# Shear Modulus (GPa) = 15.56389 30.98291 23.27340
#
# Velocity S-wave (km/s) = 2.52707 3.56550 3.09022
# Velocity P-wave (km/s) = 4.23108 6.52718 5.50028
#
# Compressibility (1/GPa) = 0.04370972
#
# Stress axis : x y z
#
# Youngs Moduli (GPa) = 16.01514 99.98915 70.21994
#
# Poissons Ratio (x) = 0.56745 0.89518
# Poissons Ratio (y) = 0.09089 0.21510
# Poissons Ratio (z) = 0.20416 0.30630
#
# Static dielectric constant tensor:
#      x y z
#    x 4.156260 0.462910 -0.618410 
#    y 0.462910 5.137470 -0.463480 
#    z -0.618410 -0.463480 4.540110 
# 
# 
# High freq. dielectric constant tensor:
#      x y z
#    x 1.917230 0.025360 -0.037870 
#    y 0.025360 1.993400 -0.009570 
#    z -0.037870 -0.009570 1.966920 
# 
# From -- ./inp_files/416724.got.cif
#   From: 2010.06.25/outbox.cif.g09.slc.cpg/sg2_209_cif.got.tgz:416724.got - 2010.06.27 13:26:56.
