data_PCOD8042998
_publ_section_title
;
Structure prediction by ZEFSAII (Michael W. Deem and Ramdas Pophale) SiO2 
 PCOD8042998
Probable space group: P -1
;
_chemical_formula_sum "Si O2"
_cell_formula_units_Z 16
_cell_length_a 15.729323
_cell_length_b 16.801131
_cell_length_c 12.221768
_cell_angle_alpha 63.099505
_cell_angle_beta 27.718988
_cell_angle_gamma 44.494348
_cell_volume 879.916179
_symmetry_space_group_name_H-M "P -1"
_symmetry_group_IT_number 2
_symmetry_cell_setting 'triclinic'
loop_
_space_group_symop_operation_xyz
x,y,z
-x,-y,-z
loop_
_atom_site_type_symbol
_atom_site_label
_atom_site_fract_x
_atom_site_fract_y
_atom_site_fract_z
Si Si1 0.155437 0.615421 0.193701
Si Si2 0.546527 0.787861 0.818254
Si Si3 0.886490 0.932917 0.784148
Si Si4 0.965231 0.592434 0.787318
Si Si5 0.766804 0.466645 0.090843
Si Si6 0.860371 0.338363 0.279202
Si Si7 0.420146 0.405802 0.203168
Si Si8 0.593469 0.156392 0.823873
O O1 0.338351 0.472694 0.135059
O O2 0.838998 0.731879 0.522203
O O3 0.156921 0.597671 0.074536
O O4 0.288621 0.662150 0.042672
O O5 0.542770 0.714429 0.773786
O O6 0.494375 0.760820 0.013838
O O7 0.299960 0.951797 0.979052
O O8 0.907146 0.820189 0.853914
O O9 0.191803 0.864553 0.478044
O O10 0.735143 0.009407 0.791077
O O11 0.108316 0.582660 0.736273
O O12 0.174808 0.523626 0.490560
O O13 0.897861 0.514617 0.934684
O O14 0.686529 0.752940 0.983035
O O15 0.893150 0.350750 0.106743
O O16 0.437095 0.596077 0.399413
#
# Coordination Sequence:
#
# PCOD8042998 Si02
#       8
#     2   2   2   2   2   2   2   2
#     4  11  21  34  57  88 114 148 189 234 289 344
#     4  10  19  36  55  80 121 145 178 229 292 338
#     4   9  20  39  56  84 119 159 184 229 290 342
#     4  12  20  37  62  90 112 147 192 243 294 332
#     4  11  23  39  59  82 118 155 191 244 281 327
#     4  11  24  39  58  84 115 157 200 230 276 346
#     4  11  21  32  59  91 115 140 185 241 296 340
#     4   9  19  35  60  88 116 152 180 240 295 335
#
# _framework density 18.183551000000001
#
# number of rings (size 3 to 8) (size 9 to 14) (size 15 to 20)
#    0.750    0.750    5.000    1.500    0.000    0.500 
#    2.250    0.625    0.000    0.750    0.000    0.000 
#    0.000    0.000    0.000    0.000    0.000    0.000 
#
# Total GULP energy -198309.021335 kJ/mol
# GULP energy per Si atom -12394.313833 kJ/mol
# Density = 1.814216 g / cm^3
# Si number density = 18.183551 Si / 1000 Ang^3
#
#
#
# Elastic Constant Matrix: (Units=GPa)
#
#
# Indices 1 2 3 4 5 6 
#
# 1 81.8458 38.1034 43.1341 -3.9088 2.4612 7.5321
# 2 38.1034 81.4420 45.0688 1.5772 -9.2523 1.5251
# 3 43.1341 45.0688 116.9770 -3.5958 -10.0102 8.0178
# 4 -3.9088 1.5772 -3.5958 17.9065 5.8941 -3.9281
# 5 2.4612 -9.2523 -10.0102 5.8941 25.4175 -6.7627
# 6 7.5321 1.5251 8.0178 -3.9281 -6.7627 22.8328
#
#
#
# Elastic Compliance Matrix: (Units=1/GPa)
#
#
# Indices 1 2 3 4 5 6 
#
# 1 0.019154 -0.007614 -0.004332 0.005704 -0.009265 -0.006052
# 2 -0.007614 0.019269 -0.004361 -0.006129 0.008584 0.004244
# 3 -0.004332 -0.004361 0.012215 0.000527 0.003106 -0.001558
# 4 0.005704 -0.006129 0.000527 0.064076 -0.016221 0.004562
# 5 -0.009265 0.008584 0.003106 -0.016221 0.052082 0.014027
# 6 -0.006052 0.004244 -0.001558 0.004562 0.014027 0.050996
#
#
# Mechanical properties :
#
#
# Convention : Reuss Voigt Hill
#
# Bulk Modulus (GPa) = 55.48200 59.20858 57.34529
# Shear Modulus (GPa) = 19.49981 23.49528 21.49755
#
# Velocity S-wave (km/s) = 3.27829 3.59850 3.44212
# Velocity P-wave (km/s) = 6.70134 7.06385 6.88498
#
# Compressibility (1/GPa) = 0.01802386
#
# Stress axis : x y z
#
# Youngs Moduli (GPa) = 52.20952 51.89808 81.86581
#
# Poissons Ratio (x) = 0.39513 0.35465
# Poissons Ratio (y) = 0.39750 0.35702
# Poissons Ratio (z) = 0.22618 0.22633
#
# Static dielectric constant tensor:
#      x y z
#    x 3.188370 -0.014230 -0.075450 
#    y -0.014230 3.135730 -0.036070 
#    z -0.075450 -0.036070 3.466130 
# 
# 
# High freq. dielectric constant tensor:
#      x y z
#    x 1.685850 0.004220 -0.006630 
#    y 0.004220 1.682980 -0.004580 
#    z -0.006630 -0.004580 1.715930 
# 
# From -- ./inp_files/454716.got.cif
#   From: 2010.06.25/outbox.cif.g09.slc.cpg/sg2_228_cif.got.tgz:454716.got - 2010.06.27 13:26:56.
