data_PCOD8042629
_publ_section_title
;
Structure prediction by ZEFSAII (Michael W. Deem and Ramdas Pophale) SiO2 
 PCOD8042629
Probable space group: P -1
;
_chemical_formula_sum "Si O2"
_cell_formula_units_Z 16
_cell_length_a 24.122834
_cell_length_b 11.129875
_cell_length_c 13.428675
_cell_angle_alpha 31.254111
_cell_angle_beta 151.625790
_cell_angle_gamma 151.126402
_cell_volume 769.378599
_symmetry_space_group_name_H-M "P -1"
_symmetry_group_IT_number 2
_symmetry_cell_setting 'triclinic'
loop_
_space_group_symop_operation_xyz
x,y,z
-x,-y,-z
loop_
_atom_site_type_symbol
_atom_site_label
_atom_site_fract_x
_atom_site_fract_y
_atom_site_fract_z
Si Si1 0.638599 0.705640 0.336430
Si Si2 0.595251 0.216846 0.077195
Si Si3 0.895731 0.595102 0.610497
Si Si4 0.000891 0.737585 0.065089
Si Si5 0.833990 0.695392 0.011114
Si Si6 0.364608 0.217587 0.498085
Si Si7 0.800053 0.969387 0.215233
Si Si8 0.793915 0.419825 0.788684
O O1 0.683960 0.829883 0.430123
O O2 0.661138 0.450185 0.547287
O O3 0.728106 0.920975 0.242198
O O4 0.483593 0.628200 0.122142
O O5 0.614253 0.034008 0.320262
O O6 0.740678 0.431305 0.113176
O O7 0.500000 0.000000 0.000000
O O8 0.884108 0.350072 0.699838
O O9 0.880470 0.508223 0.762871
O O10 0.044663 0.834697 0.655262
O O11 0.788970 0.696268 0.344308
O O12 0.073199 0.059308 0.942283
O O13 0.927685 0.637654 0.126970
O O14 0.890405 0.607052 0.896159
O O15 0.749376 0.792473 0.743659
O O16 0.500000 0.500000 0.500000
O O17 0.742164 0.106813 0.951488
#
# Coordination Sequence:
#
# PCOD8042629 Si02
#       8
#     2   2   2   2   2   2   2   2
#     4  10  20  30  56  86 106 140 181 245 276 314
#     4  10  22  35  57  81 110 146 196 238 271 323
#     4   9  19  35  53  84 108 153 189 229 275 324
#     4  10  21  35  59  77 128 152 176 228 282 348
#     4  11  22  39  52  87 117 157 180 223 290 340
#     4  11  21  35  55  80 112 148 194 229 274 330
#     4   9  18  30  53  83 111 130 193 235 274 317
#     4  10  19  35  59  86 109 150 188 229 285 323
#
# _framework density 20.796004
#
# number of rings (size 3 to 8) (size 9 to 14) (size 15 to 20)
#    0.000    2.000    3.750    1.500    8.750    0.000 
#    0.000   10.000    0.000    3.000    0.000    7.875 
#    0.000    0.000    0.000    0.000    0.000    0.000 
#
# Total GULP energy -198211.528123 kJ/mol
# GULP energy per Si atom -12388.220508 kJ/mol
# Density = 2.074867 g / cm^3
# Si number density = 20.796004 Si / 1000 Ang^3
#
#
#
# Elastic Constant Matrix: (Units=GPa)
#
#
# Indices 1 2 3 4 5 6 
#
# 1 103.6796 48.9410 40.2937 -17.0477 18.7374 16.1787
# 2 48.9410 69.6769 39.7289 -26.4405 9.2263 15.9495
# 3 40.2937 39.7289 129.3181 -30.7154 13.3111 4.9952
# 4 -17.0477 -26.4405 -30.7154 26.0593 2.6127 -3.2687
# 5 18.7374 9.2263 13.3111 2.6127 31.1655 -7.9752
# 6 16.1787 15.9495 4.9952 -3.2687 -7.9752 31.1244
#
#
#
# Elastic Compliance Matrix: (Units=1/GPa)
#
#
# Indices 1 2 3 4 5 6 
#
# 1 0.016718 -0.007559 -0.001233 0.001885 -0.009178 -0.006772
# 2 -0.007559 0.036899 0.000776 0.032853 -0.013320 -0.015067
# 3 -0.001233 0.000776 0.012071 0.014619 -0.006325 -0.001779
# 4 0.001885 0.032853 0.014619 0.090840 -0.029362 -0.018145
# 5 -0.009178 -0.013320 -0.006325 -0.029362 0.052598 0.023005
# 6 -0.006772 -0.015067 -0.001779 -0.018145 0.023005 0.047645
#
#
# Mechanical properties :
#
#
# Convention : Reuss Voigt Hill
#
# Bulk Modulus (GPa) = 20.13900 62.28908 41.21404
# Shear Modulus (GPa) = 17.27993 29.25057 23.26525
#
# Velocity S-wave (km/s) = 2.88571 3.75447 3.34838
# Velocity P-wave (km/s) = 4.56160 6.98657 5.90001
#
# Compressibility (1/GPa) = 0.04965490
#
# Stress axis : x y z
#
# Youngs Moduli (GPa) = 59.81720 27.10131 82.84516
#
# Poissons Ratio (x) = 0.20485 0.10213
# Poissons Ratio (y) = 0.45214 -0.06425
# Poissons Ratio (z) = 0.07374 -0.02102
#
# Static dielectric constant tensor:
#      x y z
#    x 3.898720 0.122380 0.555550 
#    y 0.122380 3.534370 -0.391260 
#    z 0.555550 -0.391260 4.783030 
# 
# 
# High freq. dielectric constant tensor:
#      x y z
#    x 1.808210 0.028260 0.024030 
#    y 0.028260 1.767530 -0.026920 
#    z 0.024030 -0.026920 1.830350 
# 
# From -- ./inp_files/542842.got.cif
#   From: 2010.06.25/outbox.cif.g09.slc.cpg/sg2_272_cif.got.tgz:542842.got - 2010.06.27 13:26:56.
