data_PCOD8042125
_publ_section_title
;
Structure prediction by ZEFSAII (Michael W. Deem and Ramdas Pophale) SiO2 
 PCOD8042125
Probable space group: P -1
;
_chemical_formula_sum "Si O2"
_cell_formula_units_Z 16
_cell_length_a 8.975919
_cell_length_b 12.825789
_cell_length_c 11.648069
_cell_angle_alpha 48.725090
_cell_angle_beta 54.887850
_cell_angle_gamma 52.353795
_cell_volume 763.812075
_symmetry_space_group_name_H-M "P -1"
_symmetry_group_IT_number 2
_symmetry_cell_setting 'triclinic'
loop_
_space_group_symop_operation_xyz
x,y,z
-x,-y,-z
loop_
_atom_site_type_symbol
_atom_site_label
_atom_site_fract_x
_atom_site_fract_y
_atom_site_fract_z
Si Si1 0.846454 0.056471 0.161683
Si Si2 0.842665 0.221150 0.818415
Si Si3 0.635507 0.213569 0.687719
Si Si4 0.193388 0.552579 0.146177
Si Si5 0.227678 0.681290 0.670709
Si Si6 0.563662 0.301685 0.221174
Si Si7 0.218642 0.375455 0.831800
Si Si8 0.877403 0.874212 0.836613
O O1 0.644103 0.126618 0.273730
O O2 0.011123 0.110397 0.107912
O O3 0.800718 0.114148 0.009617
O O4 0.935558 0.875059 0.257811
O O5 0.685681 0.255446 0.761848
O O6 0.829935 0.374268 0.770386
O O7 0.740962 0.282858 0.499795
O O8 0.400240 0.299178 0.718916
O O9 0.708973 0.034975 0.763190
O O10 0.339669 0.380408 0.223242
O O11 0.984134 0.557370 0.196639
O O12 0.290137 0.630322 0.956354
O O13 0.410213 0.683069 0.665820
O O14 0.228706 0.514072 0.799616
O O15 0.027732 0.810051 0.711105
O O16 0.225065 0.244478 0.011334
#
# Coordination Sequence:
#
# PCOD8042125 Si02
#       8
#     2   2   2   2   2   2   2   2
#     4   8  15  31  58  80 104 141 199 235 266 327
#     4   9  16  33  53  80 109 149 185 228 281 340
#     4  11  24  37  59  88 122 156 184 230 304 354
#     4  10  19  34  58  84 108 146 198 244 272 324
#     4  11  22  40  59  86 123 155 185 233 298 355
#     4   9  18  35  57  81 110 150 192 233 286 336
#     4  12  22  38  58  93 116 146 198 247 281 329
#     4  10  20  40  63  85 112 153 200 241 276 337
#
# _framework density 20.947559999999999
#
# number of rings (size 3 to 8) (size 9 to 14) (size 15 to 20)
#    0.000    2.000    3.750    2.250    0.000    0.000 
#    0.000    2.500    0.000    0.000    0.000    7.000 
#    0.000    0.000    0.000    0.000    0.000    0.000 
#
# Total GULP energy -198298.639766 kJ/mol
# GULP energy per Si atom -12393.664985 kJ/mol
# Density = 2.089988 g / cm^3
# Si number density = 20.947560 Si / 1000 Ang^3
#
#
#
# Elastic Constant Matrix: (Units=GPa)
#
#
# Indices 1 2 3 4 5 6 
#
# 1 86.5714 47.3660 29.5090 14.5898 6.1854 -19.0266
# 2 47.3660 139.3918 22.3263 11.3768 -3.6945 -24.9529
# 3 29.5090 22.3263 60.9230 10.5129 4.7092 7.5673
# 4 14.5898 11.3768 10.5129 26.2859 -2.3086 1.6223
# 5 6.1854 -3.6945 4.7092 -2.3086 17.5008 8.3964
# 6 -19.0266 -24.9529 7.5673 1.6223 8.3964 35.0276
#
#
#
# Elastic Compliance Matrix: (Units=1/GPa)
#
#
# Indices 1 2 3 4 5 6 
#
# 1 0.022545 -0.002906 -0.008963 -0.010016 -0.015283 0.016240
# 2 -0.002906 0.009815 -0.002656 -0.001872 0.000737 0.005897
# 3 -0.008963 -0.002656 0.023509 -0.002369 0.001804 -0.012162
# 4 -0.010016 -0.001872 -0.002369 0.047519 0.015945 -0.012285
# 5 -0.015283 0.000737 0.001804 0.015945 0.077501 -0.027482
# 6 0.016240 0.005897 -0.012162 -0.012285 -0.027482 0.051355
#
#
# Mechanical properties :
#
#
# Convention : Reuss Voigt Hill
#
# Bulk Modulus (GPa) = 37.28564 53.92098 45.60331
# Shear Modulus (GPa) = 18.50265 28.27518 23.38892
#
# Velocity S-wave (km/s) = 2.97523 3.67796 3.34510
# Velocity P-wave (km/s) = 5.44434 6.62067 6.06111
#
# Compressibility (1/GPa) = 0.02681998
#
# Stress axis : x y z
#
# Youngs Moduli (GPa) = 44.35557 101.88661 42.53762
#
# Poissons Ratio (x) = 0.29607 0.38125
# Poissons Ratio (y) = 0.12889 0.11297
# Poissons Ratio (z) = 0.39754 0.27059
#
# Static dielectric constant tensor:
#      x y z
#    x 3.585550 -0.222330 0.150550 
#    y -0.222330 4.476780 0.082620 
#    z 0.150550 0.082620 3.262150 
# 
# 
# High freq. dielectric constant tensor:
#      x y z
#    x 1.805610 -0.015090 0.022840 
#    y -0.015090 1.855430 0.012360 
#    z 0.022840 0.012360 1.763480 
# 
# From -- ./inp_files/391949.got.cif
#   From: 2010.06.25/outbox.cif.g09.slc.cpg/sg2_196_cif.got.tgz:391949.got - 2010.06.27 13:26:56.
