data_PCOD8042686
_publ_section_title
;
Structure prediction by ZEFSAII (Michael W. Deem and Ramdas Pophale) SiO2 
 PCOD8042686
Probable space group: P -1
;
_chemical_formula_sum "Si O2"
_cell_formula_units_Z 16
_cell_length_a 8.980586
_cell_length_b 21.927200
_cell_length_c 9.729492
_cell_angle_alpha 136.345252
_cell_angle_beta 126.752647
_cell_angle_gamma 37.448682
_cell_volume 802.885445
_symmetry_space_group_name_H-M "P -1"
_symmetry_group_IT_number 2
_symmetry_cell_setting 'triclinic'
loop_
_space_group_symop_operation_xyz
x,y,z
-x,-y,-z
loop_
_atom_site_type_symbol
_atom_site_label
_atom_site_fract_x
_atom_site_fract_y
_atom_site_fract_z
Si Si1 0.112841 0.289979 0.779059
Si Si2 0.168388 0.064517 0.455086
Si Si3 0.252151 0.248097 0.485719
Si Si4 0.427580 0.013895 0.256463
Si Si5 0.585356 0.432121 0.795455
Si Si6 0.674411 0.767801 0.912897
Si Si7 0.360321 0.786702 0.543968
Si Si8 0.928694 0.420533 0.360441
O O1 0.116418 0.184091 0.610566
O O2 0.223807 0.289262 0.694996
O O3 0.826673 0.407776 0.830511
O O4 0.283330 0.272632 0.970335
O O5 0.275676 0.002010 0.264195
O O6 0.917830 0.090282 0.393281
O O7 0.371538 0.985491 0.555340
O O8 0.253284 0.140186 0.291702
O O9 0.505871 0.202710 0.486330
O O10 0.021186 0.362270 0.466212
O O11 0.559712 0.902057 0.048278
O O12 0.648766 0.311492 0.664906
O O13 0.361935 0.506243 0.684267
O O14 0.500000 0.500000 0.000000
O O15 0.497030 0.754565 0.714345
O O16 0.940295 0.682930 0.848891
O O17 0.000000 0.500000 0.500000
#
# Coordination Sequence:
#
# PCOD8042686 Si02
#       8
#     2   2   2   2   2   2   2   2
#     4   9  19  35  60  85 111 146 191 227 279 330
#     4   8  17  35  57  80 113 153 183 222 279 345
#     4  10  21  37  59  85 117 145 185 237 277 325
#     4   9  18  35  58  84 115 146 185 230 278 329
#     4  11  20  37  63  80 106 154 196 225 273 347
#     4  10  19  35  60  85 112 152 183 228 280 338
#     4  10  21  35  59  85 112 149 188 228 283 333
#     4  11  21  38  58  82 114 150 187 232 282 328
#
# _framework density 19.928121000000001
#
# number of rings (size 3 to 8) (size 9 to 14) (size 15 to 20)
#    0.000    2.250    3.750    0.750    0.000    3.500 
#    0.000    2.500   11.000    0.000    0.000    0.000 
#    0.000    0.000    0.000    0.000    0.000    0.000 
#
# Total GULP energy -198277.413990 kJ/mol
# GULP energy per Si atom -12392.338374 kJ/mol
# Density = 1.988276 g / cm^3
# Si number density = 19.928121 Si / 1000 Ang^3
#
#
#
# Elastic Constant Matrix: (Units=GPa)
#
#
# Indices 1 2 3 4 5 6 
#
# 1 99.2555 40.0655 40.5934 -13.1290 -18.8876 -19.0578
# 2 40.0655 96.3818 28.8248 -5.7939 -6.8240 -4.0399
# 3 40.5934 28.8248 97.0827 -0.1457 -19.4331 5.7343
# 4 -13.1290 -5.7939 -0.1457 35.3933 1.0730 -2.4033
# 5 -18.8876 -6.8240 -19.4331 1.0730 27.6125 -0.9179
# 6 -19.0578 -4.0399 5.7343 -2.4033 -0.9179 38.7880
#
#
#
# Elastic Compliance Matrix: (Units=1/GPa)
#
#
# Indices 1 2 3 4 5 6 
#
# 1 0.018376 -0.004697 -0.005314 0.006464 0.007747 0.009909
# 2 -0.004697 0.012845 -0.002124 0.000354 -0.001569 -0.000671
# 3 -0.005314 -0.002124 0.014668 -0.002785 0.006104 -0.005029
# 4 0.006464 0.000354 -0.002785 0.031031 0.001529 0.005583
# 5 0.007747 -0.001569 0.006104 0.001529 0.045494 0.003912
# 6 0.009909 -0.000671 -0.005029 0.005583 0.003912 0.031762
#
#
# Mechanical properties :
#
#
# Convention : Reuss Voigt Hill
#
# Bulk Modulus (GPa) = 46.25462 56.85415 51.55438
# Shear Modulus (GPa) = 26.93220 32.57452 29.75336
#
# Velocity S-wave (km/s) = 3.68022 4.04741 3.86817
# Velocity P-wave (km/s) = 6.42805 7.10166 6.77323
#
# Compressibility (1/GPa) = 0.02161946
#
# Stress axis : x y z
#
# Youngs Moduli (GPa) = 54.41821 77.85020 68.17732
#
# Poissons Ratio (x) = 0.36568 0.36228
# Poissons Ratio (y) = 0.25562 0.14479
# Poissons Ratio (z) = 0.28917 0.16533
#
# Static dielectric constant tensor:
#      x y z
#    x 3.566780 -0.428400 -0.265470 
#    y -0.428400 4.011600 0.049550 
#    z -0.265470 0.049550 3.623870 
# 
# 
# High freq. dielectric constant tensor:
#      x y z
#    x 1.745770 -0.023700 -0.022470 
#    y -0.023700 1.785270 0.006910 
#    z -0.022470 0.006910 1.769380 
# 
# From -- ./inp_files/178771.got.cif
#   From: 2010.06.25/outbox.cif.g09.slc.cpg/sg2_90_cif.got.tgz:178771.got - 2010.06.27 13:26:56.
