data_PCOD8042999
_publ_section_title
;
Structure prediction by ZEFSAII (Michael W. Deem and Ramdas Pophale) SiO2 
 PCOD8042999
Probable space group: P -1
;
_chemical_formula_sum "Si O2"
_cell_formula_units_Z 16
_cell_length_a 17.883267
_cell_length_b 8.455083
_cell_length_c 8.158961
_cell_angle_alpha 121.542685
_cell_angle_beta 85.693765
_cell_angle_gamma 61.500823
_cell_volume 832.650191
_symmetry_space_group_name_H-M "P -1"
_symmetry_group_IT_number 2
_symmetry_cell_setting 'triclinic'
loop_
_space_group_symop_operation_xyz
x,y,z
-x,-y,-z
loop_
_atom_site_type_symbol
_atom_site_label
_atom_site_fract_x
_atom_site_fract_y
_atom_site_fract_z
Si Si1 0.274710 0.387242 0.942509
Si Si2 0.290719 0.665518 0.523946
Si Si3 0.445150 0.249282 0.054228
Si Si4 0.248708 0.372132 0.564627
Si Si5 0.253356 0.062184 0.961867
Si Si6 0.369465 0.889803 0.155990
Si Si7 0.109307 0.300176 0.392330
Si Si8 0.780343 0.151236 0.694575
O O1 0.256346 0.437995 0.781269
O O2 0.380425 0.263829 0.926834
O O3 0.239987 0.236259 0.918700
O O4 0.209003 0.645584 0.169357
O O5 0.389621 0.459149 0.310064
O O6 0.245578 0.546369 0.534348
O O7 0.224416 0.866634 0.509933
O O8 0.295550 0.806767 0.745699
O O9 0.517382 0.285141 0.972058
O O10 0.500000 0.000000 0.000000
O O11 0.156023 0.394946 0.542204
O O12 0.340984 0.103045 0.393722
O O13 0.154162 0.196481 0.148963
O O14 0.331467 0.010563 0.049843
O O15 0.317397 0.779827 0.166472
O O16 0.000000 0.500000 0.500000
O O17 0.127084 0.087683 0.380400
#
# Coordination Sequence:
#
# PCOD8042999 Si02
#       8
#     2   2   2   2   2   2   2   2
#     4  11  21  37  60  82 121 162 191 236 286 347
#     4  11  21  37  60  82 121 162 191 236 286 347
#     4  11  20  38  56  86 118 157 208 242 275 329
#     4  10  20  37  58  83 117 156 189 234 302 336
#     4  10  20  37  58  83 117 156 189 234 302 336
#     4  10  19  36  55  81 119 154 197 246 281 334
#     4  10  21  41  67  90 113 141 188 243 291 359
#     4   9  20  38  58  84 117 157 189 234 305 341
#
# _framework density 19.215754
#
# number of rings (size 3 to 8) (size 9 to 14) (size 15 to 20)
#    0.000    2.000    2.500    5.250    0.000    3.000 
#    0.000    7.500    0.000    0.000    0.000    0.000 
#    0.000    0.000    0.000    0.000    0.000    0.000 
#
# Total GULP energy -198241.524993 kJ/mol
# GULP energy per Si atom -12390.095312 kJ/mol
# Density = 1.917202 g / cm^3
# Si number density = 19.215754 Si / 1000 Ang^3
#
#
#
# Elastic Constant Matrix: (Units=GPa)
#
#
# Indices 1 2 3 4 5 6 
#
# 1 69.7431 29.7046 40.2505 9.1095 -5.9283 -10.4840
# 2 29.7046 97.5333 17.8320 3.0918 -8.6142 0.0448
# 3 40.2505 17.8320 84.0357 2.5628 -0.8277 -11.6222
# 4 9.1095 3.0918 2.5628 35.7038 1.6382 3.8233
# 5 -5.9283 -8.6142 -0.8277 1.6382 25.0832 8.3617
# 6 -10.4840 0.0448 -11.6222 3.8233 8.3617 32.8334
#
#
#
# Elastic Compliance Matrix: (Units=1/GPa)
#
#
# Indices 1 2 3 4 5 6 
#
# 1 0.023454 -0.005037 -0.009398 -0.005434 0.002467 0.004174
# 2 -0.005037 0.012222 -0.000550 0.000393 0.003918 -0.002863
# 3 -0.009398 -0.000550 0.016968 0.000976 -0.003145 0.003693
# 4 -0.005434 0.000393 0.000976 0.029841 -0.001578 -0.004463
# 5 0.002467 0.003918 -0.003145 -0.001578 0.045726 -0.011792
# 6 0.004174 -0.002863 0.003693 -0.004463 -0.011792 0.036624
#
#
# Mechanical properties :
#
#
# Convention : Reuss Voigt Hill
#
# Bulk Modulus (GPa) = 44.10277 47.43180 45.76728
# Shear Modulus (GPa) = 24.70810 29.62574 27.16692
#
# Velocity S-wave (km/s) = 3.58973 3.93076 3.76411
# Velocity P-wave (km/s) = 6.33899 6.73339 6.53916
#
# Compressibility (1/GPa) = 0.02267431
#
# Stress axis : x y z
#
# Youngs Moduli (GPa) = 42.63652 81.81692 58.93513
#
# Poissons Ratio (x) = 0.41209 0.55386
# Poissons Ratio (y) = 0.21475 0.03244
# Poissons Ratio (z) = 0.40069 0.04504
#
# Static dielectric constant tensor:
#      x y z
#    x 3.250640 0.124830 0.081500 
#    y 0.124830 3.675540 -0.050950 
#    z 0.081500 -0.050950 3.505900 
# 
# 
# High freq. dielectric constant tensor:
#      x y z
#    x 1.717170 0.015920 0.018360 
#    y 0.015920 1.765680 -0.004650 
#    z 0.018360 -0.004650 1.742420 
# 
# From -- ./inp_files/329582.got.cif
#   From: 2010.06.25/outbox.cif.g09.slc.cpg/sg2_165_cif.got.tgz:329582.got - 2010.06.27 13:26:56.
