data_PCOD8042134
_publ_section_title
;
Structure prediction by ZEFSAII (Michael W. Deem and Ramdas Pophale) SiO2 
 PCOD8042134
Probable space group: P -1
;
_chemical_formula_sum "Si O2"
_cell_formula_units_Z 16
_cell_length_a 16.189525
_cell_length_b 10.377888
_cell_length_c 5.128149
_cell_angle_alpha 85.944892
_cell_angle_beta 84.394694
_cell_angle_gamma 75.718007
_cell_volume 830.003120
_symmetry_space_group_name_H-M "P -1"
_symmetry_group_IT_number 2
_symmetry_cell_setting 'triclinic'
loop_
_space_group_symop_operation_xyz
x,y,z
-x,-y,-z
loop_
_atom_site_type_symbol
_atom_site_label
_atom_site_fract_x
_atom_site_fract_y
_atom_site_fract_z
Si Si1 0.118424 0.573416 0.418079
Si Si2 0.048510 0.386307 0.811771
Si Si3 0.645807 0.742151 0.035016
Si Si4 0.411306 0.103010 0.469308
Si Si5 0.249787 0.700213 0.568521
Si Si6 0.282407 0.548649 0.088921
Si Si7 0.814459 0.841326 0.964050
Si Si8 0.757689 0.995854 0.456747
O O1 0.114105 0.439843 0.597907
O O2 0.154119 0.675468 0.575727
O O3 0.186202 0.525998 0.165655
O O4 0.025034 0.652251 0.336846
O O5 0.095949 0.261179 0.986639
O O6 0.000000 0.500000 0.000000
O O7 0.602554 0.782198 0.322774
O O8 0.740615 0.763138 0.008431
O O9 0.587038 0.829814 0.821375
O O10 0.651938 0.588129 0.992044
O O11 0.500000 0.000000 0.500000
O O12 0.337955 0.022938 0.509701
O O13 0.309954 0.610441 0.340318
O O14 0.246650 0.852569 0.499916
O O15 0.285669 0.655165 0.848153
O O16 0.799389 0.957959 0.167322
O O17 0.816986 0.904614 0.668994
#
# Coordination Sequence:
#
# PCOD8042134 Si02
#       8
#     2   2   2   2   2   2   2   2
#     4   9  22  32  57  81 109 147 184 231 286 320
#     4  11  21  35  55  83 116 139 184 243 290 315
#     4  10  19  34  58  86 112 137 190 227 276 322
#     4  10  21  36  59  86 116 145 174 228 285 329
#     4  10  20  37  57  78 111 149 196 217 276 328
#     4  10  20  35  60  83 107 146 192 237 264 323
#     4  10  22  34  56  82 109 145 188 229 274 324
#     4  10  22  39  57  81 110 151 187 221 266 350
#
# _framework density 19.277035999999999
#
# number of rings (size 3 to 8) (size 9 to 14) (size 15 to 20)
#    0.750    1.250    0.000    4.125    8.750    0.000 
#    0.000    1.250    0.000    4.500    0.000    0.000 
#    0.000    0.000    0.000    0.000    0.000    0.000 
#
# Total GULP energy -198355.444831 kJ/mol
# GULP energy per Si atom -12397.215302 kJ/mol
# Density = 1.923316 g / cm^3
# Si number density = 19.277036 Si / 1000 Ang^3
#
#
#
# Elastic Constant Matrix: (Units=GPa)
#
#
# Indices 1 2 3 4 5 6 
#
# 1 42.8834 34.2876 19.9566 -9.5528 9.1815 -8.3708
# 2 34.2876 111.6456 23.8417 -0.6478 8.2095 -3.3611
# 3 19.9566 23.8417 105.7552 -3.4936 5.6468 -2.2457
# 4 -9.5528 -0.6478 -3.4936 35.8635 -4.2814 6.1679
# 5 9.1815 8.2095 5.6468 -4.2814 20.9461 -3.4743
# 6 -8.3708 -3.3611 -2.2457 6.1679 -3.4743 22.1102
#
#
#
# Elastic Compliance Matrix: (Units=1/GPa)
#
#
# Indices 1 2 3 4 5 6 
#
# 1 0.038474 -0.009965 -0.004111 0.007011 -0.008878 0.009283
# 2 -0.009965 0.012225 -0.000938 -0.002377 -0.000903 -0.001488
# 3 -0.004111 -0.000938 0.010467 -0.000059 -0.000788 -0.000743
# 4 0.007011 -0.002377 -0.000059 0.031102 0.003256 -0.005877
# 5 -0.008878 -0.000903 -0.000788 0.003256 0.053516 0.003922
# 6 0.009283 -0.001488 -0.000743 -0.005877 0.003922 0.050696
#
#
# Mechanical properties :
#
#
# Convention : Reuss Voigt Hill
#
# Bulk Modulus (GPa) = 32.11320 46.27288 39.19304
# Shear Modulus (GPa) = 21.10699 27.93054 24.51876
#
# Velocity S-wave (km/s) = 3.31256 3.81057 3.57026
# Velocity P-wave (km/s) = 5.59694 6.58915 6.11321
#
# Compressibility (1/GPa) = 0.03113984
#
# Stress axis : x y z
#
# Youngs Moduli (GPa) = 25.99127 81.79744 95.53592
#
# Poissons Ratio (x) = 0.81512 0.39275
# Poissons Ratio (y) = 0.25900 0.08957
# Poissons Ratio (z) = 0.10685 0.07669
#
# Static dielectric constant tensor:
#      x y z
#    x 3.221850 -0.048470 0.091900 
#    y -0.048470 3.290640 0.031260 
#    z 0.091900 0.031260 3.879690 
# 
# 
# High freq. dielectric constant tensor:
#      x y z
#    x 1.707960 -0.004740 0.005890 
#    y -0.004740 1.741040 0.002800 
#    z 0.005890 0.002800 1.773600 
# 
# From -- ./inp_files/105178.got.cif
#   From: 2010.06.25/outbox.cif.g09.slc.cpg/sg2_53_cif.got.tgz:105178.got - 2010.06.27 13:26:56.
