data_PCOD8042920
_publ_section_title
;
Structure prediction by ZEFSAII (Michael W. Deem and Ramdas Pophale) SiO2 
 PCOD8042920
Probable space group: P -1
;
_chemical_formula_sum "Si O2"
_cell_formula_units_Z 16
_cell_length_a 18.158481
_cell_length_b 12.475875
_cell_length_c 9.561298
_cell_angle_alpha 133.811771
_cell_angle_beta 102.668240
_cell_angle_gamma 39.750218
_cell_volume 734.474652
_symmetry_space_group_name_H-M "P -1"
_symmetry_group_IT_number 2
_symmetry_cell_setting 'triclinic'
loop_
_space_group_symop_operation_xyz
x,y,z
-x,-y,-z
loop_
_atom_site_type_symbol
_atom_site_label
_atom_site_fract_x
_atom_site_fract_y
_atom_site_fract_z
Si Si1 0.336081 0.313465 0.421695
Si Si2 0.500510 0.583584 0.933269
Si Si3 0.957064 0.631729 0.752839
Si Si4 0.711575 0.280524 0.144305
Si Si5 0.202006 0.788438 0.199864
Si Si6 0.141747 0.495194 0.267198
Si Si7 0.677561 0.727215 0.119272
Si Si8 0.721328 0.798343 0.476158
O O1 0.330267 0.501844 0.588666
O O2 0.259837 0.384778 0.313163
O O3 0.241211 0.412907 0.606135
O O4 0.518040 0.949506 0.179084
O O5 0.382552 0.924864 0.211305
O O6 0.500000 0.500000 0.000000
O O7 0.435499 0.581641 0.787545
O O8 0.678390 0.331593 0.752777
O O9 0.869837 0.654757 0.824230
O O10 0.000000 0.500000 0.500000
O O11 0.119858 0.394546 0.680490
O O12 0.853020 0.958077 0.993283
O O13 0.759787 0.237423 0.967490
O O14 0.223269 0.578206 0.049238
O O15 0.026316 0.137069 0.475450
O O16 0.212423 0.372857 0.031215
O O17 0.629868 0.916076 0.401173
#
# Coordination Sequence:
#
# PCOD8042920 Si02
#       8
#     2   2   2   2   2   2   2   2
#     4  12  24  44  71  98 131 178 226 274 324 394
#     4  10  19  35  64  99 128 162 220 274 320 379
#     4  12  22  43  68  97 135 176 219 272 331 390
#     4  11  22  39  70 104 126 169 232 276 322 386
#     4  11  21  40  68  99 130 173 218 277 331 387
#     4  12  27  45  67  97 140 179 216 270 342 399
#     4  12  26  43  67 103 137 173 220 274 337 395
#     4  12  22  41  72  97 130 173 225 276 319 391
#
# _framework density 21.784279000000002
#
# number of rings (size 3 to 8) (size 9 to 14) (size 15 to 20)
#    0.000    0.500    6.250    3.375    1.750    1.500 
#    0.000    0.625    0.000    0.000    0.000    0.000 
#    0.000    0.000    0.000    0.000    0.000    0.000 
#
# Total GULP energy -198393.722594 kJ/mol
# GULP energy per Si atom -12399.607662 kJ/mol
# Density = 2.173470 g / cm^3
# Si number density = 21.784279 Si / 1000 Ang^3
#
#
#
# Elastic Constant Matrix: (Units=GPa)
#
#
# Indices 1 2 3 4 5 6 
#
# 1 127.0473 48.5632 34.5653 0.0349 5.1234 4.4362
# 2 48.5632 93.3130 34.8982 20.3042 3.6919 -9.4610
# 3 34.5653 34.8982 55.6127 8.8855 7.5164 9.8519
# 4 0.0349 20.3042 8.8855 34.9288 3.0679 0.0478
# 5 5.1234 3.6919 7.5164 3.0679 31.9449 5.0658
# 6 4.4362 -9.4610 9.8519 0.0478 5.0658 41.3488
#
#
#
# Elastic Compliance Matrix: (Units=1/GPa)
#
#
# Indices 1 2 3 4 5 6 
#
# 1 0.011016 -0.005310 -0.003860 0.004096 -0.000411 -0.001431
# 2 -0.005310 0.019433 -0.008746 -0.009113 0.000419 0.007059
# 3 -0.003860 -0.008746 0.028009 -0.001715 -0.003555 -0.007823
# 4 0.004096 -0.009113 -0.001715 0.034557 -0.002220 -0.001884
# 5 -0.000411 0.000419 -0.003555 -0.002220 0.032853 -0.003035
# 6 -0.001431 0.007059 -0.007823 -0.001884 -0.003035 0.028191
#
#
# Mechanical properties :
#
#
# Convention : Reuss Voigt Hill
#
# Bulk Modulus (GPa) = 44.19462 56.89183 50.54322
# Shear Modulus (GPa) = 25.32522 32.17426 28.74974
#
# Velocity S-wave (km/s) = 3.41331 3.84728 3.63677
# Velocity P-wave (km/s) = 5.98880 6.77555 6.39429
#
# Compressibility (1/GPa) = 0.02262719
#
# Stress axis : x y z
#
# Youngs Moduli (GPa) = 90.77409 51.45999 35.70254
#
# Poissons Ratio (x) = 0.27323 0.13783
# Poissons Ratio (y) = 0.48197 0.31224
# Poissons Ratio (z) = 0.35043 0.45004
#
# Static dielectric constant tensor:
#      x y z
#    x 4.581360 -0.359170 0.062780 
#    y -0.359170 4.121060 0.227300 
#    z 0.062780 0.227300 3.505160 
# 
# 
# High freq. dielectric constant tensor:
#      x y z
#    x 1.875300 -0.007520 0.010380 
#    y -0.007520 1.858080 0.026000 
#    z 0.010380 0.026000 1.821400 
# 
# From -- ./inp_files/333782.got.cif
#   From: 2010.06.25/outbox.cif.g09.slc.cpg/sg2_167_cif.got.tgz:333782.got - 2010.06.27 13:26:56.
