data_PCOD8042171
_publ_section_title
;
Structure prediction by ZEFSAII (Michael W. Deem and Ramdas Pophale) SiO2 
 PCOD8042171
Probable space group: P -1
;
_chemical_formula_sum "Si O2"
_cell_formula_units_Z 14
_cell_length_a 8.910198
_cell_length_b 9.203249
_cell_length_c 11.233487
_cell_angle_alpha 100.418791
_cell_angle_beta 121.401016
_cell_angle_gamma 99.388603
_cell_volume 736.064290
_symmetry_space_group_name_H-M "P -1"
_symmetry_group_IT_number 2
_symmetry_cell_setting 'triclinic'
loop_
_space_group_symop_operation_xyz
x,y,z
-x,-y,-z
loop_
_atom_site_type_symbol
_atom_site_label
_atom_site_fract_x
_atom_site_fract_y
_atom_site_fract_z
Si Si1 0.291664 0.840839 0.591209
Si Si2 0.281747 0.017846 0.846576
Si Si3 0.018328 0.494398 0.864147
Si Si4 0.363256 0.599979 0.433449
Si Si5 0.329557 0.797525 0.016634
Si Si6 0.394054 0.873897 0.322884
Si Si7 0.030260 0.832070 0.292423
O O1 0.307605 0.891454 0.742198
O O2 0.330436 0.676458 0.558236
O O3 0.086956 0.823420 0.453113
O O4 0.436267 0.969871 0.587942
O O5 0.460842 0.171774 0.941329
O O6 0.258533 0.934476 0.952192
O O7 0.101360 0.062869 0.751725
O O8 0.831079 0.501920 0.721238
O O9 0.065719 0.338432 0.825894
O O10 0.188613 0.631158 0.900322
O O11 0.000000 0.500000 0.000000
O O12 0.500000 0.500000 0.500000
O O13 0.451708 0.741143 0.399610
O O14 0.331396 0.805217 0.158559
O O15 0.216550 0.911643 0.308192
#
# Coordination Sequence:
#
# PCOD8042171 Si02
#       7
#     2   2   2   2   2   2   2
#     4   9  19  38  57  79 120 148 181 241 285 330
#     4  10  22  36  55  84 117 148 195 225 281 345
#     4  10  19  39  58  82 118 146 184 241 287 327
#     4  10  20  35  59  91 109 141 196 236 282 333
#     4  10  20  39  54  80 119 155 182 238 281 335
#     4   9  18  36  59  80 114 147 192 238 282 319
#     4  10  19  34  59  85 107 150 197 229 286 337
#
# _framework density 19.020078000000002
#
# number of rings (size 3 to 8) (size 9 to 14) (size 15 to 20)
#    0.000    2.571    2.857    2.143    0.000    3.429 
#    7.714    5.714    0.000    0.000    0.000    0.000 
#    0.000    0.000    0.000    0.000    0.000    0.000 
#
# Total GULP energy -173455.641708 kJ/mol
# GULP energy per Si atom -12389.688693 kJ/mol
# Density = 1.897679 g / cm^3
# Si number density = 19.020078 Si / 1000 Ang^3
#
#
#
# Elastic Constant Matrix: (Units=GPa)
#
#
# Indices 1 2 3 4 5 6 
#
# 1 68.6562 52.8930 32.6229 -6.2959 11.2038 -17.7216
# 2 52.8930 76.5282 55.5783 -0.2319 5.1527 -12.7493
# 3 32.6229 55.5783 90.2041 9.2809 11.7073 -8.3916
# 4 -6.2959 -0.2319 9.2809 36.2393 -0.0455 11.6208
# 5 11.2038 5.1527 11.7073 -0.0455 22.2589 -7.1997
# 6 -17.7216 -12.7493 -8.3916 11.6208 -7.1997 37.3152
#
#
#
# Elastic Compliance Matrix: (Units=1/GPa)
#
#
# Indices 1 2 3 4 5 6 
#
# 1 0.037657 -0.028380 0.005881 0.002917 -0.013534 0.005991
# 2 -0.028380 0.046503 -0.020245 0.000411 0.014328 0.000494
# 3 0.005881 -0.020245 0.023403 -0.005378 -0.010328 0.000821
# 4 0.002917 0.000411 -0.005378 0.032773 -0.001991 -0.010274
# 5 -0.013534 0.014328 -0.010328 -0.001991 0.056318 0.007631
# 6 0.005991 0.000494 0.000821 -0.010274 0.007631 0.034669
#
#
# Mechanical properties :
#
#
# Convention : Reuss Voigt Hill
#
# Bulk Modulus (GPa) = 45.29855 57.50854 51.40354
# Shear Modulus (GPa) = 15.42400 25.44896 20.43648
#
# Velocity S-wave (km/s) = 2.85078 3.66184 3.28147
# Velocity P-wave (km/s) = 5.89099 6.94119 6.43754
#
# Compressibility (1/GPa) = 0.02207576
#
# Stress axis : x y z
#
# Youngs Moduli (GPa) = 26.55534 21.50377 42.72961
#
# Poissons Ratio (x) = 0.61027 -0.25128
# Poissons Ratio (y) = 0.75363 0.86506
# Poissons Ratio (z) = -0.15616 0.43534
#
# Static dielectric constant tensor:
#      x y z
#    x 3.277860 0.173420 0.031780 
#    y 0.173420 3.345390 0.174940 
#    z 0.031780 0.174940 3.779850 
# 
# 
# High freq. dielectric constant tensor:
#      x y z
#    x 1.718400 0.010520 0.002450 
#    y 0.010520 1.721830 0.010950 
#    z 0.002450 0.010950 1.766700 
# 
# From -- ./inp_files/213865.got.cif
#   From: 2010.06.25/outbox.cif.g09.slc.cpg/sg2_107_cif.got.tgz:213865.got - 2010.06.27 13:26:56.
