data_PCOD8042175
_publ_section_title
;
Structure prediction by ZEFSAII (Michael W. Deem and Ramdas Pophale) SiO2 
 PCOD8042175
Probable space group: P -1
;
_chemical_formula_sum "Si O2"
_cell_formula_units_Z 16
_cell_length_a 8.004217
_cell_length_b 16.051847
_cell_length_c 8.247364
_cell_angle_alpha 128.952463
_cell_angle_beta 98.265576
_cell_angle_gamma 101.001543
_cell_volume 759.095878
_symmetry_space_group_name_H-M "P -1"
_symmetry_group_IT_number 2
_symmetry_cell_setting 'triclinic'
loop_
_space_group_symop_operation_xyz
x,y,z
-x,-y,-z
loop_
_atom_site_type_symbol
_atom_site_label
_atom_site_fract_x
_atom_site_fract_y
_atom_site_fract_z
Si Si1 0.347096 0.481955 0.699512
Si Si2 0.265108 0.407118 0.232475
Si Si3 0.602892 0.954131 0.308611
Si Si4 0.889287 0.979736 0.623427
Si Si5 0.914158 0.415194 0.029773
Si Si6 0.799084 0.840617 0.969806
Si Si7 0.699624 0.762130 0.502977
Si Si8 0.383986 0.809456 0.351309
O O1 0.303496 0.467568 0.485971
O O2 0.567899 0.540017 0.807581
O O3 0.240825 0.555869 0.856381
O O4 0.281391 0.361363 0.640001
O O5 0.083023 0.423703 0.174727
O O6 0.233036 0.273360 0.072479
O O7 0.698390 0.915896 0.130995
O O8 0.425756 0.846480 0.210682
O O9 0.697912 0.981511 0.537591
O O10 0.596367 0.076223 0.400566
O O11 0.986310 0.078799 0.891916
O O12 0.863086 0.853408 0.535414
O O13 0.000000 0.000000 0.500000
O O14 0.818843 0.285673 0.789778
O O15 0.000000 0.500000 0.000000
O O16 0.716796 0.813563 0.748237
O O17 0.508864 0.748693 0.379833
#
# Coordination Sequence:
#
# PCOD8042175 Si02
#       8
#     2   2   2   2   2   2   2   2
#     4  10  23  43  63  87 122 159 201 251 300 354
#     4  10  22  42  65  88 119 160 202 247 302 359
#     4   9  19  35  57  80 111 156 192 241 300 351
#     4   9  18  33  54  79 110 145 188 236 288 350
#     4  12  25  38  61  92 121 159 203 247 298 355
#     4  10  19  34  59  86 112 152 200 244 300 355
#     4  10  21  36  56  83 117 156 196 246 298 350
#     4  10  21  37  53  81 118 151 199 242 289 358
#
# _framework density 21.077705999999999
#
# number of rings (size 3 to 8) (size 9 to 14) (size 15 to 20)
#    0.000    2.000    0.000    3.000    0.000    7.500 
#    0.000    1.250    0.000    0.000    0.000    0.000 
#    0.000    0.000    0.000    0.000    0.000    0.000 
#
# Total GULP energy -198224.436154 kJ/mol
# GULP energy per Si atom -12389.027260 kJ/mol
# Density = 2.102973 g / cm^3
# Si number density = 21.077706 Si / 1000 Ang^3
#
#
#
# Elastic Constant Matrix: (Units=GPa)
#
#
# Indices 1 2 3 4 5 6 
#
# 1 99.7519 43.5302 37.8776 7.5201 -2.5658 5.2275
# 2 43.5302 116.4183 36.8014 13.8856 7.5122 14.7789
# 3 37.8776 36.8014 67.4894 15.4286 7.7234 1.4654
# 4 7.5201 13.8856 15.4286 28.3253 2.7210 10.0663
# 5 -2.5658 7.5122 7.7234 2.7210 40.1266 8.3691
# 6 5.2275 14.7789 1.4654 10.0663 8.3691 34.2477
#
#
#
# Elastic Compliance Matrix: (Units=1/GPa)
#
#
# Indices 1 2 3 4 5 6 
#
# 1 0.014102 -0.003309 -0.006869 0.001948 0.003077 -0.001755
# 2 -0.003309 0.011822 -0.004144 -0.001208 -0.000735 -0.003884
# 3 -0.006869 -0.004144 0.023831 -0.010861 -0.004803 0.006183
# 4 0.001948 -0.001208 -0.010861 0.045817 0.002107 -0.013293
# 5 0.003077 -0.000735 -0.004803 0.002107 0.027560 -0.007301
# 6 -0.001755 -0.003884 0.006183 -0.013293 -0.007301 0.036570
#
#
# Mechanical properties :
#
#
# Convention : Reuss Voigt Hill
#
# Bulk Modulus (GPa) = 47.37486 57.78644 52.58065
# Shear Modulus (GPa) = 25.59079 31.56994 28.58037
#
# Velocity S-wave (km/s) = 3.48820 3.87433 3.68632
# Velocity P-wave (km/s) = 6.22483 6.89125 6.56650
#
# Compressibility (1/GPa) = 0.02110824
#
# Stress axis : x y z
#
# Youngs Moduli (GPa) = 70.91344 84.58892 41.96290
#
# Poissons Ratio (x) = 0.27995 0.28825
# Poissons Ratio (y) = 0.23469 0.17391
# Poissons Ratio (z) = 0.48712 0.35056
#
# Static dielectric constant tensor:
#      x y z
#    x 5.025670 -0.015490 1.210570 
#    y -0.015490 3.961500 0.110800 
#    z 1.210570 0.110800 4.548560 
# 
# 
# High freq. dielectric constant tensor:
#      x y z
#    x 1.822580 0.005230 0.013580 
#    y 0.005230 1.835430 0.015570 
#    z 0.013580 0.015570 1.822290 
# 
# From -- ./inp_files/204443.got.cif
#   From: 2010.06.25/outbox.cif.g09.slc.cpg/sg2_103_cif.got.tgz:204443.got - 2010.06.27 13:26:56.
