data_PCOD8042272
_publ_section_title
;
Structure prediction by ZEFSAII (Michael W. Deem and Ramdas Pophale) SiO2 
 PCOD8042272
Probable space group: P -1
;
_chemical_formula_sum "Si O2"
_cell_formula_units_Z 16
_cell_length_a 8.001957
_cell_length_b 23.716747
_cell_length_c 12.296932
_cell_angle_alpha 148.456259
_cell_angle_beta 129.504104
_cell_angle_gamma 40.394473
_cell_volume 790.612422
_symmetry_space_group_name_H-M "P -1"
_symmetry_group_IT_number 2
_symmetry_cell_setting 'triclinic'
loop_
_space_group_symop_operation_xyz
x,y,z
-x,-y,-z
loop_
_atom_site_type_symbol
_atom_site_label
_atom_site_fract_x
_atom_site_fract_y
_atom_site_fract_z
Si Si1 0.802460 0.319832 0.608142
Si Si2 0.499983 0.060160 0.298935
Si Si3 0.569268 0.433438 0.035459
Si Si4 0.025989 0.183843 0.858917
Si Si5 0.260710 0.845531 0.112775
Si Si6 0.103351 0.887755 0.530200
Si Si7 0.051329 0.864614 0.832517
Si Si8 0.664200 0.725910 0.248503
O O1 0.535827 0.459044 0.736126
O O2 0.820877 0.244323 0.600480
O O3 0.805246 0.242917 0.377789
O O4 0.026674 0.349953 0.749353
O O5 0.661913 0.089836 0.330520
O O6 0.229821 0.106174 0.205432
O O7 0.446579 0.137869 0.515674
O O8 0.662229 0.905593 0.142606
O O9 0.500000 0.500000 0.000000
O O10 0.883007 0.335312 0.016991
O O11 0.432850 0.353341 0.857674
O O12 0.902824 0.182711 0.919411
O O13 0.962809 0.112542 0.623572
O O14 0.557716 0.760260 0.136300
O O15 0.142582 0.998377 0.318739
O O16 0.239325 0.805132 0.916067
O O17 0.000000 0.000000 0.000000
#
# Coordination Sequence:
#
# PCOD8042272 Si02
#       8
#     2   2   2   2   2   2   2   2
#     4  11  23  36  58  88 122 149 190 239 288 344
#     4  10  19  36  62  86 114 148 192 238 293 333
#     4  11  20  36  60  87 119 149 197 238 284 335
#     4  10  19  34  61  91 112 145 197 245 283 330
#     4  10  19  36  58  87 118 150 190 236 292 341
#     4  11  17  34  60  87 112 146 191 244 282 335
#     4  11  24  39  54  88 122 154 187 234 295 350
#     4  10  20  36  60  89 117 150 190 240 295 334
#
# _framework density 20.237476999999998
#
# number of rings (size 3 to 8) (size 9 to 14) (size 15 to 20)
#    0.000    1.500    6.250    1.125    0.000    3.500 
#    0.000    2.500    0.000    0.750    0.000    0.000 
#    0.000    0.000    0.000    0.000    0.000    0.000 
#
# Total GULP energy -198264.282243 kJ/mol
# GULP energy per Si atom -12391.517640 kJ/mol
# Density = 2.019142 g / cm^3
# Si number density = 20.237477 Si / 1000 Ang^3
#
#
#
# Elastic Constant Matrix: (Units=GPa)
#
#
# Indices 1 2 3 4 5 6 
#
# 1 51.1649 20.8018 24.6743 -1.2238 -0.9586 4.8742
# 2 20.8018 96.2451 51.4353 6.5120 -10.0912 8.2596
# 3 24.6743 51.4353 100.2236 2.2859 -19.0253 -3.4278
# 4 -1.2238 6.5120 2.2859 43.4875 -1.3894 -9.5419
# 5 -0.9586 -10.0912 -19.0253 -1.3894 30.2631 4.7517
# 6 4.8742 8.2596 -3.4278 -9.5419 4.7517 27.2657
#
#
#
# Elastic Compliance Matrix: (Units=1/GPa)
#
#
# Indices 1 2 3 4 5 6 
#
# 1 0.023271 -0.002251 -0.005221 0.000408 -0.002725 -0.003517
# 2 -0.002251 0.015828 -0.007450 -0.003488 0.001430 -0.006799
# 3 -0.005221 -0.007450 0.016561 0.001311 0.007117 0.004491
# 4 0.000408 -0.003488 0.001311 0.025689 -0.000759 0.010271
# 5 -0.002725 0.001430 0.007117 -0.000759 0.038829 -0.006084
# 6 -0.003517 -0.006799 0.004491 0.010271 -0.006084 0.044584
#
#
# Mechanical properties :
#
#
# Convention : Reuss Voigt Hill
#
# Bulk Modulus (GPa) = 38.73546 49.05071 43.89309
# Shear Modulus (GPa) = 24.60499 30.25140 27.42820
#
# Velocity S-wave (km/s) = 3.49063 3.87049 3.68546
# Velocity P-wave (km/s) = 5.95215 6.65315 6.31239
#
# Compressibility (1/GPa) = 0.02581614
#
# Stress axis : x y z
#
# Youngs Moduli (GPa) = 42.97138 63.18112 60.38255
#
# Poissons Ratio (x) = 0.14223 0.31524
# Poissons Ratio (y) = 0.09673 0.44985
# Poissons Ratio (z) = 0.22434 0.47070
#
# Static dielectric constant tensor:
#      x y z
#    x 3.669900 -0.193770 -0.127580 
#    y -0.193770 3.911480 0.235940 
#    z -0.127580 0.235940 3.668850 
# 
# 
# High freq. dielectric constant tensor:
#      x y z
#    x 1.780260 0.002960 -0.016500 
#    y 0.002960 1.783120 0.014090 
#    z -0.016500 0.014090 1.772350 
# 
# From -- ./inp_files/171435.got.cif
#   From: 2010.06.25/outbox.cif.g09.slc.cpg/sg2_86_cif.got.tgz:171435.got - 2010.06.27 13:26:56.
