data_PCOD8042390
_publ_section_title
;
Structure prediction by ZEFSAII (Michael W. Deem and Ramdas Pophale) SiO2 
 PCOD8042390
Probable space group: P -1
;
_chemical_formula_sum "Si O2"
_cell_formula_units_Z 16
_cell_length_a 11.484698
_cell_length_b 11.762405
_cell_length_c 19.313404
_cell_angle_alpha 152.774662
_cell_angle_beta 58.167730
_cell_angle_gamma 129.184551
_cell_volume 920.813096
_symmetry_space_group_name_H-M "P -1"
_symmetry_group_IT_number 2
_symmetry_cell_setting 'triclinic'
loop_
_space_group_symop_operation_xyz
x,y,z
-x,-y,-z
loop_
_atom_site_type_symbol
_atom_site_label
_atom_site_fract_x
_atom_site_fract_y
_atom_site_fract_z
Si Si1 0.527697 0.714257 0.047787
Si Si2 0.302255 0.453827 0.593757
Si Si3 0.852441 0.173034 0.177424
Si Si4 0.581304 0.735246 0.894131
Si Si5 0.093129 0.043045 0.098116
Si Si6 0.131760 0.739309 0.048233
Si Si7 0.367354 0.079917 0.274173
Si Si8 0.331777 0.640104 0.824720
O O1 0.413369 0.855159 0.173428
O O2 0.703872 0.906782 0.097778
O O3 0.500000 0.500000 0.000000
O O4 0.496963 0.586018 0.910283
O O5 0.189092 0.569930 0.658064
O O6 0.257614 0.404670 0.662530
O O7 0.479213 0.663966 0.656135
O O8 0.279241 0.177422 0.411978
O O9 0.978043 0.182257 0.198378
O O10 0.913775 0.162052 0.074395
O O11 0.738413 0.710849 0.819409
O O12 0.476476 0.606632 0.791719
O O13 0.618406 0.061159 0.065493
O O14 0.059662 0.885737 0.097158
O O15 0.254582 0.959881 0.179752
O O16 0.216012 0.595330 0.898833
O O17 0.000000 0.500000 0.000000
#
# Coordination Sequence:
#
# PCOD8042390 Si02
#       8
#     2   2   2   2   2   2   2   2
#     4  10  18  29  48  74 108 132 163 211 255 302
#     4  10  17  33  57  76 105 127 173 219 254 300
#     4   9  17  30  48  77  98 135 167 214 255 301
#     4   9  15  28  51  77  93 127 179 213 245 289
#     4   9  17  29  49  73 101 127 181 208 254 291
#     4  11  21  32  50  76 107 136 174 211 251 303
#     4  10  20  33  51  83 101 133 172 212 258 299
#     4  10  15  31  54  71  98 129 176 219 242 292
#
# _framework density 17.375945999999999
#
# number of rings (size 3 to 8) (size 9 to 14) (size 15 to 20)
#    0.000    2.250    6.250    1.500    1.750    0.000 
#    0.000    1.250    0.000    0.750    0.000    0.000 
#    0.000    0.000    0.000    0.000    0.000    0.000 
#
# Total GULP energy -198235.577540 kJ/mol
# GULP energy per Si atom -12389.723596 kJ/mol
# Density = 1.733640 g / cm^3
# Si number density = 17.375946 Si / 1000 Ang^3
#
#
#
# Elastic Constant Matrix: (Units=GPa)
#
#
# Indices 1 2 3 4 5 6 
#
# 1 157.1070 46.0147 47.5505 -11.3472 -8.7476 -9.6806
# 2 46.0147 99.4864 39.0355 -9.4279 -1.5345 -20.7417
# 3 47.5505 39.0355 70.8212 -22.4533 -5.3689 -5.4994
# 4 -11.3472 -9.4279 -22.4533 21.3935 -1.5660 -2.1804
# 5 -8.7476 -1.5345 -5.3689 -1.5660 17.2280 -2.8636
# 6 -9.6806 -20.7417 -5.4994 -2.1804 -2.8636 26.9690
#
#
#
# Elastic Compliance Matrix: (Units=1/GPa)
#
#
# Indices 1 2 3 4 5 6 
#
# 1 0.008481 -0.001991 -0.004636 -0.000966 0.002726 0.000779
# 2 -0.001991 0.015592 -0.006468 0.000044 0.000022 0.009964
# 3 -0.004636 -0.006468 0.030538 0.027733 0.009581 0.002848
# 4 -0.000966 0.000044 0.027733 0.078014 0.017493 0.013507
# 5 0.002726 0.000022 0.009581 0.017493 0.065895 0.011361
# 6 0.000779 0.009964 0.002848 0.013507 0.011361 0.047902
#
#
# Mechanical properties :
#
#
# Convention : Reuss Voigt Hill
#
# Bulk Modulus (GPa) = 35.18483 65.84623 50.51553
# Shear Modulus (GPa) = 17.72500 26.10569 21.91535
#
# Velocity S-wave (km/s) = 3.19735 3.88029 3.55526
# Velocity P-wave (km/s) = 5.82442 7.61924 6.78147
#
# Compressibility (1/GPa) = 0.02842134
#
# Stress axis : x y z
#
# Youngs Moduli (GPa) = 117.90453 64.13439 32.74603
#
# Poissons Ratio (x) = 0.12767 0.15182
# Poissons Ratio (y) = 0.23471 0.21181
# Poissons Ratio (z) = 0.54664 0.41484
#
# Static dielectric constant tensor:
#      x y z
#    x 3.573770 0.026820 -0.047080 
#    y 0.026820 3.173960 -0.341150 
#    z -0.047080 -0.341150 2.925110 
# 
# 
# High freq. dielectric constant tensor:
#      x y z
#    x 1.693200 -0.002780 -0.000940 
#    y -0.002780 1.657440 -0.031440 
#    z -0.000940 -0.031440 1.612400 
# 
# From -- ./inp_files/594581.got.cif
#   From: 2010.06.25/outbox.cif.g09.slc.cpg/sg2_298_cif.got.tgz:594581.got - 2010.06.27 13:26:56.
