data_PCOD8042033
_publ_section_title
;
Structure prediction by ZEFSAII (Michael W. Deem and Ramdas Pophale) SiO2 
 PCOD8042033
Probable space group: P -1
;
_chemical_formula_sum "Si O2"
_cell_formula_units_Z 16
_cell_length_a 11.854263
_cell_length_b 11.514051
_cell_length_c 9.496809
_cell_angle_alpha 77.100445
_cell_angle_beta 80.977992
_cell_angle_gamma 38.164543
_cell_volume 780.375191
_symmetry_space_group_name_H-M "P -1"
_symmetry_group_IT_number 2
_symmetry_cell_setting 'triclinic'
loop_
_space_group_symop_operation_xyz
x,y,z
-x,-y,-z
loop_
_atom_site_type_symbol
_atom_site_label
_atom_site_fract_x
_atom_site_fract_y
_atom_site_fract_z
Si Si1 0.752044 0.535425 0.221534
Si Si2 0.318579 0.203529 0.042766
Si Si3 0.853881 0.859970 0.746486
Si Si4 0.552067 0.478554 0.155994
Si Si5 0.801272 0.074036 0.166041
Si Si6 0.461581 0.910328 0.714799
Si Si7 0.820595 0.137394 0.823414
Si Si8 0.485052 0.156054 0.586482
O O1 0.668728 0.503773 0.143596
O O2 0.616646 0.665267 0.344461
O O3 0.946367 0.335146 0.299840
O O4 0.776838 0.633862 0.096262
O O5 0.185373 0.201764 0.103340
O O6 0.375512 0.231162 0.164318
O O7 0.500000 0.000000 0.000000
O O8 0.852713 0.995426 0.762726
O O9 0.702001 0.972140 0.624955
O O10 0.676713 0.264770 0.234228
O O11 0.366286 0.640919 0.241494
O O12 0.500000 0.500000 0.000000
O O13 0.720270 0.008387 0.217574
O O14 0.798245 0.114340 0.994057
O O15 0.010642 0.909969 0.221896
O O16 0.538634 0.790848 0.586886
O O17 0.397935 0.097796 0.650750
#
# Coordination Sequence:
#
# PCOD8042033 Si02
#       8
#     2   2   2   2   2   2   2   2
#     4  12  21  37  64  90 120 156 203 249 301 353
#     4  11  19  37  63  91 117 154 196 253 301 347
#     4  11  21  36  60  90 122 154 203 243 303 354
#     4  10  19  34  56  87 120 154 190 246 301 346
#     4  10  20  35  57  87 119 151 198 245 300 354
#     4  10  21  42  64  84 122 164 197 245 304 352
#     4  10  19  34  58  89 119 152 194 249 300 350
#     4  10  23  42  62  84 124 163 197 248 299 354
#
# _framework density 20.502958
#
# number of rings (size 3 to 8) (size 9 to 14) (size 15 to 20)
#    0.000    1.500    5.000    2.625    0.000    0.000 
#    0.000    9.375    0.000    0.000    0.000    0.000 
#    0.000    0.000    0.000    0.000    0.000    0.000 
#
# Total GULP energy -198351.414500 kJ/mol
# GULP energy per Si atom -12396.963406 kJ/mol
# Density = 2.045629 g / cm^3
# Si number density = 20.502958 Si / 1000 Ang^3
#
#
#
# Elastic Constant Matrix: (Units=GPa)
#
#
# Indices 1 2 3 4 5 6 
#
# 1 101.9713 21.0011 14.1240 9.4035 -2.5771 -9.3277
# 2 21.0011 122.3491 23.7114 8.1495 8.8779 -20.9007
# 3 14.1240 23.7114 67.4497 13.2422 15.3469 -3.1229
# 4 9.4035 8.1495 13.2422 13.9748 2.7013 2.2629
# 5 -2.5771 8.8779 15.3469 2.7013 24.1382 6.2659
# 6 -9.3277 -20.9007 -3.1229 2.2629 6.2659 31.6811
#
#
#
# Elastic Compliance Matrix: (Units=1/GPa)
#
#
# Indices 1 2 3 4 5 6 
#
# 1 0.011066 -0.000982 -0.001061 -0.006725 0.002313 0.002528
# 2 -0.000982 0.010568 -0.001115 -0.004793 -0.004787 0.007862
# 3 -0.001061 -0.001115 0.022170 -0.017923 -0.013092 0.005007
# 4 -0.006725 -0.004793 -0.017923 0.097227 0.005434 -0.014928
# 5 0.002313 -0.004787 -0.013092 0.005434 0.055057 -0.015045
# 6 0.002528 0.007862 0.005007 -0.014928 -0.015045 0.042031
#
#
# Mechanical properties :
#
#
# Convention : Reuss Voigt Hill
#
# Bulk Modulus (GPa) = 26.67619 45.49368 36.08494
# Shear Modulus (GPa) = 19.46060 29.48774 24.47417
#
# Velocity S-wave (km/s) = 3.08419 3.79650 3.45873
# Velocity P-wave (km/s) = 5.07170 6.43855 5.79556
#
# Compressibility (1/GPa) = 0.03748661
#
# Stress axis : x y z
#
# Youngs Moduli (GPa) = 90.36906 94.62896 45.10688
#
# Poissons Ratio (x) = 0.09291 0.04786
# Poissons Ratio (y) = 0.08872 0.05030
# Poissons Ratio (z) = 0.09589 0.10553
#
# Static dielectric constant tensor:
#      x y z
#    x 3.937840 -0.080560 0.118890 
#    y -0.080560 4.040400 0.142240 
#    z 0.118890 0.142240 3.567500 
# 
# 
# High freq. dielectric constant tensor:
#      x y z
#    x 1.814520 0.000210 0.009650 
#    y 0.000210 1.795020 0.014770 
#    z 0.009650 0.014770 1.766560 
# 
# From -- ./inp_files/258022.got.cif
#   From: 2010.06.25/outbox.cif.g09.slc.cpg/sg2_130_cif.got.tgz:258022.got - 2010.06.27 13:26:56.
