data_PCOD8042957
_publ_section_title
;
Structure prediction by ZEFSAII (Michael W. Deem and Ramdas Pophale) SiO2 
 PCOD8042957
Probable space group: P -1
;
_chemical_formula_sum "Si O2"
_cell_formula_units_Z 14
_cell_length_a 20.288192
_cell_length_b 14.699417
_cell_length_c 9.227359
_cell_angle_alpha 37.905598
_cell_angle_beta 150.989459
_cell_angle_gamma 151.126846
_cell_volume 641.247252
_symmetry_space_group_name_H-M "P -1"
_symmetry_group_IT_number 2
_symmetry_cell_setting 'triclinic'
loop_
_space_group_symop_operation_xyz
x,y,z
-x,-y,-z
loop_
_atom_site_type_symbol
_atom_site_label
_atom_site_fract_x
_atom_site_fract_y
_atom_site_fract_z
Si Si1 0.251920 0.641559 0.672755
Si Si2 0.070649 0.036310 0.249696
Si Si3 0.273224 0.569744 0.245623
Si Si4 0.018982 0.328353 0.820140
Si Si5 0.970330 0.821120 0.596123
Si Si6 0.181025 0.688109 0.166159
Si Si7 0.471549 0.308391 0.662276
O O1 0.112818 0.419801 0.731037
O O2 0.265620 0.663251 0.498529
O O3 0.179330 0.748693 0.464218
O O4 0.436868 0.727248 0.991212
O O5 0.271752 0.129417 0.511095
O O6 0.968963 0.844924 0.388991
O O7 0.037977 0.170853 0.098444
O O8 0.000000 0.000000 0.000000
O O9 0.303977 0.730789 0.211147
O O10 0.453920 0.672960 0.378481
O O11 0.211803 0.380213 0.455556
O O12 0.119663 0.494247 0.927972
O O13 0.140600 0.832624 0.943293
O O14 0.000000 0.000000 0.500000
O O15 0.000000 0.500000 0.000000
O O16 0.500000 0.500000 0.500000
#
# Coordination Sequence:
#
# PCOD8042957 Si02
#       7
#     2   2   2   2   2   2   2
#     4  10  19  35  67  90 123 162 222 262 308 379
#     4  12  26  41  63  94 132 171 213 266 335 386
#     4  10  20  38  67  92 127 164 227 257 315 378
#     4  10  19  37  63  93 120 175 213 256 322 390
#     4  11  20  39  63  94 131 170 205 266 330 388
#     4  10  20  34  61 100 127 164 219 264 313 385
#     4  11  22  43  64  93 129 172 220 269 317 383
#
# _framework density 21.832450999999999
#
# number of rings (size 3 to 8) (size 9 to 14) (size 15 to 20)
#    0.000    1.429    7.143    0.000    4.000    0.000 
#    0.000    7.857    0.000    0.000    0.000    0.000 
#    0.000    0.000    0.000    0.000    0.000    0.000 
#
# Total GULP energy -173443.751613 kJ/mol
# GULP energy per Si atom -12388.839401 kJ/mol
# Density = 2.178276 g / cm^3
# Si number density = 21.832451 Si / 1000 Ang^3
#
#
#
# Elastic Constant Matrix: (Units=GPa)
#
#
# Indices 1 2 3 4 5 6 
#
# 1 131.8091 24.6617 62.3522 -7.8950 -4.2977 -8.5943
# 2 24.6617 39.4991 33.3656 -7.0838 2.8744 1.3613
# 3 62.3522 33.3656 156.3254 -0.9231 -7.1903 6.7954
# 4 -7.8950 -7.0838 -0.9231 33.6602 3.8249 -0.5493
# 5 -4.2977 2.8744 -7.1903 3.8249 49.0334 -7.7462
# 6 -8.5943 1.3613 6.7954 -0.5493 -7.7462 28.6246
#
#
#
# Elastic Compliance Matrix: (Units=1/GPa)
#
#
# Indices 1 2 3 4 5 6 
#
# 1 0.010309 -0.003435 -0.003509 0.001538 0.001172 0.004438
# 2 -0.003435 0.034041 -0.005946 0.006617 -0.004033 -0.002203
# 3 -0.003509 -0.005946 0.009222 -0.001993 0.001123 -0.002694
# 4 0.001538 0.006617 -0.001993 0.031750 -0.002954 0.000430
# 5 0.001172 -0.004033 0.001123 -0.002954 0.022108 0.006203
# 6 0.004438 -0.002203 -0.002694 0.000430 0.006203 0.038699
#
#
# Mechanical properties :
#
#
# Convention : Reuss Voigt Hill
#
# Bulk Modulus (GPa) = 35.98082 63.15474 49.56778
# Shear Modulus (GPa) = 27.59797 36.08060 31.83929
#
# Velocity S-wave (km/s) = 3.55925 4.06964 3.82297
# Velocity P-wave (km/s) = 5.77990 7.14650 6.49922
#
# Compressibility (1/GPa) = 0.02779258
#
# Stress axis : x y z
#
# Youngs Moduli (GPa) = 97.00391 29.37666 108.43072
#
# Poissons Ratio (x) = 0.10091 0.38044
# Poissons Ratio (y) = 0.33321 0.64474
# Poissons Ratio (z) = 0.34035 0.17468
#
# Static dielectric constant tensor:
#      x y z
#    x 4.933740 -0.060750 0.261700 
#    y -0.060750 3.648550 -0.430430 
#    z 0.261700 -0.430430 4.257510 
# 
# 
# High freq. dielectric constant tensor:
#      x y z
#    x 1.881570 0.001630 -0.007260 
#    y 0.001630 1.804820 -0.029060 
#    z -0.007260 -0.029060 1.860500 
# 
# From -- ./inp_files/285482.got.cif
#   From: 2010.06.25/outbox.cif.g09.slc.cpg/sg2_143_cif.got.tgz:285482.got - 2010.06.27 13:26:56.
