data_PCOD8042111
_publ_section_title
;
Structure prediction by ZEFSAII (Michael W. Deem and Ramdas Pophale) SiO2 
 PCOD8042111
Probable space group: P -1
;
_chemical_formula_sum "Si O2"
_cell_formula_units_Z 12
_cell_length_a 11.976541
_cell_length_b 7.928396
_cell_length_c 11.652976
_cell_angle_alpha 132.257277
_cell_angle_beta 72.536845
_cell_angle_gamma 134.880548
_cell_volume 547.266348
_symmetry_space_group_name_H-M "P -1"
_symmetry_group_IT_number 2
_symmetry_cell_setting 'triclinic'
loop_
_space_group_symop_operation_xyz
x,y,z
-x,-y,-z
loop_
_atom_site_type_symbol
_atom_site_label
_atom_site_fract_x
_atom_site_fract_y
_atom_site_fract_z
Si Si1 0.163240 0.994549 0.628186
Si Si2 0.169279 0.345958 0.991811
Si Si3 0.184101 0.827307 0.137462
Si Si4 0.803744 0.348130 0.370270
Si Si5 0.808407 0.997475 0.016097
Si Si6 0.682368 0.660751 0.493871
O O1 0.245480 0.885369 0.614143
O O2 0.994129 0.689193 0.478746
O O3 0.121408 0.127798 0.796710
O O4 0.283469 0.269389 0.620524
O O5 0.272864 0.334939 0.045968
O O6 0.277425 0.719558 0.093650
O O7 0.004802 0.216458 0.044862
O O8 0.182351 0.998233 0.322489
O O9 0.277139 0.079547 0.116788
O O10 0.000000 0.500000 0.000000
O O11 0.782803 0.187733 0.184310
O O12 0.688699 0.411616 0.425044
O O13 0.500000 0.500000 0.500000
#
# Coordination Sequence:
#
# PCOD8042111 Si02
#       6
#     2   2   2   2   2   2
#     4  10  20  37  63  90 117 155 205 252 292 350
#     4   9  17  31  55  86 112 138 185 248 298 334
#     4  10  19  34  58  81 108 151 197 239 279 340
#     4  10  20  37  63  90 117 155 205 252 292 350
#     4   9  17  31  55  86 112 138 185 248 298 334
#     4  12  26  40  57  87 129 165 193 241 306 362
#
# _framework density 21.927168000000002
#
# number of rings (size 3 to 8) (size 9 to 14) (size 15 to 20)
#    0.000    2.000    0.000    5.500    0.000    4.667 
#    0.000    3.333    0.000    4.000    0.000    0.000 
#    0.000    0.000    0.000    0.000    0.000    0.000 
#
# Total GULP energy -148689.837328 kJ/mol
# GULP energy per Si atom -12390.819777 kJ/mol
# Density = 2.187726 g / cm^3
# Si number density = 21.927168 Si / 1000 Ang^3
#
#
#
# Elastic Constant Matrix: (Units=GPa)
#
#
# Indices 1 2 3 4 5 6 
#
# 1 125.0999 55.6302 48.8903 -2.4357 -29.7691 -41.6383
# 2 55.6302 59.1765 22.4061 -11.2452 -3.6312 -36.9333
# 3 48.8903 22.4061 106.1762 -3.7476 -20.3672 -25.4100
# 4 -2.4357 -11.2452 -3.7476 23.9952 -11.6824 -1.9467
# 5 -29.7691 -3.6312 -20.3672 -11.6824 34.1578 5.6761
# 6 -41.6383 -36.9333 -25.4100 -1.9467 5.6761 53.6046
#
#
#
# Elastic Compliance Matrix: (Units=1/GPa)
#
#
# Indices 1 2 3 4 5 6 
#
# 1 0.020012 -0.015039 -0.002599 0.001843 0.014510 0.002481
# 2 -0.015039 0.049925 0.002757 0.023167 -0.002406 0.025119
# 3 -0.002599 0.002757 0.013000 0.007047 0.007271 0.005529
# 4 0.001843 0.023167 0.007047 0.069409 0.028650 0.020221
# 5 0.014510 -0.002406 0.007271 0.028650 0.054415 0.008339
# 6 0.002481 0.025119 0.005529 0.020221 0.008339 0.040361
#
#
# Mechanical properties :
#
#
# Convention : Reuss Voigt Hill
#
# Bulk Modulus (GPa) = 18.80601 60.47842 39.64221
# Shear Modulus (GPa) = 16.97173 33.25327 25.11250
#
# Velocity S-wave (km/s) = 2.78511 3.89849 3.38785
# Velocity P-wave (km/s) = 4.35174 6.92140 5.78115
#
# Compressibility (1/GPa) = 0.05317449
#
# Stress axis : x y z
#
# Youngs Moduli (GPa) = 49.97125 20.03019 76.92380
#
# Poissons Ratio (x) = 0.30124 0.19990
# Poissons Ratio (y) = 0.75153 -0.21209
# Poissons Ratio (z) = 0.12986 -0.05523
#
# Static dielectric constant tensor:
#      x y z
#    x 4.589110 -1.442900 -0.193310 
#    y -1.442900 4.585580 0.027860 
#    z -0.193310 0.027860 4.084280 
# 
# 
# High freq. dielectric constant tensor:
#      x y z
#    x 1.852560 -0.060100 -0.013430 
#    y -0.060100 1.838050 -0.010560 
#    z -0.013430 -0.010560 1.870670 
# 
# From -- ./inp_files/154887.got.cif
#   From: 2010.06.25/outbox.cif.g09.slc.cpg/sg2_78_cif.got.tgz:154887.got - 2010.06.27 13:26:56.
