data_PCOD8042613
_publ_section_title
;
Structure prediction by ZEFSAII (Michael W. Deem and Ramdas Pophale) SiO2 
 PCOD8042613
Probable space group: P -1
;
_chemical_formula_sum "Si O2"
_cell_formula_units_Z 16
_cell_length_a 15.943404
_cell_length_b 13.233213
_cell_length_c 13.854669
_cell_angle_alpha 50.788811
_cell_angle_beta 24.605172
_cell_angle_gamma 40.521334
_cell_volume 771.757084
_symmetry_space_group_name_H-M "P -1"
_symmetry_group_IT_number 2
_symmetry_cell_setting 'triclinic'
loop_
_space_group_symop_operation_xyz
x,y,z
-x,-y,-z
loop_
_atom_site_type_symbol
_atom_site_label
_atom_site_fract_x
_atom_site_fract_y
_atom_site_fract_z
Si Si1 0.010094 0.142314 0.505020
Si Si2 0.669510 0.318500 0.402048
Si Si3 0.701912 0.153206 0.113234
Si Si4 0.568418 0.061831 0.663206
Si Si5 0.218833 0.642933 0.221690
Si Si6 0.943639 0.197920 0.003138
Si Si7 0.201433 0.227062 0.542712
Si Si8 0.896989 0.895243 0.782610
O O1 0.841029 0.317032 0.626935
O O2 0.082948 0.169945 0.307194
O O3 0.851212 0.067718 0.714125
O O4 0.257843 0.029038 0.373204
O O5 0.500000 0.500000 0.500000
O O6 0.535321 0.228884 0.575593
O O7 0.800912 0.320236 0.165708
O O8 0.847824 0.228394 0.358734
O O9 0.744755 0.187512 0.156769
O O10 0.413709 0.253824 0.325734
O O11 0.831000 0.199823 0.873330
O O12 0.843961 0.964767 0.068012
O O13 0.674038 0.950213 0.524719
O O14 0.310299 0.095038 0.942519
O O15 0.008451 0.632983 0.394257
O O16 0.500000 0.500000 0.000000
O O17 0.077266 0.249984 0.762395
#
# Coordination Sequence:
#
# PCOD8042613 Si02
#       8
#     2   2   2   2   2   2   2   2
#     4   9  19  36  57  82 106 139 183 227 271 314
#     4  11  24  38  52  77 115 151 180 217 269 326
#     4  10  19  35  59  84 108 138 180 230 275 316
#     4  10  19  36  60  85 106 135 184 229 271 322
#     4  10  21  35  52  80 117 145 173 217 271 330
#     4  10  20  36  57  82 108 139 183 230 272 317
#     4  10  20  35  61  86 105 138 182 229 276 322
#     4  10  20  36  59  78 105 144 184 228 266 313
#
# _framework density 20.731911
#
# number of rings (size 3 to 8) (size 9 to 14) (size 15 to 20)
#    0.000    2.000    0.000    6.000    0.000    4.000 
#    0.000    1.250    0.000    0.000    0.000    0.000 
#    0.000    0.000    0.000    0.000    0.000    0.000 
#
# Total GULP energy -198311.422605 kJ/mol
# GULP energy per Si atom -12394.463913 kJ/mol
# Density = 2.068472 g / cm^3
# Si number density = 20.731911 Si / 1000 Ang^3
#
#
#
# Elastic Constant Matrix: (Units=GPa)
#
#
# Indices 1 2 3 4 5 6 
#
# 1 90.5576 7.6134 37.4214 12.1353 8.9370 -4.8009
# 2 7.6134 40.9372 22.5473 12.6359 8.2165 4.1853
# 3 37.4214 22.5473 108.2816 8.4895 3.9357 0.8735
# 4 12.1353 12.6359 8.4895 34.4090 -0.4023 0.8571
# 5 8.9370 8.2165 3.9357 -0.4023 53.1428 4.4115
# 6 -4.8009 4.1853 0.8735 0.8571 4.4115 15.8021
#
#
#
# Elastic Compliance Matrix: (Units=1/GPa)
#
#
# Indices 1 2 3 4 5 6 
#
# 1 0.014012 0.001380 -0.004726 -0.004442 -0.002680 0.005142
# 2 0.001380 0.032380 -0.006169 -0.010757 -0.004364 -0.006014
# 3 -0.004726 -0.006169 0.012048 0.000990 0.000929 -0.000781
# 4 -0.004442 -0.010757 0.000990 0.034395 0.002695 -0.001173
# 5 -0.002680 -0.004364 0.000929 0.002695 0.020354 -0.005538
# 6 0.005142 -0.006014 -0.000781 -0.001173 -0.005538 0.068091
#
#
# Mechanical properties :
#
#
# Convention : Reuss Voigt Hill
#
# Bulk Modulus (GPa) = 25.37381 41.66004 33.51692
# Shear Modulus (GPa) = 23.42529 32.15041 27.78785
#
# Velocity S-wave (km/s) = 3.36507 3.94225 3.66504
# Velocity P-wave (km/s) = 5.23104 6.39219 5.84054
#
# Compressibility (1/GPa) = 0.03941072
#
# Stress axis : x y z
#
# Youngs Moduli (GPa) = 71.36853 30.88369 83.00284
#
# Poissons Ratio (x) = -0.04263 0.39224
# Poissons Ratio (y) = -0.09851 0.51203
# Poissons Ratio (z) = 0.33726 0.19052
#
# Static dielectric constant tensor:
#      x y z
#    x 4.044840 -0.004270 -0.032900 
#    y -0.004270 3.411630 -0.055380 
#    z -0.032900 -0.055380 3.794590 
# 
# 
# High freq. dielectric constant tensor:
#      x y z
#    x 1.826630 -0.004490 0.001190 
#    y -0.004490 1.769910 -0.000240 
#    z 0.001190 -0.000240 1.817520 
# 
# From -- ./inp_files/538886.got.cif
#   From: 2010.06.25/outbox.cif.g09.slc.cpg/sg2_270_cif.got.tgz:538886.got - 2010.06.27 13:26:56.
