data_PCOD8042616
_publ_section_title
;
Structure prediction by ZEFSAII (Michael W. Deem and Ramdas Pophale) SiO2 
 PCOD8042616
Probable space group: P -1
;
_chemical_formula_sum "Si O2"
_cell_formula_units_Z 12
_cell_length_a 8.535655
_cell_length_b 7.054245
_cell_length_c 21.276129
_cell_angle_alpha 48.368028
_cell_angle_beta 134.470420
_cell_angle_gamma 102.373722
_cell_volume 602.834339
_symmetry_space_group_name_H-M "P -1"
_symmetry_group_IT_number 2
_symmetry_cell_setting 'triclinic'
loop_
_space_group_symop_operation_xyz
x,y,z
-x,-y,-z
loop_
_atom_site_type_symbol
_atom_site_label
_atom_site_fract_x
_atom_site_fract_y
_atom_site_fract_z
Si Si1 0.189234 0.335240 0.172498
Si Si2 0.501137 0.642885 0.215168
Si Si3 0.116120 0.707293 0.497238
Si Si4 0.649126 0.755580 0.899309
Si Si5 0.737124 0.953207 0.616414
Si Si6 0.783099 0.320070 0.252114
O O1 0.267096 0.585166 0.151052
O O2 0.303373 0.176400 0.173851
O O3 0.295256 0.089004 0.309972
O O4 0.891074 0.483902 0.054479
O O5 0.663023 0.423727 0.362585
O O6 0.661734 0.580992 0.209813
O O7 0.412850 0.969774 0.135896
O O8 0.000000 0.500000 0.500000
O O9 0.221574 0.767656 0.447345
O O10 0.897115 0.017616 0.390251
O O11 0.423878 0.676161 0.855370
O O12 0.989427 0.670675 0.724298
O O13 0.500000 0.000000 0.500000
#
# Coordination Sequence:
#
# PCOD8042616 Si02
#       6
#     2   2   2   2   2   2
#     4  10  21  38  59  85 119 153 195 245 287 342
#     4  11  18  37  59  83 115 156 198 232 289 357
#     4  10  19  35  59  84 113 153 197 232 288 352
#     4  10  21  37  60  86 114 159 199 230 290 360
#     4  10  20  38  59  88 118 152 191 251 296 331
#     4   9  21  34  58  85 114 155 191 235 294 343
#
# _framework density 19.905964999999998
#
# number of rings (size 3 to 8) (size 9 to 14) (size 15 to 20)
#    1.000    1.000    3.333    1.000    0.000    0.667 
#    0.000    5.000    0.000    0.000    0.000    0.000 
#    0.000    0.000    0.000    0.000    0.000    0.000 
#
# Total GULP energy -148695.006031 kJ/mol
# GULP energy per Si atom -12391.250503 kJ/mol
# Density = 1.986066 g / cm^3
# Si number density = 19.905965 Si / 1000 Ang^3
#
#
#
# Elastic Constant Matrix: (Units=GPa)
#
#
# Indices 1 2 3 4 5 6 
#
# 1 90.6129 29.9594 22.7920 11.1837 10.0889 1.7503
# 2 29.9594 98.1940 6.9292 -3.4422 2.7830 -5.0546
# 3 22.7920 6.9292 73.7297 20.9352 17.3186 3.8239
# 4 11.1837 -3.4422 20.9352 23.1403 -1.6142 1.5586
# 5 10.0889 2.7830 17.3186 -1.6142 42.4224 1.1984
# 6 1.7503 -5.0546 3.8239 1.5586 1.1984 20.2928
#
#
#
# Elastic Compliance Matrix: (Units=1/GPa)
#
#
# Indices 1 2 3 4 5 6 
#
# 1 0.013921 -0.004356 -0.001462 -0.006143 -0.002623 -0.001384
# 2 -0.004356 0.011952 -0.001684 0.005264 0.001049 0.003204
# 3 -0.001462 -0.001684 0.022191 -0.020108 -0.009299 -0.002381
# 4 -0.006143 0.005264 -0.020108 0.065994 0.011840 -0.000138
# 5 -0.002623 0.001049 -0.009299 0.011840 0.028384 -0.000346
# 6 -0.001384 0.003204 -0.002381 -0.000138 -0.000346 0.050676
#
#
# Mechanical properties :
#
#
# Convention : Reuss Voigt Hill
#
# Bulk Modulus (GPa) = 30.24888 42.43309 36.34098
# Shear Modulus (GPa) = 22.81642 30.69483 26.75563
#
# Velocity S-wave (km/s) = 3.38925 3.93108 3.67018
# Velocity P-wave (km/s) = 5.52674 6.47824 6.02131
#
# Compressibility (1/GPa) = 0.03305908
#
# Stress axis : x y z
#
# Youngs Moduli (GPa) = 71.83398 83.67064 45.06423
#
# Poissons Ratio (x) = 0.36451 0.06587
# Poissons Ratio (y) = 0.31294 0.07588
# Poissons Ratio (z) = 0.10500 0.14089
#
# Static dielectric constant tensor:
#      x y z
#    x 3.596540 -0.064190 0.272560 
#    y -0.064190 3.474320 0.314340 
#    z 0.272560 0.314340 3.815220 
# 
# 
# High freq. dielectric constant tensor:
#      x y z
#    x 1.768440 -0.001580 0.023670 
#    y -0.001580 1.750870 0.017530 
#    z 0.023670 0.017530 1.784180 
# 
# From -- ./inp_files/59001.got.cif
#   From: 2010.06.25/outbox.cif.g09.slc.cpg/sg2_30_cif.got.tgz:59001.got - 2010.06.27 13:26:56.
