data_PCOD8042083
_publ_section_title
;
Structure prediction by ZEFSAII (Michael W. Deem and Ramdas Pophale) SiO2 
 PCOD8042083
Probable space group: P -1
;
_chemical_formula_sum "Si O2"
_cell_formula_units_Z 14
_cell_length_a 14.371417
_cell_length_b 8.252086
_cell_length_c 11.956103
_cell_angle_alpha 91.221950
_cell_angle_beta 149.084442
_cell_angle_gamma 78.745983
_cell_volume 683.791211
_symmetry_space_group_name_H-M "P -1"
_symmetry_group_IT_number 2
_symmetry_cell_setting 'triclinic'
loop_
_space_group_symop_operation_xyz
x,y,z
-x,-y,-z
loop_
_atom_site_type_symbol
_atom_site_label
_atom_site_fract_x
_atom_site_fract_y
_atom_site_fract_z
Si Si1 0.144207 0.317380 0.684745
Si Si2 0.929627 0.284064 0.850731
Si Si3 0.257294 0.112435 0.580607
Si Si4 0.516570 0.751596 0.805423
Si Si5 0.468098 0.691056 0.507938
Si Si6 0.094925 0.830726 0.408550
Si Si7 0.778035 0.694794 0.678400
O O1 0.265228 0.210359 0.704375
O O2 0.000000 0.500000 0.500000
O O3 0.017996 0.211831 0.605544
O O4 0.298654 0.347696 0.930021
O O5 0.760614 0.210451 0.713093
O O6 0.010074 0.197225 0.813550
O O7 0.852141 0.489342 0.757733
O O8 0.089609 0.226892 0.110313
O O9 0.217217 0.250857 0.442876
O O10 0.462593 0.959513 0.768263
O O11 0.086421 0.029774 0.409655
O O12 0.573154 0.693457 0.735076
O O13 0.323952 0.707204 0.641086
O O14 0.500000 0.500000 0.500000
O O15 0.563473 0.774843 0.512217
#
# Coordination Sequence:
#
# PCOD8042083 Si02
#       7
#     2   2   2   2   2   2   2
#     4  12  23  40  66  84 110 157 203 238 289 347
#     4   9  18  36  57  84 117 154 186 245 275 342
#     4  10  23  40  57  88 122 154 191 240 293 348
#     4   9  22  41  59  85 120 151 190 242 295 337
#     4   9  18  35  59  83 115 151 186 234 284 341
#     4   9  21  40  59  82 122 147 194 242 294 336
#     4  10  19  34  57  85 120 149 196 229 288 338
#
# _framework density 20.474087000000001
#
# number of rings (size 3 to 8) (size 9 to 14) (size 15 to 20)
#    0.857    1.429    0.000    2.571    0.000    4.000 
#    2.571    0.000    0.000    0.000    0.000    0.000 
#    0.000    0.000    0.000    0.000    0.000    0.000 
#
# Total GULP energy -173508.925064 kJ/mol
# GULP energy per Si atom -12393.494647 kJ/mol
# Density = 2.042749 g / cm^3
# Si number density = 20.474087 Si / 1000 Ang^3
#
#
#
# Elastic Constant Matrix: (Units=GPa)
#
#
# Indices 1 2 3 4 5 6 
#
# 1 134.2410 29.7163 31.9396 11.9550 -14.1518 9.3570
# 2 29.7163 51.1970 14.5642 11.0266 -7.7027 -14.5510
# 3 31.9396 14.5642 66.8562 20.2213 -2.9061 8.6979
# 4 11.9550 11.0266 20.2213 27.1474 -6.3207 -2.6818
# 5 -14.1518 -7.7027 -2.9061 -6.3207 22.4070 8.4603
# 6 9.3570 -14.5510 8.6979 -2.6818 8.4603 38.5442
#
#
#
# Elastic Compliance Matrix: (Units=1/GPa)
#
#
# Indices 1 2 3 4 5 6 
#
# 1 0.010480 -0.006035 -0.003012 0.001056 0.006529 -0.005502
# 2 -0.006035 0.028718 -0.003472 -0.005324 -0.000757 0.012886
# 3 -0.003012 -0.003472 0.022432 -0.015074 -0.002085 -0.006233
# 4 0.001056 -0.005324 -0.015074 0.052510 0.010779 0.002423
# 5 0.006529 -0.000757 -0.002085 0.010779 0.056163 -0.012978
# 6 -0.005502 0.012886 -0.006233 0.002423 -0.012978 0.036568
#
#
# Mechanical properties :
#
#
# Convention : Reuss Voigt Hill
#
# Bulk Modulus (GPa) = 27.32787 44.97050 36.14918
# Shear Modulus (GPa) = 20.48302 29.35800 24.92051
#
# Velocity S-wave (km/s) = 3.16640 3.79081 3.49259
# Velocity P-wave (km/s) = 5.17152 6.41659 5.82740
#
# Compressibility (1/GPa) = 0.03659268
#
# Stress axis : x y z
#
# Youngs Moduli (GPa) = 95.42436 34.82127 44.57937
#
# Poissons Ratio (x) = 0.21014 0.13425
# Poissons Ratio (y) = 0.57588 0.15478
# Poissons Ratio (z) = 0.28738 0.12090
#
# Static dielectric constant tensor:
#      x y z
#    x 4.022100 -0.069140 0.202170 
#    y -0.069140 3.483400 0.282240 
#    z 0.202170 0.282240 3.618400 
# 
# 
# High freq. dielectric constant tensor:
#      x y z
#    x 1.809580 -0.010810 -0.000620 
#    y -0.010810 1.784530 0.025260 
#    z -0.000620 0.025260 1.783670 
# 
# From -- ./inp_files/355233.got.cif
#   From: 2010.06.25/outbox.cif.g09.slc.cpg/sg2_178_cif.got.tgz:355233.got - 2010.06.27 13:26:56.
