data_PCOD8042722
_publ_section_title
;
Structure prediction by ZEFSAII (Michael W. Deem and Ramdas Pophale) SiO2 
 PCOD8042722
Probable space group: P -1
;
_chemical_formula_sum "Si O2"
_cell_formula_units_Z 16
_cell_length_a 15.149069
_cell_length_b 21.199527
_cell_length_c 12.014432
_cell_angle_alpha 31.717286
_cell_angle_beta 130.808914
_cell_angle_gamma 153.779950
_cell_volume 790.221854
_symmetry_space_group_name_H-M "P -1"
_symmetry_group_IT_number 2
_symmetry_cell_setting 'triclinic'
loop_
_space_group_symop_operation_xyz
x,y,z
-x,-y,-z
loop_
_atom_site_type_symbol
_atom_site_label
_atom_site_fract_x
_atom_site_fract_y
_atom_site_fract_z
Si Si1 0.789018 0.984456 0.330921
Si Si2 0.129834 0.185718 0.458503
Si Si3 0.747255 0.192297 0.869518
Si Si4 0.663592 0.498617 0.219901
Si Si5 0.242464 0.258510 0.682096
Si Si6 0.952513 0.317921 0.630988
Si Si7 0.536111 0.643036 0.966931
Si Si8 0.863356 0.048761 0.795454
O O1 0.921815 0.089029 0.399626
O O2 0.902775 0.981076 0.354654
O O3 0.524104 0.729992 0.513779
O O4 0.841667 0.157714 0.059486
O O5 0.100625 0.156573 0.608625
O O6 0.366034 0.447115 0.216314
O O7 0.911786 0.446885 0.652955
O O8 0.749404 0.176859 0.759719
O O9 0.500000 0.000000 0.000000
O O10 0.895278 0.639380 0.234622
O O11 0.602804 0.422778 0.152704
O O12 0.679441 0.655205 0.022027
O O13 0.500000 0.500000 0.500000
O O14 0.130066 0.253942 0.683021
O O15 0.217319 0.104040 0.939969
O O16 0.852150 0.171979 0.653608
O O17 0.702062 0.886399 0.798310
#
# Coordination Sequence:
#
# PCOD8042722 Si02
#       8
#     2   2   2   2   2   2   2   2
#     4  10  20  35  62  89 121 153 204 255 302 359
#     4  10  20  35  58  94 123 157 191 246 314 368
#     4  11  23  43  64  89 117 162 214 262 300 361
#     4  10  19  35  60  90 124 162 202 245 305 369
#     4  11  21  34  56  86 128 165 194 236 306 373
#     4  11  24  39  64  90 117 162 212 259 307 357
#     4  10  20  35  57  92 131 162 194 246 310 372
#     4  11  23  37  57  90 131 162 200 253 309 367
#
# _framework density 20.247475999999999
#
# number of rings (size 3 to 8) (size 9 to 14) (size 15 to 20)
#    0.000    1.500    2.500    3.750    1.750    5.000 
#    0.000    0.000    0.000    9.750    0.000    0.000 
#    0.000    0.000    0.000    0.000    0.000    0.000 
#
# Total GULP energy -198323.573682 kJ/mol
# GULP energy per Si atom -12395.223355 kJ/mol
# Density = 2.020139 g / cm^3
# Si number density = 20.247476 Si / 1000 Ang^3
#
#
#
# Elastic Constant Matrix: (Units=GPa)
#
#
# Indices 1 2 3 4 5 6 
#
# 1 96.9100 39.5581 44.4096 -18.4245 -0.5843 -14.1517
# 2 39.5581 88.5736 37.3446 -7.1798 4.2080 -15.6575
# 3 44.4096 37.3446 88.9424 4.7379 7.7511 -12.1753
# 4 -18.4245 -7.1798 4.7379 29.8729 0.2655 -0.9342
# 5 -0.5843 4.2080 7.7511 0.2655 35.1196 -6.3516
# 6 -14.1517 -15.6575 -12.1753 -0.9342 -6.3516 38.2795
#
#
#
# Elastic Compliance Matrix: (Units=1/GPa)
#
#
# Indices 1 2 3 4 5 6 
#
# 1 0.018131 -0.003240 -0.008092 0.011773 0.003037 0.003595
# 2 -0.003240 0.015515 -0.004498 0.002563 -0.000264 0.003736
# 3 -0.008092 -0.004498 0.017961 -0.008887 -0.003477 0.000087
# 4 0.011773 0.002563 -0.008887 0.042867 0.002248 0.003993
# 5 0.003037 -0.000264 -0.003477 0.002248 0.030207 0.004976
# 6 0.003595 0.003736 0.000087 0.003993 0.004976 0.029932
#
#
# Mechanical properties :
#
#
# Convention : Reuss Voigt Hill
#
# Bulk Modulus (GPa) = 50.13815 57.45005 53.79410
# Shear Modulus (GPa) = 25.91717 30.86198 28.38958
#
# Velocity S-wave (km/s) = 3.58162 3.90838 3.74856
# Velocity P-wave (km/s) = 6.47460 6.98590 6.73510
#
# Compressibility (1/GPa) = 0.01994489
#
# Stress axis : x y z
#
# Youngs Moduli (GPa) = 55.15275 64.45565 55.67649
#
# Poissons Ratio (x) = 0.20885 0.45055
# Poissons Ratio (y) = 0.17871 0.25045
# Poissons Ratio (z) = 0.44632 0.28995
#
# Static dielectric constant tensor:
#      x y z
#    x 3.692250 0.021110 -0.045450 
#    y 0.021110 3.381870 -0.256160 
#    z -0.045450 -0.256160 3.471030 
# 
# 
# High freq. dielectric constant tensor:
#      x y z
#    x 1.783690 -0.000260 -0.029410 
#    y -0.000260 1.778610 -0.005530 
#    z -0.029410 -0.005530 1.792760 
# 
# From -- ./inp_files/432318.got.cif
#   From: 2010.06.25/outbox.cif.g09.slc.cpg/sg2_217_cif.got.tgz:432318.got - 2010.06.27 13:26:56.
