data_PCOD8042363
_publ_section_title
;
Structure prediction by ZEFSAII (Michael W. Deem and Ramdas Pophale) SiO2 
 PCOD8042363
Probable space group: P -1
;
_chemical_formula_sum "Si O2"
_cell_formula_units_Z 16
_cell_length_a 11.585142
_cell_length_b 14.907387
_cell_length_c 14.848789
_cell_angle_alpha 39.695654
_cell_angle_beta 138.995725
_cell_angle_gamma 150.818613
_cell_volume 769.823825
_symmetry_space_group_name_H-M "P -1"
_symmetry_group_IT_number 2
_symmetry_cell_setting 'triclinic'
loop_
_space_group_symop_operation_xyz
x,y,z
-x,-y,-z
loop_
_atom_site_type_symbol
_atom_site_label
_atom_site_fract_x
_atom_site_fract_y
_atom_site_fract_z
Si Si1 0.474209 0.548747 0.585746
Si Si2 0.750199 0.963219 0.494204
Si Si3 0.435129 0.038425 0.290879
Si Si4 0.145194 0.396265 0.343444
Si Si5 0.780229 0.890144 0.756215
Si Si6 0.446435 0.459334 0.839735
Si Si7 0.170321 0.532004 0.869800
Si Si8 0.004608 0.189051 0.920420
O O1 0.643861 0.781849 0.508929
O O2 0.242473 0.450110 0.461983
O O3 0.636995 0.513229 0.667929
O O4 0.373313 0.447437 0.702406
O O5 0.887366 0.973609 0.654537
O O6 0.521175 0.925113 0.429043
O O7 0.935173 0.159783 0.392670
O O8 0.293973 0.000814 0.328613
O O9 0.669173 0.269033 0.245312
O O10 0.263093 0.968099 0.157879
O O11 0.034870 0.488531 0.183288
O O12 0.544149 0.655256 0.793599
O O13 0.984619 0.929753 0.908079
O O14 0.212042 0.276645 0.898963
O O15 0.663438 0.464045 0.965955
O O16 0.035530 0.356598 0.855293
#
# Coordination Sequence:
#
# PCOD8042363 Si02
#       8
#     2   2   2   2   2   2   2   2
#     4  10  22  40  56  80 101 142 186 218 269 311
#     4  10  22  36  55  80 109 139 176 224 264 314
#     4  11  20  32  53  81 111 144 175 207 261 324
#     4  10  22  39  60  75 106 139 181 230 262 310
#     4  10  19  35  51  79 113 144 173 206 264 323
#     4  10  20  36  56  77 114 142 173 219 261 316
#     4  10  20  37  54  82 109 140 175 219 268 310
#     4  11  20  34  55  79 116 143 167 217 261 320
#
# _framework density 20.783975000000002
#
# number of rings (size 3 to 8) (size 9 to 14) (size 15 to 20)
#    0.000    1.750    2.500    2.625    1.750    0.500 
#    0.000    1.875    0.000    0.000    0.000   17.500 
#    0.000    0.000    0.000    0.000    0.000    0.000 
#
# Total GULP energy -198413.329538 kJ/mol
# GULP energy per Si atom -12400.833096 kJ/mol
# Density = 2.073667 g / cm^3
# Si number density = 20.783975 Si / 1000 Ang^3
#
#
#
# Elastic Constant Matrix: (Units=GPa)
#
#
# Indices 1 2 3 4 5 6 
#
# 1 65.7540 15.4544 30.5538 -0.4143 20.5557 -11.4252
# 2 15.4544 43.4165 7.4250 7.4453 10.8220 -10.6538
# 3 30.5538 7.4250 75.5852 6.9613 14.6590 -3.8119
# 4 -0.4143 7.4453 6.9613 24.3403 -2.4986 0.4829
# 5 20.5557 10.8220 14.6590 -2.4986 30.6196 0.7604
# 6 -11.4252 -10.6538 -3.8119 0.4829 0.7604 26.3987
#
#
#
# Elastic Compliance Matrix: (Units=1/GPa)
#
#
# Indices 1 2 3 4 5 6 
#
# 1 0.024420 -0.002591 -0.006964 0.001770 -0.012219 0.008837
# 2 -0.002591 0.031577 0.001897 -0.011682 -0.011591 0.012444
# 3 -0.006964 0.001897 0.017393 -0.006180 -0.004839 0.000515
# 4 0.001770 -0.011682 -0.006180 0.047594 0.009932 -0.005997
# 5 -0.012219 -0.011591 -0.004839 0.009932 0.048389 -0.012240
# 6 0.008837 0.012444 0.000515 -0.005997 -0.012240 0.047264
#
#
# Mechanical properties :
#
#
# Convention : Reuss Voigt Hill
#
# Bulk Modulus (GPa) = 17.21987 32.40245 24.81116
# Shear Modulus (GPa) = 19.89579 25.02656 22.46117
#
# Velocity S-wave (km/s) = 3.09733 3.47382 3.29096
# Velocity P-wave (km/s) = 4.59286 5.63150 5.13849
#
# Compressibility (1/GPa) = 0.05807244
#
# Stress axis : x y z
#
# Youngs Moduli (GPa) = 40.95063 31.66906 57.49588
#
# Poissons Ratio (x) = 0.08205 0.40042
# Poissons Ratio (y) = 0.10609 -0.10906
# Poissons Ratio (z) = 0.28519 -0.06007
#
# Static dielectric constant tensor:
#      x y z
#    x 3.642540 -0.239840 0.268570 
#    y -0.239840 3.690860 0.052600 
#    z 0.268570 0.052600 3.783630 
# 
# 
# High freq. dielectric constant tensor:
#      x y z
#    x 1.796530 -0.021760 0.015410 
#    y -0.021760 1.813800 0.004870 
#    z 0.015410 0.004870 1.809930 
# 
# From -- ./inp_files/199403.got.cif
#   From: 2010.06.25/outbox.cif.g09.slc.cpg/sg2_100_cif.got.tgz:199403.got - 2010.06.27 13:26:56.
