data_PCOD8042124
_publ_section_title
;
Structure prediction by ZEFSAII (Michael W. Deem and Ramdas Pophale) SiO2 
 PCOD8042124
Probable space group: P -1
;
_chemical_formula_sum "Si O2"
_cell_formula_units_Z 16
_cell_length_a 9.605401
_cell_length_b 12.313287
_cell_length_c 11.552962
_cell_angle_alpha 91.181428
_cell_angle_beta 60.389962
_cell_angle_gamma 128.689955
_cell_volume 839.456397
_symmetry_space_group_name_H-M "P -1"
_symmetry_group_IT_number 2
_symmetry_cell_setting 'triclinic'
loop_
_space_group_symop_operation_xyz
x,y,z
-x,-y,-z
loop_
_atom_site_type_symbol
_atom_site_label
_atom_site_fract_x
_atom_site_fract_y
_atom_site_fract_z
Si Si1 0.637984 0.844760 0.326016
Si Si2 0.412094 0.053238 0.880694
Si Si3 0.150401 0.978853 0.387262
Si Si4 0.805225 0.345715 0.343946
Si Si5 0.004897 0.159899 0.794921
Si Si6 0.138891 0.680752 0.160366
Si Si7 0.358127 0.777674 0.842980
Si Si8 0.240669 0.905050 0.578281
O O1 0.569941 0.851011 0.226833
O O2 0.413648 0.723813 0.493525
O O3 0.766741 0.791938 0.258645
O O4 0.812883 0.014907 0.318840
O O5 0.649537 0.166252 0.853935
O O6 0.363244 0.911494 0.844946
O O7 0.209976 0.990284 0.049076
O O8 0.020238 0.864123 0.332265
O O9 0.199782 0.909697 0.460868
O O10 0.386605 0.144711 0.253568
O O11 0.000000 0.000000 0.500000
O O12 0.752468 0.321750 0.229343
O O13 0.899920 0.271183 0.337185
O O14 0.005734 0.528252 0.288106
O O15 0.028086 0.300560 0.807811
O O16 0.226162 0.667178 0.005629
O O17 0.500000 0.000000 0.500000
#
# Coordination Sequence:
#
# PCOD8042124 Si02
#       8
#     2   2   2   2   2   2   2   2
#     4  11  21  37  61  85 116 152 193 242 285 340
#     4  11  21  38  62  86 115 153 194 239 284 343
#     4  12  19  34  63  88 109 142 197 250 278 321
#     4  11  22  38  60  87 118 153 195 236 285 343
#     4  11  22  38  59  89 115 150 196 240 289 338
#     4  11  24  36  60  88 120 154 187 237 292 345
#     4  11  18  39  61  85 112 152 203 235 272 342
#     4  10  19  34  58  84 108 146 198 235 273 330
#
# _framework density 19.059954000000001
#
# number of rings (size 3 to 8) (size 9 to 14) (size 15 to 20)
#    0.000    1.000    7.500    2.250    0.000    1.000 
#    0.000    0.000    0.000    1.500    0.000    0.000 
#    0.000    0.000    0.000    0.000    0.000    0.000 
#
# Total GULP energy -198373.459638 kJ/mol
# GULP energy per Si atom -12398.341227 kJ/mol
# Density = 1.901657 g / cm^3
# Si number density = 19.059954 Si / 1000 Ang^3
#
#
#
# Elastic Constant Matrix: (Units=GPa)
#
#
# Indices 1 2 3 4 5 6 
#
# 1 88.3712 10.1076 47.0649 -1.4662 1.7065 -8.3879
# 2 10.1076 51.0922 35.5747 -12.7521 1.5982 -11.8146
# 3 47.0649 35.5747 120.5967 -0.2857 2.2384 -13.5462
# 4 -1.4662 -12.7521 -0.2857 32.3899 -1.1794 9.1658
# 5 1.7065 1.5982 2.2384 -1.1794 33.1417 6.7579
# 6 -8.3879 -11.8146 -13.5462 9.1658 6.7579 23.9601
#
#
#
# Elastic Compliance Matrix: (Units=1/GPa)
#
#
# Indices 1 2 3 4 5 6 
#
# 1 0.014547 0.002106 -0.005962 0.000603 -0.001000 0.002811
# 2 0.002106 0.029209 -0.008556 0.009375 -0.002095 0.007307
# 3 -0.005962 -0.008556 0.013529 -0.004508 -0.001040 0.003360
# 4 0.000603 0.009375 -0.004508 0.038538 0.003961 -0.013574
# 5 -0.001000 -0.002095 -0.001040 0.003961 0.033155 -0.012837
# 6 0.002811 0.007307 0.003360 -0.013574 -0.012837 0.057037
#
#
# Mechanical properties :
#
#
# Convention : Reuss Voigt Hill
#
# Bulk Modulus (GPa) = 30.80863 49.50605 40.15734
# Shear Modulus (GPa) = 22.55714 29.05252 25.80483
#
# Velocity S-wave (km/s) = 3.44391 3.90843 3.68350
# Velocity P-wave (km/s) = 5.65802 6.81161 6.26144
#
# Compressibility (1/GPa) = 0.03245843
#
# Stress axis : x y z
#
# Youngs Moduli (GPa) = 68.74407 34.23647 73.91470
#
# Poissons Ratio (x) = -0.07209 0.44072
# Poissons Ratio (y) = -0.14475 0.63242
# Poissons Ratio (z) = 0.40989 0.29293
#
# Static dielectric constant tensor:
#      x y z
#    x 3.722990 -0.174450 0.120000 
#    y -0.174450 3.408130 0.260320 
#    z 0.120000 0.260320 3.842580 
# 
# 
# High freq. dielectric constant tensor:
#      x y z
#    x 1.737190 -0.002650 0.010060 
#    y -0.002650 1.713350 0.020960 
#    z 0.010060 0.020960 1.750760 
# 
# From -- ./inp_files/333520.got.cif
#   From: 2010.06.25/outbox.cif.g09.slc.cpg/sg2_167_cif.got.tgz:333520.got - 2010.06.27 13:26:56.
