data_PCOD8042607
_publ_section_title
;
Structure prediction by ZEFSAII (Michael W. Deem and Ramdas Pophale) SiO2 
 PCOD8042607
Probable space group: P -1
;
_chemical_formula_sum "Si O2"
_cell_formula_units_Z 14
_cell_length_a 9.613736
_cell_length_b 9.662814
_cell_length_c 15.263711
_cell_angle_alpha 40.933485
_cell_angle_beta 125.289625
_cell_angle_gamma 97.079467
_cell_volume 614.646700
_symmetry_space_group_name_H-M "P -1"
_symmetry_group_IT_number 2
_symmetry_cell_setting 'triclinic'
loop_
_space_group_symop_operation_xyz
x,y,z
-x,-y,-z
loop_
_atom_site_type_symbol
_atom_site_label
_atom_site_fract_x
_atom_site_fract_y
_atom_site_fract_z
Si Si1 0.191733 0.240989 0.921510
Si Si2 0.763146 0.601015 0.653896
Si Si3 0.164025 0.020177 0.436347
Si Si4 0.268742 0.650216 0.805097
Si Si5 0.312057 0.978820 0.921039
Si Si6 0.648805 0.789854 0.331120
Si Si7 0.559808 0.463339 0.348279
O O1 0.234230 0.462503 0.825202
O O2 0.140818 0.172794 0.839512
O O3 0.996664 0.328798 0.872820
O O4 0.397799 0.986693 0.160364
O O5 0.758712 0.702632 0.505945
O O6 0.585257 0.559624 0.625838
O O7 0.747083 0.804571 0.619926
O O8 0.240575 0.870341 0.627537
O O9 0.260602 0.820831 0.486760
O O10 0.908599 0.210635 0.248903
O O11 0.500000 0.500000 0.000000
O O12 0.253241 0.078082 0.750940
O O13 0.500000 0.000000 0.000000
O O14 0.403382 0.674604 0.114946
O O15 0.689039 0.546335 0.407798
#
# Coordination Sequence:
#
# PCOD8042607 Si02
#       7
#     2   2   2   2   2   2   2
#     4   9  19  36  55  83 116 146 186 235 283 328
#     4  11  22  35  58  84 115 153 187 227 279 336
#     4  10  21  36  56  83 114 146 185 230 281 334
#     4  10  19  35  59  83 109 145 188 234 279 330
#     4   8  17  34  57  78 111 146 185 235 276 321
#     4  10  20  37  59  82 111 149 195 236 270 328
#     4  10  20  38  57  82 119 153 183 227 284 336
#
# _framework density 22.777314000000001
#
# number of rings (size 3 to 8) (size 9 to 14) (size 15 to 20)
#    0.000    2.571    0.000    4.286    0.000    2.857 
#    0.000    8.571    0.000    6.000    0.000    0.000 
#    0.000    0.000    0.000    0.000    0.000    0.000 
#
# Total GULP energy -173485.433161 kJ/mol
# GULP energy per Si atom -12391.816654 kJ/mol
# Density = 2.272547 g / cm^3
# Si number density = 22.777314 Si / 1000 Ang^3
#
#
#
# Elastic Constant Matrix: (Units=GPa)
#
#
# Indices 1 2 3 4 5 6 
#
# 1 63.3158 18.6016 21.7905 -6.2019 7.2016 -8.8279
# 2 18.6016 88.4148 39.1405 -29.4043 13.5475 -14.1267
# 3 21.7905 39.1405 74.4752 -10.4287 12.4986 -8.5103
# 4 -6.2019 -29.4043 -10.4287 33.6058 -6.0190 8.3481
# 5 7.2016 13.5475 12.4986 -6.0190 32.8459 -6.1393
# 6 -8.8279 -14.1267 -8.5103 8.3481 -6.1393 26.0321
#
#
#
# Elastic Compliance Matrix: (Units=1/GPa)
#
#
# Indices 1 2 3 4 5 6 
#
# 1 0.018230 -0.001316 -0.004018 -0.000233 -0.001232 0.003938
# 2 -0.001316 0.020539 -0.007718 0.014183 -0.002059 0.003142
# 3 -0.004018 -0.007718 0.018979 -0.002377 -0.003482 0.000594
# 4 -0.000233 0.014183 -0.002377 0.043359 0.001810 -0.006637
# 5 -0.001232 -0.002059 -0.003482 0.001810 0.034117 0.004792
# 6 0.003938 0.003142 0.000594 -0.006637 0.004792 0.044908
#
#
# Mechanical properties :
#
#
# Convention : Reuss Voigt Hill
#
# Bulk Modulus (GPa) = 31.60329 42.80789 37.20559
# Shear Modulus (GPa) = 23.06452 28.27497 25.66975
#
# Velocity S-wave (km/s) = 3.18560 3.52712 3.36071
# Velocity P-wave (km/s) = 5.23792 5.95167 5.60616
#
# Compressibility (1/GPa) = 0.03164227
#
# Stress axis : x y z
#
# Youngs Moduli (GPa) = 54.85555 48.68877 52.69065
#
# Poissons Ratio (x) = 0.06408 0.21171
# Poissons Ratio (y) = 0.07220 0.40668
# Poissons Ratio (z) = 0.22041 0.37579
#
# Static dielectric constant tensor:
#      x y z
#    x 4.316020 -0.511020 -0.106210 
#    y -0.511020 4.504660 -0.226850 
#    z -0.106210 -0.226850 4.193720 
# 
# 
# High freq. dielectric constant tensor:
#      x y z
#    x 1.881280 -0.003900 0.011990 
#    y -0.003900 1.896550 -0.030490 
#    z 0.011990 -0.030490 1.885850 
# 
# From -- ./inp_files/492121.got.cif
#   From: 2010.06.25/outbox.cif.g09.slc.cpg/sg2_247_cif.got.tgz:492121.got - 2010.06.27 13:26:56.
