data_PCOD8042710
_publ_section_title
;
Structure prediction by ZEFSAII (Michael W. Deem and Ramdas Pophale) SiO2 
 PCOD8042710
Probable space group: P -1
;
_chemical_formula_sum "Si O2"
_cell_formula_units_Z 16
_cell_length_a 13.340019
_cell_length_b 20.967312
_cell_length_c 9.341739
_cell_angle_alpha 35.054522
_cell_angle_beta 121.291352
_cell_angle_gamma 145.138324
_cell_volume 759.927302
_symmetry_space_group_name_H-M "P -1"
_symmetry_group_IT_number 2
_symmetry_cell_setting 'triclinic'
loop_
_space_group_symop_operation_xyz
x,y,z
-x,-y,-z
loop_
_atom_site_type_symbol
_atom_site_label
_atom_site_fract_x
_atom_site_fract_y
_atom_site_fract_z
Si Si1 0.753043 0.666579 0.723208
Si Si2 0.453902 0.090324 0.255346
Si Si3 0.983858 0.257878 0.419420
Si Si4 0.799213 0.473745 0.659639
Si Si5 0.515838 0.282023 0.224923
Si Si6 0.826244 0.936226 0.412917
Si Si7 0.062270 0.473276 0.832358
Si Si8 0.906713 0.670726 0.107571
O O1 0.722038 0.776330 0.510052
O O2 0.943191 0.790300 0.535057
O O3 0.571019 0.454293 0.916481
O O4 0.779271 0.642151 0.950095
O O5 0.458029 0.176533 0.232276
O O6 0.500000 0.000000 0.500000
O O7 0.229862 0.927114 0.327965
O O8 0.606865 0.250589 0.954426
O O9 0.150433 0.409160 0.384168
O O10 0.964588 0.348938 0.132459
O O11 0.763809 0.520017 0.406307
O O12 0.993663 0.547512 0.636958
O O13 0.330286 0.136620 0.457637
O O14 0.699743 0.356217 0.295587
O O15 0.000000 0.000000 0.500000
O O16 0.925176 0.121894 0.077266
O O17 0.990616 0.353755 0.856057
#
# Coordination Sequence:
#
# PCOD8042710 Si02
#       8
#     2   2   2   2   2   2   2   2
#     4   9  19  39  63  81 111 150 195 248 280 334
#     4  12  21  32  60  85 114 159 194 225 278 344
#     4  10  20  37  57  85 112 151 203 226 274 343
#     4  12  21  38  56  84 129 152 181 238 285 332
#     4  10  19  35  60  89 108 142 205 238 271 338
#     4  10  19  36  61  83 106 149 200 240 285 338
#     4  10  19  37  57  82 118 155 187 230 276 345
#     4   9  21  36  55  84 118 149 186 241 288 330
#
# _framework density 21.054646000000002
#
# number of rings (size 3 to 8) (size 9 to 14) (size 15 to 20)
#    0.000    2.000    3.750    4.125    0.000    0.000 
#    4.500    1.250    0.000    3.750    0.000    0.000 
#    0.000    0.000    0.000    0.000    0.000    0.000 
#
# Total GULP energy -198268.950916 kJ/mol
# GULP energy per Si atom -12391.809432 kJ/mol
# Density = 2.100672 g / cm^3
# Si number density = 21.054646 Si / 1000 Ang^3
#
#
#
# Elastic Constant Matrix: (Units=GPa)
#
#
# Indices 1 2 3 4 5 6 
#
# 1 72.9996 15.8522 41.6209 -4.4314 -6.4575 -9.7658
# 2 15.8522 55.1408 36.1424 -9.1893 -3.1344 -14.9318
# 3 41.6209 36.1424 121.1245 -13.9704 -22.8850 -6.0859
# 4 -4.4314 -9.1893 -13.9704 30.6537 -2.3209 -4.3471
# 5 -6.4575 -3.1344 -22.8850 -2.3209 28.7318 -16.5017
# 6 -9.7658 -14.9318 -6.0859 -4.3471 -16.5017 37.0353
#
#
#
# Elastic Compliance Matrix: (Units=1/GPa)
#
#
# Indices 1 2 3 4 5 6 
#
# 1 0.017654 0.000117 -0.005089 0.001274 0.003140 0.005415
# 2 0.000117 0.027282 -0.004788 0.008803 0.008570 0.015095
# 3 -0.005089 -0.004788 0.015433 0.006972 0.015101 0.006810
# 4 0.001274 0.008803 0.006972 0.043052 0.021595 0.019706
# 5 0.003140 0.008570 0.015101 0.021595 0.074665 0.042567
# 6 0.005415 0.015095 0.006810 0.019706 0.042567 0.056914
#
#
# Mechanical properties :
#
#
# Convention : Reuss Voigt Hill
#
# Bulk Modulus (GPa) = 24.48034 48.49954 36.48994
# Shear Modulus (GPa) = 18.64721 29.66080 24.15400
#
# Velocity S-wave (km/s) = 2.97923 3.75741 3.39072
# Velocity P-wave (km/s) = 4.84631 6.47373 5.71821
#
# Compressibility (1/GPa) = 0.04084910
#
# Stress axis : x y z
#
# Youngs Moduli (GPa) = 56.64350 36.65441 64.79690
#
# Poissons Ratio (x) = -0.00430 0.32977
# Poissons Ratio (y) = -0.00665 0.31025
# Poissons Ratio (z) = 0.28827 0.17550
#
# Static dielectric constant tensor:
#      x y z
#    x 3.997940 -0.445360 0.158640 
#    y -0.445360 3.781230 -0.519130 
#    z 0.158640 -0.519130 4.027300 
# 
# 
# High freq. dielectric constant tensor:
#      x y z
#    x 1.831320 -0.027050 -0.009110 
#    y -0.027050 1.797310 -0.032510 
#    z -0.009110 -0.032510 1.808820 
# 
# From -- ./inp_files/318885.got.cif
#   From: 2010.06.25/outbox.cif.g09.slc.cpg/sg2_160_cif.got.tgz:318885.got - 2010.06.27 13:26:56.
