data_PCOD8042021
_publ_section_title
;
Structure prediction by ZEFSAII (Michael W. Deem and Ramdas Pophale) SiO2 
 PCOD8042021
Probable space group: P -1
;
_chemical_formula_sum "Si O2"
_cell_formula_units_Z 12
_cell_length_a 5.279511
_cell_length_b 19.771141
_cell_length_c 16.129377
_cell_angle_alpha 19.949659
_cell_angle_beta 113.146838
_cell_angle_gamma 116.259661
_cell_volume 513.724664
_symmetry_space_group_name_H-M "P -1"
_symmetry_group_IT_number 2
_symmetry_cell_setting 'triclinic'
loop_
_space_group_symop_operation_xyz
x,y,z
-x,-y,-z
loop_
_atom_site_type_symbol
_atom_site_label
_atom_site_fract_x
_atom_site_fract_y
_atom_site_fract_z
Si Si1 0.174707 0.987532 0.954492
Si Si2 0.843780 0.177416 0.338805
Si Si3 0.705187 0.787937 0.846800
Si Si4 0.743553 0.585632 0.601183
Si Si5 0.114350 0.359166 0.801086
Si Si6 0.117752 0.525606 0.863805
O O1 0.156296 0.172516 0.677755
O O2 0.035945 0.770117 0.146446
O O3 0.500000 0.000000 0.000000
O O4 0.000000 0.000000 0.000000
O O5 0.586885 0.143306 0.279427
O O6 0.754811 0.260220 0.321999
O O7 0.925492 0.960684 0.619659
O O8 0.090253 0.352450 0.131432
O O9 0.807529 0.802007 0.938084
O O10 0.674433 0.553092 0.083026
O O11 0.404001 0.514052 0.630693
O O12 0.833360 0.532229 0.767317
O O13 0.894006 0.477085 0.675884
#
# Coordination Sequence:
#
# PCOD8042021 Si02
#       6
#     2   2   2   2   2   2
#     4  12  27  46  70 100 126 162 214 266 329 394
#     4  10  19  34  56  84 122 162 212 250 297 356
#     4  10  20  35  56  86 121 163 207 251 303 361
#     4  11  24  44  68  96 132 169 210 263 322 381
#     4  11  24  44  68  96 132 169 210 263 322 381
#     4  10  20  35  56  86 121 163 207 251 303 361
#
# _framework density 23.358815
#
# number of rings (size 3 to 8) (size 9 to 14) (size 15 to 20)
#    0.000    1.333    1.667    4.000    0.000    4.000 
#    0.000    0.000    0.000    0.000    0.000    0.000 
#    0.000    0.000    0.000    0.000    0.000    0.000 
#
# Total GULP energy -148710.817141 kJ/mol
# GULP energy per Si atom -12392.568095 kJ/mol
# Density = 2.330565 g / cm^3
# Si number density = 23.358815 Si / 1000 Ang^3
#
#
#
# Elastic Constant Matrix: (Units=GPa)
#
#
# Indices 1 2 3 4 5 6 
#
# 1 104.5096 22.3642 3.4772 -0.1100 -0.1427 0.4627
# 2 22.3642 99.3053 11.1979 -10.7295 8.7342 4.6473
# 3 3.4772 11.1979 86.0122 -5.1544 -3.3738 -5.2838
# 4 -0.1100 -10.7295 -5.1544 30.8954 -2.8880 -4.0139
# 5 -0.1427 8.7342 -3.3738 -2.8880 34.3986 -3.0911
# 6 0.4627 4.6473 -5.2838 -4.0139 -3.0911 29.2041
#
#
#
# Elastic Compliance Matrix: (Units=1/GPa)
#
#
# Indices 1 2 3 4 5 6 
#
# 1 0.010085 -0.002399 -0.000106 -0.000738 0.000593 0.000164
# 2 -0.002399 0.011470 -0.001438 0.003208 -0.002967 -0.001921
# 3 -0.000106 -0.001438 0.012203 0.002105 0.002003 0.002940
# 4 -0.000738 0.003208 0.002105 0.034729 0.002749 0.004946
# 5 0.000593 -0.002967 0.002003 0.002749 0.030654 0.004447
# 6 0.000164 -0.001921 0.002940 0.004946 0.004447 0.036227
#
#
# Mechanical properties :
#
#
# Convention : Reuss Voigt Hill
#
# Bulk Modulus (GPa) = 38.65373 40.43396 39.54385
# Shear Modulus (GPa) = 32.92114 35.75216 34.33665
#
# Velocity S-wave (km/s) = 3.75823 3.91649 3.83817
# Velocity P-wave (km/s) = 5.95114 6.14812 6.05043
#
# Compressibility (1/GPa) = 0.02587072
#
# Stress axis : x y z
#
# Youngs Moduli (GPa) = 99.16058 87.18574 81.94633
#
# Poissons Ratio (x) = 0.20914 0.00871
# Poissons Ratio (y) = 0.23786 0.11787
# Poissons Ratio (z) = 0.01054 0.12541
#
# Static dielectric constant tensor:
#      x y z
#    x 3.920610 -0.149660 -0.008980 
#    y -0.149660 4.334520 -0.064830 
#    z -0.008980 -0.064830 4.617340 
# 
# 
# High freq. dielectric constant tensor:
#      x y z
#    x 1.909010 -0.006910 0.004030 
#    y -0.006910 1.926300 -0.001660 
#    z 0.004030 -0.001660 1.936020 
# 
# From -- ./inp_files/40092.got.cif
#   From: 2010.06.25/outbox.cif.g09.slc.cpg/sg2_21_cif.got.tgz:40092.got - 2010.06.27 13:26:56.
