data_PCOD8042563
_publ_section_title
;
Structure prediction by ZEFSAII (Michael W. Deem and Ramdas Pophale) SiO2 
 PCOD8042563
Probable space group: P -1
;
_chemical_formula_sum "Si O2"
_cell_formula_units_Z 16
_cell_length_a 18.186999
_cell_length_b 9.355932
_cell_length_c 9.283082
_cell_angle_alpha 90.967878
_cell_angle_beta 123.090661
_cell_angle_gamma 48.425913
_cell_volume 826.115055
_symmetry_space_group_name_H-M "P -1"
_symmetry_group_IT_number 2
_symmetry_cell_setting 'triclinic'
loop_
_space_group_symop_operation_xyz
x,y,z
-x,-y,-z
loop_
_atom_site_type_symbol
_atom_site_label
_atom_site_fract_x
_atom_site_fract_y
_atom_site_fract_z
Si Si1 0.330254 0.787275 0.680368
Si Si2 0.912398 0.937972 0.778788
Si Si3 0.671828 0.878824 0.309330
Si Si4 0.043035 0.615156 0.410052
Si Si5 0.627761 0.765258 0.977977
Si Si6 0.098089 0.972345 0.913871
Si Si7 0.650760 0.409145 0.021387
Si Si8 0.912597 0.491339 0.215311
O O1 0.237028 0.840383 0.452844
O O2 0.493981 0.557969 0.814395
O O3 0.288375 0.005856 0.657643
O O4 0.291258 0.752869 0.783593
O O5 0.886781 0.956747 0.921978
O O6 0.024130 0.917117 0.862178
O O7 0.978226 0.706031 0.788472
O O8 0.807289 0.620169 0.505908
O O9 0.530294 0.031951 0.257801
O O10 0.633087 0.878275 0.108114
O O11 0.056672 0.617349 0.596576
O O12 0.926917 0.643681 0.246096
O O13 0.996514 0.823670 0.298544
O O14 0.653797 0.573255 0.066374
O O15 0.752837 0.650537 0.999604
O O16 0.253095 0.746121 0.015679
#
# Coordination Sequence:
#
# PCOD8042563 Si02
#       8
#     2   2   2   2   2   2   2   2
#     4  10  21  37  61  85 113 140 191 238 279 334
#     4  11  23  40  55  80 115 156 190 230 271 333
#     4   9  18  34  53  84 113 139 174 228 288 326
#     4  10  21  35  58  85 109 141 185 238 279 331
#     4   9  18  32  56  82 113 140 174 227 285 331
#     4  11  25  38  55  81 117 153 192 226 276 334
#     4  10  21  37  59  88 110 146 186 235 284 330
#     4  10  19  35  58  85 107 143 184 232 284 323
#
# _framework density 19.367763
#
# number of rings (size 3 to 8) (size 9 to 14) (size 15 to 20)
#    0.000    2.000    2.500    0.750    7.000    2.000 
#    0.000    0.000    0.000    0.750    0.000    0.000 
#    0.000    0.000    0.000    0.000    0.000    0.000 
#
# Total GULP energy -198347.340317 kJ/mol
# GULP energy per Si atom -12396.708770 kJ/mol
# Density = 1.932368 g / cm^3
# Si number density = 19.367763 Si / 1000 Ang^3
#
#
#
# Elastic Constant Matrix: (Units=GPa)
#
#
# Indices 1 2 3 4 5 6 
#
# 1 67.3925 21.6901 20.4070 1.9602 14.7107 -18.1690
# 2 21.6901 84.9761 22.6194 1.8937 -1.5309 -16.6849
# 3 20.4070 22.6194 54.3710 2.1007 12.0211 -18.1705
# 4 1.9602 1.8937 2.1007 26.3678 -2.9220 3.3773
# 5 14.7107 -1.5309 12.0211 -2.9220 28.4282 -2.8251
# 6 -18.1690 -16.6849 -18.1705 3.3773 -2.8251 23.0648
#
#
#
# Elastic Compliance Matrix: (Units=1/GPa)
#
#
# Indices 1 2 3 4 5 6 
#
# 1 0.022202 -0.002926 0.000514 -0.004620 -0.010835 0.015127
# 2 -0.002926 0.014860 -0.004091 -0.000774 0.004550 0.005893
# 3 0.000514 -0.004091 0.029378 -0.005930 -0.011526 0.020046
# 4 -0.004620 -0.000774 -0.005930 0.041445 0.007725 -0.013993
# 5 -0.010835 0.004550 -0.011526 0.007725 0.045717 -0.009856
# 6 0.015127 0.005893 0.020046 -0.013993 -0.009856 0.076169
#
#
# Mechanical properties :
#
#
# Convention : Reuss Voigt Hill
#
# Bulk Modulus (GPa) = 18.71460 37.35250 28.03355
# Shear Modulus (GPa) = 19.18734 25.04037 22.11386
#
# Velocity S-wave (km/s) = 3.15093 3.59958 3.38270
# Velocity P-wave (km/s) = 4.78764 6.05010 5.45551
#
# Compressibility (1/GPa) = 0.05343421
#
# Stress axis : x y z
#
# Youngs Moduli (GPa) = 45.04009 67.29477 34.03922
#
# Poissons Ratio (x) = 0.19690 -0.01748
# Poissons Ratio (y) = 0.13179 0.13924
# Poissons Ratio (z) = -0.02313 0.27527
#
# Static dielectric constant tensor:
#      x y z
#    x 3.702440 -0.175280 0.456190 
#    y -0.175280 3.639650 -0.159180 
#    z 0.456190 -0.159180 3.476790 
# 
# 
# High freq. dielectric constant tensor:
#      x y z
#    x 1.751530 0.000530 0.039520 
#    y 0.000530 1.761680 -0.012180 
#    z 0.039520 -0.012180 1.723370 
# 
# From -- ./inp_files/174986.got.cif
#   From: 2010.06.25/outbox.cif.g09.slc.cpg/sg2_88_cif.got.tgz:174986.got - 2010.06.27 13:26:56.
