data_PCOD8042866
_publ_section_title
;
Structure prediction by ZEFSAII (Michael W. Deem and Ramdas Pophale) SiO2 
 PCOD8042866
Probable space group: P -1
;
_chemical_formula_sum "Si O2"
_cell_formula_units_Z 16
_cell_length_a 21.417240
_cell_length_b 19.363039
_cell_length_c 13.618637
_cell_angle_alpha 149.198067
_cell_angle_beta 21.739551
_cell_angle_gamma 159.558133
_cell_volume 727.725374
_symmetry_space_group_name_H-M "P -1"
_symmetry_group_IT_number 2
_symmetry_cell_setting 'triclinic'
loop_
_space_group_symop_operation_xyz
x,y,z
-x,-y,-z
loop_
_atom_site_type_symbol
_atom_site_label
_atom_site_fract_x
_atom_site_fract_y
_atom_site_fract_z
Si Si1 0.919321 0.811951 0.345698
Si Si2 0.621538 0.997590 0.728964
Si Si3 0.071615 0.066203 0.712894
Si Si4 0.796818 0.008707 0.221958
Si Si5 0.896893 0.576714 0.449986
Si Si6 0.323843 0.827867 0.761939
Si Si7 0.713264 0.638749 0.632679
Si Si8 0.727356 0.671642 0.968750
O O1 0.798258 0.767935 0.361050
O O2 0.727728 0.631485 0.483441
O O3 0.000000 0.000000 0.500000
O O4 0.170950 0.874630 0.041623
O O5 0.733296 0.917867 0.499866
O O6 0.421491 0.852470 0.759218
O O7 0.832415 0.226217 0.664002
O O8 0.500000 0.000000 0.000000
O O9 0.841333 0.852069 0.739955
O O10 0.950889 0.098137 0.005778
O O11 0.981113 0.159341 0.223987
O O12 0.567525 0.980297 0.521400
O O13 0.664990 0.787830 0.169514
O O14 0.856117 0.393597 0.289262
O O15 0.868929 0.607725 0.415553
O O16 0.695263 0.547891 0.772709
O O17 0.430449 0.467063 0.874766
#
# Coordination Sequence:
#
# PCOD8042866 Si02
#       8
#     2   2   2   2   2   2   2   2
#     4  10  24  44  64  88 130 182 213 252 331 399
#     4  11  22  39  65  98 131 170 213 278 317 379
#     4  10  21  41  63  91 130 175 215 251 330 390
#     4  11  20  36  65  95 128 170 214 267 330 378
#     4  11  21  36  63 101 133 156 218 275 328 370
#     4  12  23  40  69  99 126 168 221 274 324 376
#     4  10  19  35  63  90 126 169 208 264 316 389
#     4  11  19  37  61 101 133 159 210 277 331 369
#
# _framework density 21.986315000000001
#
# number of rings (size 3 to 8) (size 9 to 14) (size 15 to 20)
#    0.000    1.250    5.000    4.125    0.000    2.500 
#    0.000    0.625    5.500    3.750    0.000    0.000 
#    0.000    0.000    0.000    0.000    0.000    0.000 
#
# Total GULP energy -198310.824022 kJ/mol
# GULP energy per Si atom -12394.426501 kJ/mol
# Density = 2.193627 g / cm^3
# Si number density = 21.986315 Si / 1000 Ang^3
#
#
#
# Elastic Constant Matrix: (Units=GPa)
#
#
# Indices 1 2 3 4 5 6 
#
# 1 97.0206 19.7749 30.6110 5.8295 14.2478 -12.3900
# 2 19.7749 58.0451 21.6842 2.3790 -2.1540 -0.1415
# 3 30.6110 21.6842 138.1779 13.0543 9.5678 -10.5168
# 4 5.8295 2.3790 13.0543 25.6303 -2.0229 6.0734
# 5 14.2478 -2.1540 9.5678 -2.0229 39.7459 -6.6232
# 6 -12.3900 -0.1415 -10.5168 6.0734 -6.6232 27.5697
#
#
#
# Elastic Compliance Matrix: (Units=1/GPa)
#
#
# Indices 1 2 3 4 5 6 
#
# 1 0.012938 -0.003925 -0.001264 -0.003459 -0.003865 0.005146
# 2 -0.003925 0.019619 -0.002691 0.001204 0.002799 -0.002282
# 3 -0.001264 -0.002691 0.008766 -0.004868 -0.001470 0.003481
# 4 -0.003459 0.001204 -0.004868 0.045407 0.002660 -0.012769
# 5 -0.003865 0.002799 -0.001470 0.002660 0.027822 0.003814
# 6 0.005146 -0.002282 0.003481 -0.012769 0.003814 0.043630
#
#
# Mechanical properties :
#
#
# Convention : Reuss Voigt Hill
#
# Bulk Modulus (GPa) = 39.11680 48.59817 43.85749
# Shear Modulus (GPa) = 27.40284 33.33409 30.36847
#
# Velocity S-wave (km/s) = 3.53421 3.89797 3.72054
# Velocity P-wave (km/s) = 5.87233 6.51235 6.20060
#
# Compressibility (1/GPa) = 0.02556446
#
# Stress axis : x y z
#
# Youngs Moduli (GPa) = 77.28877 50.97063 114.07586
#
# Poissons Ratio (x) = 0.20004 0.14423
# Poissons Ratio (y) = 0.30333 0.30693
# Poissons Ratio (z) = 0.09772 0.13714
#
# Static dielectric constant tensor:
#      x y z
#    x 4.296640 -0.063790 0.351050 
#    y -0.063790 3.915290 -0.182010 
#    z 0.351050 -0.182010 4.106870 
# 
# 
# High freq. dielectric constant tensor:
#      x y z
#    x 1.844820 0.016820 0.027420 
#    y 0.016820 1.851750 -0.009360 
#    z 0.027420 -0.009360 1.872870 
# 
# From -- ./inp_files/543227.got.cif
#   From: 2010.06.25/outbox.cif.g09.slc.cpg/sg2_272_cif.got.tgz:543227.got - 2010.06.27 13:26:56.
