data_PCOD8042105
_publ_section_title
;
Structure prediction by ZEFSAII (Michael W. Deem and Ramdas Pophale) SiO2 
 PCOD8042105
Probable space group: P -1
;
_chemical_formula_sum "Si O2"
_cell_formula_units_Z 16
_cell_length_a 8.453894
_cell_length_b 25.046692
_cell_length_c 15.012532
_cell_angle_alpha 18.003986
_cell_angle_beta 52.734105
_cell_angle_gamma 53.046575
_cell_volume 777.767088
_symmetry_space_group_name_H-M "P -1"
_symmetry_group_IT_number 2
_symmetry_cell_setting 'triclinic'
loop_
_space_group_symop_operation_xyz
x,y,z
-x,-y,-z
loop_
_atom_site_type_symbol
_atom_site_label
_atom_site_fract_x
_atom_site_fract_y
_atom_site_fract_z
Si Si1 0.289038 0.478030 0.349420
Si Si2 0.300095 0.434356 0.984310
Si Si3 0.054744 0.278851 0.868537
Si Si4 0.825436 0.051275 0.544804
Si Si5 0.949096 0.056257 0.106714
Si Si6 0.060702 0.718248 0.715420
Si Si7 0.608406 0.886646 0.414179
Si Si8 0.650213 0.878171 0.205773
O O1 0.106016 0.629249 0.151139
O O2 0.318756 0.322942 0.514722
O O3 0.223500 0.405376 0.583151
O O4 0.495370 0.567824 0.138146
O O5 0.304519 0.296387 0.282812
O O6 0.123848 0.400831 0.027882
O O7 0.246038 0.622751 0.748568
O O8 0.936368 0.230172 0.895685
O O9 0.179100 0.106353 0.134563
O O10 0.861026 0.234186 0.289318
O O11 0.612606 0.070025 0.537558
O O12 0.000000 0.000000 0.500000
O O13 0.745155 0.040540 0.146399
O O14 0.976508 0.895291 0.418304
O O15 0.133803 0.049515 0.985731
O O16 0.575796 0.878333 0.332159
O O17 0.500000 0.000000 0.000000
#
# Coordination Sequence:
#
# PCOD8042105 Si02
#       8
#     2   2   2   2   2   2   2   2
#     4  10  19  34  58  80 104 141 179 218 271 323
#     4  10  20  35  56  81 109 140 178 227 274 319
#     4   9  20  37  56  77 107 143 183 221 265 329
#     4  11  22  36  54  78 109 146 184 226 270 318
#     4   9  19  37  57  81 109 142 183 223 268 320
#     4   9  20  37  55  79 110 142 180 223 272 325
#     4  11  22  34  56  84 109 141 183 228 269 321
#     4  11  21  36  60  83 110 144 176 221 275 325
#
# _framework density 20.571709999999999
#
# number of rings (size 3 to 8) (size 9 to 14) (size 15 to 20)
#    0.000    2.000    0.000    4.875    0.000    4.000 
#    0.000    5.000    0.000   14.250    0.000    0.000 
#    0.000    0.000    0.000    0.000    0.000    0.000 
#
# Total GULP energy -198291.162830 kJ/mol
# GULP energy per Si atom -12393.197677 kJ/mol
# Density = 2.052489 g / cm^3
# Si number density = 20.571710 Si / 1000 Ang^3
#
#
#
# Elastic Constant Matrix: (Units=GPa)
#
#
# Indices 1 2 3 4 5 6 
#
# 1 104.8031 41.6051 29.6134 3.5610 -14.3499 -17.2570
# 2 41.6051 99.0415 27.1289 2.4982 -16.0045 -21.3700
# 3 29.6134 27.1289 59.2765 -6.9584 -15.1475 -1.4604
# 4 3.5610 2.4982 -6.9584 36.6297 -10.8846 -4.9764
# 5 -14.3499 -16.0045 -15.1475 -10.8846 25.2945 8.7001
# 6 -17.2570 -21.3700 -1.4604 -4.9764 8.7001 29.2327
#
#
#
# Elastic Compliance Matrix: (Units=1/GPa)
#
#
# Indices 1 2 3 4 5 6 
#
# 1 0.013062 -0.002921 -0.005180 -0.001323 0.000155 0.005045
# 2 -0.002921 0.014655 -0.004449 0.000211 0.002244 0.008135
# 3 -0.005180 -0.004449 0.026964 0.010012 0.017627 -0.008505
# 4 -0.001323 0.000211 0.010012 0.035437 0.020717 -0.000259
# 5 0.000155 0.002244 0.017627 0.020717 0.065061 -0.013224
# 6 0.005045 0.008135 -0.008505 -0.000259 -0.013224 0.046600
#
#
# Mechanical properties :
#
#
# Convention : Reuss Voigt Hill
#
# Bulk Modulus (GPa) = 33.80541 51.09065 42.44803
# Shear Modulus (GPa) = 21.12018 29.21631 25.16825
#
# Velocity S-wave (km/s) = 3.20763 3.77267 3.50156
# Velocity P-wave (km/s) = 5.49429 6.62319 6.08497
#
# Compressibility (1/GPa) = 0.02958106
#
# Stress axis : x y z
#
# Youngs Moduli (GPa) = 76.55824 68.23581 37.08608
#
# Poissons Ratio (x) = 0.19932 0.19210
# Poissons Ratio (y) = 0.22363 0.16500
# Poissons Ratio (z) = 0.39657 0.30359
#
# Static dielectric constant tensor:
#      x y z
#    x 3.881160 -0.138040 -0.197190 
#    y -0.138040 3.727330 -0.124650 
#    z -0.197190 -0.124650 4.007410 
# 
# 
# High freq. dielectric constant tensor:
#      x y z
#    x 1.785260 -0.022830 -0.014260 
#    y -0.022830 1.802410 -0.003230 
#    z -0.014260 -0.003230 1.812100 
# 
# From -- ./inp_files/307658.got.cif
#   From: 2010.06.25/outbox.cif.g09.slc.cpg/sg2_154_cif.got.tgz:307658.got - 2010.06.27 13:26:56.
