data_PCOD8042783
_publ_section_title
;
Structure prediction by ZEFSAII (Michael W. Deem and Ramdas Pophale) SiO2 
 PCOD8042783
Probable space group: P -1
;
_chemical_formula_sum "Si O2"
_cell_formula_units_Z 16
_cell_length_a 13.208226
_cell_length_b 11.905346
_cell_length_c 7.315504
_cell_angle_alpha 88.265318
_cell_angle_beta 114.945379
_cell_angle_gamma 134.380936
_cell_volume 680.431238
_symmetry_space_group_name_H-M "P -1"
_symmetry_group_IT_number 2
_symmetry_cell_setting 'triclinic'
loop_
_space_group_symop_operation_xyz
x,y,z
-x,-y,-z
loop_
_atom_site_type_symbol
_atom_site_label
_atom_site_fract_x
_atom_site_fract_y
_atom_site_fract_z
Si Si1 0.498280 0.021695 0.229645
Si Si2 0.353926 0.222291 0.394717
Si Si3 0.792387 0.016048 0.024874
Si Si4 0.752777 0.286042 0.682785
Si Si5 0.322353 0.476689 0.966247
Si Si6 0.392143 0.454864 0.642017
Si Si7 0.406131 0.134503 0.794151
Si Si8 0.942612 0.634834 0.961977
O O1 0.678573 0.212302 0.426234
O O2 0.369691 0.025111 0.106397
O O3 0.407120 0.863520 0.303676
O O4 0.554655 0.969377 0.123024
O O5 0.288550 0.283689 0.451336
O O6 0.543581 0.394211 0.447250
O O7 0.366050 0.127113 0.549843
O O8 0.223725 0.091209 0.139218
O O9 0.972453 0.216302 0.128796
O O10 0.760487 0.947281 0.211324
O O11 0.913148 0.326601 0.828875
O O12 0.811415 0.458238 0.757047
O O13 0.276121 0.406778 0.725520
O O14 0.148661 0.362161 0.951057
O O15 0.432766 0.465568 0.150254
O O16 0.426589 0.671811 0.024194
#
# Coordination Sequence:
#
# PCOD8042783 Si02
#       8
#     2   2   2   2   2   2   2   2
#     4  10  19  35  61  89 120 164 214 241 286 377
#     4  10  20  38  64  87 119 152 207 264 297 350
#     4  11  23  37  62  93 125 164 202 248 310 364
#     4   9  18  34  59  89 125 167 200 243 303 364
#     4  10  19  37  65  89 121 160 206 254 306 359
#     4   9  20  37  64  93 110 157 221 258 292 360
#     4  11  20  36  64  90 121 163 207 247 294 372
#     4  10  20  35  59  92 133 159 193 256 315 356
#
# _framework density 23.514500000000002
#
# number of rings (size 3 to 8) (size 9 to 14) (size 15 to 20)
#    0.000    2.000    2.500    2.625    1.750    0.000 
#    0.000    1.875   19.250    0.000    0.000    0.000 
#    0.000    0.000    0.000    0.000    0.000    0.000 
#
# Total GULP energy -198260.247946 kJ/mol
# GULP energy per Si atom -12391.265497 kJ/mol
# Density = 2.346098 g / cm^3
# Si number density = 23.514500 Si / 1000 Ang^3
#
#
#
# Elastic Constant Matrix: (Units=GPa)
#
#
# Indices 1 2 3 4 5 6 
#
# 1 104.7554 35.8800 42.2031 3.7772 -27.8415 19.1670
# 2 35.8800 106.0365 35.7684 5.9416 -10.9644 12.3523
# 3 42.2031 35.7684 60.9176 14.6115 -26.4132 3.3554
# 4 3.7772 5.9416 14.6115 38.6104 -1.6445 -5.7453
# 5 -27.8415 -10.9644 -26.4132 -1.6445 34.2612 -0.2571
# 6 19.1670 12.3523 3.3554 -5.7453 -0.2571 32.7705
#
#
#
# Elastic Compliance Matrix: (Units=1/GPa)
#
#
# Indices 1 2 3 4 5 6 
#
# 1 0.016246 -0.001518 -0.006755 0.000309 0.007463 -0.008126
# 2 -0.001518 0.012503 -0.007584 0.000520 -0.003076 -0.002981
# 3 -0.006755 -0.007584 0.036756 -0.011046 0.019900 0.001266
# 4 0.000309 0.000520 -0.011046 0.030592 -0.006584 0.006066
# 5 0.007463 -0.003076 0.019900 -0.006584 0.049248 -0.006011
# 6 -0.008126 -0.002981 0.001266 0.006066 -0.006011 0.037278
#
#
# Mechanical properties :
#
#
# Convention : Reuss Voigt Hill
#
# Bulk Modulus (GPa) = 29.59275 55.49027 42.54151
# Shear Modulus (GPa) = 22.16306 31.65229 26.90767
#
# Velocity S-wave (km/s) = 3.07339 3.67287 3.38642
# Velocity P-wave (km/s) = 5.02061 6.45261 5.78112
#
# Compressibility (1/GPa) = 0.03379206
#
# Stress axis : x y z
#
# Youngs Moduli (GPa) = 61.55240 79.98350 27.20608
#
# Poissons Ratio (x) = 0.12140 0.18378
# Poissons Ratio (y) = 0.09343 0.20633
# Poissons Ratio (z) = 0.41579 0.60658
#
# Static dielectric constant tensor:
#      x y z
#    x 4.272640 0.068360 -0.553630 
#    y 0.068360 4.493380 -0.191810 
#    z -0.553630 -0.191810 4.170570 
# 
# 
# High freq. dielectric constant tensor:
#      x y z
#    x 1.930570 -0.008440 -0.035130 
#    y -0.008440 1.934660 -0.011180 
#    z -0.035130 -0.011180 1.908600 
# 
# From -- ./inp_files/307613.got.cif
#   From: 2010.06.25/outbox.cif.g09.slc.cpg/sg2_154_cif.got.tgz:307613.got - 2010.06.27 13:26:56.
