data_PCOD8042149
_publ_section_title
;
Structure prediction by ZEFSAII (Michael W. Deem and Ramdas Pophale) SiO2 
 PCOD8042149
Probable space group: P -1
;
_chemical_formula_sum "Si O2"
_cell_formula_units_Z 16
_cell_length_a 17.070895
_cell_length_b 11.298275
_cell_length_c 9.180209
_cell_angle_alpha 99.989185
_cell_angle_beta 111.281385
_cell_angle_gamma 137.836038
_cell_volume 782.737699
_symmetry_space_group_name_H-M "P -1"
_symmetry_group_IT_number 2
_symmetry_cell_setting 'triclinic'
loop_
_space_group_symop_operation_xyz
x,y,z
-x,-y,-z
loop_
_atom_site_type_symbol
_atom_site_label
_atom_site_fract_x
_atom_site_fract_y
_atom_site_fract_z
Si Si1 0.860793 0.412689 0.817060
Si Si2 0.274450 0.605979 0.013664
Si Si3 0.666580 0.742046 0.338435
Si Si4 0.789808 0.312705 0.262079
Si Si5 0.717377 0.774598 0.047289
Si Si6 0.954203 0.287473 0.262946
Si Si7 0.356466 0.012711 0.638609
Si Si8 0.014276 0.075144 0.683270
O O1 0.957890 0.625080 0.816083
O O2 0.717020 0.156226 0.579500
O O3 0.761826 0.365693 0.859489
O O4 0.000000 0.500000 0.000000
O O5 0.326925 0.761039 0.948719
O O6 0.108021 0.320996 0.792612
O O7 0.434821 0.718182 0.177014
O O8 0.677009 0.703223 0.174187
O O9 0.718767 0.947579 0.413735
O O10 0.470387 0.477118 0.214786
O O11 0.814644 0.854389 0.555977
O O12 0.909055 0.373065 0.258126
O O13 0.907208 0.558988 0.479820
O O14 0.682340 0.096166 0.254985
O O15 0.871406 0.872490 0.125950
O O16 0.785381 0.992708 0.103474
O O17 0.000000 0.000000 0.500000
#
# Coordination Sequence:
#
# PCOD8042149 Si02
#       8
#     2   2   2   2   2   2   2   2
#     4  11  23  39  62  86 121 169 200 244 308 373
#     4  12  22  39  59  93 126 160 204 246 310 371
#     4  10  19  34  58  88 120 155 197 254 304 352
#     4  10  20  34  61  91 119 154 198 263 305 354
#     4  10  19  36  57  87 119 154 200 250 304 354
#     4  10  20  37  60  90 120 156 206 249 307 358
#     4  11  22  38  60  93 126 155 204 255 307 363
#     4  10  21  34  60  89 118 160 203 248 299 361
#
# _framework density 20.441072999999999
#
# number of rings (size 3 to 8) (size 9 to 14) (size 15 to 20)
#    0.000    1.500    3.750    3.000    1.750    0.000 
#    0.000    1.875    0.000    1.500    0.000    0.000 
#    0.000    0.000    0.000    0.000    0.000    0.000 
#
# Total GULP energy -198304.635237 kJ/mol
# GULP energy per Si atom -12394.039702 kJ/mol
# Density = 2.039455 g / cm^3
# Si number density = 20.441073 Si / 1000 Ang^3
#
#
#
# Elastic Constant Matrix: (Units=GPa)
#
#
# Indices 1 2 3 4 5 6 
#
# 1 101.1552 24.1308 48.8972 0.6673 16.1748 4.0063
# 2 24.1308 73.3131 45.1739 13.1451 -2.0921 -3.2948
# 3 48.8972 45.1739 100.1958 16.7223 16.6592 6.7187
# 4 0.6673 13.1451 16.7223 33.7212 5.4826 -1.4323
# 5 16.1748 -2.0921 16.6592 5.4826 43.6762 4.5493
# 6 4.0063 -3.2948 6.7187 -1.4323 4.5493 20.8329
#
#
#
# Elastic Compliance Matrix: (Units=1/GPa)
#
#
# Indices 1 2 3 4 5 6 
#
# 1 0.013702 -0.001545 -0.006094 0.003896 -0.003322 0.000079
# 2 -0.001545 0.020926 -0.009171 -0.004182 0.005059 0.005172
# 3 -0.006094 -0.009171 0.019067 -0.005331 -0.004173 -0.005883
# 4 0.003896 -0.004182 -0.005331 0.034713 -0.004347 0.003644
# 5 -0.003322 0.005059 -0.004173 -0.004347 0.026858 -0.003379
# 6 0.000079 0.005172 -0.005883 0.003644 -0.003379 0.051690
#
#
# Mechanical properties :
#
#
# Convention : Reuss Voigt Hill
#
# Bulk Modulus (GPa) = 49.80922 56.78533 53.29727
# Shear Modulus (GPa) = 24.12353 30.07688 27.10021
#
# Velocity S-wave (km/s) = 3.43906 3.84004 3.64507
# Velocity P-wave (km/s) = 6.33953 6.89213 6.62160
#
# Compressibility (1/GPa) = 0.02007660
#
# Stress axis : x y z
#
# Youngs Moduli (GPa) = 72.98068 47.78737 52.44673
#
# Poissons Ratio (x) = 0.07384 0.31959
# Poissons Ratio (y) = 0.11277 0.48097
# Poissons Ratio (z) = 0.44472 0.43824
#
# Static dielectric constant tensor:
#      x y z
#    x 4.165940 0.037690 0.238940 
#    y 0.037690 3.402610 0.169430 
#    z 0.238940 0.169430 3.898520 
# 
# 
# High freq. dielectric constant tensor:
#      x y z
#    x 1.802040 -0.004870 0.011550 
#    y -0.004870 1.767890 0.022920 
#    z 0.011550 0.022920 1.797220 
# 
# From -- ./inp_files/223020.got.cif
#   From: 2010.06.25/outbox.cif.g09.slc.cpg/sg2_112_cif.got.tgz:223020.got - 2010.06.27 13:26:56.
