data_PCOD8042926
_publ_section_title
;
Structure prediction by ZEFSAII (Michael W. Deem and Ramdas Pophale) SiO2 
 PCOD8042926
Probable space group: P -1
;
_chemical_formula_sum "Si O2"
_cell_formula_units_Z 12
_cell_length_a 7.179231
_cell_length_b 11.469910
_cell_length_c 10.248572
_cell_angle_alpha 44.590078
_cell_angle_beta 92.302076
_cell_angle_gamma 68.263564
_cell_volume 486.916976
_symmetry_space_group_name_H-M "P -1"
_symmetry_group_IT_number 2
_symmetry_cell_setting 'triclinic'
loop_
_space_group_symop_operation_xyz
x,y,z
-x,-y,-z
loop_
_atom_site_type_symbol
_atom_site_label
_atom_site_fract_x
_atom_site_fract_y
_atom_site_fract_z
Si Si1 0.952271 0.728798 0.541767
Si Si2 0.263577 0.659859 0.017754
Si Si3 0.465668 0.294714 0.490059
Si Si4 0.097612 0.930009 0.200963
Si Si5 0.268069 0.065487 0.381018
Si Si6 0.292280 0.394699 0.993857
O O1 0.730507 0.740526 0.480662
O O2 0.908249 0.865998 0.559322
O O3 0.024346 0.789781 0.367021
O O4 0.156157 0.505567 0.769289
O O5 0.364462 0.521736 0.261190
O O6 0.438402 0.716603 0.934604
O O7 0.223713 0.544079 0.996712
O O8 0.017261 0.867337 0.871897
O O9 0.624198 0.213465 0.689480
O O10 0.677981 0.138727 0.522675
O O11 0.000000 0.000000 0.000000
O O12 0.500000 0.000000 0.500000
O O13 0.215808 0.245879 0.138468
#
# Coordination Sequence:
#
# PCOD8042926 Si02
#       6
#     2   2   2   2   2   2
#     4  11  23  41  67  99 138 170 212 270 332 396
#     4  11  23  41  71 101 135 172 216 265 335 401
#     4  11  24  43  69 102 130 172 219 269 336 394
#     4  12  29  49  65  89 132 185 233 274 309 372
#     4  10  19  35  65 103 141 161 200 266 342 405
#     4  11  21  38  70 110 137 165 201 272 349 404
#
# _framework density 24.644856999999998
#
# number of rings (size 3 to 8) (size 9 to 14) (size 15 to 20)
#    0.000    1.000    5.000    3.500    4.667    2.667 
#    0.000    0.833    0.000    0.000    0.000    0.000 
#    0.000    0.000    0.000    0.000    0.000    0.000 
#
# Total GULP energy -148690.347566 kJ/mol
# GULP energy per Si atom -12390.862297 kJ/mol
# Density = 2.458876 g / cm^3
# Si number density = 24.644857 Si / 1000 Ang^3
#
#
#
# Elastic Constant Matrix: (Units=GPa)
#
#
# Indices 1 2 3 4 5 6 
#
# 1 87.8482 2.7642 41.4733 -7.5066 21.0583 -7.6331
# 2 2.7642 18.7875 6.7922 -9.0348 -6.5698 -4.1113
# 3 41.4733 6.7922 178.3664 -1.1744 17.6963 -9.4340
# 4 -7.5066 -9.0348 -1.1744 29.7498 -10.9363 8.2965
# 5 21.0583 -6.5698 17.6963 -10.9363 47.7546 -4.2482
# 6 -7.6331 -4.1113 -9.4340 8.2965 -4.2482 19.5317
#
#
#
# Elastic Compliance Matrix: (Units=1/GPa)
#
#
# Indices 1 2 3 4 5 6 
#
# 1 0.014183 -0.002505 -0.002525 -0.000009 -0.005432 0.002618
# 2 -0.002505 0.076920 -0.003856 0.028393 0.020122 0.005666
# 3 -0.002525 -0.003856 0.006674 -0.003035 -0.002390 0.002194
# 4 -0.000009 0.028393 -0.003035 0.051795 0.015643 -0.014091
# 5 -0.005432 0.020122 -0.002390 0.015643 0.030660 0.000982
# 6 0.002618 0.005666 0.002194 -0.014091 0.000982 0.060674
#
#
# Mechanical properties :
#
#
# Convention : Reuss Voigt Hill
#
# Bulk Modulus (GPa) = 12.49936 43.00682 27.75309
# Shear Modulus (GPa) = 17.52264 35.00537 26.26400
#
# Velocity S-wave (km/s) = 2.66936 3.77290 3.26805
# Velocity P-wave (km/s) = 3.81883 6.03889 5.05231
#
# Compressibility (1/GPa) = 0.08000408
#
# Stress axis : x y z
#
# Youngs Moduli (GPa) = 70.50649 13.00054 149.84386
#
# Poissons Ratio (x) = 0.03256 0.37837
# Poissons Ratio (y) = 0.17660 0.57787
# Poissons Ratio (z) = 0.17803 0.05014
#
# Static dielectric constant tensor:
#      x y z
#    x 4.306920 -0.286610 0.426660 
#    y -0.286610 5.098110 0.325250 
#    z 0.426660 0.325250 5.224530 
# 
# 
# High freq. dielectric constant tensor:
#      x y z
#    x 1.997170 -0.005180 0.028290 
#    y -0.005180 1.925370 -0.021240 
#    z 0.028290 -0.021240 2.004170 
# 
# From -- ./inp_files/174243.got.cif
#   From: 2010.06.25/outbox.cif.g09.slc.cpg/sg2_88_cif.got.tgz:174243.got - 2010.06.27 13:26:56.
