data_PCOD8042914
_publ_section_title
;
Structure prediction by ZEFSAII (Michael W. Deem and Ramdas Pophale) SiO2 
 PCOD8042914
Probable space group: P -1
;
_chemical_formula_sum "Si O2"
_cell_formula_units_Z 14
_cell_length_a 15.544703
_cell_length_b 14.133112
_cell_length_c 8.835109
_cell_angle_alpha 67.189086
_cell_angle_beta 131.401468
_cell_angle_gamma 151.343411
_cell_volume 589.660147
_symmetry_space_group_name_H-M "P -1"
_symmetry_group_IT_number 2
_symmetry_cell_setting 'triclinic'
loop_
_space_group_symop_operation_xyz
x,y,z
-x,-y,-z
loop_
_atom_site_type_symbol
_atom_site_label
_atom_site_fract_x
_atom_site_fract_y
_atom_site_fract_z
Si Si1 0.368217 0.068197 0.057337
Si Si2 0.180515 0.640279 0.423867
Si Si3 0.494201 0.172099 0.577367
Si Si4 0.740075 0.122482 0.243772
Si Si5 0.302143 0.352050 0.222899
Si Si6 0.275636 0.158755 0.106089
Si Si7 0.906760 0.604834 0.006019
O O1 0.641187 0.224634 0.300955
O O2 0.406669 0.217718 0.067836
O O3 0.149831 0.847577 0.051254
O O4 0.273005 0.983281 0.826554
O O5 0.371382 0.797881 0.402939
O O6 0.007787 0.398584 0.362647
O O7 0.007330 0.604413 0.249372
O O8 0.334580 0.131239 0.332884
O O9 0.284490 0.941792 0.576538
O O10 0.724769 0.399455 0.806786
O O11 0.500000 0.000000 0.000000
O O12 0.500000 0.500000 0.500000
O O13 0.394053 0.364866 0.168802
O O14 0.256506 0.435364 0.078323
O O15 0.034351 0.081896 0.132236
#
# Coordination Sequence:
#
# PCOD8042914 Si02
#       7
#     2   2   2   2   2   2   2
#     4  10  23  40  63  93 128 170 208 260 316 375
#     4  11  23  43  61  93 135 169 205 258 315 382
#     4  11  21  40  66  93 129 167 207 256 317 380
#     4  12  24  39  61  95 134 169 208 254 314 381
#     4  10  19  35  64  96 118 162 218 262 308 371
#     4   9  21  39  63  94 122 163 216 259 314 375
#     4  11  19  37  65  91 124 170 208 255 316 372
#
# _framework density 23.742488000000002
#
# number of rings (size 3 to 8) (size 9 to 14) (size 15 to 20)
#    0.000    1.429    4.286    1.714    0.000    2.857 
#    7.714    0.000    0.000    8.571    0.000    0.000 
#    0.000    0.000    0.000    0.000    0.000    0.000 
#
# Total GULP energy -173532.180469 kJ/mol
# GULP energy per Si atom -12395.155748 kJ/mol
# Density = 2.368845 g / cm^3
# Si number density = 23.742488 Si / 1000 Ang^3
#
#
#
# Elastic Constant Matrix: (Units=GPa)
#
#
# Indices 1 2 3 4 5 6 
#
# 1 127.3274 38.7104 39.1137 -17.5144 2.1548 -24.2638
# 2 38.7104 52.2604 27.8006 -10.8287 -7.0159 6.9305
# 3 39.1137 27.8006 106.9721 12.8515 8.2108 -2.3353
# 4 -17.5144 -10.8287 12.8515 23.2608 -5.2051 -1.3013
# 5 2.1548 -7.0159 8.2108 -5.2051 36.5542 -4.1179
# 6 -24.2638 6.9305 -2.3353 -1.3013 -4.1179 27.3497
#
#
#
# Elastic Compliance Matrix: (Units=1/GPa)
#
#
# Indices 1 2 3 4 5 6 
#
# 1 0.017899 -0.009801 -0.005381 0.013463 0.002318 0.018894
# 2 -0.009801 0.039068 -0.009915 0.017782 0.010926 -0.016951
# 3 -0.005381 -0.009915 0.016899 -0.020097 -0.008589 -0.003068
# 4 0.013463 0.017782 -0.020097 0.077581 0.019573 0.012360
# 5 0.002318 0.010926 -0.008589 0.019573 0.034562 0.004689
# 6 0.018894 -0.016951 -0.003068 0.012360 0.004689 0.058653
#
#
# Mechanical properties :
#
#
# Convention : Reuss Voigt Hill
#
# Bulk Modulus (GPa) = 42.23991 55.31212 48.77602
# Shear Modulus (GPa) = 16.51554 29.49530 23.00542
#
# Velocity S-wave (km/s) = 2.64031 3.52845 3.11618
# Velocity P-wave (km/s) = 5.20811 6.32038 5.79101
#
# Compressibility (1/GPa) = 0.02367429
#
# Stress axis : x y z
#
# Youngs Moduli (GPa) = 55.86776 25.59630 59.17522
#
# Poissons Ratio (x) = 0.25087 0.31840
# Poissons Ratio (y) = 0.54756 0.58670
# Poissons Ratio (z) = 0.30060 0.25378
#
# Static dielectric constant tensor:
#      x y z
#    x 5.138620 -0.358880 -0.213220 
#    y -0.358880 4.241760 0.266690 
#    z -0.213220 0.266690 4.517930 
# 
# 
# High freq. dielectric constant tensor:
#      x y z
#    x 1.955830 -0.015900 -0.013940 
#    y -0.015900 1.897900 0.027120 
#    z -0.013940 0.027120 1.953220 
# 
# From -- ./inp_files/201033.got.cif
#   From: 2010.06.25/outbox.cif.g09.slc.cpg/sg2_101_cif.got.tgz:201033.got - 2010.06.27 13:26:56.
