data_PCOD8042557
_publ_section_title
;
Structure prediction by ZEFSAII (Michael W. Deem and Ramdas Pophale) SiO2 
 PCOD8042557
Probable space group: P -1
;
_chemical_formula_sum "Si O2"
_cell_formula_units_Z 16
_cell_length_a 8.415143
_cell_length_b 13.596691
_cell_length_c 7.155913
_cell_angle_alpha 100.705833
_cell_angle_beta 126.100748
_cell_angle_gamma 62.317945
_cell_volume 581.383481
_symmetry_space_group_name_H-M "P -1"
_symmetry_group_IT_number 2
_symmetry_cell_setting 'triclinic'
loop_
_space_group_symop_operation_xyz
x,y,z
-x,-y,-z
loop_
_atom_site_type_symbol
_atom_site_label
_atom_site_fract_x
_atom_site_fract_y
_atom_site_fract_z
Si Si1 0.764142 0.154458 0.148684
Si Si2 0.437492 0.948326 0.763014
Si Si3 0.662966 0.556401 0.634771
Si Si4 0.880436 0.638648 0.084403
Si Si5 0.072915 0.904244 0.197722
Si Si6 0.467200 0.236064 0.639933
Si Si7 0.898420 0.820885 0.397957
Si Si8 0.119901 0.217367 0.183861
O O1 0.687089 0.124401 0.281880
O O2 0.903406 0.225013 0.323827
O O3 0.916597 0.034869 0.108318
O O4 0.545827 0.229919 0.904478
O O5 0.658585 0.873590 0.786137
O O6 0.274456 0.061989 0.582339
O O7 0.500000 0.000000 0.000000
O O8 0.500000 0.500000 0.500000
O O9 0.571072 0.649185 0.442263
O O10 0.910476 0.466517 0.722544
O O11 0.680581 0.609585 0.869520
O O12 0.805753 0.735649 0.224776
O O13 0.961347 0.670209 0.954680
O O14 0.337179 0.869179 0.377552
O O15 0.998092 0.852976 0.297209
O O16 0.059274 0.831633 0.975518
O O17 0.225886 0.231340 0.464579
#
# Coordination Sequence:
#
# PCOD8042557 Si02
#       8
#     2   2   2   2   2   2   2   2
#     4  11  22  35  54  86 122 154 179 232 288 333
#     4  11  18  35  58  85 115 151 199 222 262 344
#     4  10  20  37  62  81 106 145 193 241 283 336
#     4   9  19  35  58  84 104 136 194 243 272 320
#     4  10  19  36  57  82 115 156 191 223 272 336
#     4  11  23  37  55  86 119 147 189 236 293 335
#     4  10  19  35  58  83 113 150 192 229 272 338
#     4  10  19  36  59  84 113 148 194 233 270 341
#
# _framework density 27.52056
#
# number of rings (size 3 to 8) (size 9 to 14) (size 15 to 20)
#    0.000    1.750    3.750    4.875    0.000    1.500 
#    2.250    0.625    0.000    1.500    0.000    0.000 
#    0.000    0.000    0.000    0.000    0.000    0.000 
#
# Total GULP energy -198245.669234 kJ/mol
# GULP energy per Si atom -12390.354327 kJ/mol
# Density = 2.745792 g / cm^3
# Si number density = 27.520560 Si / 1000 Ang^3
#
#
#
# Elastic Constant Matrix: (Units=GPa)
#
#
# Indices 1 2 3 4 5 6 
#
# 1 71.8767 29.8815 27.1038 7.8732 12.3350 15.3754
# 2 29.8815 123.5415 70.0267 -1.8757 2.6727 20.6980
# 3 27.1038 70.0267 172.7943 10.6909 15.6116 14.4170
# 4 7.8732 -1.8757 10.6909 64.4438 7.8798 7.0904
# 5 12.3350 2.6727 15.6116 7.8798 50.8392 15.1089
# 6 15.3754 20.6980 14.4170 7.0904 15.1089 36.0386
#
#
#
# Elastic Compliance Matrix: (Units=1/GPa)
#
#
# Indices 1 2 3 4 5 6 
#
# 1 0.016816 -0.002893 -0.000849 -0.001282 -0.002292 -0.003961
# 2 -0.002893 0.012158 -0.004371 0.001698 0.002776 -0.005498
# 3 -0.000849 -0.004371 0.007881 -0.001170 -0.002043 0.000806
# 4 -0.001282 0.001698 -0.001170 0.016355 -0.001153 -0.002695
# 5 -0.002292 0.002776 -0.002043 -0.001153 0.023713 -0.009514
# 6 -0.003961 -0.005498 0.000806 -0.002695 -0.009514 0.036792
#
#
# Mechanical properties :
#
#
# Convention : Reuss Voigt Hill
#
# Bulk Modulus (GPa) = 48.46860 69.13737 58.80299
# Shear Modulus (GPa) = 36.54505 46.34437 41.44471
#
# Velocity S-wave (km/s) = 3.64801 4.10810 3.88487
# Velocity P-wave (km/s) = 5.94929 6.90497 6.44487
#
# Compressibility (1/GPa) = 0.02063191
#
# Stress axis : x y z
#
# Youngs Moduli (GPa) = 59.46635 82.24766 126.88277
#
# Poissons Ratio (x) = 0.23792 0.10767
# Poissons Ratio (y) = 0.17202 0.55456
# Poissons Ratio (z) = 0.05046 0.35948
#
# Static dielectric constant tensor:
#      x y z
#    x 5.568730 0.320660 0.734220 
#    y 0.320660 4.657750 -0.388830 
#    z 0.734220 -0.388830 8.091030 
# 
# 
# High freq. dielectric constant tensor:
#      x y z
#    x 2.132940 0.020750 -0.004510 
#    y 0.020750 2.084930 0.019170 
#    z -0.004510 0.019170 2.160770 
# 
# From -- ./inp_files/273505.got.cif
#   From: 2010.06.25/outbox.cif.g09.slc.cpg/sg2_137_cif.got.tgz:273505.got - 2010.06.27 13:26:56.
