data_PCOD8042333
_publ_section_title
;
Structure prediction by ZEFSAII (Michael W. Deem and Ramdas Pophale) SiO2 
 PCOD8042333
Probable space group: P -1
;
_chemical_formula_sum "Si O2"
_cell_formula_units_Z 16
_cell_length_a 15.621747
_cell_length_b 20.138523
_cell_length_c 8.904387
_cell_angle_alpha 35.965551
_cell_angle_beta 29.658115
_cell_angle_gamma 35.291872
_cell_volume 750.162287
_symmetry_space_group_name_H-M "P -1"
_symmetry_group_IT_number 2
_symmetry_cell_setting 'triclinic'
loop_
_space_group_symop_operation_xyz
x,y,z
-x,-y,-z
loop_
_atom_site_type_symbol
_atom_site_label
_atom_site_fract_x
_atom_site_fract_y
_atom_site_fract_z
Si Si1 0.128293 0.126552 0.415457
Si Si2 0.755029 0.741371 0.260181
Si Si3 0.718903 0.273115 0.723503
Si Si4 0.578712 0.549594 0.928431
Si Si5 0.058595 0.933247 0.688450
Si Si6 0.846427 0.319103 0.120864
Si Si7 0.650106 0.053408 0.121767
Si Si8 0.497869 0.000915 0.180841
O O1 0.910489 0.194002 0.669224
O O2 0.168776 0.001454 0.486924
O O3 0.274507 0.075434 0.425917
O O4 0.184622 0.223524 0.057094
O O5 0.680428 0.633745 0.552791
O O6 0.582275 0.860639 0.370141
O O7 0.934148 0.701720 0.170532
O O8 0.769554 0.323710 0.398852
O O9 0.592846 0.381491 0.824052
O O10 0.607735 0.187236 0.009371
O O11 0.500000 0.500000 0.000000
O O12 0.732394 0.443997 0.982313
O O13 0.176239 0.788975 0.746809
O O14 0.000000 0.000000 0.500000
O O15 0.857351 0.959789 0.025624
O O16 0.500000 0.000000 0.500000
O O17 0.619592 0.067444 0.958860
O O18 0.500000 0.000000 0.000000
#
# Coordination Sequence:
#
# PCOD8042333 Si02
#       8
#     2   2   2   2   2   2   2   2
#     4   9  20  36  66  97 128 157 205 254 319 367
#     4  10  20  40  63  93 127 160 209 252 304 378
#     4  10  23  43  64  89 125 167 214 253 301 384
#     4  12  28  45  61  90 126 169 213 269 312 350
#     4  11  17  37  66  95 123 166 201 250 310 386
#     4  11  22  42  69  87 123 172 218 241 303 386
#     4  11  21  37  60  98 133 155 198 258 316 370
#     4  10  19  34  63  99 129 157 199 250 318 373
#
# _framework density 21.328717999999999
#
# number of rings (size 3 to 8) (size 9 to 14) (size 15 to 20)
#    0.000    1.500    5.000    2.250    1.750    1.000 
#    2.250    4.375    0.000    0.000    0.000    0.000 
#    0.000    0.000    0.000    0.000    0.000    0.000 
#
# Total GULP energy -198221.705036 kJ/mol
# GULP energy per Si atom -12388.856565 kJ/mol
# Density = 2.128017 g / cm^3
# Si number density = 21.328718 Si / 1000 Ang^3
#
#
#
# Elastic Constant Matrix: (Units=GPa)
#
#
# Indices 1 2 3 4 5 6 
#
# 1 96.7794 67.9203 37.2185 3.6764 -24.3717 -9.8485
# 2 67.9203 154.7718 48.5278 -9.2507 -10.1095 -14.6144
# 3 37.2185 48.5278 111.8024 -16.1815 -13.6712 -5.2103
# 4 3.6764 -9.2507 -16.1815 24.1763 8.8449 -9.4680
# 5 -24.3717 -10.1095 -13.6712 8.8449 26.4750 9.8312
# 6 -9.8485 -14.6144 -5.2103 -9.4680 9.8312 39.3101
#
#
#
# Elastic Compliance Matrix: (Units=1/GPa)
#
#
# Indices 1 2 3 4 5 6 
#
# 1 0.029829 -0.012288 -0.005465 -0.031670 0.035881 -0.014421
# 2 -0.012288 0.012866 -0.000693 0.015555 -0.015371 0.009203
# 3 -0.005465 -0.000693 0.012466 0.012103 -0.004402 0.004041
# 4 -0.031670 0.015555 0.012103 0.099525 -0.064943 0.039666
# 5 0.035881 -0.015371 -0.004402 -0.064943 0.098293 -0.037533
# 6 -0.014421 0.009203 0.004041 0.039666 -0.037533 0.044723
#
#
# Mechanical properties :
#
#
# Convention : Reuss Voigt Hill
#
# Bulk Modulus (GPa) = 54.73510 74.52074 64.62792
# Shear Modulus (GPa) = 14.67637 31.97142 23.32390
#
# Velocity S-wave (km/s) = 2.62602 3.87587 3.31047
# Velocity P-wave (km/s) = 5.90872 7.41922 6.70663
#
# Compressibility (1/GPa) = 0.01826981
#
# Stress axis : x y z
#
# Youngs Moduli (GPa) = 33.52403 77.72674 80.21767
#
# Poissons Ratio (x) = 0.95509 0.43837
# Poissons Ratio (y) = 0.41194 0.05560
# Poissons Ratio (z) = 0.18320 0.05387
#
# Static dielectric constant tensor:
#      x y z
#    x 4.587220 -0.191240 -0.420350 
#    y -0.191240 3.942380 0.351120 
#    z -0.420350 0.351120 4.118360 
# 
# 
# High freq. dielectric constant tensor:
#      x y z
#    x 1.835730 -0.007530 -0.019310 
#    y -0.007530 1.825320 0.014030 
#    z -0.019310 0.014030 1.844450 
# 
# From -- ./inp_files/317938.got.cif
#   From: 2010.06.25/outbox.cif.g09.slc.cpg/sg2_159_cif.got.tgz:317938.got - 2010.06.27 13:26:56.
