data_PCOD8042659
_publ_section_title
;
Structure prediction by ZEFSAII (Michael W. Deem and Ramdas Pophale) SiO2 
 PCOD8042659
Probable space group: P -1
;
_chemical_formula_sum "Si O2"
_cell_formula_units_Z 16
_cell_length_a 8.475022
_cell_length_b 8.818299
_cell_length_c 21.425628
_cell_angle_alpha 145.424880
_cell_angle_beta 113.926873
_cell_angle_gamma 60.659394
_cell_volume 792.115880
_symmetry_space_group_name_H-M "P -1"
_symmetry_group_IT_number 2
_symmetry_cell_setting 'triclinic'
loop_
_space_group_symop_operation_xyz
x,y,z
-x,-y,-z
loop_
_atom_site_type_symbol
_atom_site_label
_atom_site_fract_x
_atom_site_fract_y
_atom_site_fract_z
Si Si1 0.012202 0.078904 0.629103
Si Si2 0.689517 0.833482 0.997701
Si Si3 0.696520 0.352919 0.759670
Si Si4 0.300788 0.982569 0.228247
Si Si5 0.822466 0.471501 0.998020
Si Si6 0.303376 0.076313 0.775686
Si Si7 0.989218 0.438771 0.629710
Si Si8 0.303780 0.695667 0.764301
O O1 0.819612 0.179426 0.666412
O O2 0.019527 0.321784 0.664942
O O3 0.179571 0.010168 0.679768
O O4 0.026040 0.793480 0.499706
O O5 0.654858 0.662232 0.994624
O O6 0.785191 0.064023 0.114903
O O7 0.781944 0.602390 0.881080
O O8 0.500000 0.000000 0.000000
O O9 0.492630 0.482795 0.745772
O O10 0.702811 0.139307 0.744587
O O11 0.196055 0.310636 0.321335
O O12 0.505955 0.931330 0.224507
O O13 0.196545 0.839790 0.112724
O O14 0.801241 0.607316 0.109284
O O15 0.000000 0.500000 0.000000
O O16 0.334612 0.845986 0.756903
O O17 0.162858 0.531667 0.670703
#
# Coordination Sequence:
#
# PCOD8042659 Si02
#       8
#     2   2   2   2   2   2   2   2
#     4  11  25  43  60  82 115 157 207 256 300 350
#     4   8  16  31  55  86 118 148 180 225 283 348
#     4  10  20  38  63  90 121 156 194 242 299 357
#     4  11  22  38  62  91 123 158 196 240 295 356
#     4  10  19  35  59  90 124 156 190 235 291 352
#     4  11  22  38  62  91 123 158 196 240 295 356
#     4  11  25  43  60  82 115 157 207 256 300 350
#     4  10  20  38  63  90 121 156 194 242 299 357
#
# _framework density 20.199065000000001
#
# number of rings (size 3 to 8) (size 9 to 14) (size 15 to 20)
#    0.000    1.750    0.000    5.625    0.000    3.000 
#    0.000    5.000    0.000    0.000    0.000    0.000 
#    0.000    0.000    0.000    0.000    0.000    0.000 
#
# Total GULP energy -198237.789972 kJ/mol
# GULP energy per Si atom -12389.861873 kJ/mol
# Density = 2.015309 g / cm^3
# Si number density = 20.199065 Si / 1000 Ang^3
#
#
#
# Elastic Constant Matrix: (Units=GPa)
#
#
# Indices 1 2 3 4 5 6 
#
# 1 93.3478 4.7084 44.1284 5.7083 -9.2024 -10.1923
# 2 4.7084 85.2105 46.8113 3.2222 -8.1901 -8.6678
# 3 44.1284 46.8113 105.0627 2.1688 -9.7454 -1.8451
# 4 5.7083 3.2222 2.1688 31.2509 -4.8754 1.3114
# 5 -9.2024 -8.1901 -9.7454 -4.8754 24.2761 -0.4734
# 6 -10.1923 -8.6678 -1.8451 1.3114 -0.4734 30.2976
#
#
#
# Elastic Compliance Matrix: (Units=1/GPa)
#
#
# Indices 1 2 3 4 5 6 
#
# 1 0.015502 0.004676 -0.008079 -0.002414 0.003848 0.006225
# 2 0.004676 0.017665 -0.009342 -0.001700 0.003761 0.006190
# 3 -0.008079 -0.009342 0.017043 0.001575 0.000858 -0.004407
# 4 -0.002414 -0.001700 0.001575 0.033522 0.005826 -0.002563
# 5 0.003848 0.003761 0.000858 0.005826 0.045491 0.002881
# 6 0.006225 0.006190 -0.004407 -0.002563 0.002881 0.036759
#
#
# Mechanical properties :
#
#
# Convention : Reuss Voigt Hill
#
# Bulk Modulus (GPa) = 40.45110 52.76858 46.60984
# Shear Modulus (GPa) = 25.03598 29.69645 27.36621
#
# Velocity S-wave (km/s) = 3.52442 3.83846 3.68479
# Velocity P-wave (km/s) = 6.05242 6.76949 6.42097
#
# Compressibility (1/GPa) = 0.02472121
#
# Stress axis : x y z
#
# Youngs Moduli (GPa) = 64.50592 56.60963 58.67390
#
# Poissons Ratio (x) = -0.26470 0.47401
# Poissons Ratio (y) = -0.30162 0.54813
# Poissons Ratio (z) = 0.52112 0.52884
#
# Static dielectric constant tensor:
#      x y z
#    x 3.379360 -0.145990 0.012850 
#    y -0.145990 4.082940 0.122310 
#    z 0.012850 0.122310 4.764980 
# 
# 
# High freq. dielectric constant tensor:
#      x y z
#    x 1.771510 -0.014450 -0.002240 
#    y -0.014450 1.804150 -0.000420 
#    z -0.002240 -0.000420 1.799090 
# 
# From -- ./inp_files/227257.got.cif
#   From: 2010.06.25/outbox.cif.g09.slc.cpg/sg2_114_cif.got.tgz:227257.got - 2010.06.27 13:26:56.
