data_PCOD8042534
_publ_section_title
;
Structure prediction by ZEFSAII (Michael W. Deem and Ramdas Pophale) SiO2 
 PCOD8042534
Probable space group: P -1
;
_chemical_formula_sum "Si O2"
_cell_formula_units_Z 14
_cell_length_a 9.648202
_cell_length_b 7.958490
_cell_length_c 9.179803
_cell_angle_alpha 70.325385
_cell_angle_beta 76.734048
_cell_angle_gamma 84.144950
_cell_volume 645.774861
_symmetry_space_group_name_H-M "P -1"
_symmetry_group_IT_number 2
_symmetry_cell_setting 'triclinic'
loop_
_space_group_symop_operation_xyz
x,y,z
-x,-y,-z
loop_
_atom_site_type_symbol
_atom_site_label
_atom_site_fract_x
_atom_site_fract_y
_atom_site_fract_z
Si Si1 0.071198 0.160317 0.774897
Si Si2 0.701942 0.439334 0.149064
Si Si3 0.866628 0.401227 0.621211
Si Si4 0.476945 0.196177 0.383530
Si Si5 0.753403 0.659177 0.811884
Si Si6 0.989447 0.235421 0.092158
Si Si7 0.682352 0.595859 0.411798
O O1 0.204843 0.246214 0.637340
O O2 0.922615 0.203152 0.710496
O O3 0.060256 0.249969 0.911794
O O4 0.094392 0.948992 0.830002
O O5 0.612812 0.258706 0.238542
O O6 0.657766 0.565144 0.258154
O O7 0.871924 0.392864 0.107609
O O8 0.658189 0.563791 0.986390
O O9 0.810112 0.495351 0.751601
O O10 0.744311 0.410182 0.523952
O O11 0.000000 0.500000 0.500000
O O12 0.342065 0.204473 0.303320
O O13 0.456906 0.334273 0.485501
O O14 0.500000 0.000000 0.500000
O O15 0.885594 0.763061 0.818635
#
# Coordination Sequence:
#
# PCOD8042534 Si02
#       7
#     2   2   2   2   2   2   2
#     4  10  19  35  57  95 128 152 199 255 313 352
#     4  12  22  41  67  93 123 165 212 250 306 374
#     4   9  18  34  57  87 124 161 195 247 302 369
#     4  11  26  45  62  88 129 166 206 259 314 364
#     4  11  22  41  64  93 121 166 211 250 306 373
#     4  11  21  34  65  95 123 154 200 263 306 355
#     4  10  21  39  63  86 123 165 207 250 306 372
#
# _framework density 21.679383000000001
#
# number of rings (size 3 to 8) (size 9 to 14) (size 15 to 20)
#    0.000    1.429    2.857    3.857    0.000    1.143 
#    0.000    8.571    0.000    0.000    0.000    0.000 
#    0.000    0.000    0.000    0.000    0.000    0.000 
#
# Total GULP energy -173519.361502 kJ/mol
# GULP energy per Si atom -12394.240107 kJ/mol
# Density = 2.163004 g / cm^3
# Si number density = 21.679383 Si / 1000 Ang^3
#
#
#
# Elastic Constant Matrix: (Units=GPa)
#
#
# Indices 1 2 3 4 5 6 
#
# 1 71.0623 9.2251 31.9326 -2.8039 -0.7000 -11.7275
# 2 9.2251 55.8645 27.1469 -3.3083 8.6955 -14.9894
# 3 31.9326 27.1469 120.6575 4.5747 10.4269 -8.9039
# 4 -2.8039 -3.3083 4.5747 35.8427 -2.9706 2.8078
# 5 -0.7000 8.6955 10.4269 -2.9706 36.1966 -5.4609
# 6 -11.7275 -14.9894 -8.9039 2.8078 -5.4609 28.2395
#
#
#
# Elastic Compliance Matrix: (Units=1/GPa)
#
#
# Indices 1 2 3 4 5 6 
#
# 1 0.017161 0.000801 -0.004532 0.001702 0.002557 0.006449
# 2 0.000801 0.023312 -0.004521 0.001749 -0.002537 0.010617
# 3 -0.004532 -0.004521 0.010716 -0.002252 -0.002447 -0.001152
# 4 0.001702 0.001749 -0.002252 0.028796 0.002402 -0.001473
# 5 0.002557 -0.002537 -0.002447 0.002402 0.029864 0.004480
# 6 0.006449 0.010617 -0.001152 -0.001473 0.004480 0.044374
#
#
# Mechanical properties :
#
#
# Convention : Reuss Voigt Hill
#
# Bulk Modulus (GPa) = 28.82912 42.68818 35.75865
# Shear Modulus (GPa) = 27.42903 32.00772 29.71837
#
# Velocity S-wave (km/s) = 3.56084 3.84658 3.70647
# Velocity P-wave (km/s) = 5.49845 6.28185 5.90316
#
# Compressibility (1/GPa) = 0.03468716
#
# Stress axis : x y z
#
# Youngs Moduli (GPa) = 58.27147 42.89606 93.31635
#
# Poissons Ratio (x) = -0.03437 0.42288
# Poissons Ratio (y) = -0.04669 0.42185
# Poissons Ratio (z) = 0.26407 0.19392
#
# Static dielectric constant tensor:
#      x y z
#    x 3.989590 -0.262410 0.113840 
#    y -0.262410 3.633840 -0.082890 
#    z 0.113840 -0.082890 4.254460 
# 
# 
# High freq. dielectric constant tensor:
#      x y z
#    x 1.843070 -0.009520 -0.002170 
#    y -0.009520 1.826220 -0.000900 
#    z -0.002170 -0.000900 1.876080 
# 
# From -- ./inp_files/157179.got.cif
#   From: 2010.06.25/outbox.cif.g09.slc.cpg/sg2_79_cif.got.tgz:157179.got - 2010.06.27 13:26:56.
