data_PCOD8042486
_publ_section_title
;
Structure prediction by ZEFSAII (Michael W. Deem and Ramdas Pophale) SiO2 
 PCOD8042486
Probable space group: P -1
;
_chemical_formula_sum "Si O2"
_cell_formula_units_Z 14
_cell_length_a 20.810473
_cell_length_b 8.304911
_cell_length_c 10.473619
_cell_angle_alpha 42.100336
_cell_angle_beta 132.477065
_cell_angle_gamma 144.409887
_cell_volume 694.178634
_symmetry_space_group_name_H-M "P -1"
_symmetry_group_IT_number 2
_symmetry_cell_setting 'triclinic'
loop_
_space_group_symop_operation_xyz
x,y,z
-x,-y,-z
loop_
_atom_site_type_symbol
_atom_site_label
_atom_site_fract_x
_atom_site_fract_y
_atom_site_fract_z
Si Si1 0.389401 0.307685 0.644347
Si Si2 0.163970 0.749627 0.233409
Si Si3 0.631389 0.726893 0.654702
Si Si4 0.793757 0.702660 0.485446
Si Si5 0.800356 0.714572 0.191313
Si Si6 0.987606 0.650900 0.513710
Si Si7 0.633962 0.241662 0.040089
O O1 0.522425 0.576206 0.689718
O O2 0.387015 0.225742 0.541411
O O3 0.321114 0.425849 0.520098
O O4 0.333381 0.973289 0.833687
O O5 0.170889 0.508562 0.309387
O O6 0.057690 0.568759 0.292889
O O7 0.273611 0.939511 0.357354
O O8 0.159710 0.962737 0.005058
O O9 0.671322 0.515326 0.831093
O O10 0.769911 0.704436 0.303356
O O11 0.891202 0.041044 0.468486
O O12 0.905803 0.721603 0.319233
O O13 0.691198 0.415349 0.150009
O O14 0.000000 0.500000 0.500000
O O15 0.500000 0.000000 0.000000
#
# Coordination Sequence:
#
# PCOD8042486 Si02
#       7
#     2   2   2   2   2   2   2
#     4  10  19  35  57  80 113 145 184 232 272 320
#     4  10  21  38  56  81 114 143 184 225 275 336
#     4   9  19  35  57  81 106 148 187 226 275 323
#     4  11  23  36  56  85 113 147 184 225 279 331
#     4  10  21  38  58  81 115 149 178 229 281 320
#     4  11  23  39  60  83 108 145 190 230 272 327
#     4   9  18  35  57  80 107 145 187 223 268 325
#
# _framework density 20.167719000000002
#
# number of rings (size 3 to 8) (size 9 to 14) (size 15 to 20)
#    0.000    2.000    0.000    5.143    0.000    4.571 
#    0.000    6.429    0.000    0.000    0.000    0.000 
#    0.000    0.000    0.000    0.000    0.000    0.000 
#
# Total GULP energy -173493.884322 kJ/mol
# GULP energy per Si atom -12392.420309 kJ/mol
# Density = 2.012182 g / cm^3
# Si number density = 20.167719 Si / 1000 Ang^3
#
#
#
# Elastic Constant Matrix: (Units=GPa)
#
#
# Indices 1 2 3 4 5 6 
#
# 1 106.5599 16.2632 23.0463 -9.7629 21.1774 5.1633
# 2 16.2632 31.1884 3.1241 -9.0724 12.4606 -5.4048
# 3 23.0463 3.1241 77.7968 -6.5205 5.0276 3.7167
# 4 -9.7629 -9.0724 -6.5205 34.3353 -1.0348 -0.6426
# 5 21.1774 12.4606 5.0276 -1.0348 15.5354 2.4653
# 6 5.1633 -5.4048 3.7167 -0.6426 2.4653 24.7494
#
#
#
# Elastic Compliance Matrix: (Units=1/GPa)
#
#
# Indices 1 2 3 4 5 6 
#
# 1 0.013791 0.001567 -0.002642 0.003259 -0.018958 -0.000165
# 2 0.001567 0.059447 0.000909 0.015098 -0.051976 0.018088
# 3 -0.002642 0.000909 0.013913 0.002070 -0.001309 -0.001156
# 4 0.003259 0.015098 0.002070 0.034049 -0.015709 0.004755
# 5 -0.018958 -0.051976 -0.001309 -0.015709 0.134613 -0.021016
# 6 -0.000165 0.018088 -0.001156 0.004755 -0.021016 0.046780
#
#
# Mechanical properties :
#
#
# Convention : Reuss Voigt Hill
#
# Bulk Modulus (GPa) = 11.51823 33.37913 22.44868
# Shear Modulus (GPa) = 15.06633 26.46480 20.76557
#
# Velocity S-wave (km/s) = 2.73619 3.62641 3.21229
# Velocity P-wave (km/s) = 3.96307 5.84133 4.99135
#
# Compressibility (1/GPa) = 0.08681892
#
# Stress axis : x y z
#
# Youngs Moduli (GPa) = 72.51170 16.82164 71.87278
#
# Poissons Ratio (x) = -0.02636 0.18990
# Poissons Ratio (y) = -0.11362 -0.06532
# Poissons Ratio (z) = 0.19158 -0.01529
#
# Static dielectric constant tensor:
#      x y z
#    x 3.456770 -0.071560 0.139150 
#    y -0.071560 3.937450 -0.137510 
#    z 0.139150 -0.137510 3.999760 
# 
# 
# High freq. dielectric constant tensor:
#      x y z
#    x 1.754780 -0.004010 0.009220 
#    y -0.004010 1.807500 -0.003850 
#    z 0.009220 -0.003850 1.799720 
# 
# From -- ./inp_files/253797.got.cif
#   From: 2010.06.25/outbox.cif.g09.slc.cpg/sg2_127_cif.got.tgz:253797.got - 2010.06.27 13:26:56.
