data_PCOD8042239
_publ_section_title
;
Structure prediction by ZEFSAII (Michael W. Deem and Ramdas Pophale) SiO2 
 PCOD8042239
Probable space group: P -1
;
_chemical_formula_sum "Si O2"
_cell_formula_units_Z 16
_cell_length_a 11.771988
_cell_length_b 9.588270
_cell_length_c 13.521281
_cell_angle_alpha 132.032794
_cell_angle_beta 70.971481
_cell_angle_gamma 136.750324
_cell_volume 736.492507
_symmetry_space_group_name_H-M "P -1"
_symmetry_group_IT_number 2
_symmetry_cell_setting 'triclinic'
loop_
_space_group_symop_operation_xyz
x,y,z
-x,-y,-z
loop_
_atom_site_type_symbol
_atom_site_label
_atom_site_fract_x
_atom_site_fract_y
_atom_site_fract_z
Si Si1 0.129534 0.567682 0.285187
Si Si2 0.872543 0.763573 0.002188
Si Si3 0.356380 0.886044 0.905615
Si Si4 0.325469 0.546111 0.595790
Si Si5 0.801225 0.332121 0.473184
Si Si6 0.266205 0.010440 0.824644
Si Si7 0.277329 0.068042 0.363934
Si Si8 0.893513 0.201144 0.918399
O O1 0.213396 0.515726 0.157934
O O2 0.249100 0.686238 0.406873
O O3 0.925091 0.290988 0.231208
O O4 0.150977 0.798368 0.340215
O O5 0.979226 0.824767 0.098652
O O6 0.729086 0.757827 0.070934
O O7 0.000000 0.000000 0.000000
O O8 0.293943 0.623834 0.744448
O O9 0.412168 0.093507 0.899467
O O10 0.208639 0.841637 0.977932
O O11 0.500000 0.000000 0.000000
O O12 0.218279 0.508605 0.515902
O O13 0.262652 0.263597 0.500877
O O14 0.525984 0.783617 0.616591
O O15 0.692543 0.032374 0.315158
O O16 0.000000 0.500000 0.500000
O O17 0.226685 0.008558 0.234811
O O18 0.000000 0.500000 0.000000
#
# Coordination Sequence:
#
# PCOD8042239 Si02
#       8
#     2   2   2   2   2   2   2   2
#     4  10  19  37  59  86 117 151 196 253 291 341
#     4  10  19  34  60  90 111 152 203 246 288 353
#     4  11  20  39  63  87 120 161 196 248 303 366
#     4  10  24  40  61  86 119 160 203 242 303 368
#     4   9  20  37  59  81 115 157 193 243 296 350
#     4   9  19  37  59  91 114 152 208 241 296 356
#     4  11  23  40  58  90 122 156 201 247 304 360
#     4  12  22  39  63  91 120 157 202 256 299 348
#
# _framework density 21.724592999999999
#
# number of rings (size 3 to 8) (size 9 to 14) (size 15 to 20)
#    0.000    1.750    5.000    0.000    5.250    0.500 
#    2.250    6.250    0.000    2.250    0.000    0.000 
#    0.000    0.000    0.000    0.000    0.000    0.000 
#
# Total GULP energy -198236.478327 kJ/mol
# GULP energy per Si atom -12389.779895 kJ/mol
# Density = 2.167515 g / cm^3
# Si number density = 21.724593 Si / 1000 Ang^3
#
#
#
# Elastic Constant Matrix: (Units=GPa)
#
#
# Indices 1 2 3 4 5 6 
#
# 1 126.2902 18.7627 58.0248 -5.8247 4.1620 -43.0354
# 2 18.7627 50.0134 34.5345 -4.5851 4.5009 -28.1175
# 3 58.0248 34.5345 143.0047 -22.8127 -5.9664 -27.9224
# 4 -5.8247 -4.5851 -22.8127 33.1263 -15.3776 2.2895
# 5 4.1620 4.5009 -5.9664 -15.3776 42.7786 -4.5511
# 6 -43.0354 -28.1175 -27.9224 2.2895 -4.5511 34.5780
#
#
#
# Elastic Compliance Matrix: (Units=1/GPa)
#
#
# Indices 1 2 3 4 5 6 
#
# 1 0.018213 0.013027 -0.005063 -0.001011 -0.001117 0.029092
# 2 0.013027 0.047907 -0.007556 -0.000795 -0.002456 0.048797
# 3 -0.005063 -0.007556 0.012155 0.009443 0.006117 -0.002451
# 4 -0.001011 -0.000795 0.009443 0.044407 0.018010 0.005152
# 5 -0.001117 -0.002456 0.006117 0.018010 0.031551 0.004512
# 6 0.029092 0.048797 -0.002451 0.005152 0.004512 0.103080
#
#
# Mechanical properties :
#
#
# Convention : Reuss Voigt Hill
#
# Bulk Modulus (GPa) = 12.64395 60.21693 36.43044
# Shear Modulus (GPa) = 17.67644 35.96234 26.81939
#
# Velocity S-wave (km/s) = 2.85557 4.07304 3.51738
# Velocity P-wave (km/s) = 4.08719 7.06386 5.77075
#
# Compressibility (1/GPa) = 0.07908921
#
# Stress axis : x y z
#
# Youngs Moduli (GPa) = 54.90594 20.87383 82.26961
#
# Poissons Ratio (x) = -0.27192 0.41656
# Poissons Ratio (y) = -0.71525 0.62166
# Poissons Ratio (z) = 0.27801 0.15773
#
# Static dielectric constant tensor:
#      x y z
#    x 4.209040 -0.275780 -0.237680 
#    y -0.275780 3.479260 -0.417760 
#    z -0.237680 -0.417760 4.934630 
# 
# 
# High freq. dielectric constant tensor:
#      x y z
#    x 1.861260 -0.027010 -0.006180 
#    y -0.027010 1.815920 -0.022300 
#    z -0.006180 -0.022300 1.869200 
# 
# From -- ./inp_files/345287.got.cif
#   From: 2010.06.25/outbox.cif.g09.slc.cpg/sg2_173_cif.got.tgz:345287.got - 2010.06.27 13:26:56.
