data_PCOD8042595
_publ_section_title
;
Structure prediction by ZEFSAII (Michael W. Deem and Ramdas Pophale) SiO2 
 PCOD8042595
Probable space group: P -1
;
_chemical_formula_sum "Si O2"
_cell_formula_units_Z 14
_cell_length_a 18.288965
_cell_length_b 5.025810
_cell_length_c 8.266465
_cell_angle_alpha 79.897527
_cell_angle_beta 55.034613
_cell_angle_gamma 62.753898
_cell_volume 549.633398
_symmetry_space_group_name_H-M "P -1"
_symmetry_group_IT_number 2
_symmetry_cell_setting 'triclinic'
loop_
_space_group_symop_operation_xyz
x,y,z
-x,-y,-z
loop_
_atom_site_type_symbol
_atom_site_label
_atom_site_fract_x
_atom_site_fract_y
_atom_site_fract_z
Si Si1 0.388847 0.625729 0.187273
Si Si2 0.754637 0.497954 0.192177
Si Si3 0.685962 0.836878 0.547904
Si Si4 0.921822 0.670436 0.920770
Si Si5 0.236029 0.733615 0.117239
Si Si6 0.079906 0.751975 0.535288
Si Si7 0.135516 0.080685 0.705187
O O1 0.362795 0.352548 0.285773
O O2 0.314223 0.806507 0.115111
O O3 0.376008 0.826054 0.341867
O O4 0.500000 0.500000 0.000000
O O5 0.686255 0.795373 0.354344
O O6 0.768843 0.204071 0.307654
O O7 0.867709 0.455117 0.020087
O O8 0.706529 0.502573 0.076215
O O9 0.805269 0.722998 0.452964
O O10 0.027912 0.537513 0.696511
O O11 0.844848 0.965712 0.894219
O O12 0.943917 0.751159 0.067872
O O13 0.181246 0.588223 0.320082
O O14 0.089646 0.953830 0.643557
O O15 0.000000 0.000000 0.500000
#
# Coordination Sequence:
#
# PCOD8042595 Si02
#       7
#     2   2   2   2   2   2   2
#     4  12  26  45  72 102 128 167 218 272 335 397
#     4  10  21  39  66  93 131 179 221 261 327 388
#     4  11  22  45  70  95 133 172 212 266 333 395
#     4   9  21  35  62  91 134 177 221 266 318 388
#     4  10  22  40  62  95 133 170 218 278 325 381
#     4  10  19  35  58  94 136 172 224 269 323 376
#     4  10  19  39  62  91 134 177 219 260 327 387
#
# _framework density 25.471523000000001
#
# number of rings (size 3 to 8) (size 9 to 14) (size 15 to 20)
#    0.000    1.714    2.857    0.857    2.000    1.143 
#    0.000    7.143    0.000    0.000    0.000    0.000 
#    0.000    0.000    0.000    0.000    0.000    0.000 
#
# Total GULP energy -173489.453205 kJ/mol
# GULP energy per Si atom -12392.103800 kJ/mol
# Density = 2.541355 g / cm^3
# Si number density = 25.471523 Si / 1000 Ang^3
#
#
#
# Elastic Constant Matrix: (Units=GPa)
#
#
# Indices 1 2 3 4 5 6 
#
# 1 94.2027 26.7427 76.9359 6.4437 13.1241 11.0749
# 2 26.7427 80.8514 60.3581 3.9805 4.2824 24.8079
# 3 76.9359 60.3581 188.6658 17.7353 -8.0000 4.6752
# 4 6.4437 3.9805 17.7353 55.4000 8.4888 5.4592
# 5 13.1241 4.2824 -8.0000 8.4888 54.4547 2.7606
# 6 11.0749 24.8079 4.6752 5.4592 2.7606 30.3422
#
#
#
# Elastic Compliance Matrix: (Units=1/GPa)
#
#
# Indices 1 2 3 4 5 6 
#
# 1 0.018507 0.002988 -0.008761 0.002102 -0.005920 -0.007688
# 2 0.002988 0.024066 -0.008879 0.003228 -0.003423 -0.019668
# 3 -0.008761 -0.008879 0.012051 -0.003797 0.004723 0.008854
# 4 0.002102 0.003228 -0.003797 0.020019 -0.004132 -0.006047
# 5 -0.005920 -0.003423 0.004723 -0.004132 0.021244 0.003043
# 6 -0.007688 -0.019668 0.008854 -0.006047 0.003043 0.051291
#
#
# Mechanical properties :
#
#
# Convention : Reuss Voigt Hill
#
# Bulk Modulus (GPa) = 39.49415 76.86591 58.18003
# Shear Modulus (GPa) = 27.03843 41.35159 34.19501
#
# Velocity S-wave (km/s) = 3.26163 4.03357 3.66796
# Velocity P-wave (km/s) = 5.45189 7.20664 6.38979
#
# Compressibility (1/GPa) = 0.02532020
#
# Stress axis : x y z
#
# Youngs Moduli (GPa) = 54.03282 41.55325 82.97802
#
# Poissons Ratio (x) = -0.12415 0.72698
# Poissons Ratio (y) = -0.16144 0.73674
# Poissons Ratio (z) = 0.47339 0.36894
#
# Static dielectric constant tensor:
#      x y z
#    x 4.638780 0.150240 0.401310 
#    y 0.150240 4.912430 -0.273240 
#    z 0.401310 -0.273240 5.615710 
# 
# 
# High freq. dielectric constant tensor:
#      x y z
#    x 1.992360 0.013860 0.024630 
#    y 0.013860 2.024270 -0.021440 
#    z 0.024630 -0.021440 2.040760 
# 
# From -- ./inp_files/37603.got.cif
#   From: 2010.06.25/outbox.cif.g09.slc.cpg/sg2_19_cif.got.tgz:37603.got - 2010.06.27 13:26:56.
