data_PCOD8042854
_publ_section_title
;
Structure prediction by ZEFSAII (Michael W. Deem and Ramdas Pophale) SiO2 
 PCOD8042854
Probable space group: P -1
;
_chemical_formula_sum "Si O2"
_cell_formula_units_Z 12
_cell_length_a 13.681283
_cell_length_b 9.893600
_cell_length_c 8.519849
_cell_angle_alpha 92.800831
_cell_angle_beta 150.009016
_cell_angle_gamma 97.006103
_cell_volume 543.697292
_symmetry_space_group_name_H-M "P -1"
_symmetry_group_IT_number 2
_symmetry_cell_setting 'triclinic'
loop_
_space_group_symop_operation_xyz
x,y,z
-x,-y,-z
loop_
_atom_site_type_symbol
_atom_site_label
_atom_site_fract_x
_atom_site_fract_y
_atom_site_fract_z
Si Si1 0.846953 0.913303 0.151673
Si Si2 0.272845 0.918154 0.244198
Si Si3 0.796633 0.610635 0.119363
Si Si4 0.442701 0.879213 0.780870
Si Si5 0.396864 0.563009 0.724818
Si Si6 0.980960 0.389028 0.242083
O O1 0.885813 0.763705 0.165041
O O2 0.624037 0.889221 0.913242
O O3 0.000000 0.000000 0.500000
O O4 0.873767 0.996921 0.026887
O O5 0.267737 0.909157 0.427191
O O6 0.500000 0.000000 0.500000
O O7 0.185968 0.757144 0.050911
O O8 0.909220 0.627673 0.444801
O O9 0.846070 0.493642 0.076418
O O10 0.546101 0.571313 0.783730
O O11 0.377967 0.718932 0.755157
O O12 0.500000 0.000000 0.000000
O O13 0.162323 0.454849 0.367987
O O14 0.500000 0.500000 0.000000
#
# Coordination Sequence:
#
# PCOD8042854 Si02
#       6
#     2   2   2   2   2   2
#     4  10  19  37  65  87 122 157 204 254 301 370
#     4  10  22  39  62  91 122 161 211 255 303 372
#     4   9  19  35  62  93 117 162 202 247 311 370
#     4  10  23  40  61  86 124 164 202 259 311 357
#     4   9  20  37  59  89 121 157 206 252 300 370
#     4  10  19  35  63  87 123 163 200 250 315 364
#
# _framework density 22.071106
#
# number of rings (size 3 to 8) (size 9 to 14) (size 15 to 20)
#    0.000    2.333    1.667    0.000    2.333    4.667 
#    0.000   10.000    7.333    0.000    0.000    0.000 
#    0.000    0.000    0.000    0.000    0.000    0.000 
#
# Total GULP energy -148665.536434 kJ/mol
# GULP energy per Si atom -12388.794703 kJ/mol
# Density = 2.202087 g / cm^3
# Si number density = 22.071106 Si / 1000 Ang^3
#
#
#
# Elastic Constant Matrix: (Units=GPa)
#
#
# Indices 1 2 3 4 5 6 
#
# 1 51.8597 56.0102 41.1852 1.3074 1.4709 -6.6490
# 2 56.0102 220.1415 77.0819 -0.0739 -9.0790 4.2894
# 3 41.1852 77.0819 109.6520 13.3919 -3.0450 4.1352
# 4 1.3074 -0.0739 13.3919 46.3776 13.3165 -3.0937
# 5 1.4709 -9.0790 -3.0450 13.3165 32.5338 -6.2870
# 6 -6.6490 4.2894 4.1352 -3.0937 -6.2870 28.3004
#
#
#
# Elastic Compliance Matrix: (Units=1/GPa)
#
#
# Indices 1 2 3 4 5 6 
#
# 1 0.034578 -0.005667 -0.009919 0.003584 -0.003603 0.010024
# 2 -0.005667 0.007050 -0.002780 0.000444 0.001469 -0.001619
# 3 -0.009919 -0.002780 0.015667 -0.005239 0.002467 -0.004223
# 4 0.003584 0.000444 -0.005239 0.026232 -0.010881 0.001991
# 5 -0.003603 0.001469 0.002467 -0.010881 0.037080 0.005618
# 6 0.010024 -0.001619 -0.004223 0.001991 0.005618 0.040018
#
#
# Mechanical properties :
#
#
# Convention : Reuss Voigt Hill
#
# Bulk Modulus (GPa) = 48.63172 81.13419 64.88295
# Shear Modulus (GPa) = 24.48432 35.26742 29.87587
#
# Velocity S-wave (km/s) = 3.33429 4.00171 3.68315
# Velocity P-wave (km/s) = 6.07497 7.62835 6.89554
#
# Compressibility (1/GPa) = 0.02056271
#
# Stress axis : x y z
#
# Youngs Moduli (GPa) = 28.92006 141.84432 63.82767
#
# Poissons Ratio (x) = 0.80384 0.63314
# Poissons Ratio (y) = 0.16389 0.17742
# Poissons Ratio (z) = 0.28687 0.39429
#
# Static dielectric constant tensor:
#      x y z
#    x 3.851720 0.401880 0.186640 
#    y 0.401880 4.609740 -0.347690 
#    z 0.186640 -0.347690 4.274230 
# 
# 
# High freq. dielectric constant tensor:
#      x y z
#    x 1.832080 0.016670 0.014040 
#    y 0.016670 1.893790 -0.009730 
#    z 0.014040 -0.009730 1.869130 
# 
# From -- ./inp_files/145367.got.cif
#   From: 2010.06.25/outbox.cif.g09.slc.cpg/sg2_73_cif.got.tgz:145367.got - 2010.06.27 13:26:56.
