data_PCOD8042688
_publ_section_title
;
Structure prediction by ZEFSAII (Michael W. Deem and Ramdas Pophale) SiO2 
 PCOD8042688
Probable space group: P -1
;
_chemical_formula_sum "Si O2"
_cell_formula_units_Z 16
_cell_length_a 16.600038
_cell_length_b 5.459202
_cell_length_c 22.412679
_cell_angle_alpha 77.103587
_cell_angle_beta 24.061739
_cell_angle_gamma 88.645287
_cell_volume 719.538806
_symmetry_space_group_name_H-M "P -1"
_symmetry_group_IT_number 2
_symmetry_cell_setting 'triclinic'
loop_
_space_group_symop_operation_xyz
x,y,z
-x,-y,-z
loop_
_atom_site_type_symbol
_atom_site_label
_atom_site_fract_x
_atom_site_fract_y
_atom_site_fract_z
Si Si1 0.078262 0.298953 0.990961
Si Si2 0.581237 0.473503 0.039698
Si Si3 0.225471 0.075565 0.379630
Si Si4 0.053877 0.171589 0.144568
Si Si5 0.786930 0.503057 0.335383
Si Si6 0.328844 0.301744 0.711923
Si Si7 0.692446 0.305354 0.857503
Si Si8 0.094571 0.474883 0.501711
O O1 0.290745 0.334753 0.806153
O O2 0.151203 0.351675 0.007702
O O3 0.000000 0.500000 0.000000
O O4 0.861367 0.003889 0.158136
O O5 0.735156 0.749593 0.959206
O O6 0.733074 0.417132 0.891758
O O7 0.452546 0.197175 0.181949
O O8 0.375659 0.497142 0.147142
O O9 0.245156 0.311005 0.402800
O O10 0.220501 0.791957 0.426355
O O11 0.000000 0.000000 0.500000
O O12 0.910887 0.308515 0.265639
O O13 0.930250 0.831939 0.240201
O O14 0.578120 0.348713 0.529767
O O15 0.706669 0.485709 0.321649
O O16 0.907261 0.295741 0.685952
O O17 0.500000 0.000000 0.000000
O O18 0.000000 0.500000 0.500000
#
# Coordination Sequence:
#
# PCOD8042688 Si02
#       8
#     2   2   2   2   2   2   2   2
#     4  10  19  37  65  97 124 162 208 252 301 370
#     4  11  25  40  62  89 124 163 207 265 318 366
#     4  10  19  37  61  86 110 151 202 249 301 367
#     4  11  25  41  60  92 131 165 202 258 317 366
#     4  10  22  40  64  92 127 167 208 248 306 370
#     4   9  20  36  66  95 123 168 211 250 292 371
#     4  11  23  39  65  89 114 165 213 258 309 381
#     4  10  19  35  60  86 110 139 202 251 297 357
#
# _framework density 22.236466
#
# number of rings (size 3 to 8) (size 9 to 14) (size 15 to 20)
#    0.000    1.750    3.750    1.500    5.250    1.500 
#    0.000    2.500    0.000    0.000    0.000    0.000 
#    0.000    0.000    0.000    0.000    0.000    0.000 
#
# Total GULP energy -198210.209691 kJ/mol
# GULP energy per Si atom -12388.138106 kJ/mol
# Density = 2.218585 g / cm^3
# Si number density = 22.236466 Si / 1000 Ang^3
#
#
#
# Elastic Constant Matrix: (Units=GPa)
#
#
# Indices 1 2 3 4 5 6 
#
# 1 59.9327 14.9735 45.3924 10.7220 17.7266 25.7886
# 2 14.9735 129.2793 36.8083 13.3323 18.0386 7.5010
# 3 45.3924 36.8083 141.2575 0.0978 38.3517 14.8893
# 4 10.7220 13.3323 0.0978 25.6194 -2.5927 5.2954
# 5 17.7266 18.0386 38.3517 -2.5927 27.7507 1.3292
# 6 25.7886 7.5010 14.8893 5.2954 1.3292 24.0883
#
#
#
# Elastic Compliance Matrix: (Units=1/GPa)
#
#
# Indices 1 2 3 4 5 6 
#
# 1 0.050964 0.003754 -0.004847 -0.016200 -0.027526 -0.047653
# 2 0.003754 0.009588 -0.001259 -0.006378 -0.007274 -0.004423
# 3 -0.004847 -0.001259 0.012873 0.001667 -0.013624 -0.001990
# 4 -0.016200 -0.006378 0.001667 0.049448 0.016497 0.006518
# 5 -0.027526 -0.007274 -0.013624 0.016497 0.077171 0.032271
# 6 -0.047653 -0.004423 -0.001990 0.006518 0.032271 0.091924
#
#
# Mechanical properties :
#
#
# Convention : Reuss Voigt Hill
#
# Bulk Modulus (GPa) = 14.55205 58.31311 36.43258
# Shear Modulus (GPa) = 15.64557 31.04471 23.34514
#
# Velocity S-wave (km/s) = 2.65542 3.74052 3.24367
# Velocity P-wave (km/s) = 3.99501 6.70346 5.51799
#
# Compressibility (1/GPa) = 0.06871883
#
# Stress axis : x y z
#
# Youngs Moduli (GPa) = 19.62183 104.29408 77.68438
#
# Poissons Ratio (x) = -0.39150 0.37657
# Poissons Ratio (y) = -0.07366 0.09782
# Poissons Ratio (z) = 0.09512 0.13132
#
# Static dielectric constant tensor:
#      x y z
#    x 3.354520 0.372990 0.124300 
#    y 0.372990 4.379860 0.208920 
#    z 0.124300 0.208920 3.910000 
# 
# 
# High freq. dielectric constant tensor:
#      x y z
#    x 1.837070 0.008600 0.029120 
#    y 0.008600 1.881190 -0.001570 
#    z 0.029120 -0.001570 1.879980 
# 
# From -- ./inp_files/105382.got.cif
#   From: 2010.06.25/outbox.cif.g09.slc.cpg/sg2_53_cif.got.tgz:105382.got - 2010.06.27 13:26:56.
