data_PCOD8042784
_publ_section_title
;
Structure prediction by ZEFSAII (Michael W. Deem and Ramdas Pophale) SiO2 
 PCOD8042784
Probable space group: P -1
;
_chemical_formula_sum "Si O2"
_cell_formula_units_Z 16
_cell_length_a 14.406081
_cell_length_b 12.082772
_cell_length_c 9.141912
_cell_angle_alpha 106.590547
_cell_angle_beta 48.387549
_cell_angle_gamma 136.274495
_cell_volume 761.959904
_symmetry_space_group_name_H-M "P -1"
_symmetry_group_IT_number 2
_symmetry_cell_setting 'triclinic'
loop_
_space_group_symop_operation_xyz
x,y,z
-x,-y,-z
loop_
_atom_site_type_symbol
_atom_site_label
_atom_site_fract_x
_atom_site_fract_y
_atom_site_fract_z
Si Si1 0.992529 0.652038 0.666914
Si Si2 0.358414 0.095608 0.862439
Si Si3 0.737628 0.839801 0.602415
Si Si4 0.973358 0.151810 0.680867
Si Si5 0.723303 0.971266 0.409792
Si Si6 0.564347 0.418670 0.955739
Si Si7 0.451447 0.933764 0.861775
Si Si8 0.074823 0.635514 0.264536
O O1 0.012698 0.553303 0.713982
O O2 0.087639 0.823216 0.718362
O O3 0.114947 0.700634 0.415500
O O4 0.784745 0.549304 0.798695
O O5 0.359947 0.105979 0.690594
O O6 0.452882 0.042751 0.792944
O O7 0.491411 0.287607 0.853187
O O8 0.145895 0.958159 0.090012
O O9 0.533305 0.683773 0.827135
O O10 0.839743 0.790300 0.505661
O O11 0.840251 0.021821 0.636252
O O12 0.748420 0.865514 0.425067
O O13 0.036190 0.330183 0.672315
O O14 0.579036 0.927090 0.655856
O O15 0.500000 0.500000 0.000000
O O16 0.248629 0.739280 0.015899
O O17 0.500000 0.000000 0.000000
#
# Coordination Sequence:
#
# PCOD8042784 Si02
#       8
#     2   2   2   2   2   2   2   2
#     4  11  22  35  63  97 124 158 208 265 309 366
#     4  10  24  39  64  95 127 163 207 265 316 373
#     4  10  20  37  66  84 123 166 213 250 309 381
#     4   9  18  38  61  90 113 167 219 251 290 385
#     4  12  23  39  64  98 128 161 207 263 323 369
#     4  11  24  42  65  92 124 166 219 258 308 376
#     4  11  19  40  65  89 124 174 216 245 301 391
#     4  10  19  35  61  89 122 156 215 253 302 354
#
# _framework density 20.998479
#
# number of rings (size 3 to 8) (size 9 to 14) (size 15 to 20)
#    0.000    1.500    2.500    4.125    5.250    0.500 
#    0.000    3.125    8.250    0.000    0.000    0.000 
#    0.000    0.000    0.000    0.000    0.000    0.000 
#
# Total GULP energy -198235.747349 kJ/mol
# GULP energy per Si atom -12389.734209 kJ/mol
# Density = 2.095069 g / cm^3
# Si number density = 20.998479 Si / 1000 Ang^3
#
#
#
# Elastic Constant Matrix: (Units=GPa)
#
#
# Indices 1 2 3 4 5 6 
#
# 1 101.1429 46.0870 46.1344 -9.2750 18.0172 -10.9567
# 2 46.0870 85.5738 26.0747 -14.5149 5.1372 -10.0285
# 3 46.1344 26.0747 81.2160 -1.7659 5.4560 3.9647
# 4 -9.2750 -14.5149 -1.7659 17.0706 0.3495 7.5119
# 5 18.0172 5.1372 5.4560 0.3495 43.1529 2.9031
# 6 -10.9567 -10.0285 3.9647 7.5119 2.9031 30.2408
#
#
#
# Elastic Compliance Matrix: (Units=1/GPa)
#
#
# Indices 1 2 3 4 5 6 
#
# 1 0.018320 -0.006002 -0.008316 0.001492 -0.006297 0.005972
# 2 -0.006002 0.017496 -0.002062 0.010889 0.000519 0.001143
# 3 -0.008316 -0.002062 0.017810 -0.001947 0.001867 -0.005727
# 4 0.001492 0.010889 -0.001947 0.074638 -0.001335 -0.014006
# 5 -0.006297 0.000519 0.001867 -0.001335 0.025818 -0.004501
# 6 0.005972 0.001143 -0.005727 -0.014006 -0.004501 0.040273
#
#
# Mechanical properties :
#
#
# Convention : Reuss Voigt Hill
#
# Bulk Modulus (GPa) = 47.92065 56.05832 51.98949
# Shear Modulus (GPa) = 21.36098 28.06864 24.71481
#
# Velocity S-wave (km/s) = 3.19292 3.66006 3.43444
# Velocity P-wave (km/s) = 6.03850 6.67950 6.36707
#
# Compressibility (1/GPa) = 0.02086783
#
# Stress axis : x y z
#
# Youngs Moduli (GPa) = 54.58383 57.15510 56.14679
#
# Poissons Ratio (x) = 0.34304 0.46691
# Poissons Ratio (y) = 0.32761 0.11576
# Poissons Ratio (z) = 0.45392 0.11784
#
# Static dielectric constant tensor:
#      x y z
#    x 3.789330 -0.334780 -0.080360 
#    y -0.334780 3.638480 -0.238190 
#    z -0.080360 -0.238190 4.144760 
# 
# 
# High freq. dielectric constant tensor:
#      x y z
#    x 1.823390 -0.034090 -0.005580 
#    y -0.034090 1.794950 -0.017100 
#    z -0.005580 -0.017100 1.830400 
# 
# From -- ./inp_files/202030.got.cif
#   From: 2010.06.25/outbox.cif.g09.slc.cpg/sg2_102_cif.got.tgz:202030.got - 2010.06.27 13:26:56.
