data_PCOD8042377
_publ_section_title
;
Structure prediction by ZEFSAII (Michael W. Deem and Ramdas Pophale) SiO2 
 PCOD8042377
Probable space group: P -1
;
_chemical_formula_sum "Si O2"
_cell_formula_units_Z 14
_cell_length_a 12.437134
_cell_length_b 9.520925
_cell_length_c 13.709542
_cell_angle_alpha 123.011108
_cell_angle_beta 56.365754
_cell_angle_gamma 148.507898
_cell_volume 696.182391
_symmetry_space_group_name_H-M "P -1"
_symmetry_group_IT_number 2
_symmetry_cell_setting 'triclinic'
loop_
_space_group_symop_operation_xyz
x,y,z
-x,-y,-z
loop_
_atom_site_type_symbol
_atom_site_label
_atom_site_fract_x
_atom_site_fract_y
_atom_site_fract_z
Si Si1 0.236704 0.060204 0.414784
Si Si2 0.007271 0.511442 0.284364
Si Si3 0.656184 0.310481 0.272463
Si Si4 0.037644 0.101360 0.679833
Si Si5 0.393930 0.824363 0.082617
Si Si6 0.961358 0.091784 0.197016
Si Si7 0.682414 0.625856 0.023843
O O1 0.482262 0.267872 0.376107
O O2 0.168804 0.053586 0.337010
O O3 0.111667 0.761835 0.393513
O O4 0.190422 0.154210 0.552116
O O5 0.774377 0.339273 0.312375
O O6 0.981198 0.312444 0.281955
O O7 0.157206 0.641817 0.161568
O O8 0.555139 0.051365 0.169487
O O9 0.834719 0.602394 0.236538
O O10 0.980376 0.932098 0.738066
O O11 0.392883 0.626671 0.991132
O O12 0.500000 0.000000 0.000000
O O13 0.734570 0.802207 0.156543
O O14 0.121087 0.187775 0.074490
O O15 0.500000 0.500000 0.000000
#
# Coordination Sequence:
#
# PCOD8042377 Si02
#       7
#     2   2   2   2   2   2   2
#     4   9  20  37  55  79 106 139 178 222 264 308
#     4   9  20  36  52  75 108 139 172 219 265 313
#     4  10  19  35  54  74 106 139 173 220 266 310
#     4  10  20  35  57  80 106 138 179 221 263 314
#     4  10  20  33  52  77 102 137 179 215 261 312
#     4  10  21  36  54  79 108 141 175 215 267 315
#     4  10  21  36  53  77 110 140 173 217 262 314
#
# _framework density 20.109673999999998
#
# number of rings (size 3 to 8) (size 9 to 14) (size 15 to 20)
#    0.000    2.286    0.000    2.143    0.000    5.714 
#    0.000    0.714    0.000    0.000    0.000    0.000 
#    0.000    0.000    0.000    0.000    0.000    0.000 
#
# Total GULP energy -173435.681991 kJ/mol
# GULP energy per Si atom -12388.262999 kJ/mol
# Density = 2.006390 g / cm^3
# Si number density = 20.109674 Si / 1000 Ang^3
#
#
#
# Elastic Constant Matrix: (Units=GPa)
#
#
# Indices 1 2 3 4 5 6 
#
# 1 120.3668 54.9318 21.3168 2.1540 -3.6379 -12.0451
# 2 54.9318 99.2827 24.5189 13.0572 3.9520 -13.6826
# 3 21.3168 24.5189 31.1436 13.5151 2.6206 -13.6603
# 4 2.1540 13.0572 13.5151 24.3450 -1.0907 1.5217
# 5 -3.6379 3.9520 2.6206 -1.0907 24.6902 -7.0808
# 6 -12.0451 -13.6826 -13.6603 1.5217 -7.0808 35.3666
#
#
#
# Elastic Compliance Matrix: (Units=1/GPa)
#
#
# Indices 1 2 3 4 5 6 
#
# 1 0.012251 -0.006124 -0.006628 0.006062 0.003676 -0.000282
# 2 -0.006124 0.015720 -0.004770 -0.005475 -0.002619 0.001865
# 3 -0.006628 -0.004770 0.065338 -0.034617 -0.002322 0.022159
# 4 0.006062 -0.005475 -0.034617 0.063829 0.003847 -0.015400
# 5 0.003676 -0.002619 -0.002322 0.003847 0.044180 0.008021
# 6 -0.000282 0.001865 0.022159 -0.015400 0.008021 0.039728
#
#
# Mechanical properties :
#
#
# Convention : Reuss Voigt Hill
#
# Bulk Modulus (GPa) = 17.16283 50.25869 33.71076
# Shear Modulus (GPa) = 16.91989 26.88206 21.90098
#
# Velocity S-wave (km/s) = 2.90380 3.66016 3.30370
# Velocity P-wave (km/s) = 4.44926 6.55049 5.59932
#
# Compressibility (1/GPa) = 0.05826543
#
# Stress axis : x y z
#
# Youngs Moduli (GPa) = 81.62693 63.61389 15.30502
#
# Poissons Ratio (x) = 0.38956 0.10144
# Poissons Ratio (y) = 0.49987 0.07301
# Poissons Ratio (z) = 0.54100 0.30345
#
# Static dielectric constant tensor:
#      x y z
#    x 3.016740 0.525650 0.675780 
#    y 0.525650 3.626440 -0.121440 
#    z 0.675780 -0.121440 2.693170 
# 
# 
# High freq. dielectric constant tensor:
#      x y z
#    x 1.785230 0.001560 -0.017590 
#    y 0.001560 1.797260 0.026990 
#    z -0.017590 0.026990 1.761010 
# 
# From -- ./inp_files/27685.got.cif
#   From: 2010.06.25/outbox.cif.g09.slc.cpg/sg2_14_cif.got.tgz:27685.got - 2010.06.27 13:26:56.
