data_PCOD8042043
_publ_section_title
;
Structure prediction by ZEFSAII (Michael W. Deem and Ramdas Pophale) SiO2 
 PCOD8042043
Probable space group: P -1
;
_chemical_formula_sum "Si O2"
_cell_formula_units_Z 14
_cell_length_a 15.412988
_cell_length_b 14.638871
_cell_length_c 9.503174
_cell_angle_alpha 114.849882
_cell_angle_beta 125.200205
_cell_angle_gamma 19.734299
_cell_volume 530.281536
_symmetry_space_group_name_H-M "P -1"
_symmetry_group_IT_number 2
_symmetry_cell_setting 'triclinic'
loop_
_space_group_symop_operation_xyz
x,y,z
-x,-y,-z
loop_
_atom_site_type_symbol
_atom_site_label
_atom_site_fract_x
_atom_site_fract_y
_atom_site_fract_z
Si Si1 0.161229 0.787727 0.273029
Si Si2 0.882365 0.210237 0.119725
Si Si3 0.251791 0.071968 0.383421
Si Si4 0.313268 0.665616 0.702244
Si Si5 0.214269 0.390886 0.898596
Si Si6 0.048896 0.240952 0.873401
Si Si7 0.028152 0.603220 0.383427
O O1 0.095884 0.728515 0.168990
O O2 0.536053 0.493285 0.415304
O O3 0.998695 0.988677 0.110383
O O4 0.994410 0.987387 0.381724
O O5 0.750844 0.361249 0.254845
O O6 0.163601 0.036217 0.237339
O O7 0.602589 0.476285 0.916284
O O8 0.048256 0.332553 0.274016
O O9 0.177518 0.163012 0.534557
O O10 0.622259 0.751152 0.479237
O O11 0.186226 0.295388 0.813825
O O12 0.122936 0.513939 0.047054
O O13 0.566783 0.103978 0.986630
O O14 0.936404 0.345114 0.673291
#
# Coordination Sequence:
#
# PCOD8042043 Si02
#       7
#     2   2   2   2   2   2   2
#     4  10  19  34  56  91 122 156 208 262 302 375
#     4   9  21  33  59  90 128 163 205 260 312 384
#     4  12  25  42  70  97 135 173 211 265 345 377
#     4   9  19  31  58  85 134 149 216 262 306 346
#     4  12  25  45  72  96 123 173 233 271 314 382
#     4  12  24  43  72  96 128 175 221 266 327 382
#     4  12  27  46  63  98 139 169 213 276 331 391
#
# _framework density 26.401069
#
# number of rings (size 3 to 8) (size 9 to 14) (size 15 to 20)
#    0.857    0.286    0.000    7.286    2.000    0.000 
#    0.000    1.429    0.000    0.000    0.000    0.000 
#    0.000    0.000    0.000    0.000    0.000    0.000 
#
# Total GULP energy -173455.208277 kJ/mol
# GULP energy per Si atom -12389.657734 kJ/mol
# Density = 2.634098 g / cm^3
# Si number density = 26.401069 Si / 1000 Ang^3
#
#
#
# Elastic Constant Matrix: (Units=GPa)
#
#
# Indices 1 2 3 4 5 6 
#
# 1 77.7692 -1.0164 -4.1161 -5.6875 -2.2235 -6.0886
# 2 -1.0164 131.8853 10.5057 -17.9977 4.6019 -23.2512
# 3 -4.1161 10.5057 61.4542 -7.8199 -5.0515 -2.7180
# 4 -5.6875 -17.9977 -7.8199 48.4975 -12.0074 4.4592
# 5 -2.2235 4.6019 -5.0515 -12.0074 35.9748 -3.1509
# 6 -6.0886 -23.2512 -2.7180 4.4592 -3.1509 41.8812
#
#
#
# Elastic Compliance Matrix: (Units=1/GPa)
#
#
# Indices 1 2 3 4 5 6 
#
# 1 0.013336 0.000644 0.001329 0.002275 0.001888 0.002282
# 2 0.000644 0.008862 -0.000895 0.002823 0.000131 0.004665
# 3 0.001329 -0.000895 0.017310 0.003503 0.003861 0.000737
# 4 0.002275 0.002823 0.003503 0.024588 0.008491 0.000146
# 5 0.001888 0.000131 0.003861 0.008491 0.031454 0.002060
# 6 0.002282 0.004665 0.000737 0.000146 0.002060 0.026986
#
#
# Mechanical properties :
#
#
# Convention : Reuss Voigt Hill
#
# Bulk Modulus (GPa) = 24.00248 31.31724 27.65986
# Shear Modulus (GPa) = 37.23886 42.98641 40.11263
#
# Velocity S-wave (km/s) = 3.75974 4.03948 3.90212
# Velocity P-wave (km/s) = 5.28761 5.80038 5.54992
#
# Compressibility (1/GPa) = 0.04166236
#
# Stress axis : x y z
#
# Youngs Moduli (GPa) = 74.98327 112.84532 57.76989
#
# Poissons Ratio (x) = -0.07266 -0.07676
# Poissons Ratio (y) = -0.04828 0.05173
# Poissons Ratio (z) = -0.09963 0.10104
#
# Static dielectric constant tensor:
#      x y z
#    x 4.680040 -0.536370 -0.302030 
#    y -0.536370 5.401770 0.140570 
#    z -0.302030 0.140570 4.695200 
# 
# 
# High freq. dielectric constant tensor:
#      x y z
#    x 2.054340 -0.025580 -0.025310 
#    y -0.025580 2.088380 -0.000980 
#    z -0.025310 -0.000980 2.075390 
# 
# From -- ./inp_files/313573.got.cif
#   From: 2010.06.25/outbox.cif.g09.slc.cpg/sg2_157_cif.got.tgz:313573.got - 2010.06.27 13:26:56.
