data_PCOD8042439
_publ_section_title
;
Structure prediction by ZEFSAII (Michael W. Deem and Ramdas Pophale) SiO2 
 PCOD8042439
Probable space group: P -1
;
_chemical_formula_sum "Si O2"
_cell_formula_units_Z 12
_cell_length_a 12.900025
_cell_length_b 8.467162
_cell_length_c 9.093117
_cell_angle_alpha 93.507501
_cell_angle_beta 132.502073
_cell_angle_gamma 104.443763
_cell_volume 671.401391
_symmetry_space_group_name_H-M "P -1"
_symmetry_group_IT_number 2
_symmetry_cell_setting 'triclinic'
loop_
_space_group_symop_operation_xyz
x,y,z
-x,-y,-z
loop_
_atom_site_type_symbol
_atom_site_label
_atom_site_fract_x
_atom_site_fract_y
_atom_site_fract_z
Si Si1 0.668181 0.483057 0.015500
Si Si2 0.321310 0.333310 0.668701
Si Si3 0.077476 0.395226 0.259646
Si Si4 0.948033 0.674785 0.097089
Si Si5 0.105576 0.957723 0.483157
Si Si6 0.128486 0.681598 0.688735
O O1 0.687149 0.626482 0.165068
O O2 0.778154 0.566000 0.988601
O O3 0.713605 0.336013 0.123988
O O4 0.495838 0.397504 0.785768
O O5 0.240017 0.428327 0.493566
O O6 0.242077 0.127546 0.564925
O O7 0.060590 0.576735 0.232771
O O8 0.943242 0.269242 0.230777
O O9 0.063574 0.299262 0.086055
O O10 0.011958 0.861265 0.244454
O O11 0.170698 0.830271 0.617338
O O12 0.000000 0.000000 0.500000
O O13 0.000000 0.500000 0.500000
#
# Coordination Sequence:
#
# PCOD8042439 Si02
#       6
#     2   2   2   2   2   2
#     4  10  20  36  54  78 108 145 173 217 267 321
#     4  11  21  33  54  82 111 135 177 224 269 305
#     4  10  19  35  56  81 102 145 180 218 256 322
#     4  10  20  35  59  77 104 144 186 209 263 319
#     4  12  19  33  57  84 103 137 180 228 256 308
#     4  11  17  36  58  76 103 142 180 219 256 315
#
# _framework density 17.873062999999998
#
# number of rings (size 3 to 8) (size 9 to 14) (size 15 to 20)
#    0.000    1.333    8.333    0.000    0.000    2.000 
#    0.000    0.000    0.000    9.000    0.000    0.000 
#    0.000    0.000    0.000    0.000    0.000    0.000 
#
# Total GULP energy -148789.486060 kJ/mol
# GULP energy per Si atom -12399.123838 kJ/mol
# Density = 1.783238 g / cm^3
# Si number density = 17.873063 Si / 1000 Ang^3
#
#
#
# Elastic Constant Matrix: (Units=GPa)
#
#
# Indices 1 2 3 4 5 6 
#
# 1 100.9290 32.8567 62.0532 6.7668 -0.0738 -2.4449
# 2 32.8567 70.3918 41.4876 9.5944 9.6487 5.1555
# 3 62.0532 41.4876 107.5166 4.0646 9.9158 -0.5875
# 4 6.7668 9.5944 4.0646 28.7386 -7.3296 -0.8251
# 5 -0.0738 9.6487 9.9158 -7.3296 43.4458 -4.1600
# 6 -2.4449 5.1555 -0.5875 -0.8251 -4.1600 21.9392
#
#
#
# Elastic Compliance Matrix: (Units=1/GPa)
#
#
# Indices 1 2 3 4 5 6 
#
# 1 0.016173 -0.003103 -0.008345 -0.000810 0.002753 0.002799
# 2 -0.003103 0.021168 -0.005663 -0.007068 -0.005251 -0.006733
# 3 -0.008345 -0.005663 0.016483 0.000946 -0.002317 0.000438
# 4 -0.000810 -0.007068 0.000946 0.039507 0.008466 0.004687
# 5 0.002753 -0.005251 -0.002317 0.008466 0.026804 0.006880
# 6 0.002799 -0.006733 0.000438 0.004687 0.006880 0.048967
#
#
# Mechanical properties :
#
#
# Convention : Reuss Voigt Hill
#
# Bulk Modulus (GPa) = 51.01272 61.29251 56.15262
# Shear Modulus (GPa) = 23.82585 28.32072 26.07329
#
# Velocity S-wave (km/s) = 3.65507 3.98496 3.82357
# Velocity P-wave (km/s) = 6.81295 7.45257 7.13993
#
# Compressibility (1/GPa) = 0.01960296
#
# Stress axis : x y z
#
# Youngs Moduli (GPa) = 61.83282 47.24039 60.67027
#
# Poissons Ratio (x) = 0.14657 0.50628
# Poissons Ratio (y) = 0.19184 0.34357
# Poissons Ratio (z) = 0.51598 0.26752
#
# Static dielectric constant tensor:
#      x y z
#    x 3.431610 -0.079390 -0.127590 
#    y -0.079390 3.362420 -0.142740 
#    z -0.127590 -0.142740 3.356220 
# 
# 
# High freq. dielectric constant tensor:
#      x y z
#    x 1.688240 -0.012750 -0.009340 
#    y -0.012750 1.679140 -0.012940 
#    z -0.009340 -0.012940 1.682900 
# 
# From -- ./inp_files/144658.got.cif
#   From: 2010.06.25/outbox.cif.g09.slc.cpg/sg2_73_cif.got.tgz:144658.got - 2010.06.27 13:26:56.
