data_PCOD8042209
_publ_section_title
;
Structure prediction by ZEFSAII (Michael W. Deem and Ramdas Pophale) SiO2 
 PCOD8042209
Probable space group: P -1
;
_chemical_formula_sum "Si O2"
_cell_formula_units_Z 16
_cell_length_a 14.313661
_cell_length_b 11.827171
_cell_length_c 8.716768
_cell_angle_alpha 87.109159
_cell_angle_beta 83.269777
_cell_angle_gamma 149.591900
_cell_volume 707.272892
_symmetry_space_group_name_H-M "P -1"
_symmetry_group_IT_number 2
_symmetry_cell_setting 'triclinic'
loop_
_space_group_symop_operation_xyz
x,y,z
-x,-y,-z
loop_
_atom_site_type_symbol
_atom_site_label
_atom_site_fract_x
_atom_site_fract_y
_atom_site_fract_z
Si Si1 0.323451 0.249580 0.629833
Si Si2 0.521229 0.011362 0.813771
Si Si3 0.832439 0.509292 0.755118
Si Si4 0.282696 0.105361 0.958887
Si Si5 0.144418 0.737172 0.873559
Si Si6 0.017369 0.882987 0.498157
Si Si7 0.082745 0.196267 0.801772
Si Si8 0.591062 0.343209 0.097587
O O1 0.500000 0.500000 0.500000
O O2 0.388856 0.246268 0.766138
O O3 0.148979 0.143851 0.735053
O O4 0.224968 0.070386 0.525673
O O5 0.713830 0.283788 0.707088
O O6 0.337211 0.874551 0.773601
O O7 0.527691 0.884228 0.780489
O O8 0.500000 0.000000 0.000000
O O9 0.046125 0.687918 0.745437
O O10 0.847904 0.636766 0.637507
O O11 0.728433 0.434334 0.936831
O O12 0.198408 0.890106 0.977722
O O13 0.442804 0.277243 0.052464
O O14 0.103369 0.003646 0.033724
O O15 0.000000 0.500000 0.000000
O O16 0.999688 0.822264 0.329885
O O17 0.000000 0.000000 0.500000
O O18 0.275244 0.455124 0.817355
#
# Coordination Sequence:
#
# PCOD8042209 Si02
#       8
#     2   2   2   2   2   2   2   2
#     4  11  26  46  68  95 126 176 225 267 327 400
#     4  10  19  34  60 100 127 166 218 268 311 388
#     4  11  20  38  64  95 129 172 219 266 319 385
#     4  12  23  40  68  98 130 168 219 272 329 381
#     4  12  18  33  63  97 130 168 218 272 319 376
#     4  10  24  43  64  88 131 174 216 266 326 391
#     4  11  25  44  64  93 139 170 211 276 330 379
#     4  11  22  38  67 101 128 167 221 270 324 383
#
# _framework density 22.622104
#
# number of rings (size 3 to 8) (size 9 to 14) (size 15 to 20)
#    0.000    1.000    7.500    0.375    5.250    1.500 
#    0.000    0.625    0.000    6.750    0.000    0.000 
#    0.000    0.000    0.000    0.000    0.000    0.000 
#
# Total GULP energy -198281.433407 kJ/mol
# GULP energy per Si atom -12392.589588 kJ/mol
# Density = 2.257062 g / cm^3
# Si number density = 22.622104 Si / 1000 Ang^3
#
#
#
# Elastic Constant Matrix: (Units=GPa)
#
#
# Indices 1 2 3 4 5 6 
#
# 1 70.7204 20.4012 21.2518 -0.3149 15.0997 26.2077
# 2 20.4012 150.1205 59.9511 6.8522 24.0888 20.2410
# 3 21.2518 59.9511 93.0120 -4.1822 25.8319 -2.3707
# 4 -0.3149 6.8522 -4.1822 36.3732 -3.8553 11.0581
# 5 15.0997 24.0888 25.8319 -3.8553 25.9129 -4.4318
# 6 26.2077 20.2410 -2.3707 11.0581 -4.4318 34.8752
#
#
#
# Elastic Compliance Matrix: (Units=1/GPa)
#
#
# Indices 1 2 3 4 5 6 
#
# 1 0.030096 0.005142 -0.004563 0.005703 -0.022141 -0.030532
# 2 0.005142 0.011718 -0.006363 -0.000191 -0.009673 -0.012266
# 3 -0.004563 -0.006363 0.018468 0.000175 -0.008574 0.007232
# 4 0.005703 -0.000191 0.000175 0.031865 -0.001042 -0.014399
# 5 -0.022141 -0.009673 -0.008574 -0.001042 0.074253 0.031436
# 6 -0.030532 -0.012266 0.007232 -0.014399 0.031436 0.067789
#
#
# Mechanical properties :
#
#
# Convention : Reuss Voigt Hill
#
# Bulk Modulus (GPa) = 20.52786 57.45122 38.98954
# Shear Modulus (GPa) = 19.08431 33.58221 26.33326
#
# Velocity S-wave (km/s) = 2.90765 3.85708 3.41552
# Velocity P-wave (km/s) = 4.51293 6.72958 5.72948
#
# Compressibility (1/GPa) = 0.04871430
#
# Stress axis : x y z
#
# Youngs Moduli (GPa) = 33.22743 85.33758 54.14685
#
# Poissons Ratio (x) = -0.43876 0.24707
# Poissons Ratio (y) = -0.17084 0.34451
# Poissons Ratio (z) = 0.15161 0.54296
#
# Static dielectric constant tensor:
#      x y z
#    x 4.185560 0.108080 0.419520 
#    y 0.108080 4.714620 0.253410 
#    z 0.419520 0.253410 4.076180 
# 
# 
# High freq. dielectric constant tensor:
#      x y z
#    x 1.879720 0.008710 0.033460 
#    y 0.008710 1.912160 0.000030 
#    z 0.033460 0.000030 1.859400 
# 
# From -- ./inp_files/307364.got.cif
#   From: 2010.06.25/outbox.cif.g09.slc.cpg/sg2_154_cif.got.tgz:307364.got - 2010.06.27 13:26:56.
