data_PCOD8042938
_publ_section_title
;
Structure prediction by ZEFSAII (Michael W. Deem and Ramdas Pophale) SiO2 
 PCOD8042938
Probable space group: P -1
;
_chemical_formula_sum "Si O2"
_cell_formula_units_Z 10
_cell_length_a 13.183418
_cell_length_b 7.323256
_cell_length_c 4.960804
_cell_angle_alpha 69.815192
_cell_angle_beta 83.287736
_cell_angle_gamma 78.170289
_cell_volume 439.426067
_symmetry_space_group_name_H-M "P -1"
_symmetry_group_IT_number 2
_symmetry_cell_setting 'triclinic'
loop_
_space_group_symop_operation_xyz
x,y,z
-x,-y,-z
loop_
_atom_site_type_symbol
_atom_site_label
_atom_site_fract_x
_atom_site_fract_y
_atom_site_fract_z
Si Si1 0.285122 0.270813 0.486989
Si Si2 0.066606 0.356926 0.332586
Si Si3 0.379690 0.050043 0.071018
Si Si4 0.243876 0.726135 0.284441
Si Si5 0.116394 0.713409 0.845642
O O1 0.167399 0.227076 0.507693
O O2 0.363408 0.134426 0.333512
O O3 0.289325 0.499700 0.310938
O O4 0.321316 0.216765 0.805184
O O5 0.000000 0.500000 0.500000
O O6 0.997681 0.207060 0.291887
O O7 0.110425 0.482184 0.018112
O O8 0.334870 0.848821 0.155508
O O9 0.500000 0.000000 0.000000
O O10 0.205770 0.738206 0.596014
O O11 0.146654 0.807472 0.070253
#
# Coordination Sequence:
#
# PCOD8042938 Si02
#       5
#     2   2   2   2   2
#     4  11  24  43  72  95 132 183 211 269 350 376
#     4  10  19  36  69 103 134 173 218 255 326 410
#     4  12  28  47  67  98 131 171 235 286 320 390
#     4  11  23  43  68  98 137 169 226 272 323 402
#     4  10  19  35  65  98 136 173 201 271 316 390
#
# _framework density 22.756954
#
# number of rings (size 3 to 8) (size 9 to 14) (size 15 to 20)
#    0.000    1.200    4.000    4.200    2.800    1.600 
#    0.000    6.000    0.000    0.000    0.000    0.000 
#    0.000    0.000    0.000    0.000    0.000    0.000 
#
# Total GULP energy -123953.913538 kJ/mol
# GULP energy per Si atom -12395.391354 kJ/mol
# Density = 2.270516 g / cm^3
# Si number density = 22.756954 Si / 1000 Ang^3
#
#
#
# Elastic Constant Matrix: (Units=GPa)
#
#
# Indices 1 2 3 4 5 6 
#
# 1 133.1539 17.2540 47.0296 -7.5563 -15.9937 -1.2854
# 2 17.2540 62.2601 19.1365 -0.3491 -12.5517 1.1025
# 3 47.0296 19.1365 100.6620 13.7771 1.8707 3.0788
# 4 -7.5563 -0.3491 13.7771 20.5117 -2.6008 -2.4128
# 5 -15.9937 -12.5517 1.8707 -2.6008 30.0884 -1.4358
# 6 -1.2854 1.1025 3.0788 -2.4128 -1.4358 41.8052
#
#
#
# Elastic Compliance Matrix: (Units=1/GPa)
#
#
# Indices 1 2 3 4 5 6 
#
# 1 0.011438 0.000574 -0.007034 0.010127 0.007713 0.001704
# 2 0.000574 0.019221 -0.004783 0.004956 0.009071 0.000461
# 3 -0.007034 -0.004783 0.016412 -0.015020 -0.008170 -0.002446
# 4 0.010127 0.004956 -0.015020 0.065118 0.014277 0.005535
# 5 0.007713 0.009071 -0.008170 0.014277 0.043000 0.002900
# 6 0.001704 0.000461 -0.002446 0.005535 0.002900 0.024560
#
#
# Mechanical properties :
#
#
# Convention : Reuss Voigt Hill
#
# Bulk Modulus (GPa) = 40.67625 51.43513 46.05569
# Shear Modulus (GPa) = 23.76076 32.65811 28.20944
#
# Velocity S-wave (km/s) = 3.23477 3.79236 3.52461
# Velocity P-wave (km/s) = 5.64488 6.46738 6.07008
#
# Compressibility (1/GPa) = 0.02458437
#
# Stress axis : x y z
#
# Youngs Moduli (GPa) = 87.42906 52.02601 60.92942
#
# Poissons Ratio (x) = -0.02986 0.42860
# Poissons Ratio (y) = -0.05018 0.29144
# Poissons Ratio (z) = 0.61501 0.24885
#
# Static dielectric constant tensor:
#      x y z
#    x 4.252560 0.163220 0.212790 
#    y 0.163220 3.683120 0.134080 
#    z 0.212790 0.134080 4.421910 
# 
# 
# High freq. dielectric constant tensor:
#      x y z
#    x 1.896420 0.011220 0.004070 
#    y 0.011220 1.862780 0.014750 
#    z 0.004070 0.014750 1.919830 
# 
# From -- ./inp_files/24003.got.cif
#   From: 2010.06.25/outbox.cif.g09.slc.cpg/sg2_13_cif.got.tgz:24003.got - 2010.06.27 13:26:56.
