data_PCOD8042092
_publ_section_title
;
Structure prediction by ZEFSAII (Michael W. Deem and Ramdas Pophale) SiO2 
 PCOD8042092
Probable space group: P -1
;
_chemical_formula_sum "Si O2"
_cell_formula_units_Z 16
_cell_length_a 7.666144
_cell_length_b 13.082084
_cell_length_c 13.923784
_cell_angle_alpha 52.968402
_cell_angle_beta 45.790750
_cell_angle_gamma 69.370457
_cell_volume 793.455583
_symmetry_space_group_name_H-M "P -1"
_symmetry_group_IT_number 2
_symmetry_cell_setting 'triclinic'
loop_
_space_group_symop_operation_xyz
x,y,z
-x,-y,-z
loop_
_atom_site_type_symbol
_atom_site_label
_atom_site_fract_x
_atom_site_fract_y
_atom_site_fract_z
Si Si1 0.532286 0.304301 0.049505
Si Si2 0.312989 0.418287 0.248912
Si Si3 0.328479 0.166613 0.028465
Si Si4 0.930477 0.716622 0.097291
Si Si5 0.504067 0.764118 0.351612
Si Si6 0.194427 0.504985 0.597817
Si Si7 0.273506 0.301227 0.521839
Si Si8 0.215348 0.869923 0.248662
O O1 0.381511 0.324498 0.191730
O O2 0.366110 0.202681 0.105038
O O3 0.580009 0.435188 0.895717
O O4 0.781021 0.245308 0.016405
O O5 0.418316 0.370863 0.336470
O O6 0.020876 0.404187 0.384354
O O7 0.206901 0.020138 0.149410
O O8 0.142035 0.257102 0.999908
O O9 0.592513 0.188217 0.862658
O O10 0.768502 0.803482 0.176679
O O11 0.861796 0.566664 0.237512
O O12 0.441312 0.607069 0.446757
O O13 0.539536 0.780393 0.443873
O O14 0.302110 0.846450 0.338801
O O15 0.178435 0.405740 0.571212
O O16 0.051107 0.201219 0.627187
#
# Coordination Sequence:
#
# PCOD8042092 Si02
#       8
#     2   2   2   2   2   2   2   2
#     4  10  22  39  52  81 117 152 183 222 271 335
#     4  10  21  36  57  82 115 148 184 223 281 334
#     4  10  21  37  60  77 116 153 180 228 273 328
#     4   9  19  34  55  83 108 144 183 219 277 335
#     4  10  20  32  57  89 113 135 181 235 286 325
#     4  10  19  34  57  89 113 136 181 236 286 325
#     4  11  20  34  58  85 113 143 176 242 281 316
#     4  10  21  36  56  90 108 143 192 224 280 328
#
# _framework density 20.164961000000002
#
# number of rings (size 3 to 8) (size 9 to 14) (size 15 to 20)
#    0.000    2.000    1.250    4.125    5.250    1.000 
#    2.250    8.125    0.000    1.500    0.000    0.000 
#    0.000    0.000    0.000    0.000    0.000    0.000 
#
# Total GULP energy -198338.856456 kJ/mol
# GULP energy per Si atom -12396.178529 kJ/mol
# Density = 2.011906 g / cm^3
# Si number density = 20.164961 Si / 1000 Ang^3
#
#
#
# Elastic Constant Matrix: (Units=GPa)
#
#
# Indices 1 2 3 4 5 6 
#
# 1 124.1663 33.4732 45.4331 7.5117 26.3219 16.6030
# 2 33.4732 57.4359 28.2376 7.2549 7.0201 11.0582
# 3 45.4331 28.2376 75.5846 6.1324 17.1484 7.4216
# 4 7.5117 7.2549 6.1324 23.0286 1.5705 4.7550
# 5 26.3219 7.0201 17.1484 1.5705 31.4694 -4.2734
# 6 16.6030 11.0582 7.4216 4.7550 -4.2734 16.1019
#
#
#
# Elastic Compliance Matrix: (Units=1/GPa)
#
#
# Indices 1 2 3 4 5 6 
#
# 1 0.014475 -0.002412 -0.003790 0.000905 -0.011567 -0.014859
# 2 -0.002412 0.024464 -0.006020 -0.002926 -0.001517 -0.011077
# 3 -0.003790 -0.006020 0.019526 -0.001154 -0.006384 -0.002311
# 4 0.000905 -0.002926 -0.001154 0.047363 -0.003651 -0.013346
# 5 -0.011567 -0.001517 -0.006384 -0.003651 0.049544 0.030139
# 6 -0.014859 -0.011077 -0.002311 -0.013346 0.030139 0.098039
#
#
# Mechanical properties :
#
#
# Convention : Reuss Voigt Hill
#
# Bulk Modulus (GPa) = 29.39361 52.38604 40.88983
# Shear Modulus (GPa) = 17.28931 24.12282 20.70606
#
# Velocity S-wave (km/s) = 2.93130 3.46247 3.20790
# Velocity P-wave (km/s) = 5.10538 6.48229 5.83460
#
# Compressibility (1/GPa) = 0.03402100
#
# Stress axis : x y z
#
# Youngs Moduli (GPa) = 69.08493 40.87607 51.21354
#
# Poissons Ratio (x) = 0.09861 0.19408
# Poissons Ratio (y) = 0.16666 0.30831
# Poissons Ratio (z) = 0.26180 0.24608
#
# Static dielectric constant tensor:
#      x y z
#    x 3.912200 -0.081470 0.254130 
#    y -0.081470 3.192980 -0.041370 
#    z 0.254130 -0.041370 3.630460 
# 
# 
# High freq. dielectric constant tensor:
#      x y z
#    x 1.802980 -0.001460 0.016780 
#    y -0.001460 1.737020 -0.013800 
#    z 0.016780 -0.013800 1.779120 
# 
# From -- ./inp_files/392323.got.cif
#   From: 2010.06.25/outbox.cif.g09.slc.cpg/sg2_197_cif.got.tgz:392323.got - 2010.06.27 13:26:56.
