data_PCOD8042254
_publ_section_title
;
Structure prediction by ZEFSAII (Michael W. Deem and Ramdas Pophale) SiO2 
 PCOD8042254
Probable space group: P -1
;
_chemical_formula_sum "Si O2"
_cell_formula_units_Z 16
_cell_length_a 8.568948
_cell_length_b 12.016807
_cell_length_c 12.179349
_cell_angle_alpha 125.427532
_cell_angle_beta 101.573637
_cell_angle_gamma 50.690445
_cell_volume 762.591668
_symmetry_space_group_name_H-M "P -1"
_symmetry_group_IT_number 2
_symmetry_cell_setting 'triclinic'
loop_
_space_group_symop_operation_xyz
x,y,z
-x,-y,-z
loop_
_atom_site_type_symbol
_atom_site_label
_atom_site_fract_x
_atom_site_fract_y
_atom_site_fract_z
Si Si1 0.181992 0.382191 0.619328
Si Si2 0.067190 0.651189 0.270124
Si Si3 0.077677 0.275877 0.349171
Si Si4 0.732796 0.351146 0.492682
Si Si5 0.981496 0.062407 0.711100
Si Si6 0.588284 0.602455 0.966576
Si Si7 0.467067 0.687443 0.236085
Si Si8 0.844725 0.061977 0.916947
O O1 0.236444 0.262789 0.449380
O O2 0.387129 0.355050 0.665165
O O3 0.119718 0.321306 0.678268
O O4 0.986693 0.591149 0.685345
O O5 0.240435 0.613231 0.358467
O O6 0.963203 0.830090 0.284975
O O7 0.196511 0.473597 0.107969
O O8 0.173427 0.083948 0.208276
O O9 0.867298 0.369355 0.441466
O O10 0.500000 0.500000 0.500000
O O11 0.819095 0.147751 0.387332
O O12 0.762720 0.114523 0.664321
O O13 0.922175 0.120506 0.864263
O O14 0.587234 0.440451 0.859419
O O15 0.584028 0.663268 0.125138
O O16 0.382582 0.773036 0.974667
O O17 0.000000 0.000000 0.000000
#
# Coordination Sequence:
#
# PCOD8042254 Si02
#       8
#     2   2   2   2   2   2   2   2
#     4  10  20  38  61  81 121 167 186 239 307 350
#     4  10  21  36  56  87 124 147 194 252 287 350
#     4   9  21  37  55  88 118 155 208 235 283 377
#     4  10  21  35  61  84 116 157 195 247 298 335
#     4   9  20  37  58  91 116 142 210 252 276 353
#     4   9  19  34  56  89 111 145 207 243 278 351
#     4   9  18  35  61  82 114 157 191 242 294 339
#     4  10  19  34  61  85 117 154 198 247 291 341
#
# _framework density 20.981086000000001
#
# number of rings (size 3 to 8) (size 9 to 14) (size 15 to 20)
#    0.000    2.500    0.000    1.875    7.000    0.500 
#    0.000   10.625   16.500    0.000    0.000    0.000 
#    0.000    0.000    0.000    0.000    0.000    0.000 
#
# Total GULP energy -198239.824285 kJ/mol
# GULP energy per Si atom -12389.989018 kJ/mol
# Density = 2.093333 g / cm^3
# Si number density = 20.981086 Si / 1000 Ang^3
#
#
#
# Elastic Constant Matrix: (Units=GPa)
#
#
# Indices 1 2 3 4 5 6 
#
# 1 35.5746 32.0620 10.9134 -7.3332 4.4428 2.3022
# 2 32.0620 131.1348 39.0774 1.4655 2.0431 -3.5175
# 3 10.9134 39.0774 59.5450 4.1913 2.4184 -7.3546
# 4 -7.3332 1.4655 4.1913 35.6668 -8.7510 -2.7448
# 5 4.4428 2.0431 2.4184 -8.7510 28.6741 -7.8073
# 6 2.3022 -3.5175 -7.3546 -2.7448 -7.8073 41.0392
#
#
#
# Elastic Compliance Matrix: (Units=1/GPa)
#
#
# Indices 1 2 3 4 5 6 
#
# 1 0.039185 -0.009097 -0.002017 0.007416 -0.003969 -0.003598
# 2 -0.009097 0.011600 -0.005812 -0.001434 0.000776 0.000515
# 3 -0.002017 -0.005812 0.021598 -0.002743 -0.001089 0.003095
# 4 0.007416 -0.001434 -0.002743 0.032624 0.009971 0.003048
# 5 -0.003969 0.000776 -0.001089 0.009971 0.040895 0.008541
# 6 -0.003598 0.000515 0.003095 0.003048 0.008541 0.026996
#
#
# Mechanical properties :
#
#
# Convention : Reuss Voigt Hill
#
# Bulk Modulus (GPa) = 25.95401 43.37335 34.66368
# Shear Modulus (GPa) = 22.76937 30.68947 26.72942
#
# Velocity S-wave (km/s) = 3.29786 3.82870 3.57315
# Velocity P-wave (km/s) = 5.18635 6.34529 5.79487
#
# Compressibility (1/GPa) = 0.03852969
#
# Stress axis : x y z
#
# Youngs Moduli (GPa) = 25.52001 86.20929 46.30153
#
# Poissons Ratio (x) = 0.78425 0.09339
# Poissons Ratio (y) = 0.23216 0.26911
# Poissons Ratio (z) = 0.05147 0.50106
#
# Static dielectric constant tensor:
#      x y z
#    x 3.536880 0.141260 -0.174780 
#    y 0.141260 3.947880 -0.128700 
#    z -0.174780 -0.128700 3.998290 
# 
# 
# High freq. dielectric constant tensor:
#      x y z
#    x 1.788220 0.004540 -0.010880 
#    y 0.004540 1.833230 -0.007880 
#    z -0.010880 -0.007880 1.818320 
# 
# From -- ./inp_files/345621.got.cif
#   From: 2010.06.25/outbox.cif.g09.slc.cpg/sg2_173_cif.got.tgz:345621.got - 2010.06.27 13:26:56.
