data_PCOD8042751
_publ_section_title
;
Structure prediction by ZEFSAII (Michael W. Deem and Ramdas Pophale) SiO2 
 PCOD8042751
Probable space group: P -1
;
_chemical_formula_sum "Si O2"
_cell_formula_units_Z 16
_cell_length_a 9.436771
_cell_length_b 17.749385
_cell_length_c 21.304864
_cell_angle_alpha 19.109629
_cell_angle_beta 123.348989
_cell_angle_gamma 133.992413
_cell_volume 749.545731
_symmetry_space_group_name_H-M "P -1"
_symmetry_group_IT_number 2
_symmetry_cell_setting 'triclinic'
loop_
_space_group_symop_operation_xyz
x,y,z
-x,-y,-z
loop_
_atom_site_type_symbol
_atom_site_label
_atom_site_fract_x
_atom_site_fract_y
_atom_site_fract_z
Si Si1 0.742696 0.825998 0.085016
Si Si2 0.042454 0.809253 0.480997
Si Si3 0.034759 0.234504 0.060052
Si Si4 0.323373 0.700012 0.288525
Si Si5 0.321347 0.276537 0.708111
Si Si6 0.980819 0.682167 0.706910
Si Si7 0.509572 0.663597 0.812253
Si Si8 0.368792 0.325498 0.302627
O O1 0.686136 0.688475 0.248096
O O2 0.595617 0.542374 0.226082
O O3 0.670108 0.031286 0.898258
O O4 0.000000 0.000000 0.000000
O O5 0.917959 0.538874 0.614061
O O6 0.928784 0.705194 0.603476
O O7 0.305730 0.972897 0.419633
O O8 0.044124 0.074508 0.247895
O O9 0.913751 0.007765 0.151289
O O10 0.915957 0.360635 0.955292
O O11 0.259348 0.532951 0.848677
O O12 0.376345 0.574215 0.458124
O O13 0.502679 0.775077 0.221567
O O14 0.812468 0.650272 0.738744
O O15 0.238552 0.967690 0.560914
O O16 0.574362 0.579347 0.831438
O O17 0.500000 0.500000 0.000000
#
# Coordination Sequence:
#
# PCOD8042751 Si02
#       8
#     2   2   2   2   2   2   2   2
#     4  12  24  37  56  85 122 155 182 228 288 341
#     4   9  19  35  58  85 109 141 190 233 274 326
#     4  10  19  35  61  84 106 144 191 229 274 329
#     4  10  21  38  61  84 112 151 195 235 272 331
#     4  10  21  38  60  85 111 150 197 234 274 330
#     4  10  20  37  59  81 112 145 180 238 280 320
#     4   9  19  37  57  79 109 142 180 230 274 325
#     4  10  22  38  54  82 117 146 184 226 281 339
#
# _framework density 21.346263
#
# number of rings (size 3 to 8) (size 9 to 14) (size 15 to 20)
#    0.000    2.000    0.000    3.375    0.000    3.500 
#    0.000   13.750    0.000    0.000    0.000    0.000 
#    0.000    0.000    0.000    0.000    0.000    0.000 
#
# Total GULP energy -198222.036260 kJ/mol
# GULP energy per Si atom -12388.877266 kJ/mol
# Density = 2.129768 g / cm^3
# Si number density = 21.346263 Si / 1000 Ang^3
#
#
#
# Elastic Constant Matrix: (Units=GPa)
#
#
# Indices 1 2 3 4 5 6 
#
# 1 63.6886 13.5808 14.1303 10.7404 -19.0557 -7.2072
# 2 13.5808 103.8914 21.3296 -15.6117 -13.7270 -7.1031
# 3 14.1303 21.3296 57.7238 5.6155 0.1455 -10.4151
# 4 10.7404 -15.6117 5.6155 22.2878 1.8027 -7.3925
# 5 -19.0557 -13.7270 0.1455 1.8027 33.0928 -3.5238
# 6 -7.2072 -7.1031 -10.4151 -7.3925 -3.5238 33.3263
#
#
#
# Elastic Compliance Matrix: (Units=1/GPa)
#
#
# Indices 1 2 3 4 5 6 
#
# 1 0.023243 -0.002309 -0.003275 -0.012348 0.013345 0.002183
# 2 -0.002309 0.013762 -0.005046 0.013081 0.004135 0.004196
# 3 -0.003275 -0.005046 0.021146 -0.005966 -0.003412 0.003140
# 4 -0.012348 0.013081 -0.005966 0.065936 -0.003923 0.012464
# 5 0.013345 0.004135 -0.003412 -0.003923 0.040498 0.006113
# 6 0.002183 0.004196 0.003140 0.012464 0.006113 0.035765
#
#
# Mechanical properties :
#
#
# Convention : Reuss Voigt Hill
#
# Bulk Modulus (GPa) = 27.10696 35.93168 31.51932
# Shear Modulus (GPa) = 21.37611 29.49226 25.43418
#
# Velocity S-wave (km/s) = 3.16792 3.72104 3.45556
# Velocity P-wave (km/s) = 5.10952 5.94397 5.54247
#
# Compressibility (1/GPa) = 0.03689090
#
# Stress axis : x y z
#
# Youngs Moduli (GPa) = 43.02422 72.66273 47.29076
#
# Poissons Ratio (x) = 0.16777 0.15488
# Poissons Ratio (y) = 0.09934 0.23863
# Poissons Ratio (z) = 0.14090 0.36666
#
# Static dielectric constant tensor:
#      x y z
#    x 4.001410 0.242250 -0.263330 
#    y 0.242250 4.202510 -0.293060 
#    z -0.263330 -0.293060 3.947420 
# 
# 
# High freq. dielectric constant tensor:
#      x y z
#    x 1.823320 0.005650 -0.017630 
#    y 0.005650 1.849380 -0.012400 
#    z -0.017630 -0.012400 1.838680 
# 
# From -- ./inp_files/490823.got.cif
#   From: 2010.06.25/outbox.cif.g09.slc.cpg/sg2_246_cif.got.tgz:490823.got - 2010.06.27 13:26:56.
