data_PCOD8042036
_publ_section_title
;
Structure prediction by ZEFSAII (Michael W. Deem and Ramdas Pophale) SiO2 
 PCOD8042036
Probable space group: P -1
;
_chemical_formula_sum "Si O2"
_cell_formula_units_Z 16
_cell_length_a 14.487115
_cell_length_b 15.054604
_cell_length_c 11.969264
_cell_angle_alpha 137.699407
_cell_angle_beta 151.151066
_cell_angle_gamma 54.267396
_cell_volume 831.169757
_symmetry_space_group_name_H-M "P -1"
_symmetry_group_IT_number 2
_symmetry_cell_setting 'triclinic'
loop_
_space_group_symop_operation_xyz
x,y,z
-x,-y,-z
loop_
_atom_site_type_symbol
_atom_site_label
_atom_site_fract_x
_atom_site_fract_y
_atom_site_fract_z
Si Si1 0.793679 0.834589 0.210153
Si Si2 0.917340 0.145323 0.663293
Si Si3 0.588076 0.313403 0.450376
Si Si4 0.364063 0.489830 0.503786
Si Si5 0.453638 0.340064 0.781634
Si Si6 0.121852 0.292644 0.208501
Si Si7 0.152621 0.585237 0.824344
Si Si8 0.688559 0.655099 0.133473
O O1 0.820723 0.759348 0.285906
O O2 0.956811 0.806489 0.269561
O O3 0.814710 0.991296 0.402408
O O4 0.578892 0.784771 0.886921
O O5 0.752363 0.233573 0.588130
O O6 0.055469 0.163266 0.937163
O O7 0.491876 0.373584 0.510513
O O8 0.688260 0.443670 0.604879
O O9 0.166907 0.421707 0.293914
O O10 0.476653 0.606846 0.810708
O O11 0.312546 0.286252 0.478513
O O12 0.350522 0.272880 0.723264
O O13 0.500000 0.500000 0.000000
O O14 0.668945 0.315193 0.957548
O O15 0.944266 0.308841 0.113528
O O16 0.217570 0.476050 0.872995
O O17 0.000000 0.500000 0.500000
#
# Coordination Sequence:
#
# PCOD8042036 Si02
#       8
#     2   2   2   2   2   2   2   2
#     4  10  23  42  57  80 113 157 198 236 269 328
#     4  11  24  38  59  83 112 157 200 226 276 336
#     4  10  21  38  56  82 118 149 185 238 283 335
#     4  10  19  34  56  88 118 143 178 236 296 335
#     4  10  19  36  53  83 117 146 175 232 289 336
#     4  12  21  34  57  87 118 147 180 233 287 346
#     4  11  19  32  59  88 113 145 182 224 294 348
#     4  10  19  37  58  81 118 147 182 238 281 334
#
# _framework density 19.249979
#
# number of rings (size 3 to 8) (size 9 to 14) (size 15 to 20)
#    0.000    1.500    6.250    1.125    1.750    0.500 
#    0.000    0.625    0.000    0.750    0.000    0.000 
#    0.000    0.000    0.000    0.000    0.000    0.000 
#
# Total GULP energy -198304.702061 kJ/mol
# GULP energy per Si atom -12394.043879 kJ/mol
# Density = 1.920617 g / cm^3
# Si number density = 19.249979 Si / 1000 Ang^3
#
#
#
# Elastic Constant Matrix: (Units=GPa)
#
#
# Indices 1 2 3 4 5 6 
#
# 1 121.5226 22.0033 42.0926 3.7287 -4.2135 1.3111
# 2 22.0033 43.6805 18.8708 -2.2657 -2.7721 -5.4670
# 3 42.0926 18.8708 99.2452 -2.2683 -8.5811 1.9635
# 4 3.7287 -2.2657 -2.2683 23.1730 -1.5578 -0.3889
# 5 -4.2135 -2.7721 -8.5811 -1.5578 28.4821 -4.9134
# 6 1.3111 -5.4670 1.9635 -0.3889 -4.9134 27.0699
#
#
#
# Elastic Compliance Matrix: (Units=1/GPa)
#
#
# Indices 1 2 3 4 5 6 
#
# 1 0.010282 -0.003870 -0.003684 -0.002431 -0.000288 -0.001100
# 2 -0.003870 0.027449 -0.003428 0.003238 0.002357 0.006454
# 3 -0.003684 -0.003428 0.012593 0.001667 0.002854 -0.000885
# 4 -0.002431 0.003238 0.001667 0.044271 0.003201 0.001868
# 5 -0.000288 0.002357 0.002854 0.003201 0.037564 0.007147
# 6 -0.001100 0.006454 -0.000885 0.001868 0.007147 0.039686
#
#
# Mechanical properties :
#
#
# Convention : Reuss Voigt Hill
#
# Bulk Modulus (GPa) = 35.26015 47.82020 41.54017
# Shear Modulus (GPa) = 24.59874 27.84377 26.22126
#
# Velocity S-wave (km/s) = 3.57859 3.80732 3.69473
# Velocity P-wave (km/s) = 5.95247 6.65006 6.31091
#
# Compressibility (1/GPa) = 0.02836063
#
# Stress axis : x y z
#
# Youngs Moduli (GPa) = 97.25648 36.43106 79.41170
#
# Poissons Ratio (x) = 0.14099 0.29254
# Poissons Ratio (y) = 0.37638 0.27221
# Poissons Ratio (z) = 0.35827 0.12488
#
# Static dielectric constant tensor:
#      x y z
#    x 4.268200 -0.110030 0.081420 
#    y -0.110030 3.318470 -0.199190 
#    z 0.081420 -0.199190 3.669770 
# 
# 
# High freq. dielectric constant tensor:
#      x y z
#    x 1.770060 -0.002160 -0.005120 
#    y -0.002160 1.695540 -0.012680 
#    z -0.005120 -0.012680 1.753650 
# 
# From -- ./inp_files/455968.got.cif
#   From: 2010.06.25/outbox.cif.g09.slc.cpg/sg2_228_cif.got.tgz:455968.got - 2010.06.27 13:26:56.
