data_PCOD8042572
_publ_section_title
;
Structure prediction by ZEFSAII (Michael W. Deem and Ramdas Pophale) SiO2 
 PCOD8042572
Probable space group: P -1
;
_chemical_formula_sum "Si O2"
_cell_formula_units_Z 12
_cell_length_a 8.700588
_cell_length_b 20.211904
_cell_length_c 15.304077
_cell_angle_alpha 160.461574
_cell_angle_beta 127.948293
_cell_angle_gamma 44.972589
_cell_volume 620.707863
_symmetry_space_group_name_H-M "P -1"
_symmetry_group_IT_number 2
_symmetry_cell_setting 'triclinic'
loop_
_space_group_symop_operation_xyz
x,y,z
-x,-y,-z
loop_
_atom_site_type_symbol
_atom_site_label
_atom_site_fract_x
_atom_site_fract_y
_atom_site_fract_z
Si Si1 0.310667 0.951742 0.840104
Si Si2 0.996370 0.646401 0.348410
Si Si3 0.923228 0.074021 0.425876
Si Si4 0.462798 0.466035 0.343486
Si Si5 0.907732 0.043709 0.926136
Si Si6 0.243162 0.650440 0.117098
O O1 0.235652 0.007001 0.781459
O O2 0.426613 0.684549 0.552121
O O3 0.085192 0.083611 0.982092
O O4 0.500000 0.000000 0.000000
O O5 0.002584 0.782608 0.433601
O O6 0.237062 0.454159 0.230284
O O7 0.884567 0.833049 0.618481
O O8 0.859062 0.517909 0.122391
O O9 0.784519 0.231745 0.652977
O O10 0.135884 0.844113 0.246786
O O11 0.500000 0.500000 0.500000
O O12 0.665290 0.258358 0.108656
O O13 0.000000 0.000000 0.000000
O O14 0.500000 0.500000 0.000000
#
# Coordination Sequence:
#
# PCOD8042572 Si02
#       6
#     2   2   2   2   2   2
#     4  10  23  37  60  93 126 157 195 258 307 360
#     4  10  23  39  63  88 123 163 202 254 308 360
#     4   9  23  43  58  91 126 153 209 254 300 367
#     4  10  19  37  59  85 122 162 197 242 298 365
#     4  10  19  35  58  87 119 162 204 234 298 372
#     4  11  24  41  65  89 118 164 209 256 304 361
#
# _framework density 19.332765999999999
#
# number of rings (size 3 to 8) (size 9 to 14) (size 15 to 20)
#    0.000    2.333    3.333    0.500    2.333   10.667 
#    0.000    0.000    0.000    0.000    0.000    0.000 
#    0.000    0.000    0.000    0.000    0.000    0.000 
#
# Total GULP energy -148678.521609 kJ/mol
# GULP energy per Si atom -12389.876801 kJ/mol
# Density = 1.928876 g / cm^3
# Si number density = 19.332766 Si / 1000 Ang^3
#
#
#
# Elastic Constant Matrix: (Units=GPa)
#
#
# Indices 1 2 3 4 5 6 
#
# 1 91.1033 77.1036 66.8185 -1.9603 -5.5102 -17.5588
# 2 77.1036 164.3602 77.5047 -5.7070 -16.5778 -6.8292
# 3 66.8185 77.5047 116.3641 4.2677 -33.4813 -18.3920
# 4 -1.9603 -5.7070 4.2677 47.9073 -10.6436 -4.2819
# 5 -5.5102 -16.5778 -33.4813 -10.6436 35.5394 -0.1956
# 6 -17.5588 -6.8292 -18.3920 -4.2819 -0.1956 45.6707
#
#
#
# Elastic Compliance Matrix: (Units=1/GPa)
#
#
# Indices 1 2 3 4 5 6 
#
# 1 0.027216 -0.007498 -0.013549 -0.000974 -0.012314 0.003742
# 2 -0.007498 0.011181 -0.003122 0.001435 0.001528 -0.002327
# 3 -0.013549 -0.003122 0.025062 0.001843 0.020631 0.004677
# 4 -0.000974 0.001435 0.001843 0.023133 0.009198 0.002790
# 5 -0.012314 0.001528 0.020631 0.009198 0.049159 0.004875
# 6 0.003742 -0.002327 0.004677 0.002790 0.004875 0.025153
#
#
# Mechanical properties :
#
#
# Convention : Reuss Voigt Hill
#
# Bulk Modulus (GPa) = 66.14532 90.52015 78.33273
# Shear Modulus (GPa) = 23.33358 35.85019 29.59189
#
# Velocity S-wave (km/s) = 3.47788 4.31092 3.91661
# Velocity P-wave (km/s) = 7.10042 8.46773 7.81404
#
# Compressibility (1/GPa) = 0.01511823
#
# Stress axis : x y z
#
# Youngs Moduli (GPa) = 36.74351 89.43376 39.90181
#
# Poissons Ratio (x) = 0.67060 0.54065
# Poissons Ratio (y) = 0.27551 0.12459
# Poissons Ratio (z) = 0.49785 0.27925
#
# Static dielectric constant tensor:
#      x y z
#    x 3.110140 0.588210 -0.510420 
#    y 0.588210 3.765760 0.182070 
#    z -0.510420 0.182070 2.868380 
# 
# 
# High freq. dielectric constant tensor:
#      x y z
#    x 1.735240 0.002680 -0.009850 
#    y 0.002680 1.774940 -0.003450 
#    z -0.009850 -0.003450 1.760330 
# 
# From -- ./inp_files/203972.got.cif
#   From: 2010.06.25/outbox.cif.g09.slc.cpg/sg2_102_cif.got.tgz:203972.got - 2010.06.27 13:26:56.
