data_PCOD8042769
_publ_section_title
;
Structure prediction by ZEFSAII (Michael W. Deem and Ramdas Pophale) SiO2 
 PCOD8042769
Probable space group: P -1
;
_chemical_formula_sum "Si O2"
_cell_formula_units_Z 14
_cell_length_a 24.979748
_cell_length_b 22.519291
_cell_length_c 6.912472
_cell_angle_alpha 116.496283
_cell_angle_beta 116.765058
_cell_angle_gamma 10.552558
_cell_volume 635.684589
_symmetry_space_group_name_H-M "P -1"
_symmetry_group_IT_number 2
_symmetry_cell_setting 'triclinic'
loop_
_space_group_symop_operation_xyz
x,y,z
-x,-y,-z
loop_
_atom_site_type_symbol
_atom_site_label
_atom_site_fract_x
_atom_site_fract_y
_atom_site_fract_z
Si Si1 0.825803 0.106483 0.068891
Si Si2 0.170680 0.191226 0.749192
Si Si3 0.254633 0.394711 0.012380
Si Si4 0.534381 0.236549 0.645829
Si Si5 0.170362 0.378742 0.530967
Si Si6 0.885543 0.334378 0.065113
Si Si7 0.750002 0.326128 0.201996
O O1 0.817195 0.191768 0.265770
O O2 0.498408 0.431987 0.000528
O O3 0.042630 0.819308 0.112921
O O4 0.954589 0.975201 0.869577
O O5 0.961728 0.456553 0.649167
O O6 0.387262 0.904691 0.583446
O O7 0.961636 0.380576 0.833813
O O8 0.403210 0.990375 0.935838
O O9 0.143521 0.467952 0.766801
O O10 0.245465 0.481611 0.057197
O O11 0.325928 0.432596 0.756280
O O12 0.377999 0.467512 0.612069
O O13 0.817119 0.954102 0.806415
O O14 0.000000 0.500000 0.500000
O O15 0.500000 0.000000 0.500000
#
# Coordination Sequence:
#
# PCOD8042769 Si02
#       7
#     2   2   2   2   2   2   2
#     4   8  14  25  46  80 115 155 207 254 299 356
#     4  12  26  43  69  98 130 166 209 259 313 376
#     4  12  26  43  69  98 130 166 209 259 313 376
#     4  10  19  35  61  87 124 168 209 257 310 364
#     4  12  28  48  72  96 129 164 205 258 316 380
#     4  10  19  35  61  87 124 168 209 257 310 364
#     4   8  14  25  46  80 115 155 207 254 299 356
#
# _framework density 22.023502000000001
#
# number of rings (size 3 to 8) (size 9 to 14) (size 15 to 20)
#    0.000    1.714    1.429    3.429    2.000    3.429 
#    0.000    0.000    0.000    1.714    0.000    0.000 
#    0.000    0.000    0.000    0.000    0.000    0.000 
#
# Total GULP energy -173463.549605 kJ/mol
# GULP energy per Si atom -12390.253543 kJ/mol
# Density = 2.197338 g / cm^3
# Si number density = 22.023502 Si / 1000 Ang^3
#
#
#
# Elastic Constant Matrix: (Units=GPa)
#
#
# Indices 1 2 3 4 5 6 
#
# 1 153.9640 66.1162 46.2085 4.9680 -16.1708 8.9846
# 2 66.1162 138.9950 37.0930 3.4533 -14.6553 -10.9709
# 3 46.2085 37.0930 44.7032 -8.8484 -20.0294 9.4811
# 4 4.9680 3.4533 -8.8484 30.7695 -4.8462 -0.0206
# 5 -16.1708 -14.6553 -20.0294 -4.8462 24.1758 8.1638
# 6 8.9846 -10.9709 9.4811 -0.0206 8.1638 61.5843
#
#
#
# Elastic Compliance Matrix: (Units=1/GPa)
#
#
# Indices 1 2 3 4 5 6 
#
# 1 0.011278 -0.001650 -0.016261 -0.007740 -0.009077 0.001765
# 2 -0.001650 0.011545 -0.014841 -0.006829 -0.009753 0.005873
# 3 -0.016261 -0.014841 0.106278 0.048607 0.087446 -0.028209
# 4 -0.007740 -0.006829 0.048607 0.055855 0.046795 -0.013755
# 5 -0.009077 -0.009753 0.087446 0.046795 0.121320 -0.029943
# 6 0.001765 0.005873 -0.028209 -0.013755 -0.029943 0.025334
#
#
# Mechanical properties :
#
#
# Convention : Reuss Voigt Hill
#
# Bulk Modulus (GPa) = 15.72450 70.72197 43.22323
# Shear Modulus (GPa) = 11.95280 35.85555 23.90417
#
# Velocity S-wave (km/s) = 2.33218 4.03930 3.29811
# Velocity P-wave (km/s) = 3.79572 7.34414 5.84567
#
# Compressibility (1/GPa) = 0.06359504
#
# Stress axis : x y z
#
# Youngs Moduli (GPa) = 88.67154 86.61848 9.40932
#
# Poissons Ratio (x) = 0.14294 0.15301
# Poissons Ratio (y) = 0.14633 0.13964
# Poissons Ratio (z) = 1.44193 1.28549
#
# Static dielectric constant tensor:
#      x y z
#    x 4.500490 0.268700 0.215040 
#    y 0.268700 4.294750 0.100970 
#    z 0.215040 0.100970 3.556260 
# 
# 
# High freq. dielectric constant tensor:
#      x y z
#    x 1.891370 -0.000100 0.010080 
#    y -0.000100 1.895410 0.010940 
#    z 0.010080 0.010940 1.806680 
# 
# From -- ./inp_files/114070.got.cif
#   From: 2010.06.25/outbox.cif.g09.slc.cpg/sg2_58_cif.got.tgz:114070.got - 2010.06.27 13:26:56.
