data_PCOD8042850
_publ_section_title
;
Structure prediction by ZEFSAII (Michael W. Deem and Ramdas Pophale) SiO2 
 PCOD8042850
Probable space group: P -1
;
_chemical_formula_sum "Si O2"
_cell_formula_units_Z 16
_cell_length_a 11.357276
_cell_length_b 9.547396
_cell_length_c 8.120005
_cell_angle_alpha 90.042437
_cell_angle_beta 68.279559
_cell_angle_gamma 109.750527
_cell_volume 762.019289
_symmetry_space_group_name_H-M "P -1"
_symmetry_group_IT_number 2
_symmetry_cell_setting 'triclinic'
loop_
_space_group_symop_operation_xyz
x,y,z
-x,-y,-z
loop_
_atom_site_type_symbol
_atom_site_label
_atom_site_fract_x
_atom_site_fract_y
_atom_site_fract_z
Si Si1 0.338177 0.226409 0.288922
Si Si2 0.228680 0.887670 0.370230
Si Si3 0.687961 0.385841 0.680909
Si Si4 0.958038 0.138409 0.843303
Si Si5 0.051253 0.862059 0.784232
Si Si6 0.552850 0.517733 0.280363
Si Si7 0.229204 0.382734 0.090651
Si Si8 0.778896 0.632183 0.401604
O O1 0.485715 0.340407 0.271806
O O2 0.304537 0.277136 0.128789
O O3 0.218503 0.238446 0.469498
O O4 0.334096 0.057034 0.289395
O O5 0.318019 0.783243 0.324557
O O6 0.127420 0.837929 0.266671
O O7 0.158428 0.873321 0.585037
O O8 0.536360 0.386532 0.733901
O O9 0.741767 0.461240 0.828200
O O10 0.793809 0.489722 0.488296
O O11 0.097548 0.286635 0.785645
O O12 0.885641 0.122882 0.061308
O O13 0.989013 0.990026 0.789430
O O14 0.932056 0.700674 0.833860
O O15 0.615827 0.563274 0.431918
O O16 0.703548 0.576826 0.121907
#
# Coordination Sequence:
#
# PCOD8042850 Si02
#       8
#     2   2   2   2   2   2   2   2
#     4  10  19  35  63  86 122 164 201 247 309 374
#     4  12  23  41  62  97 132 161 195 262 331 359
#     4  10  23  38  60  93 125 163 205 256 314 368
#     4  11  22  38  65  97 123 162 211 257 305 378
#     4  11  22  38  65  97 123 162 211 257 305 378
#     4  10  20  41  66  93 116 163 223 251 295 372
#     4  10  19  39  64  88 119 164 213 255 294 372
#     4  10  19  39  64  88 119 164 213 255 294 372
#
# _framework density 20.996845
#
# number of rings (size 3 to 8) (size 9 to 14) (size 15 to 20)
#    0.000    1.750    3.750    4.875    0.000    2.000 
#    2.250    6.250    0.000    0.000    0.000    0.000 
#    0.000    0.000    0.000    0.000    0.000    0.000 
#
# Total GULP energy -198246.778010 kJ/mol
# GULP energy per Si atom -12390.423626 kJ/mol
# Density = 2.094906 g / cm^3
# Si number density = 20.996845 Si / 1000 Ang^3
#
#
#
# Elastic Constant Matrix: (Units=GPa)
#
#
# Indices 1 2 3 4 5 6 
#
# 1 64.7439 45.2268 21.2344 8.0144 5.0445 9.7533
# 2 45.2268 147.7951 20.7795 0.4543 -3.8397 -11.6487
# 3 21.2344 20.7795 73.1915 3.7056 4.3386 0.1397
# 4 8.0144 0.4543 3.7056 22.6047 7.4817 -3.5228
# 5 5.0445 -3.8397 4.3386 7.4817 22.7195 0.0808
# 6 9.7533 -11.6487 0.1397 -3.5228 0.0808 33.4335
#
#
#
# Elastic Compliance Matrix: (Units=1/GPa)
#
#
# Indices 1 2 3 4 5 6 
#
# 1 0.025661 -0.008169 -0.004461 -0.008874 -0.003264 -0.011241
# 2 -0.008169 0.009917 -0.000762 0.002899 0.002659 0.006140
# 3 -0.004461 -0.000762 0.015296 -0.000086 -0.002034 0.000968
# 4 -0.008874 0.002899 -0.000086 0.053852 -0.015290 0.009310
# 5 -0.003264 0.002659 -0.002034 -0.015290 0.050612 0.000154
# 6 -0.011241 0.006140 0.000968 0.009310 0.000154 0.036305
#
#
# Mechanical properties :
#
#
# Convention : Reuss Voigt Hill
#
# Bulk Modulus (GPa) = 41.50942 51.13465 46.32203
# Shear Modulus (GPa) = 22.07909 28.98420 25.53164
#
# Velocity S-wave (km/s) = 3.24627 3.71941 3.49087
# Velocity P-wave (km/s) = 5.81922 6.54612 6.19334
#
# Compressibility (1/GPa) = 0.02409092
#
# Stress axis : x y z
#
# Youngs Moduli (GPa) = 38.96947 100.83619 65.37443
#
# Poissons Ratio (x) = 0.82371 0.29166
# Poissons Ratio (y) = 0.31833 0.04979
# Poissons Ratio (z) = 0.17386 0.07680
#
# Static dielectric constant tensor:
#      x y z
#    x 3.345730 0.228780 0.204970 
#    y 0.228780 3.716050 -0.095780 
#    z 0.204970 -0.095780 4.045420 
# 
# 
# High freq. dielectric constant tensor:
#      x y z
#    x 1.786820 0.027160 0.018110 
#    y 0.027160 1.815280 -0.007320 
#    z 0.018110 -0.007320 1.844080 
# 
# From -- ./inp_files/238968.got.cif
#   From: 2010.06.25/outbox.cif.g09.slc.cpg/sg2_120_cif.got.tgz:238968.got - 2010.06.27 13:26:56.
