data_PCOD8042479
_publ_section_title
;
Structure prediction by ZEFSAII (Michael W. Deem and Ramdas Pophale) SiO2 
 PCOD8042479
Probable space group: P -1
;
_chemical_formula_sum "Si O2"
_cell_formula_units_Z 16
_cell_length_a 13.078960
_cell_length_b 13.889395
_cell_length_c 14.163886
_cell_angle_alpha 149.643809
_cell_angle_beta 132.163232
_cell_angle_gamma 37.954274
_cell_volume 799.395233
_symmetry_space_group_name_H-M "P -1"
_symmetry_group_IT_number 2
_symmetry_cell_setting 'triclinic'
loop_
_space_group_symop_operation_xyz
x,y,z
-x,-y,-z
loop_
_atom_site_type_symbol
_atom_site_label
_atom_site_fract_x
_atom_site_fract_y
_atom_site_fract_z
Si Si1 0.116550 0.973535 0.180412
Si Si2 0.638143 0.546808 0.389191
Si Si3 0.734131 0.084070 0.585675
Si Si4 0.015702 0.777234 0.192599
Si Si5 0.059770 0.345964 0.765952
Si Si6 0.155726 0.362120 0.279121
Si Si7 0.910446 0.352980 0.236207
Si Si8 0.795998 0.068064 0.146030
O O1 0.253936 0.940409 0.312740
O O2 0.162176 0.731989 0.961229
O O3 0.078702 0.143696 0.214321
O O4 0.947382 0.090421 0.233288
O O5 0.454230 0.727183 0.394627
O O6 0.687872 0.652013 0.592015
O O7 0.759766 0.504130 0.341394
O O8 0.640887 0.328237 0.249141
O O9 0.850608 0.160815 0.682986
O O10 0.785940 0.848264 0.365718
O O11 0.978138 0.773434 0.275428
O O12 0.097923 0.526598 0.983128
O O13 0.837104 0.967515 0.193317
O O14 0.895094 0.483461 0.715415
O O15 0.987539 0.481855 0.342532
O O16 0.218120 0.100913 0.074494
#
# Coordination Sequence:
#
# PCOD8042479 Si02
#       8
#     2   2   2   2   2   2   2   2
#     4   8  16  33  55  76 101 140 184 218 254 308
#     4  11  22  33  52  82 113 143 173 214 272 322
#     4  11  22  35  53  83 116 136 166 225 277 315
#     4   9  19  38  62  80 100 138 182 224 264 310
#     4  10  20  37  61  82 101 137 186 221 259 319
#     4  10  19  35  57  77 103 143 187 222 250 306
#     4   9  17  34  56  75 102 145 187 217 251 307
#     4   8  17  35  56  76 102 138 181 221 258 309
#
# _framework density 20.015129999999999
#
# number of rings (size 3 to 8) (size 9 to 14) (size 15 to 20)
#    0.000    2.500    0.000    4.500    0.000    1.500 
#    0.000    5.000    0.000    4.500    0.000    0.000 
#    0.000    0.000    0.000    0.000    0.000    0.000 
#
# Total GULP energy -198265.730501 kJ/mol
# GULP energy per Si atom -12391.608156 kJ/mol
# Density = 1.996958 g / cm^3
# Si number density = 20.015130 Si / 1000 Ang^3
#
#
#
# Elastic Constant Matrix: (Units=GPa)
#
#
# Indices 1 2 3 4 5 6 
#
# 1 42.9443 33.0377 27.1275 -8.1020 -7.7100 19.9036
# 2 33.0377 135.2286 61.7019 -10.0703 -14.5052 3.0862
# 3 27.1275 61.7019 84.5623 -4.4874 -10.8714 0.2199
# 4 -8.1020 -10.0703 -4.4874 25.4781 9.3004 -4.0834
# 5 -7.7100 -14.5052 -10.8714 9.3004 14.5317 -2.8380
# 6 19.9036 3.0862 0.2199 -4.0834 -2.8380 30.7449
#
#
#
# Elastic Compliance Matrix: (Units=1/GPa)
#
#
# Indices 1 2 3 4 5 6 
#
# 1 0.051146 -0.005837 -0.011381 0.005857 0.002915 -0.031396
# 2 -0.005837 0.012219 -0.006444 0.000721 0.004423 0.003102
# 3 -0.011381 -0.006444 0.020875 -0.003816 0.007155 0.008019
# 4 0.005857 0.000721 -0.003816 0.052693 -0.032724 0.000141
# 5 0.002915 0.004423 0.007155 -0.032724 0.101590 0.002649
# 6 -0.031396 0.003102 0.008019 0.000141 0.002649 0.052746
#
#
# Mechanical properties :
#
#
# Convention : Reuss Voigt Hill
#
# Bulk Modulus (GPa) = 27.08951 56.27438 41.68195
# Shear Modulus (GPa) = 14.24919 23.54215 18.89567
#
# Velocity S-wave (km/s) = 2.67108 3.43332 3.07590
# Velocity P-wave (km/s) = 4.80383 6.62525 5.78665
#
# Compressibility (1/GPa) = 0.03691466
#
# Stress axis : x y z
#
# Youngs Moduli (GPa) = 19.55201 81.84291 47.90386
#
# Poissons Ratio (x) = 0.47772 0.54520
# Poissons Ratio (y) = 0.11413 0.30870
# Poissons Ratio (z) = 0.22253 0.52740
#
# Static dielectric constant tensor:
#      x y z
#    x 3.411410 0.508030 -0.097490 
#    y 0.508030 3.731580 -0.027790 
#    z -0.097490 -0.027790 3.779510 
# 
# 
# High freq. dielectric constant tensor:
#      x y z
#    x 1.745790 0.043020 -0.003580 
#    y 0.043020 1.766970 -0.003600 
#    z -0.003580 -0.003600 1.797230 
# 
# From -- ./inp_files/273987.got.cif
#   From: 2010.06.25/outbox.cif.g09.slc.cpg/sg2_137_cif.got.tgz:273987.got - 2010.06.27 13:26:56.
