data_PCOD8042529
_publ_section_title
;
Structure prediction by ZEFSAII (Michael W. Deem and Ramdas Pophale) SiO2 
 PCOD8042529
Probable space group: P -1
;
_chemical_formula_sum "Si O2"
_cell_formula_units_Z 14
_cell_length_a 32.380094
_cell_length_b 32.291554
_cell_length_c 12.521113
_cell_angle_alpha 160.657292
_cell_angle_beta 160.632438
_cell_angle_gamma 9.170578
_cell_volume 673.261754
_symmetry_space_group_name_H-M "P -1"
_symmetry_group_IT_number 2
_symmetry_cell_setting 'triclinic'
loop_
_space_group_symop_operation_xyz
x,y,z
-x,-y,-z
loop_
_atom_site_type_symbol
_atom_site_label
_atom_site_fract_x
_atom_site_fract_y
_atom_site_fract_z
Si Si1 0.708723 0.708043 0.771720
Si Si2 0.344904 0.306082 0.173761
Si Si3 0.326681 0.375153 0.750191
Si Si4 0.795276 0.774573 0.869287
Si Si5 0.451029 0.455335 0.672395
Si Si6 0.095249 0.051025 0.818979
Si Si7 0.905889 0.927185 0.382137
O O1 0.655670 0.653380 0.604627
O O2 0.666762 0.678666 0.486085
O O3 0.000000 0.500000 0.000000
O O4 0.500000 0.000000 0.000000
O O5 0.425715 0.343274 0.385423
O O6 0.056318 0.514569 0.942169
O O7 0.566830 0.004457 0.958312
O O8 0.284468 0.295016 0.535917
O O9 0.084235 0.686300 0.922822
O O10 0.598424 0.204976 0.024906
O O11 0.831951 0.850344 0.053759
O O12 0.183792 0.729776 0.627247
O O13 0.697159 0.220888 0.620919
O O14 0.500000 0.500000 0.000000
O O15 0.065809 0.097858 0.735424
O O16 0.000000 0.000000 0.500000
#
# Coordination Sequence:
#
# PCOD8042529 Si02
#       7
#     2   2   2   2   2   2   2
#     4  12  21  36  61  95 129 159 195 254 322 378
#     4  10  19  35  57  92 130 155 186 263 312 371
#     4  12  24  41  68  93 124 173 214 255 323 378
#     4  10  20  38  64  92 120 153 207 256 323 369
#     4  10  21  38  65  93 120 162 210 253 313 376
#     4  12  28  46  62  89 130 173 221 261 297 378
#     4  10  23  42  64  88 129 163 202 273 312 357
#
# _framework density 20.794291000000001
#
# number of rings (size 3 to 8) (size 9 to 14) (size 15 to 20)
#    0.000    1.143    2.857    3.429    0.000    3.429 
#    0.000    0.000    0.000    0.000    0.000    0.000 
#    0.000    0.000    0.000    0.000    0.000    0.000 
#
# Total GULP energy -173460.821534 kJ/mol
# GULP energy per Si atom -12390.058681 kJ/mol
# Density = 2.074696 g / cm^3
# Si number density = 20.794291 Si / 1000 Ang^3
#
#
#
# Elastic Constant Matrix: (Units=GPa)
#
#
# Indices 1 2 3 4 5 6 
#
# 1 128.5637 20.7985 30.5787 -2.4412 -11.2239 -0.7036
# 2 20.7985 120.9676 48.1303 -1.4690 9.9688 -32.2148
# 3 30.5787 48.1303 74.4824 -7.2659 -17.4466 11.5633
# 4 -2.4412 -1.4690 -7.2659 40.0423 -2.1501 -3.6037
# 5 -11.2239 9.9688 -17.4466 -2.1501 18.8252 15.1977
# 6 -0.7036 -32.2148 11.5633 -3.6037 15.1977 13.4447
#
#
#
# Elastic Compliance Matrix: (Units=1/GPa)
#
#
# Indices 1 2 3 4 5 6 
#
# 1 0.008719 -0.000183 -0.003156 0.000116 0.001765 0.000767
# 2 -0.000183 0.002074 0.003950 0.000291 0.013282 -0.013372
# 3 -0.003156 0.003950 0.006534 0.002128 -0.012648 0.018548
# 4 0.000116 0.000291 0.002128 0.025811 0.001820 0.003735
# 5 0.001765 0.013282 -0.012648 0.001820 0.007813 0.034451
# 6 0.000767 -0.013372 0.018548 0.003735 0.034451 -0.011515
#
#
# Mechanical properties :
#
#
# Convention : Reuss Voigt Hill
#
# Bulk Modulus (GPa) = 53.90666 58.11430 56.01048
# Shear Modulus (GPa) = 112.61837 29.42952 71.02394
#
# Velocity S-wave (km/s) = 7.36722 3.76609 5.85061
# Velocity P-wave (km/s) = 9.91705 6.84975 8.52253
#
# Compressibility (1/GPa) = 0.01855058
#
# Stress axis : x y z
#
# Youngs Moduli (GPa) = 114.69332 482.05764 153.03711
#
# Poissons Ratio (x) = 0.08835 0.48291
# Poissons Ratio (y) = 0.02102 -0.60453
# Poissons Ratio (z) = 0.36192 -1.90424
#
# Static dielectric constant tensor:
#      x y z
#    x 3.911410 -0.232910 0.017820 
#    y -0.232910 4.199090 0.030830 
#    z 0.017820 0.030830 3.509620 
# 
# 
# High freq. dielectric constant tensor:
#      x y z
#    x 1.821550 -0.005900 0.006010 
#    y -0.005900 1.842400 0.002150 
#    z 0.006010 0.002150 1.798100 
# 
# From -- ./inp_files/83450.got.cif
#   From: 2010.06.25/outbox.cif.g09.slc.cpg/sg2_42_cif.got.tgz:83450.got - 2010.06.27 13:26:56.
