data_PCOD8042414
_publ_section_title
;
Structure prediction by ZEFSAII (Michael W. Deem and Ramdas Pophale) SiO2 
 PCOD8042414
Probable space group: P -1
;
_chemical_formula_sum "Si O2"
_cell_formula_units_Z 16
_cell_length_a 6.872599
_cell_length_b 12.089201
_cell_length_c 23.115651
_cell_angle_alpha 27.399179
_cell_angle_beta 106.859212
_cell_angle_gamma 103.028834
_cell_volume 843.582453
_symmetry_space_group_name_H-M "P -1"
_symmetry_group_IT_number 2
_symmetry_cell_setting 'triclinic'
loop_
_space_group_symop_operation_xyz
x,y,z
-x,-y,-z
loop_
_atom_site_type_symbol
_atom_site_label
_atom_site_fract_x
_atom_site_fract_y
_atom_site_fract_z
Si Si1 0.467379 0.711749 0.999953
Si Si2 0.362593 0.347812 0.354506
Si Si3 0.628698 0.672058 0.158214
Si Si4 0.983635 0.433435 0.358196
Si Si5 0.158171 0.067908 0.855054
Si Si6 0.856403 0.716110 0.960730
Si Si7 0.244043 0.968445 0.430274
Si Si8 0.831937 0.702265 0.835019
O O1 0.621497 0.720030 0.956442
O O2 0.305876 0.947160 0.873925
O O3 0.593810 0.713568 0.068989
O O4 0.352565 0.470020 0.098221
O O5 0.432484 0.576638 0.218516
O O6 0.246254 0.179722 0.379247
O O7 0.209194 0.439980 0.349135
O O8 0.551003 0.205051 0.468780
O O9 0.816019 0.464935 0.277276
O O10 0.700800 0.917755 0.080990
O O11 0.936869 0.660721 0.293184
O O12 0.952595 0.183465 0.504367
O O13 0.974478 0.895386 0.928865
O O14 0.867886 0.806972 0.853318
O O15 0.961955 0.445667 0.100778
O O16 0.224177 0.074886 0.315041
#
# Coordination Sequence:
#
# PCOD8042414 Si02
#       8
#     2   2   2   2   2   2   2   2
#     4  11  20  36  59  81 111 147 182 228 280 321
#     4  10  19  35  55  82 118 143 177 228 274 327
#     4   9  20  33  52  85 114 141 177 222 272 337
#     4   9  21  34  55  84 112 147 176 218 282 335
#     4   9  22  36  52  84 116 141 185 223 269 338
#     4  10  23  38  59  78 112 149 184 231 268 321
#     4  10  20  35  57  82 112 142 183 232 270 324
#     4  10  22  40  56  85 106 142 196 228 268 320
#
# _framework density 18.966728
#
# number of rings (size 3 to 8) (size 9 to 14) (size 15 to 20)
#    0.750    1.500    1.250    1.125    3.500    1.500 
#    0.000    0.625    0.000    1.500    0.000    0.000 
#    0.000    0.000    0.000    0.000    0.000    0.000 
#
# Total GULP energy -198316.490239 kJ/mol
# GULP energy per Si atom -12394.780640 kJ/mol
# Density = 1.892356 g / cm^3
# Si number density = 18.966728 Si / 1000 Ang^3
#
#
#
# Elastic Constant Matrix: (Units=GPa)
#
#
# Indices 1 2 3 4 5 6 
#
# 1 97.8230 25.2534 19.7919 -2.7998 -7.8851 -23.3651
# 2 25.2534 69.0318 32.1066 -5.7534 -5.1875 -0.9939
# 3 19.7919 32.1066 78.8616 3.7449 -3.3521 -11.1437
# 4 -2.7998 -5.7534 3.7449 21.3503 3.6644 1.9495
# 5 -7.8851 -5.1875 -3.3521 3.6644 18.6022 -0.3427
# 6 -23.3651 -0.9939 -11.1437 1.9495 -0.3427 23.3501
#
#
#
# Elastic Compliance Matrix: (Units=1/GPa)
#
#
# Indices 1 2 3 4 5 6 
#
# 1 0.015834 -0.005776 0.001051 -0.002193 0.006024 0.016372
# 2 -0.005776 0.021237 -0.008914 0.007378 0.000235 -0.009742
# 3 0.001051 -0.008914 0.017866 -0.006755 0.002691 0.009802
# 4 -0.002193 0.007378 -0.006755 0.052421 -0.010593 -0.009636
# 5 0.006024 0.000235 0.002691 -0.010593 0.059115 0.009074
# 6 0.016372 -0.009742 0.009802 -0.009636 0.009074 0.064409
#
#
# Mechanical properties :
#
#
# Convention : Reuss Voigt Hill
#
# Bulk Modulus (GPa) = 36.15251 44.44670 40.29960
# Shear Modulus (GPa) = 18.70006 23.89816 21.29911
#
# Velocity S-wave (km/s) = 3.14338 3.55350 3.35471
# Velocity P-wave (km/s) = 5.68127 6.34992 6.02488
#
# Compressibility (1/GPa) = 0.02766060
#
# Stress axis : x y z
#
# Youngs Moduli (GPa) = 63.15498 47.08763 55.97281
#
# Poissons Ratio (x) = 0.27197 -0.05884
# Poissons Ratio (y) = 0.36477 0.49892
# Poissons Ratio (z) = -0.06639 0.41972
#
# Static dielectric constant tensor:
#      x y z
#    x 3.486490 0.088910 0.049310 
#    y 0.088910 3.361850 -0.159610 
#    z 0.049310 -0.159610 3.263980 
# 
# 
# High freq. dielectric constant tensor:
#      x y z
#    x 1.744420 0.004330 0.001210 
#    y 0.004330 1.722390 -0.017770 
#    z 0.001210 -0.017770 1.713930 
# 
# From -- ./inp_files/524378.got.cif
#   From: 2010.06.25/outbox.cif.g09.slc.cpg/sg2_263_cif.got.tgz:524378.got - 2010.06.27 13:26:56.
