data_PCOD8042819
_publ_section_title
;
Structure prediction by ZEFSAII (Michael W. Deem and Ramdas Pophale) SiO2 
 PCOD8042819
Probable space group: P -1
;
_chemical_formula_sum "Si O2"
_cell_formula_units_Z 16
_cell_length_a 10.949571
_cell_length_b 18.328254
_cell_length_c 9.023862
_cell_angle_alpha 43.054457
_cell_angle_beta 95.401122
_cell_angle_gamma 63.591095
_cell_volume 806.242196
_symmetry_space_group_name_H-M "P -1"
_symmetry_group_IT_number 2
_symmetry_cell_setting 'triclinic'
loop_
_space_group_symop_operation_xyz
x,y,z
-x,-y,-z
loop_
_atom_site_type_symbol
_atom_site_label
_atom_site_fract_x
_atom_site_fract_y
_atom_site_fract_z
Si Si1 0.499085 0.183048 0.576370
Si Si2 0.896920 0.620178 0.672962
Si Si3 0.995036 0.368327 0.867985
Si Si4 0.609080 0.923657 0.780334
Si Si5 0.409701 0.454840 0.486350
Si Si6 0.392455 0.485057 0.100956
Si Si7 0.390481 0.886495 0.984500
Si Si8 0.027477 0.232956 0.377446
O O1 0.322537 0.236437 0.539471
O O2 0.429275 0.340640 0.259163
O O3 0.603791 0.046076 0.666451
O O4 0.626307 0.112084 0.841613
O O5 0.948451 0.711759 0.550596
O O6 0.941746 0.528098 0.660701
O O7 0.000000 0.500000 0.000000
O O8 0.814893 0.421025 0.703844
O O9 0.171072 0.250662 0.952111
O O10 0.064473 0.274912 0.169895
O O11 0.513946 0.904012 0.912466
O O12 0.500000 0.000000 0.500000
O O13 0.500000 0.500000 0.500000
O O14 0.457742 0.438046 0.346040
O O15 0.521144 0.280025 0.824771
O O16 0.500000 0.500000 0.000000
O O17 0.183299 0.668024 0.793089
O O18 0.175183 0.038750 0.680695
#
# Coordination Sequence:
#
# PCOD8042819 Si02
#       8
#     2   2   2   2   2   2   2   2
#     4  11  21  39  61  87 128 161 194 253 306 364
#     4  10  15  34  64  85 117 164 194 231 317 374
#     4  10  20  39  60  90 128 162 197 251 305 373
#     4  12  23  35  62 100 130 148 206 255 309 366
#     4  10  23  46  61  81 126 168 205 252 312 352
#     4  10  22  43  64  86 114 167 222 243 283 375
#     4  11  22  40  62  89 124 162 195 254 314 364
#     4  10  19  36  65  89 119 162 200 244 313 373
#
# _framework density 19.845154999999998
#
# number of rings (size 3 to 8) (size 9 to 14) (size 15 to 20)
#    0.000    1.500    7.500    1.125    0.000    1.500 
#    4.500    2.500    0.000    0.000    0.000    0.000 
#    0.000    0.000    0.000    0.000    0.000    0.000 
#
# Total GULP energy -198228.623254 kJ/mol
# GULP energy per Si atom -12389.288953 kJ/mol
# Density = 1.979999 g / cm^3
# Si number density = 19.845155 Si / 1000 Ang^3
#
#
#
# Elastic Constant Matrix: (Units=GPa)
#
#
# Indices 1 2 3 4 5 6 
#
# 1 84.4398 42.5433 48.3064 -10.1285 -2.3865 1.6128
# 2 42.5433 93.3197 36.4510 -27.6081 6.7281 7.7278
# 3 48.3064 36.4510 120.1164 -21.3468 5.6724 1.1475
# 4 -10.1285 -27.6081 -21.3468 26.9492 -3.4495 2.3982
# 5 -2.3865 6.7281 5.6724 -3.4495 22.4343 2.1963
# 6 1.6128 7.7278 1.1475 2.3982 2.1963 37.5823
#
#
#
# Elastic Compliance Matrix: (Units=1/GPa)
#
#
# Indices 1 2 3 4 5 6 
#
# 1 0.019235 -0.008502 -0.006490 -0.006065 0.005186 0.001205
# 2 -0.008502 0.020366 0.000694 0.018139 -0.003931 -0.004772
# 3 -0.006490 0.000694 0.012219 0.007648 -0.002757 -0.000564
# 4 -0.006065 0.018139 0.007648 0.060410 0.002021 -0.007676
# 5 0.005186 -0.003931 -0.002757 0.002021 0.047532 -0.002237
# 6 0.001205 -0.004772 -0.000564 -0.007676 -0.002237 0.028176
#
#
# Mechanical properties :
#
#
# Convention : Reuss Voigt Hill
#
# Bulk Modulus (GPa) = 43.05813 61.38638 52.22225
# Shear Modulus (GPa) = 22.29391 28.76482 25.52937
#
# Velocity S-wave (km/s) = 3.35534 3.81131 3.59057
# Velocity P-wave (km/s) = 6.06261 7.09704 6.60012
#
# Compressibility (1/GPa) = 0.02322442
#
# Stress axis : x y z
#
# Youngs Moduli (GPa) = 51.98798 49.10175 81.83648
#
# Poissons Ratio (x) = 0.41747 0.53111
# Poissons Ratio (y) = 0.44200 -0.05678
# Poissons Ratio (z) = 0.33740 -0.03407
#
# Static dielectric constant tensor:
#      x y z
#    x 3.226850 0.166010 -0.591820 
#    y 0.166010 3.741490 -0.185420 
#    z -0.591820 -0.185420 2.308420 
# 
# 
# High freq. dielectric constant tensor:
#      x y z
#    x 1.744920 0.006940 0.006550 
#    y 0.006940 1.761580 -0.010920 
#    z 0.006550 -0.010920 1.790160 
# 
# From -- ./inp_files/207588.got.cif
#   From: 2010.06.25/outbox.cif.g09.slc.cpg/sg2_104_cif.got.tgz:207588.got - 2010.06.27 13:26:56.
