data_PCOD8042589
_publ_section_title
;
Structure prediction by ZEFSAII (Michael W. Deem and Ramdas Pophale) SiO2 
 PCOD8042589
Probable space group: P -1
;
_chemical_formula_sum "Si O2"
_cell_formula_units_Z 16
_cell_length_a 13.900983
_cell_length_b 11.801781
_cell_length_c 11.837439
_cell_angle_alpha 44.356591
_cell_angle_beta 70.812092
_cell_angle_gamma 106.816732
_cell_volume 779.402965
_symmetry_space_group_name_H-M "P -1"
_symmetry_group_IT_number 2
_symmetry_cell_setting 'triclinic'
loop_
_space_group_symop_operation_xyz
x,y,z
-x,-y,-z
loop_
_atom_site_type_symbol
_atom_site_label
_atom_site_fract_x
_atom_site_fract_y
_atom_site_fract_z
Si Si1 0.516052 0.204363 0.374269
Si Si2 0.673445 0.466531 0.360126
Si Si3 0.929830 0.488011 0.649203
Si Si4 0.408410 0.022358 0.949600
Si Si5 0.075908 0.497531 0.798322
Si Si6 0.820482 0.095411 0.371104
Si Si7 0.669270 0.666663 0.878014
Si Si8 0.775125 0.923001 0.892714
O O1 0.560563 0.279374 0.432100
O O2 0.500000 0.000000 0.500000
O O3 0.344468 0.083513 0.510585
O O4 0.662049 0.464518 0.050524
O O5 0.547894 0.304438 0.629592
O O6 0.810440 0.499067 0.301045
O O7 0.759428 0.752207 0.108177
O O8 0.000000 0.500000 0.500000
O O9 0.962673 0.420332 0.795629
O O10 0.026631 0.783847 0.413060
O O11 0.727550 0.241327 0.891146
O O12 0.313876 0.028153 0.062647
O O13 0.500000 0.000000 0.000000
O O14 0.178041 0.772096 0.621815
O O15 0.974851 0.290036 0.088656
O O16 0.818452 0.914910 0.560876
O O17 0.682818 0.769111 0.921296
O O18 0.500000 0.500000 0.000000
#
# Coordination Sequence:
#
# PCOD8042589 Si02
#       8
#     2   2   2   2   2   2   2   2
#     4  10  19  35  58  90 124 161 209 254 310 375
#     4  11  22  39  62  91 128 166 210 258 313 374
#     4  10  21  41  64  88 123 164 209 258 313 373
#     4  11  24  41  66  93 118 164 215 262 319 377
#     4  11  21  37  62  87 124 166 205 254 310 377
#     4  10  20  36  58  88 124 164 205 251 314 362
#     4   9  19  35  61  88 121 162 199 256 309 366
#     4  10  21  41  63  93 129 159 207 266 313 374
#
# _framework density 20.528534000000001
#
# number of rings (size 3 to 8) (size 9 to 14) (size 15 to 20)
#    0.000    1.750    2.500    2.625    0.000    0.000 
#    0.000   15.625    0.000    0.000    0.000    0.000 
#    0.000    0.000    0.000    0.000    0.000    0.000 
#
# Total GULP energy -198252.003269 kJ/mol
# GULP energy per Si atom -12390.750204 kJ/mol
# Density = 2.048181 g / cm^3
# Si number density = 20.528534 Si / 1000 Ang^3
#
#
#
# Elastic Constant Matrix: (Units=GPa)
#
#
# Indices 1 2 3 4 5 6 
#
# 1 99.5565 37.7284 48.0159 -13.4123 11.1761 13.9907
# 2 37.7284 71.7975 31.3139 -17.8119 11.2940 10.5554
# 3 48.0159 31.3139 138.0974 -16.2352 28.9847 -1.1757
# 4 -13.4123 -17.8119 -16.2352 32.2538 1.4105 2.3367
# 5 11.1761 11.2940 28.9847 1.4105 38.1115 -2.1152
# 6 13.9907 10.5554 -1.1757 2.3367 -2.1152 35.8811
#
#
#
# Elastic Compliance Matrix: (Units=1/GPa)
#
#
# Indices 1 2 3 4 5 6 
#
# 1 0.014612 -0.004878 -0.003728 0.001848 -0.000324 -0.004524
# 2 -0.004878 0.020755 -0.000964 0.009522 -0.004624 -0.005128
# 3 -0.003728 -0.000964 0.010581 0.003431 -0.006714 0.001465
# 4 0.001848 0.009522 0.003431 0.039566 -0.007795 -0.006446
# 5 -0.000324 -0.004624 -0.006714 -0.007795 0.033306 0.003738
# 6 -0.004524 -0.005128 0.001465 -0.006446 0.003738 0.031831
#
#
# Mechanical properties :
#
#
# Convention : Reuss Voigt Hill
#
# Bulk Modulus (GPa) = 37.30102 60.39641 48.84871
# Shear Modulus (GPa) = 27.97564 34.07549 31.02557
#
# Velocity S-wave (km/s) = 3.69557 4.07862 3.89181
# Velocity P-wave (km/s) = 6.03485 7.18782 6.63642
#
# Compressibility (1/GPa) = 0.02680892
#
# Stress axis : x y z
#
# Youngs Moduli (GPa) = 68.43619 48.18031 94.50936
#
# Poissons Ratio (x) = 0.23503 0.35231
# Poissons Ratio (y) = 0.33384 0.09110
# Poissons Ratio (z) = 0.25511 0.04644
#
# Static dielectric constant tensor:
#      x y z
#    x 3.756190 0.248270 0.290050 
#    y 0.248270 3.767250 -0.338000 
#    z 0.290050 -0.338000 4.554530 
# 
# 
# High freq. dielectric constant tensor:
#      x y z
#    x 1.790000 0.023780 0.022930 
#    y 0.023780 1.795540 -0.012840 
#    z 0.022930 -0.012840 1.824710 
# 
# From -- ./inp_files/226385.got.cif
#   From: 2010.06.25/outbox.cif.g09.slc.cpg/sg2_114_cif.got.tgz:226385.got - 2010.06.27 13:26:56.
