data_PCOD8042859
_publ_section_title
;
Structure prediction by ZEFSAII (Michael W. Deem and Ramdas Pophale) SiO2 
 PCOD8042859
Probable space group: P -1
;
_chemical_formula_sum "Si O2"
_cell_formula_units_Z 16
_cell_length_a 9.861520
_cell_length_b 8.621405
_cell_length_c 20.675504
_cell_angle_alpha 28.463698
_cell_angle_beta 67.475822
_cell_angle_gamma 63.686845
_cell_volume 750.889476
_symmetry_space_group_name_H-M "P -1"
_symmetry_group_IT_number 2
_symmetry_cell_setting 'triclinic'
loop_
_space_group_symop_operation_xyz
x,y,z
-x,-y,-z
loop_
_atom_site_type_symbol
_atom_site_label
_atom_site_fract_x
_atom_site_fract_y
_atom_site_fract_z
Si Si1 0.153768 0.436252 0.574804
Si Si2 0.115216 0.739283 0.160007
Si Si3 0.192126 0.209950 0.877660
Si Si4 0.672708 0.415336 0.629054
Si Si5 0.173047 0.177899 0.103475
Si Si6 0.870039 0.302122 0.175794
Si Si7 0.335160 0.478390 0.648290
Si Si8 0.825950 0.791344 0.558673
O O1 0.208723 0.636516 0.432829
O O2 0.282992 0.360644 0.633098
O O3 0.994714 0.656871 0.548654
O O4 0.141852 0.077809 0.681171
O O5 0.187549 0.363749 0.310062
O O6 0.954309 0.758511 0.151248
O O7 0.095287 0.968010 0.144071
O O8 0.221412 0.871577 0.040028
O O9 0.179451 0.536253 0.805167
O O10 0.330502 0.200331 0.806551
O O11 0.502617 0.532646 0.590805
O O12 0.702819 0.699348 0.567312
O O13 0.691290 0.065529 0.792903
O O14 0.041774 0.333935 0.121407
O O15 0.228985 0.471055 0.947112
O O16 0.212877 0.813156 0.569836
#
# Coordination Sequence:
#
# PCOD8042859 Si02
#       8
#     2   2   2   2   2   2   2   2
#     4  12  23  41  61  89 120 160 209 245 289 354
#     4   9  18  37  59  91 116 150 199 258 283 348
#     4  10  20  34  61  91 118 153 198 244 305 346
#     4  11  24  41  61  88 124 159 196 250 306 355
#     4   9  19  37  60  88 118 151 199 247 298 347
#     4  10  19  35  63  89 113 154 203 250 285 351
#     4  12  25  40  58  90 128 158 194 252 305 354
#     4  11  22  41  63  89 118 157 209 247 290 353
#
# _framework density 21.308063000000001
#
# number of rings (size 3 to 8) (size 9 to 14) (size 15 to 20)
#    0.000    1.500    3.750    2.250    1.750    0.000 
#    0.000    7.500    0.000    0.000    0.000    0.000 
#    0.000    0.000    0.000    0.000    0.000    0.000 
#
# Total GULP energy -198335.568995 kJ/mol
# GULP energy per Si atom -12395.973062 kJ/mol
# Density = 2.125956 g / cm^3
# Si number density = 21.308063 Si / 1000 Ang^3
#
#
#
# Elastic Constant Matrix: (Units=GPa)
#
#
# Indices 1 2 3 4 5 6 
#
# 1 97.7403 25.4203 23.2808 7.1223 0.4204 1.8675
# 2 25.4203 46.5517 31.9277 5.9521 7.7880 2.4947
# 3 23.2808 31.9277 102.1950 15.5139 8.4363 -9.8008
# 4 7.1223 5.9521 15.5139 27.2875 3.2494 6.2547
# 5 0.4204 7.7880 8.4363 3.2494 23.7580 5.3598
# 6 1.8675 2.4947 -9.8008 6.2547 5.3598 18.3214
#
#
#
# Elastic Compliance Matrix: (Units=1/GPa)
#
#
# Indices 1 2 3 4 5 6 
#
# 1 0.012180 -0.006183 -0.000982 -0.001298 0.002619 -0.001248
# 2 -0.006183 0.032342 -0.009340 0.002362 -0.005716 -0.007904
# 3 -0.000982 -0.009340 0.016203 -0.009739 -0.004665 0.014729
# 4 -0.001298 0.002362 -0.009739 0.046848 0.001205 -0.021745
# 5 0.002619 -0.005716 -0.004665 0.001205 0.049197 -0.016788
# 6 -0.001248 -0.007904 0.014729 -0.021745 -0.016788 0.075998
#
#
# Mechanical properties :
#
#
# Convention : Reuss Voigt Hill
#
# Bulk Modulus (GPa) = 36.08231 45.30495 40.69363
# Shear Modulus (GPa) = 18.18064 24.93061 21.55563
#
# Velocity S-wave (km/s) = 2.92418 3.42425 3.18405
# Velocity P-wave (km/s) = 5.32649 6.07799 5.71461
#
# Compressibility (1/GPa) = 0.02771441
#
# Stress axis : x y z
#
# Youngs Moduli (GPa) = 82.09943 30.91963 61.71645
#
# Poissons Ratio (x) = 0.19118 0.06060
# Poissons Ratio (y) = 0.50764 0.57646
# Poissons Ratio (z) = 0.08061 0.28880
#
# Static dielectric constant tensor:
#      x y z
#    x 3.580300 0.296640 0.157620 
#    y 0.296640 3.639540 0.186910 
#    z 0.157620 0.186910 4.357320 
# 
# 
# High freq. dielectric constant tensor:
#      x y z
#    x 1.810360 0.027990 0.009130 
#    y 0.027990 1.814190 0.013840 
#    z 0.009130 0.013840 1.858180 
# 
# From -- ./inp_files/225837.got.cif
#   From: 2010.06.25/outbox.cif.g09.slc.cpg/sg2_113_cif.got.tgz:225837.got - 2010.06.27 13:26:56.
