data_PCOD8042930
_publ_section_title
;
Structure prediction by ZEFSAII (Michael W. Deem and Ramdas Pophale) SiO2 
 PCOD8042930
Probable space group: P -1
;
_chemical_formula_sum "Si O2"
_cell_formula_units_Z 16
_cell_length_a 9.218755
_cell_length_b 13.543411
_cell_length_c 21.507278
_cell_angle_alpha 34.223758
_cell_angle_beta 149.093538
_cell_angle_gamma 134.913740
_cell_volume 775.672657
_symmetry_space_group_name_H-M "P -1"
_symmetry_group_IT_number 2
_symmetry_cell_setting 'triclinic'
loop_
_space_group_symop_operation_xyz
x,y,z
-x,-y,-z
loop_
_atom_site_type_symbol
_atom_site_label
_atom_site_fract_x
_atom_site_fract_y
_atom_site_fract_z
Si Si1 0.434577 0.319775 0.907485
Si Si2 0.689747 0.072932 0.770891
Si Si3 0.545396 0.393786 0.773713
Si Si4 0.037157 0.447150 0.339370
Si Si5 0.169647 0.518602 0.940826
Si Si6 0.400435 0.558590 0.517332
Si Si7 0.693268 0.064384 0.919687
Si Si8 0.363506 0.750094 0.782945
O O1 0.377874 0.371633 0.788011
O O2 0.166322 0.380899 0.819202
O O3 0.712158 0.416682 0.983246
O O4 0.478839 0.113109 0.039688
O O5 0.688189 0.245954 0.637617
O O6 0.649480 0.125561 0.800604
O O7 0.432186 0.953831 0.713179
O O8 0.981305 0.966860 0.925876
O O9 0.364471 0.528894 0.593338
O O10 0.561071 0.208626 0.841028
O O11 0.849862 0.470138 0.860404
O O12 0.207379 0.418752 0.481297
O O13 0.267926 0.484489 0.351415
O O14 0.845110 0.279135 0.338177
O O15 0.198833 0.676152 0.820370
O O16 0.340048 0.350325 0.065466
#
# Coordination Sequence:
#
# PCOD8042930 Si02
#       8
#     2   2   2   2   2   2   2   2
#     4  11  23  40  64  90 123 159 204 248 299 357
#     4  11  22  37  64  92 122 154 201 260 295 348
#     4  12  24  40  62  91 126 162 196 247 303 364
#     4  10  21  39  60  87 120 157 204 242 295 359
#     4  10  20  37  61  95 117 154 205 246 303 352
#     4  11  23  39  61  91 123 160 201 247 301 360
#     4  11  22  38  62  94 118 155 209 250 300 345
#     4  10  19  35  65  90 118 152 199 256 298 345
#
# _framework density 20.627258000000001
#
# number of rings (size 3 to 8) (size 9 to 14) (size 15 to 20)
#    0.000    1.250    5.000    2.250    1.750    1.000 
#    0.000    0.000    0.000    3.000    0.000    0.000 
#    0.000    0.000    0.000    0.000    0.000    0.000 
#
# Total GULP energy -198377.202577 kJ/mol
# GULP energy per Si atom -12398.575161 kJ/mol
# Density = 2.058031 g / cm^3
# Si number density = 20.627258 Si / 1000 Ang^3
#
#
#
# Elastic Constant Matrix: (Units=GPa)
#
#
# Indices 1 2 3 4 5 6 
#
# 1 56.3616 27.3416 21.2061 -3.7283 -23.2805 -7.3106
# 2 27.3416 118.0344 42.1539 3.5695 -7.6717 -11.0255
# 3 21.2061 42.1539 79.9222 2.2098 -19.8593 -1.9900
# 4 -3.7283 3.5695 2.2098 25.3989 3.7191 -3.0157
# 5 -23.2805 -7.6717 -19.8593 3.7191 31.4825 3.5805
# 6 -7.3106 -11.0255 -1.9900 -3.0157 3.5805 21.6389
#
#
#
# Elastic Compliance Matrix: (Units=1/GPa)
#
#
# Indices 1 2 3 4 5 6 
#
# 1 0.028968 -0.005060 -0.000200 0.002682 0.019247 0.004379
# 2 -0.005060 0.011933 -0.006095 -0.000595 -0.005129 0.004576
# 3 -0.000200 -0.006095 0.018435 -0.002781 0.010738 -0.003642
# 4 0.002682 -0.000595 -0.002781 0.041763 -0.005658 0.007104
# 5 0.019247 -0.005129 0.010738 -0.005658 0.052716 -0.004634
# 6 0.004379 0.004576 -0.003642 0.007104 -0.004634 0.051446
#
#
# Mechanical properties :
#
#
# Convention : Reuss Voigt Hill
#
# Bulk Modulus (GPa) = 27.30366 48.41346 37.85856
# Shear Modulus (GPa) = 20.81778 26.61185 23.71481
#
# Velocity S-wave (km/s) = 3.18029 3.59573 3.39438
# Velocity P-wave (km/s) = 5.17215 6.38441 5.80998
#
# Compressibility (1/GPa) = 0.03662513
#
# Stress axis : x y z
#
# Youngs Moduli (GPa) = 34.52096 83.80034 54.24549
#
# Poissons Ratio (x) = 0.42401 0.01085
# Poissons Ratio (y) = 0.17467 0.33065
# Poissons Ratio (z) = 0.00691 0.51080
#
# Static dielectric constant tensor:
#      x y z
#    x 3.492650 -0.091710 -0.082320 
#    y -0.091710 3.978840 0.287990 
#    z -0.082320 0.287990 3.608150 
# 
# 
# High freq. dielectric constant tensor:
#      x y z
#    x 1.780510 -0.004760 -0.004990 
#    y -0.004760 1.822260 0.018850 
#    z -0.004990 0.018850 1.794250 
# 
# From -- ./inp_files/244112.got.cif
#   From: 2010.06.25/outbox.cif.g09.slc.cpg/sg2_123_cif.got.tgz:244112.got - 2010.06.27 13:26:56.
