data_PCOD8042761
_publ_section_title
;
Structure prediction by ZEFSAII (Michael W. Deem and Ramdas Pophale) SiO2 
 PCOD8042761
Probable space group: P -1
;
_chemical_formula_sum "Si O2"
_cell_formula_units_Z 16
_cell_length_a 8.830955
_cell_length_b 14.884007
_cell_length_c 10.724361
_cell_angle_alpha 79.541438
_cell_angle_beta 30.365525
_cell_angle_gamma 76.773428
_cell_volume 693.314169
_symmetry_space_group_name_H-M "P -1"
_symmetry_group_IT_number 2
_symmetry_cell_setting 'triclinic'
loop_
_space_group_symop_operation_xyz
x,y,z
-x,-y,-z
loop_
_atom_site_type_symbol
_atom_site_label
_atom_site_fract_x
_atom_site_fract_y
_atom_site_fract_z
Si Si1 0.762421 0.377288 0.847063
Si Si2 0.502780 0.890659 0.006064
Si Si3 0.567688 0.701673 0.660638
Si Si4 0.603501 0.944920 0.319721
Si Si5 0.236696 0.877549 0.946115
Si Si6 0.129883 0.900642 0.490790
Si Si7 0.309027 0.572761 0.705462
Si Si8 0.246625 0.456930 0.024491
O O1 0.547235 0.391226 0.873703
O O2 0.067875 0.315653 0.596390
O O3 0.585264 0.334491 0.096406
O O4 0.857923 0.475208 0.800669
O O5 0.293497 0.856498 0.056331
O O6 0.849241 0.846680 0.737898
O O7 0.367983 0.847555 0.235785
O O8 0.500000 0.000000 0.000000
O O9 0.460898 0.811939 0.711576
O O10 0.454361 0.663154 0.619108
O O11 0.314604 0.903664 0.486046
O O12 0.500000 0.000000 0.500000
O O13 0.706787 0.016582 0.129103
O O14 0.890200 0.866245 0.161876
O O15 0.000000 0.000000 0.500000
O O16 0.500000 0.500000 0.500000
O O17 0.288068 0.522786 0.863708
O O18 0.001725 0.604223 0.835827
#
# Coordination Sequence:
#
# PCOD8042761 Si02
#       8
#     2   2   2   2   2   2   2   2
#     4  10  22  40  64  94 127 164 212 256 308 367
#     4  10  19  37  60  83 109 148 197 253 298 370
#     4  11  25  41  60  92 131 168 204 264 319 367
#     4  11  23  39  66  90 118 167 216 265 313 387
#     4  11  25  40  62  90 124 163 213 265 324 373
#     4  10  19  35  61  86 109 142 200 258 297 366
#     4  10  19  37  65  93 130 171 206 251 308 371
#     4   9  20  36  67  96 121 169 217 250 295 381
#
# _framework density 23.077563000000001
#
# number of rings (size 3 to 8) (size 9 to 14) (size 15 to 20)
#    0.000    1.750    3.750    1.500    5.250    1.500 
#    0.000    2.500    0.000    0.000    0.000    0.000 
#    0.000    0.000    0.000    0.000    0.000    0.000 
#
# Total GULP energy -198228.386262 kJ/mol
# GULP energy per Si atom -12389.274141 kJ/mol
# Density = 2.302504 g / cm^3
# Si number density = 23.077563 Si / 1000 Ang^3
#
#
#
# Elastic Constant Matrix: (Units=GPa)
#
#
# Indices 1 2 3 4 5 6 
#
# 1 183.3621 24.0800 76.3777 10.9004 -29.2128 18.0073
# 2 24.0800 34.7947 24.9052 16.6640 -12.7680 12.0162
# 3 76.3777 24.9052 189.4419 13.8374 -16.0604 -0.9678
# 4 10.9004 16.6640 13.8374 33.5709 -0.1832 3.3627
# 5 -29.2128 -12.7680 -16.0604 -0.1832 46.7386 3.8628
# 6 18.0073 12.0162 -0.9678 3.3627 3.8628 18.4661
#
#
#
# Elastic Compliance Matrix: (Units=1/GPa)
#
#
# Indices 1 2 3 4 5 6 
#
# 1 0.008674 0.003970 -0.003388 -0.002138 0.006338 -0.012156
# 2 0.003970 0.070171 -0.007057 -0.028112 0.023218 -0.049640
# 3 -0.003388 -0.007057 0.007378 0.000686 -0.002220 0.008622
# 4 -0.002138 -0.028112 0.000686 0.042627 -0.009829 0.014708
# 5 0.006338 0.023218 -0.002220 -0.009829 0.033092 -0.026538
# 6 -0.012156 -0.049640 0.008622 0.014708 -0.026538 0.101633
#
#
# Mechanical properties :
#
#
# Convention : Reuss Voigt Hill
#
# Bulk Modulus (GPa) = 13.64777 73.14719 43.39748
# Shear Modulus (GPa) = 16.61409 38.57082 27.59245
#
# Velocity S-wave (km/s) = 2.68605 4.09266 3.46155
# Velocity P-wave (km/s) = 3.94291 7.35515 5.90105
#
# Compressibility (1/GPa) = 0.07327206
#
# Stress axis : x y z
#
# Youngs Moduli (GPa) = 115.28541 14.25096 135.53844
#
# Poissons Ratio (x) = -0.05657 0.45915
# Poissons Ratio (y) = -0.45764 0.95654
# Poissons Ratio (z) = 0.39054 0.10057
#
# Static dielectric constant tensor:
#      x y z
#    x 3.956990 -0.063330 -0.305450 
#    y -0.063330 4.004320 -0.382280 
#    z -0.305450 -0.382280 4.875100 
# 
# 
# High freq. dielectric constant tensor:
#      x y z
#    x 1.927180 0.016790 -0.002880 
#    y 0.016790 1.857280 0.000150 
#    z -0.002880 0.000150 1.923860 
# 
# From -- ./inp_files/51555.got.cif
#   From: 2010.06.25/outbox.cif.g09.slc.cpg/sg2_26_cif.got.tgz:51555.got - 2010.06.27 13:26:56.
