data_PCOD8042279
_publ_section_title
;
Structure prediction by ZEFSAII (Michael W. Deem and Ramdas Pophale) SiO2 
 PCOD8042279
Probable space group: P -1
;
_chemical_formula_sum "Si O2"
_cell_formula_units_Z 16
_cell_length_a 9.958953
_cell_length_b 15.031566
_cell_length_c 8.698664
_cell_angle_alpha 108.623142
_cell_angle_beta 80.429036
_cell_angle_gamma 140.843983
_cell_volume 771.951175
_symmetry_space_group_name_H-M "P -1"
_symmetry_group_IT_number 2
_symmetry_cell_setting 'triclinic'
loop_
_space_group_symop_operation_xyz
x,y,z
-x,-y,-z
loop_
_atom_site_type_symbol
_atom_site_label
_atom_site_fract_x
_atom_site_fract_y
_atom_site_fract_z
Si Si1 0.659629 0.796940 0.990900
Si Si2 0.042949 0.873482 0.850125
Si Si3 0.725454 0.370938 0.251395
Si Si4 0.385100 0.533149 0.089360
Si Si5 0.581161 0.418895 0.545827
Si Si6 0.734905 0.168978 0.036631
Si Si7 0.017261 0.344977 0.813797
Si Si8 0.835666 0.710189 0.490854
O O1 0.484915 0.705537 0.839806
O O2 0.833279 0.811274 0.922000
O O3 0.546853 0.705524 0.119877
O O4 0.754913 0.949953 0.083924
O O5 0.092551 0.810141 0.910712
O O6 0.006168 0.826794 0.653847
O O7 0.674020 0.368715 0.439158
O O8 0.754480 0.275486 0.187138
O O9 0.937107 0.538179 0.235560
O O10 0.324747 0.504726 0.264069
O O11 0.500000 0.500000 0.000000
O O12 0.171426 0.430680 0.977753
O O13 0.675183 0.541781 0.473226
O O14 0.319431 0.284517 0.521074
O O15 0.784877 0.218430 0.873330
O O16 0.500000 0.000000 0.000000
O O17 0.036687 0.258810 0.665885
#
# Coordination Sequence:
#
# PCOD8042279 Si02
#       8
#     2   2   2   2   2   2   2   2
#     4  10  21  38  61  90 123 161 201 258 305 368
#     4  11  22  39  60  89 125 165 206 245 318 361
#     4  10  21  42  62  92 127 160 202 256 308 364
#     4  11  19  35  63  96 124 150 207 258 305 360
#     4  10  19  34  61  95 124 153 196 259 311 355
#     4  12  24  42  63  88 124 170 211 245 305 375
#     4  10  22  38  64  92 121 163 209 253 305 361
#     4  10  19  36  61  92 123 154 199 255 309 360
#
# _framework density 20.726697999999999
#
# number of rings (size 3 to 8) (size 9 to 14) (size 15 to 20)
#    0.000    1.500    3.750    2.625    0.000    0.000 
#    2.250    9.375    0.000    0.000    0.000    0.000 
#    0.000    0.000    0.000    0.000    0.000    0.000 
#
# Total GULP energy -198361.056506 kJ/mol
# GULP energy per Si atom -12397.566032 kJ/mol
# Density = 2.067952 g / cm^3
# Si number density = 20.726698 Si / 1000 Ang^3
#
#
#
# Elastic Constant Matrix: (Units=GPa)
#
#
# Indices 1 2 3 4 5 6 
#
# 1 84.0753 22.7761 28.0811 -3.4448 -21.6777 -16.7296
# 2 22.7761 99.5997 34.9697 -4.5609 -16.7890 -0.8037
# 3 28.0811 34.9697 135.6640 -8.1918 -25.8639 -1.7184
# 4 -3.4448 -4.5609 -8.1918 21.2726 3.6992 -2.5501
# 5 -21.6777 -16.7890 -25.8639 3.6992 39.1130 2.9983
# 6 -16.7296 -0.8037 -1.7184 -2.5501 2.9983 21.7533
#
#
#
# Elastic Compliance Matrix: (Units=1/GPa)
#
#
# Indices 1 2 3 4 5 6 
#
# 1 0.017186 -0.002117 -0.001492 0.002111 0.006482 0.012375
# 2 -0.002117 0.011699 -0.002071 0.000733 0.002534 -0.001623
# 3 -0.001492 -0.002071 0.009123 0.001997 0.004193 -0.000847
# 4 0.002111 0.000733 0.001997 0.049668 -0.002504 0.007976
# 5 0.006482 0.002534 0.004193 -0.002504 0.033215 0.000538
# 6 0.012375 -0.001623 -0.000847 0.007976 0.000538 0.056221
#
#
# Mechanical properties :
#
#
# Convention : Reuss Voigt Hill
#
# Bulk Modulus (GPa) = 37.52485 54.55474 46.03979
# Shear Modulus (GPa) = 25.33513 31.99527 28.66520
#
# Velocity S-wave (km/s) = 3.50000 3.93322 3.72292
# Velocity P-wave (km/s) = 5.87173 6.85603 6.38288
#
# Compressibility (1/GPa) = 0.02664901
#
# Stress axis : x y z
#
# Youngs Moduli (GPa) = 58.18693 85.47766 109.61435
#
# Poissons Ratio (x) = 0.18097 0.16351
# Poissons Ratio (y) = 0.12319 0.22696
# Poissons Ratio (z) = 0.08680 0.17698
#
# Static dielectric constant tensor:
#      x y z
#    x 3.872420 0.074520 -0.197620 
#    y 0.074520 3.919160 -0.122840 
#    z -0.197620 -0.122840 3.744530 
# 
# 
# High freq. dielectric constant tensor:
#      x y z
#    x 1.802990 0.003460 -0.012400 
#    y 0.003460 1.803320 -0.003120 
#    z -0.012400 -0.003120 1.809100 
# 
# From -- ./inp_files/208322.got.cif
#   From: 2010.06.25/outbox.cif.g09.slc.cpg/sg2_105_cif.got.tgz:208322.got - 2010.06.27 13:26:56.
