data_PCOD8042172
_publ_section_title
;
Structure prediction by ZEFSAII (Michael W. Deem and Ramdas Pophale) SiO2 
 PCOD8042172
Probable space group: P -1
;
_chemical_formula_sum "Si O2"
_cell_formula_units_Z 16
_cell_length_a 9.008482
_cell_length_b 15.393951
_cell_length_c 9.304635
_cell_angle_alpha 101.092399
_cell_angle_beta 103.896014
_cell_angle_gamma 131.548393
_cell_volume 820.262333
_symmetry_space_group_name_H-M "P -1"
_symmetry_group_IT_number 2
_symmetry_cell_setting 'triclinic'
loop_
_space_group_symop_operation_xyz
x,y,z
-x,-y,-z
loop_
_atom_site_type_symbol
_atom_site_label
_atom_site_fract_x
_atom_site_fract_y
_atom_site_fract_z
Si Si1 0.111699 0.905796 0.094155
Si Si2 0.834819 0.864054 0.247584
Si Si3 0.654627 0.516417 0.808045
Si Si4 0.134831 0.255890 0.281798
Si Si5 0.130126 0.287092 0.608940
Si Si6 0.594866 0.288563 0.737164
Si Si7 0.939985 0.285812 0.828055
Si Si8 0.721964 0.864262 0.640388
O O1 0.866470 0.824098 0.090488
O O2 0.204881 0.856304 0.175926
O O3 0.285764 0.063518 0.212103
O O4 0.073153 0.872672 0.905248
O O5 0.890652 0.822850 0.379672
O O6 0.575928 0.787037 0.187555
O O7 0.026929 0.024260 0.343815
O O8 0.745725 0.609626 0.722158
O O9 0.391983 0.431444 0.739037
O O10 0.679343 0.422400 0.757212
O O11 0.805668 0.604292 0.010164
O O12 0.046998 0.254500 0.413955
O O13 0.312053 0.250190 0.344657
O O14 0.966747 0.280652 0.662042
O O15 0.469967 0.193740 0.538681
O O16 0.812069 0.322546 0.838254
#
# Coordination Sequence:
#
# PCOD8042172 Si02
#       8
#     2   2   2   2   2   2   2   2
#     4   8  20  35  55  84 109 140 182 223 272 319
#     4   8  18  34  55  87 102 140 184 227 260 315
#     4  10  21  37  56  81 110 144 187 225 271 322
#     4  11  19  34  61  82 109 144 184 229 265 322
#     4  10  19  35  59  82 108 143 187 225 269 320
#     4  11  20  34  61  83 111 143 182 228 274 320
#     4  10  21  37  56  84 111 143 181 231 275 318
#     4  10  19  34  59  85 113 135 189 223 273 318
#
# _framework density 19.505955
#
# number of rings (size 3 to 8) (size 9 to 14) (size 15 to 20)
#    0.750    1.500    2.500    1.875    0.000    1.500 
#    0.000    0.625    5.500    3.750    0.000    0.000 
#    0.000    0.000    0.000    0.000    0.000    0.000 
#
# Total GULP energy -198222.101198 kJ/mol
# GULP energy per Si atom -12388.881325 kJ/mol
# Density = 1.946156 g / cm^3
# Si number density = 19.505955 Si / 1000 Ang^3
#
#
#
# Elastic Constant Matrix: (Units=GPa)
#
#
# Indices 1 2 3 4 5 6 
#
# 1 71.7085 22.8563 20.2425 -5.2060 -6.9463 -7.7697
# 2 22.8563 65.5802 28.8607 -0.8100 -3.4684 -13.5650
# 3 20.2425 28.8607 105.8205 -10.1107 -12.7576 3.6240
# 4 -5.2060 -0.8100 -10.1107 28.1727 -1.8464 -3.7611
# 5 -6.9463 -3.4684 -12.7576 -1.8464 17.2603 -0.1979
# 6 -7.7697 -13.5650 3.6240 -3.7611 -0.1979 19.1450
#
#
#
# Elastic Compliance Matrix: (Units=1/GPa)
#
#
# Indices 1 2 3 4 5 6 
#
# 1 0.016914 -0.003916 -0.001342 0.003571 0.005469 0.005102
# 2 -0.003916 0.022386 -0.006084 -0.000308 -0.001431 0.015349
# 3 -0.001342 -0.006084 0.012941 0.003893 0.008145 -0.006456
# 4 0.003571 -0.000308 0.003893 0.039210 0.008542 0.008285
# 5 0.005469 -0.001431 0.008145 0.008542 0.066807 0.002032
# 6 0.005102 0.015349 -0.006456 0.008285 0.002032 0.068049
#
#
# Mechanical properties :
#
#
# Convention : Reuss Voigt Hill
#
# Bulk Modulus (GPa) = 33.83188 43.00315 38.41752
# Shear Modulus (GPa) = 19.31678 24.32559 21.82119
#
# Velocity S-wave (km/s) = 3.15032 3.53524 3.34832
# Velocity P-wave (km/s) = 5.53306 6.22559 5.88951
#
# Compressibility (1/GPa) = 0.02955792
#
# Stress axis : x y z
#
# Youngs Moduli (GPa) = 59.12247 44.67074 77.27415
#
# Poissons Ratio (x) = 0.17492 0.10368
# Poissons Ratio (y) = 0.23151 0.47013
# Poissons Ratio (z) = 0.07933 0.27177
#
# Static dielectric constant tensor:
#      x y z
#    x 3.201180 -0.138520 -0.185990 
#    y -0.138520 3.592230 0.009050 
#    z -0.185990 0.009050 3.562220 
# 
# 
# High freq. dielectric constant tensor:
#      x y z
#    x 1.717380 -0.026580 -0.017410 
#    y -0.026580 1.755190 0.003890 
#    z -0.017410 0.003890 1.761600 
# 
# From -- ./inp_files/207853.got.cif
#   From: 2010.06.25/outbox.cif.g09.slc.cpg/sg2_104_cif.got.tgz:207853.got - 2010.06.27 13:26:56.
