data_PCOD8042339
_publ_section_title
;
Structure prediction by ZEFSAII (Michael W. Deem and Ramdas Pophale) SiO2 
 PCOD8042339
Probable space group: P -1
;
_chemical_formula_sum "Si O2"
_cell_formula_units_Z 16
_cell_length_a 15.857242
_cell_length_b 8.757818
_cell_length_c 15.332430
_cell_angle_alpha 133.157630
_cell_angle_beta 46.310435
_cell_angle_gamma 150.352170
_cell_volume 740.486888
_symmetry_space_group_name_H-M "P -1"
_symmetry_group_IT_number 2
_symmetry_cell_setting 'triclinic'
loop_
_space_group_symop_operation_xyz
x,y,z
-x,-y,-z
loop_
_atom_site_type_symbol
_atom_site_label
_atom_site_fract_x
_atom_site_fract_y
_atom_site_fract_z
Si Si1 0.692753 0.898453 0.097060
Si Si2 0.885111 0.940410 0.480328
Si Si3 0.887955 0.689344 0.699044
Si Si4 0.358239 0.238259 0.110676
Si Si5 0.059176 0.209234 0.899591
Si Si6 0.712465 0.380627 0.262355
Si Si7 0.298797 0.759412 0.066135
Si Si8 0.321889 0.926970 0.301824
O O1 0.559443 0.578009 0.127156
O O2 0.696638 0.136625 0.227007
O O3 0.610938 0.823823 0.030055
O O4 0.885645 0.064502 0.013467
O O5 0.765396 0.603306 0.389749
O O6 0.751032 0.938001 0.608249
O O7 0.000000 0.000000 0.500000
O O8 0.012000 0.215111 0.425171
O O9 0.763620 0.723233 0.792415
O O10 0.776459 0.327779 0.649680
O O11 0.021728 0.923402 0.777094
O O12 0.257646 0.935870 0.125875
O O13 0.134599 0.435086 0.849158
O O14 0.198768 0.427385 0.963482
O O15 0.531388 0.218693 0.283919
O O16 0.267359 0.715663 0.174295
O O17 0.500000 0.000000 0.000000
#
# Coordination Sequence:
#
# PCOD8042339 Si02
#       8
#     2   2   2   2   2   2   2   2
#     4  10  19  34  64  91 128 167 216 247 320 376
#     4  11  26  45  70  94 122 165 224 276 318 375
#     4  10  23  43  68  92 129 166 216 263 324 382
#     4  10  20  37  61  93 129 169 205 260 316 384
#     4  10  22  35  61 100 129 172 205 260 313 388
#     4  11  21  42  65  94 126 174 215 259 324 384
#     4  12  24  38  61  96 140 167 214 258 319 382
#     4  12  24  44  67  93 131 174 212 266 321 381
#
# _framework density 21.607403000000001
#
# number of rings (size 3 to 8) (size 9 to 14) (size 15 to 20)
#    0.000    1.250    3.750    1.875    8.750    0.500 
#    0.000    0.625    2.750    0.000    0.000    0.000 
#    0.000    0.000    0.000    0.000    0.000    0.000 
#
# Total GULP energy -198261.637304 kJ/mol
# GULP energy per Si atom -12391.352332 kJ/mol
# Density = 2.155822 g / cm^3
# Si number density = 21.607403 Si / 1000 Ang^3
#
#
#
# Elastic Constant Matrix: (Units=GPa)
#
#
# Indices 1 2 3 4 5 6 
#
# 1 55.0435 9.7924 12.5513 5.2191 5.4918 13.3488
# 2 9.7924 99.5226 11.4427 1.4368 9.8926 15.4549
# 3 12.5513 11.4427 80.0167 3.7905 10.7435 17.1542
# 4 5.2191 1.4368 3.7905 29.2226 4.7967 2.4076
# 5 5.4918 9.8926 10.7435 4.7967 32.8214 3.1325
# 6 13.3488 15.4549 17.1542 2.4076 3.1325 32.6387
#
#
#
# Elastic Compliance Matrix: (Units=1/GPa)
#
#
# Indices 1 2 3 4 5 6 
#
# 1 0.020726 -0.000561 -0.001264 -0.002620 -0.001817 -0.007179
# 2 -0.000561 0.011128 -0.000129 0.000424 -0.002828 -0.004732
# 3 -0.001264 -0.000129 0.014699 -0.000488 -0.003846 -0.006742
# 4 -0.002620 0.000424 -0.000488 0.035577 -0.004629 -0.001053
# 5 -0.001817 -0.002828 -0.003846 -0.004629 0.033442 0.001236
# 6 -0.007179 -0.004732 -0.006742 -0.001053 0.001236 0.039318
#
#
# Mechanical properties :
#
#
# Convention : Reuss Voigt Hill
#
# Bulk Modulus (GPa) = 23.44896 33.57284 28.51090
# Shear Modulus (GPa) = 28.89963 32.32296 30.61130
#
# Velocity S-wave (km/s) = 3.66114 3.87191 3.76800
# Velocity P-wave (km/s) = 5.36169 5.96325 5.67045
#
# Compressibility (1/GPa) = 0.04264581
#
# Stress axis : x y z
#
# Youngs Moduli (GPa) = 48.24812 89.86501 68.03151
#
# Poissons Ratio (x) = 0.05039 0.08597
# Poissons Ratio (y) = 0.02705 0.00880
# Poissons Ratio (z) = 0.06097 0.01162
#
# Static dielectric constant tensor:
#      x y z
#    x 3.728810 -0.228820 -0.127060 
#    y -0.228820 4.837870 0.323190 
#    z -0.127060 0.323190 3.876810 
# 
# 
# High freq. dielectric constant tensor:
#      x y z
#    x 1.823570 0.005270 -0.007210 
#    y 0.005270 1.869110 0.002680 
#    z -0.007210 0.002680 1.837710 
# 
# From -- ./inp_files/179422.got.cif
#   From: 2010.06.25/outbox.cif.g09.slc.cpg/sg2_90_cif.got.tgz:179422.got - 2010.06.27 13:26:56.
