data_PCOD8042427
_publ_section_title
;
Structure prediction by ZEFSAII (Michael W. Deem and Ramdas Pophale) SiO2 
 PCOD8042427
Probable space group: P -1
;
_chemical_formula_sum "Si O2"
_cell_formula_units_Z 12
_cell_length_a 9.256843
_cell_length_b 9.049687
_cell_length_c 11.127461
_cell_angle_alpha 97.558200
_cell_angle_beta 132.727559
_cell_angle_gamma 65.172731
_cell_volume 604.803905
_symmetry_space_group_name_H-M "P -1"
_symmetry_group_IT_number 2
_symmetry_cell_setting 'triclinic'
loop_
_space_group_symop_operation_xyz
x,y,z
-x,-y,-z
loop_
_atom_site_type_symbol
_atom_site_label
_atom_site_fract_x
_atom_site_fract_y
_atom_site_fract_z
Si Si1 0.804119 0.696426 0.148569
Si Si2 0.310373 0.101783 0.136914
Si Si3 0.963594 0.947048 0.342644
Si Si4 0.993718 0.683795 0.795215
Si Si5 0.664827 0.190914 0.017986
Si Si6 0.313627 0.035130 0.494591
O O1 0.940092 0.776714 0.305622
O O2 0.973777 0.503700 0.202503
O O3 0.714391 0.784846 0.980196
O O4 0.600348 0.708637 0.115727
O O5 0.152679 0.215039 0.164023
O O6 0.569661 0.009681 0.313727
O O7 0.252807 0.951386 0.054396
O O8 0.745589 0.097673 0.180984
O O9 0.000000 0.000000 0.500000
O O10 0.181516 0.924641 0.387431
O O11 0.868732 0.771169 0.609187
O O12 0.231744 0.683213 0.937819
O O13 0.500000 0.000000 0.500000
#
# Coordination Sequence:
#
# PCOD8042427 Si02
#       6
#     2   2   2   2   2   2
#     4  11  21  35  56  85 109 136 180 230 267 306
#     4  10  19  37  58  78 106 146 182 214 262 330
#     4  10  19  35  56  77 106 146 181 214 263 327
#     4  10  21  36  55  83 112 137 176 229 270 306
#     4  10  20  35  57  80 108 146 181 213 266 330
#     4   9  19  36  55  75 106 145 179 210 261 327
#
# _framework density 19.841139999999999
#
# number of rings (size 3 to 8) (size 9 to 14) (size 15 to 20)
#    0.000    2.000    0.000    5.500    0.000    1.333 
#    0.000   14.167    0.000    0.000    0.000    0.000 
#    0.000    0.000    0.000    0.000    0.000    0.000 
#
# Total GULP energy -148713.290435 kJ/mol
# GULP energy per Si atom -12392.774203 kJ/mol
# Density = 1.979598 g / cm^3
# Si number density = 19.841140 Si / 1000 Ang^3
#
#
#
# Elastic Constant Matrix: (Units=GPa)
#
#
# Indices 1 2 3 4 5 6 
#
# 1 80.1879 42.7001 39.0468 7.7125 17.0607 -1.3292
# 2 42.7001 126.3060 62.3718 13.2144 -2.3925 4.7331
# 3 39.0468 62.3718 128.9463 7.6163 2.2525 5.3412
# 4 7.7125 13.2144 7.6163 24.1894 2.5954 1.5025
# 5 17.0607 -2.3925 2.2525 2.5954 35.6486 6.5203
# 6 -1.3292 4.7331 5.3412 1.5025 6.5203 28.1801
#
#
#
# Elastic Compliance Matrix: (Units=1/GPa)
#
#
# Indices 1 2 3 4 5 6 
#
# 1 0.019122 -0.005056 -0.003277 -0.001522 -0.010047 0.004778
# 2 -0.005056 0.012264 -0.004139 -0.004096 0.004218 -0.002272
# 3 -0.003277 -0.004139 0.010810 -0.000091 0.000929 -0.001718
# 4 -0.001522 -0.004096 -0.000091 0.044438 -0.002567 -0.001142
# 5 -0.010047 0.004218 0.000929 -0.002567 0.034975 -0.009314
# 6 0.004778 -0.002272 -0.001718 -0.001142 -0.009314 0.038635
#
#
# Mechanical properties :
#
#
# Convention : Reuss Voigt Hill
#
# Bulk Modulus (GPa) = 57.96657 69.29751 63.63204
# Shear Modulus (GPa) = 26.18645 30.35837 28.27241
#
# Velocity S-wave (km/s) = 3.63685 3.91586 3.77893
# Velocity P-wave (km/s) = 6.84941 7.44629 7.15408
#
# Compressibility (1/GPa) = 0.01725132
#
# Stress axis : x y z
#
# Youngs Moduli (GPa) = 52.29518 81.53961 92.50928
#
# Poissons Ratio (x) = 0.41230 0.30317
# Poissons Ratio (y) = 0.26443 0.38286
# Poissons Ratio (z) = 0.17138 0.33746
#
# Static dielectric constant tensor:
#      x y z
#    x 3.692380 0.192980 0.092570 
#    y 0.192980 3.414950 0.011370 
#    z 0.092570 0.011370 4.190940 
# 
# 
# High freq. dielectric constant tensor:
#      x y z
#    x 1.780980 0.009740 0.009570 
#    y 0.009740 1.746720 0.001960 
#    z 0.009570 0.001960 1.784850 
# 
# From -- ./inp_files/144797.got.cif
#   From: 2010.06.25/outbox.cif.g09.slc.cpg/sg2_73_cif.got.tgz:144797.got - 2010.06.27 13:26:56.
