data_PCOD8042697
_publ_section_title
;
Structure prediction by ZEFSAII (Michael W. Deem and Ramdas Pophale) SiO2 
 PCOD8042697
Probable space group: P -1
;
_chemical_formula_sum "Si O2"
_cell_formula_units_Z 16
_cell_length_a 16.720191
_cell_length_b 25.677011
_cell_length_c 25.996783
_cell_angle_alpha 11.362683
_cell_angle_beta 21.238871
_cell_angle_gamma 20.867108
_cell_volume 762.679169
_symmetry_space_group_name_H-M "P -1"
_symmetry_group_IT_number 2
_symmetry_cell_setting 'triclinic'
loop_
_space_group_symop_operation_xyz
x,y,z
-x,-y,-z
loop_
_atom_site_type_symbol
_atom_site_label
_atom_site_fract_x
_atom_site_fract_y
_atom_site_fract_z
Si Si1 0.741450 0.654220 0.917914
Si Si2 0.355466 0.310219 0.793236
Si Si3 0.731339 0.083633 0.580988
Si Si4 0.751706 0.618199 0.093149
Si Si5 0.835551 0.472314 0.922080
Si Si6 0.203176 0.133217 0.691183
Si Si7 0.578686 0.008237 0.502825
Si Si8 0.273482 0.665629 0.183511
O O1 0.771738 0.621260 0.870928
O O2 0.966733 0.482570 0.980573
O O3 0.666603 0.980383 0.663963
O O4 0.528414 0.547083 0.169900
O O5 0.500000 0.500000 0.500000
O O6 0.319489 0.374072 0.812800
O O7 0.111896 0.352203 0.869335
O O8 0.500000 0.000000 0.000000
O O9 0.635646 0.407392 0.337679
O O10 0.000000 0.000000 0.500000
O O11 0.653794 0.912942 0.839185
O O12 0.752235 0.708725 0.700576
O O13 0.710443 0.235890 0.216097
O O14 0.215870 0.422299 0.424209
O O15 0.925206 0.183508 0.802273
O O16 0.340708 0.062873 0.623962
O O17 0.303150 0.888875 0.907734
O O18 0.500000 0.000000 0.500000
#
# Coordination Sequence:
#
# PCOD8042697 Si02
#       8
#     2   2   2   2   2   2   2   2
#     4  10  19  35  60  87 118 154 204 250 295 381
#     4  11  23  43  67  91 126 172 214 269 319 373
#     4  10  20  34  54  87 125 158 186 248 314 362
#     4  10  22  36  56  87 124 160 203 246 309 374
#     4  11  24  40  65  96 118 164 226 260 317 388
#     4  10  20  37  55  84 119 153 191 248 318 355
#     4  12  23  41  64  92 130 169 216 276 317 372
#     4  10  20  34  58  84 116 150 196 251 299 367
#
# _framework density 20.978676
#
# number of rings (size 3 to 8) (size 9 to 14) (size 15 to 20)
#    0.000    1.500    2.500    3.375    0.000    9.000 
#    0.000    3.750    0.000    0.000    0.000    0.000 
#    0.000    0.000    0.000    0.000    0.000    0.000 
#
# Total GULP energy -198246.931110 kJ/mol
# GULP energy per Si atom -12390.433194 kJ/mol
# Density = 2.093093 g / cm^3
# Si number density = 20.978676 Si / 1000 Ang^3
#
#
#
# Elastic Constant Matrix: (Units=GPa)
#
#
# Indices 1 2 3 4 5 6 
#
# 1 114.8406 53.0169 50.4021 6.2413 -4.9202 6.4103
# 2 53.0169 143.3161 49.8233 14.8486 -4.1573 -3.0125
# 3 50.4021 49.8233 150.5255 -0.8490 3.4017 2.7029
# 4 6.2413 14.8486 -0.8490 38.5978 -3.6140 -0.7044
# 5 -4.9202 -4.1573 3.4017 -3.6140 29.2764 -1.2523
# 6 6.4103 -3.0125 2.7029 -0.7044 -1.2523 22.7856
#
#
#
# Elastic Compliance Matrix: (Units=1/GPa)
#
#
# Indices 1 2 3 4 5 6 
#
# 1 0.011774 -0.003338 -0.002817 -0.000591 0.001616 -0.003349
# 2 -0.003338 0.009299 -0.002036 -0.002971 0.000730 0.002358
# 3 -0.002817 -0.002036 0.008313 0.001263 -0.001594 -0.000511
# 4 -0.000591 -0.002971 0.001263 0.027443 0.002746 0.000623
# 5 0.001616 0.000730 -0.001594 0.002746 0.035136 0.001847
# 6 -0.003349 0.002358 -0.000511 0.000623 0.001847 0.045323
#
#
# Mechanical properties :
#
#
# Convention : Reuss Voigt Hill
#
# Bulk Modulus (GPa) = 76.90464 79.46298 78.18381
# Shear Modulus (GPa) = 31.64500 35.16128 33.40314
#
# Velocity S-wave (km/s) = 3.88807 4.09840 3.99462
# Velocity P-wave (km/s) = 7.54283 7.76891 7.65670
#
# Compressibility (1/GPa) = 0.01300312
#
# Stress axis : x y z
#
# Youngs Moduli (GPa) = 84.93633 107.54125 120.29686
#
# Poissons Ratio (x) = 0.35901 0.33888
# Poissons Ratio (y) = 0.28354 0.24488
# Poissons Ratio (z) = 0.23927 0.21892
#
# Static dielectric constant tensor:
#      x y z
#    x 3.261400 -0.237460 -0.274710 
#    y -0.237460 4.152370 0.082350 
#    z -0.274710 0.082350 4.360310 
# 
# 
# High freq. dielectric constant tensor:
#      x y z
#    x 1.809370 -0.001300 -0.007190 
#    y -0.001300 1.819680 0.000260 
#    z -0.007190 0.000260 1.841630 
# 
# From -- ./inp_files/620530.got.cif
#   From: 2010.06.25/outbox.cif.g09.slc.cpg/sg2_311_cif.got.tgz:620530.got - 2010.06.27 13:26:56.
