data_PCOD8042227
_publ_section_title
;
Structure prediction by ZEFSAII (Michael W. Deem and Ramdas Pophale) SiO2 
 PCOD8042227
Probable space group: P -1
;
_chemical_formula_sum "Si O2"
_cell_formula_units_Z 16
_cell_length_a 8.113209
_cell_length_b 15.060878
_cell_length_c 9.197330
_cell_angle_alpha 130.740866
_cell_angle_beta 112.156412
_cell_angle_gamma 87.073163
_cell_volume 757.537701
_symmetry_space_group_name_H-M "P -1"
_symmetry_group_IT_number 2
_symmetry_cell_setting 'triclinic'
loop_
_space_group_symop_operation_xyz
x,y,z
-x,-y,-z
loop_
_atom_site_type_symbol
_atom_site_label
_atom_site_fract_x
_atom_site_fract_y
_atom_site_fract_z
Si Si1 0.008438 0.245237 0.462792
Si Si2 0.383267 0.647564 0.171368
Si Si3 0.170043 0.584484 0.563714
Si Si4 0.245150 0.364724 0.232346
Si Si5 0.813587 0.246089 0.009613
Si Si6 0.814785 0.037906 0.993670
Si Si7 0.353712 0.229649 0.366966
Si Si8 0.730043 0.623094 0.084758
O O1 0.173744 0.251635 0.409802
O O2 0.096563 0.268304 0.678192
O O3 0.914281 0.353787 0.527899
O O4 0.845785 0.119940 0.240625
O O5 0.275317 0.737252 0.157511
O O6 0.462552 0.710155 0.416025
O O7 0.542554 0.636461 0.104251
O O8 0.248842 0.511634 0.012906
O O9 0.299034 0.505792 0.455954
O O10 0.000000 0.500000 0.500000
O O11 0.276211 0.683103 0.823616
O O12 0.373034 0.295721 0.287619
O O13 0.283599 0.357505 0.068677
O O14 0.032478 0.299661 0.126982
O O15 0.774362 0.108063 0.910015
O O16 0.652387 0.911721 0.815102
O O17 0.000000 0.000000 0.000000
#
# Coordination Sequence:
#
# PCOD8042227 Si02
#       8
#     2   2   2   2   2   2   2   2
#     4   9  16  32  54  79 107 147 183 233 273 326
#     4  10  23  37  53  81 124 153 174 227 296 344
#     4   9  15  27  51  81 108 133 181 228 274 315
#     4  11  20  33  60  86 109 147 196 234 265 336
#     4  10  19  34  60  87 107 145 193 237 273 326
#     4   9  16  34  61  85 103 145 200 232 263 334
#     4  10  19  35  57  80 113 152 190 222 281 338
#     4  10  22  36  54  83 123 149 182 224 294 338
#
# _framework density 21.121061000000001
#
# number of rings (size 3 to 8) (size 9 to 14) (size 15 to 20)
#    0.000    2.250    5.000    1.500    3.500    3.000 
#    0.000    0.625    0.000    0.750    0.000    0.000 
#    0.000    0.000    0.000    0.000    0.000    0.000 
#
# Total GULP energy -198231.519336 kJ/mol
# GULP energy per Si atom -12389.469958 kJ/mol
# Density = 2.107299 g / cm^3
# Si number density = 21.121061 Si / 1000 Ang^3
#
#
#
# Elastic Constant Matrix: (Units=GPa)
#
#
# Indices 1 2 3 4 5 6 
#
# 1 8.3834 23.5103 23.9360 -2.5347 1.1383 -3.1774
# 2 23.5103 165.5235 84.3062 -12.4138 -3.4716 -22.9336
# 3 23.9360 84.3062 148.9486 -12.1428 0.9337 -1.6324
# 4 -2.5347 -12.4138 -12.1428 46.1358 -2.3760 -1.1877
# 5 1.1383 -3.4716 0.9337 -2.3760 20.4583 -8.3808
# 6 -3.1774 -22.9336 -1.6324 -1.1877 -8.3808 25.5358
#
#
#
# Elastic Compliance Matrix: (Units=1/GPa)
#
#
# Indices 1 2 3 4 5 6 
#
# 1 0.278116 -0.022622 -0.031692 0.000281 -0.014793 0.007421
# 2 -0.022622 0.012935 -0.003445 0.002067 0.008556 0.011486
# 3 -0.031692 -0.003445 0.013749 0.000662 -0.002175 -0.006842
# 4 0.000281 0.002067 0.000662 0.022788 0.004827 0.004578
# 5 -0.014793 0.008556 -0.002175 0.004827 0.062669 0.026497
# 6 0.007421 0.011486 -0.006842 0.004578 0.026497 0.058872
#
#
# Mechanical properties :
#
#
# Convention : Reuss Voigt Hill
#
# Bulk Modulus (GPa) = 5.28312 65.15116 35.21714
# Shear Modulus (GPa) = 7.96505 31.16620 19.56563
#
# Velocity S-wave (km/s) = 1.94405 3.84552 3.04691
# Velocity P-wave (km/s) = 2.74698 7.11554 5.39336
#
# Compressibility (1/GPa) = 0.18928222
#
# Stress axis : x y z
#
# Youngs Moduli (GPa) = 3.59562 77.30750 72.72996
#
# Poissons Ratio (x) = 1.74881 2.30498
# Poissons Ratio (y) = 0.08134 0.25059
# Poissons Ratio (z) = 0.11395 0.26636
#
# Static dielectric constant tensor:
#      x y z
#    x 3.507230 -0.275260 -0.211850 
#    y -0.275260 4.135290 0.478920 
#    z -0.211850 0.478920 4.722150 
# 
# 
# High freq. dielectric constant tensor:
#      x y z
#    x 1.791770 -0.015760 0.001900 
#    y -0.015760 1.823030 -0.004370 
#    z 0.001900 -0.004370 1.829670 
# 
# From -- ./inp_files/204444.got.cif
#   From: 2010.06.25/outbox.cif.g09.slc.cpg/sg2_103_cif.got.tgz:204444.got - 2010.06.27 13:26:56.
