data_PCOD8042348
_publ_section_title
;
Structure prediction by ZEFSAII (Michael W. Deem and Ramdas Pophale) SiO2 
 PCOD8042348
Probable space group: P -1
;
_chemical_formula_sum "Si O2"
_cell_formula_units_Z 14
_cell_length_a 12.067813
_cell_length_b 20.555360
_cell_length_c 15.314542
_cell_angle_alpha 20.127345
_cell_angle_beta 27.979962
_cell_angle_gamma 28.708515
_cell_volume 585.693746
_symmetry_space_group_name_H-M "P -1"
_symmetry_group_IT_number 2
_symmetry_cell_setting 'triclinic'
loop_
_space_group_symop_operation_xyz
x,y,z
-x,-y,-z
loop_
_atom_site_type_symbol
_atom_site_label
_atom_site_fract_x
_atom_site_fract_y
_atom_site_fract_z
Si Si1 0.613648 0.242876 0.085257
Si Si2 0.468586 0.961766 0.969038
Si Si3 0.214277 0.649716 0.463579
Si Si4 0.605582 0.511941 0.226263
Si Si5 0.120195 0.268584 0.712997
Si Si6 0.888071 0.685672 0.928548
Si Si7 0.744935 0.824264 0.458254
O O1 0.413777 0.307825 0.220774
O O2 0.585009 0.050340 0.299333
O O3 0.565653 0.419933 0.825158
O O4 0.891853 0.185995 0.999287
O O5 0.744271 0.879015 0.840089
O O6 0.329742 0.180552 0.750947
O O7 0.313803 0.808012 0.248589
O O8 0.500000 0.000000 0.000000
O O9 0.439456 0.492917 0.450329
O O10 0.018169 0.769923 0.377554
O O11 0.096308 0.519081 0.771822
O O12 0.830764 0.314751 0.291246
O O13 0.740569 0.677389 0.951671
O O14 0.245127 0.199512 0.621167
O O15 0.000000 0.500000 0.500000
#
# Coordination Sequence:
#
# PCOD8042348 Si02
#       7
#     2   2   2   2   2   2   2
#     4  11  22  40  70 101 128 170 226 285 329 393
#     4  11  25  43  66  98 138 180 219 267 339 402
#     4  11  20  40  71  98 129 171 220 281 330 391
#     4  10  19  34  65  97 127 162 220 270 326 387
#     4  12  27  44  68  98 141 182 216 275 336 402
#     4  10  22  38  63  99 132 171 220 274 329 395
#     4  11  22  40  71 102 128 165 230 280 336 383
#
# _framework density 23.903276999999999
#
# number of rings (size 3 to 8) (size 9 to 14) (size 15 to 20)
#    0.000    1.143    4.286    3.857    2.000    1.714 
#    0.000    0.000    0.000   17.143    0.000    0.000 
#    0.000    0.000    0.000    0.000    0.000    0.000 
#
# Total GULP energy -173500.922749 kJ/mol
# GULP energy per Si atom -12392.923054 kJ/mol
# Density = 2.384887 g / cm^3
# Si number density = 23.903277 Si / 1000 Ang^3
#
#
#
# Elastic Constant Matrix: (Units=GPa)
#
#
# Indices 1 2 3 4 5 6 
#
# 1 132.8065 61.8275 18.4903 3.7536 31.2574 1.6186
# 2 61.8275 172.0915 36.2624 15.6987 10.9189 8.1939
# 3 18.4903 36.2624 63.2574 4.6930 14.6268 5.8670
# 4 3.7536 15.6987 4.6930 46.8890 -1.7504 14.4147
# 5 31.2574 10.9189 14.6268 -1.7504 6.5295 -19.0707
# 6 1.6186 8.1939 5.8670 14.4147 -19.0707 14.9533
#
#
#
# Elastic Compliance Matrix: (Units=1/GPa)
#
#
# Indices 1 2 3 4 5 6 
#
# 1 0.007925 -0.002907 -0.002759 -0.002660 0.005436 0.011314
# 2 -0.002907 0.007808 -0.003039 -0.001237 -0.000999 -0.002853
# 3 -0.002759 -0.003039 0.015828 -0.002791 0.008242 0.008955
# 4 -0.002660 -0.001237 -0.002791 0.024269 0.012751 -0.005072
# 5 0.005436 -0.000999 0.008242 0.012751 -0.025063 -0.047530
# 6 0.011314 -0.002853 0.008955 -0.005072 -0.047530 0.007972
#
#
# Mechanical properties :
#
#
# Convention : Reuss Voigt Hill
#
# Bulk Modulus (GPa) = 70.66401 66.81288 68.73845
# Shear Modulus (GPa) = 82.15089 30.44603 56.29846
#
# Velocity S-wave (km/s) = 5.86879 3.57279 4.85837
# Velocity P-wave (km/s) = 8.69196 6.71057 7.76473
#
# Compressibility (1/GPa) = 0.01415148
#
# Stress axis : x y z
#
# Youngs Moduli (GPa) = 126.18108 128.08040 63.18088
#
# Poissons Ratio (x) = 0.37230 0.17432
# Poissons Ratio (y) = 0.36678 0.19198
# Poissons Ratio (z) = 0.34814 0.38918
#
# Static dielectric constant tensor:
#      x y z
#    x 4.207010 -0.114910 0.131050 
#    y -0.114910 4.453820 -0.063430 
#    z 0.131050 -0.063430 3.770880 
# 
# 
# High freq. dielectric constant tensor:
#      x y z
#    x 1.941790 -0.011340 0.020720 
#    y -0.011340 1.968510 0.013420 
#    z 0.020720 0.013420 1.918850 
# 
# From -- ./inp_files/305783.got.cif
#   From: 2010.06.25/outbox.cif.g09.slc.cpg/sg2_153_cif.got.tgz:305783.got - 2010.06.27 13:26:56.
