data_PCOD8042078
_publ_section_title
;
Structure prediction by ZEFSAII (Michael W. Deem and Ramdas Pophale) SiO2 
 PCOD8042078
Probable space group: P -1
;
_chemical_formula_sum "Si O2"
_cell_formula_units_Z 16
_cell_length_a 14.674969
_cell_length_b 11.065060
_cell_length_c 22.464464
_cell_angle_alpha 29.341999
_cell_angle_beta 150.743449
_cell_angle_gamma 134.191436
_cell_volume 842.355272
_symmetry_space_group_name_H-M "P -1"
_symmetry_group_IT_number 2
_symmetry_cell_setting 'triclinic'
loop_
_space_group_symop_operation_xyz
x,y,z
-x,-y,-z
loop_
_atom_site_type_symbol
_atom_site_label
_atom_site_fract_x
_atom_site_fract_y
_atom_site_fract_z
Si Si1 0.354726 0.057189 0.764204
Si Si2 0.372811 0.434478 0.903328
Si Si3 0.037628 0.795720 0.732514
Si Si4 0.681654 0.213153 0.388237
Si Si5 0.445125 0.496046 0.693688
Si Si6 0.152200 0.453289 0.055205
Si Si7 0.417850 0.946868 0.412786
Si Si8 0.970641 0.719183 0.601565
O O1 0.403314 0.224912 0.773832
O O2 0.232436 0.251618 0.560897
O O3 0.239905 0.858771 0.807618
O O4 0.556731 0.873609 0.933449
O O5 0.414497 0.580272 0.805223
O O6 0.145350 0.515773 0.755367
O O7 0.500000 0.500000 0.000000
O O8 0.964641 0.651228 0.697339
O O9 0.050243 0.607218 0.874879
O O10 0.893054 0.068775 0.548331
O O11 0.695272 0.357631 0.396395
O O12 0.557965 0.001861 0.416929
O O13 0.663833 0.451471 0.860289
O O14 0.406546 0.654749 0.539970
O O15 0.210430 0.153075 0.198935
O O16 0.000000 0.500000 0.000000
O O17 0.500000 0.000000 0.500000
O O18 0.000000 0.000000 0.500000
#
# Coordination Sequence:
#
# PCOD8042078 Si02
#       8
#     2   2   2   2   2   2   2   2
#     4  11  22  38  56  86 123 149 181 236 290 342
#     4  12  20  35  60  84 112 151 197 235 275 329
#     4  11  19  34  60  87 111 146 194 232 279 333
#     4  10  19  34  57  85 111 148 190 230 282 336
#     4  10  22  37  54  84 120 147 182 233 298 338
#     4  10  19  35  59  84 108 146 193 236 275 337
#     4   8  17  34  53  76 106 147 187 225 270 332
#     4  10  20  37  55  85 111 150 195 232 274 329
#
# _framework density 18.994361000000001
#
# number of rings (size 3 to 8) (size 9 to 14) (size 15 to 20)
#    0.000    2.000    5.000    3.750    0.000    2.500 
#    4.500    0.000    0.000    7.500    0.000    0.000 
#    0.000    0.000    0.000    0.000    0.000    0.000 
#
# Total GULP energy -198257.498264 kJ/mol
# GULP energy per Si atom -12391.093641 kJ/mol
# Density = 1.895113 g / cm^3
# Si number density = 18.994361 Si / 1000 Ang^3
#
#
#
# Elastic Constant Matrix: (Units=GPa)
#
#
# Indices 1 2 3 4 5 6 
#
# 1 106.0031 27.1569 50.1602 -0.9481 -7.2140 -14.2075
# 2 27.1569 36.0679 19.0501 -7.0610 -1.9993 -14.0520
# 3 50.1602 19.0501 126.0582 -1.6353 2.7614 -8.1822
# 4 -0.9481 -7.0610 -1.6353 19.2563 -4.8231 2.4183
# 5 -7.2140 -1.9993 2.7614 -4.8231 48.4943 -2.7945
# 6 -14.2075 -14.0520 -8.1822 2.4183 -2.7945 16.1560
#
#
#
# Elastic Compliance Matrix: (Units=1/GPa)
#
#
# Indices 1 2 3 4 5 6 
#
# 1 0.013961 -0.006570 -0.004308 -0.002193 0.002126 0.005077
# 2 -0.006570 0.051390 -0.002718 0.014970 0.004868 0.036145
# 3 -0.004308 -0.002718 0.010001 -0.000566 -0.001451 -0.001254
# 4 -0.002193 0.014970 -0.000566 0.058451 0.006318 0.003149
# 5 0.002126 0.004868 -0.001451 0.006318 0.022326 0.008285
# 6 0.005077 0.036145 -0.001254 0.003149 0.008285 0.098125
#
#
# Mechanical properties :
#
#
# Convention : Reuss Voigt Hill
#
# Bulk Modulus (GPa) = 20.76412 51.20708 35.98560
# Shear Modulus (GPa) = 16.80675 28.23213 22.51944
#
# Velocity S-wave (km/s) = 2.97783 3.85949 3.44697
# Velocity P-wave (km/s) = 4.77271 6.84679 5.90158
#
# Compressibility (1/GPa) = 0.04815999
#
# Stress axis : x y z
#
# Youngs Moduli (GPa) = 71.62939 19.45898 99.99176
#
# Poissons Ratio (x) = 0.12784 0.43074
# Poissons Ratio (y) = 0.47058 0.27181
# Poissons Ratio (z) = 0.30857 0.05290
#
# Static dielectric constant tensor:
#      x y z
#    x 3.887730 -0.126820 -0.263720 
#    y -0.126820 3.269150 -0.118000 
#    z -0.263720 -0.118000 4.179250 
# 
# 
# High freq. dielectric constant tensor:
#      x y z
#    x 1.742330 -0.011630 -0.001690 
#    y -0.011630 1.680310 -0.003930 
#    z -0.001690 -0.003930 1.761960 
# 
# From -- ./inp_files/451547.got.cif
#   From: 2010.06.25/outbox.cif.g09.slc.cpg/sg2_226_cif.got.tgz:451547.got - 2010.06.27 13:26:56.
