data_PCOD8042507
_publ_section_title
;
Structure prediction by ZEFSAII (Michael W. Deem and Ramdas Pophale) SiO2 
 PCOD8042507
Probable space group: P -1
;
_chemical_formula_sum "Si O2"
_cell_formula_units_Z 14
_cell_length_a 12.104228
_cell_length_b 9.180533
_cell_length_c 20.974948
_cell_angle_alpha 29.728216
_cell_angle_beta 139.615976
_cell_angle_gamma 140.774475
_cell_volume 700.844159
_symmetry_space_group_name_H-M "P -1"
_symmetry_group_IT_number 2
_symmetry_cell_setting 'triclinic'
loop_
_space_group_symop_operation_xyz
x,y,z
-x,-y,-z
loop_
_atom_site_type_symbol
_atom_site_label
_atom_site_fract_x
_atom_site_fract_y
_atom_site_fract_z
Si Si1 0.916087 0.608047 0.862390
Si Si2 0.494556 0.315788 0.770338
Si Si3 0.035556 0.915594 0.977434
Si Si4 0.429800 0.801325 0.481231
Si Si5 0.550980 0.706075 0.007048
Si Si6 0.039021 0.786638 0.289414
Si Si7 0.361966 0.593946 0.722647
O O1 0.699377 0.471809 0.825247
O O2 0.978906 0.984468 0.747983
O O3 0.994211 0.458795 0.894421
O O4 0.000000 0.500000 0.000000
O O5 0.471186 0.479589 0.630658
O O6 0.369222 0.386274 0.743016
O O7 0.437135 0.941202 0.875331
O O8 0.241128 0.081363 0.984302
O O9 0.921344 0.028915 0.831497
O O10 0.000000 0.000000 0.000000
O O11 0.213019 0.690722 0.416401
O O12 0.500000 0.000000 0.500000
O O13 0.546733 0.029056 0.390258
O O14 0.520546 0.483179 0.139803
O O15 0.500000 0.500000 0.000000
O O16 0.850956 0.487418 0.320970
#
# Coordination Sequence:
#
# PCOD8042507 Si02
#       7
#     2   2   2   2   2   2   2
#     4   9  17  32  54  81 110 146 187 232 281 336
#     4  10  20  38  56  86 116 148 192 231 291 344
#     4   9  20  33  54  80 112 151 190 234 286 333
#     4  10  20  36  60  84 122 151 185 232 292 346
#     4  10  22  36  58  84 113 147 199 238 279 339
#     4  10  19  35  57  85 115 148 191 231 286 340
#     4  10  21  36  61  87 115 149 189 239 284 337
#
# _framework density 19.975909000000001
#
# number of rings (size 3 to 8) (size 9 to 14) (size 15 to 20)
#    0.000    2.286    2.857    1.286    2.000    3.429 
#    0.000    0.714    0.000    1.714    0.000    0.000 
#    0.000    0.000    0.000    0.000    0.000    0.000 
#
# Total GULP energy -173438.213500 kJ/mol
# GULP energy per Si atom -12388.443821 kJ/mol
# Density = 1.993044 g / cm^3
# Si number density = 19.975909 Si / 1000 Ang^3
#
#
#
# Elastic Constant Matrix: (Units=GPa)
#
#
# Indices 1 2 3 4 5 6 
#
# 1 72.8351 24.1378 36.4368 1.8567 -9.9141 -3.3793
# 2 24.1378 68.3900 55.1601 6.4024 1.8799 -0.2702
# 3 36.4368 55.1601 134.3405 10.2024 -12.5206 10.5224
# 4 1.8567 6.4024 10.2024 23.4767 9.5251 4.1007
# 5 -9.9141 1.8799 -12.5206 9.5251 25.5014 3.9081
# 6 -3.3793 -0.2702 10.5224 4.1007 3.9081 37.7942
#
#
#
# Elastic Compliance Matrix: (Units=1/GPa)
#
#
# Indices 1 2 3 4 5 6 
#
# 1 0.017298 -0.004175 -0.002358 -0.002103 0.006393 0.001740
# 2 -0.004175 0.024430 -0.010146 0.001294 -0.009419 0.003460
# 3 -0.002358 -0.010146 0.013987 -0.006289 0.009738 -0.004502
# 4 -0.002103 0.001294 -0.006289 0.055372 -0.024390 -0.001914
# 5 0.006393 -0.009419 0.009738 -0.024390 0.057122 -0.005467
# 6 0.001740 0.003460 -0.004502 -0.001914 -0.005467 0.028666
#
#
# Mechanical properties :
#
#
# Convention : Reuss Voigt Hill
#
# Bulk Modulus (GPa) = 44.72907 56.33722 50.53314
# Shear Modulus (GPa) = 21.03634 28.00985 24.52310
#
# Velocity S-wave (km/s) = 3.24865 3.74863 3.50756
# Velocity P-wave (km/s) = 6.04249 6.85566 6.46188
#
# Compressibility (1/GPa) = 0.02235682
#
# Stress axis : x y z
#
# Youngs Moduli (GPa) = 57.81170 40.93328 71.49552
#
# Poissons Ratio (x) = 0.17091 0.16858
# Poissons Ratio (y) = 0.24138 0.72536
# Poissons Ratio (z) = 0.13632 0.41529
#
# Static dielectric constant tensor:
#      x y z
#    x 3.367030 -0.041710 0.068510 
#    y -0.041710 3.758330 -0.259810 
#    z 0.068510 -0.259810 4.308870 
# 
# 
# High freq. dielectric constant tensor:
#      x y z
#    x 1.750040 0.012640 0.002420 
#    y 0.012640 1.772780 0.009380 
#    z 0.002420 0.009380 1.782640 
# 
# From -- ./inp_files/198468.got.cif
#   From: 2010.06.25/outbox.cif.g09.slc.cpg/sg2_100_cif.got.tgz:198468.got - 2010.06.27 13:26:56.
