data_PCOD8042526
_publ_section_title
;
Structure prediction by ZEFSAII (Michael W. Deem and Ramdas Pophale) SiO2 
 PCOD8042526
Probable space group: P -1
;
_chemical_formula_sum "Si O2"
_cell_formula_units_Z 16
_cell_length_a 9.073923
_cell_length_b 24.015220
_cell_length_c 12.085900
_cell_angle_alpha 151.217785
_cell_angle_beta 51.262027
_cell_angle_gamma 139.007186
_cell_volume 826.447721
_symmetry_space_group_name_H-M "P -1"
_symmetry_group_IT_number 2
_symmetry_cell_setting 'triclinic'
loop_
_space_group_symop_operation_xyz
x,y,z
-x,-y,-z
loop_
_atom_site_type_symbol
_atom_site_label
_atom_site_fract_x
_atom_site_fract_y
_atom_site_fract_z
Si Si1 0.609998 0.394570 0.377157
Si Si2 0.086880 0.667232 0.370365
Si Si3 0.484831 0.592322 0.319707
Si Si4 0.533550 0.176983 0.374219
Si Si5 0.167352 0.866221 0.003825
Si Si6 0.780896 0.685641 0.718937
Si Si7 0.930883 0.610820 0.107371
Si Si8 0.984452 0.330334 0.066489
O O1 0.480151 0.338169 0.455869
O O2 0.696624 0.555307 0.610968
O O3 0.431692 0.308012 0.210745
O O4 0.823578 0.384303 0.256913
O O5 0.325551 0.790679 0.522177
O O6 0.887443 0.666485 0.525311
O O7 0.075564 0.694410 0.292999
O O8 0.051764 0.519681 0.150495
O O9 0.519727 0.706025 0.412443
O O10 0.667994 0.554436 0.146512
O O11 0.238872 0.453940 0.186142
O O12 0.677176 0.179247 0.205645
O O13 0.300398 0.030171 0.241481
O O14 0.954161 0.820803 0.944578
O O15 0.088104 0.798893 0.045107
O O16 0.034221 0.711859 0.127828
#
# Coordination Sequence:
#
# PCOD8042526 Si02
#       8
#     2   2   2   2   2   2   2   2
#     4  11  20  33  59  89 116 146 190 249 284 326
#     4  10  20  37  56  84 121 153 185 233 291 342
#     4  12  21  37  59  90 115 150 196 238 283 339
#     4  10  21  38  61  85 116 151 193 237 290 336
#     4  10  21  38  60  86 116 152 188 242 290 336
#     4  10  19  35  57  90 119 144 189 240 293 332
#     4  11  23  36  58  88 119 155 187 235 289 343
#     4  12  21  37  58  90 115 148 198 238 280 339
#
# _framework density 19.359966
#
# number of rings (size 3 to 8) (size 9 to 14) (size 15 to 20)
#    0.000    1.250    6.250    1.500    0.000    0.000 
#    0.000    3.125    0.000    0.000    0.000    0.000 
#    0.000    0.000    0.000    0.000    0.000    0.000 
#
# Total GULP energy -198397.613973 kJ/mol
# GULP energy per Si atom -12399.850873 kJ/mol
# Density = 1.931590 g / cm^3
# Si number density = 19.359966 Si / 1000 Ang^3
#
#
#
# Elastic Constant Matrix: (Units=GPa)
#
#
# Indices 1 2 3 4 5 6 
#
# 1 79.8855 47.3055 27.3262 7.4858 26.2412 -7.9691
# 2 47.3055 103.6709 35.7669 5.6452 21.1786 -15.0999
# 3 27.3262 35.7669 42.8723 4.0859 21.9762 -3.7730
# 4 7.4858 5.6452 4.0859 35.6650 3.3565 8.1059
# 5 26.2412 21.1786 21.9762 3.3565 25.9813 -4.8288
# 6 -7.9691 -15.0999 -3.7730 8.1059 -4.8288 32.0519
#
#
#
# Elastic Compliance Matrix: (Units=1/GPa)
#
#
# Indices 1 2 3 4 5 6 
#
# 1 0.022076 -0.006543 0.000251 -0.002145 -0.016815 0.000445
# 2 -0.006543 0.016582 -0.010797 -0.001681 0.003533 0.005871
# 3 0.000251 -0.010797 0.049110 0.000213 -0.033836 -0.004395
# 4 -0.002145 -0.001681 0.000213 0.031128 -0.002438 -0.009540
# 5 -0.016815 0.003533 -0.033836 -0.002438 0.082752 0.006584
# 6 0.000445 0.005871 -0.004395 -0.009540 0.006584 0.036963
#
#
# Mechanical properties :
#
#
# Convention : Reuss Voigt Hill
#
# Bulk Modulus (GPa) = 18.66055 49.69179 34.17617
# Shear Modulus (GPa) = 17.20271 26.47498 21.83885
#
# Velocity S-wave (km/s) = 2.98413 3.70200 3.36228
# Velocity P-wave (km/s) = 4.64037 6.63295 5.72403
#
# Compressibility (1/GPa) = 0.05358897
#
# Stress axis : x y z
#
# Youngs Moduli (GPa) = 45.29892 60.30810 20.36238
#
# Poissons Ratio (x) = 0.39460 -0.00511
# Poissons Ratio (y) = 0.29639 0.21986
# Poissons Ratio (z) = -0.01137 0.65116
#
# Static dielectric constant tensor:
#      x y z
#    x 3.832600 -0.084350 0.213950 
#    y -0.084350 3.554300 -0.224080 
#    z 0.213950 -0.224080 3.242960 
# 
# 
# High freq. dielectric constant tensor:
#      x y z
#    x 1.775050 -0.000360 0.014130 
#    y -0.000360 1.742490 -0.019480 
#    z 0.014130 -0.019480 1.716470 
# 
# From -- ./inp_files/208729.got.cif
#   From: 2010.06.25/outbox.cif.g09.slc.cpg/sg2_105_cif.got.tgz:208729.got - 2010.06.27 13:26:56.
