data_PCOD8042215
_publ_section_title
;
Structure prediction by ZEFSAII (Michael W. Deem and Ramdas Pophale) SiO2 
 PCOD8042215
Probable space group: P -1
;
_chemical_formula_sum "Si O2"
_cell_formula_units_Z 16
_cell_length_a 11.983905
_cell_length_b 8.727522
_cell_length_c 13.566377
_cell_angle_alpha 123.928505
_cell_angle_beta 43.641981
_cell_angle_gamma 102.769506
_cell_volume 769.968724
_symmetry_space_group_name_H-M "P -1"
_symmetry_group_IT_number 2
_symmetry_cell_setting 'triclinic'
loop_
_space_group_symop_operation_xyz
x,y,z
-x,-y,-z
loop_
_atom_site_type_symbol
_atom_site_label
_atom_site_fract_x
_atom_site_fract_y
_atom_site_fract_z
Si Si1 0.961301 0.565959 0.335886
Si Si2 0.655947 0.386338 0.078023
Si Si3 0.130299 0.760304 0.449859
Si Si4 0.025175 0.162867 0.754982
Si Si5 0.320319 0.996725 0.654211
Si Si6 0.289639 0.258910 0.944511
Si Si7 0.319648 0.578703 0.454276
Si Si8 0.425702 0.727289 0.109380
O O1 0.939824 0.710005 0.310390
O O2 0.784007 0.525887 0.449996
O O3 0.007000 0.660140 0.439697
O O4 0.107626 0.361048 0.147910
O O5 0.653566 0.591384 0.106475
O O6 0.514342 0.433795 0.271342
O O7 0.615244 0.244328 0.970336
O O8 0.842811 0.273697 0.962317
O O9 0.245121 0.611842 0.403119
O O10 0.250217 0.817686 0.313778
O O11 0.018326 0.956698 0.645187
O O12 0.172624 0.137298 0.731220
O O13 0.313329 0.779166 0.582096
O O14 0.500000 0.000000 0.500000
O O15 0.286710 0.075661 0.815331
O O16 0.432492 0.177818 0.910014
O O17 0.500000 0.500000 0.000000
#
# Coordination Sequence:
#
# PCOD8042215 Si02
#       8
#     2   2   2   2   2   2   2   2
#     4  11  22  35  58  93 121 150 185 251 303 330
#     4  10  18  35  59  88 116 149 191 239 290 347
#     4  11  18  36  61  89 119 155 197 233 281 360
#     4  10  23  37  64  86 115 152 198 239 284 346
#     4  11  22  41  65  84 108 159 210 235 269 356
#     4  10  18  35  60  84 114 154 202 230 280 345
#     4  11  22  37  60  86 123 152 194 238 295 343
#     4  10  15  30  61  91 108 145 198 242 271 340
#
# _framework density 20.780065
#
# number of rings (size 3 to 8) (size 9 to 14) (size 15 to 20)
#    0.000    1.500    7.500    1.500    0.000    2.500 
#    0.000    1.250   11.000    0.000    0.000    0.000 
#    0.000    0.000    0.000    0.000    0.000    0.000 
#
# Total GULP energy -198410.153997 kJ/mol
# GULP energy per Si atom -12400.634625 kJ/mol
# Density = 2.073277 g / cm^3
# Si number density = 20.780065 Si / 1000 Ang^3
#
#
#
# Elastic Constant Matrix: (Units=GPa)
#
#
# Indices 1 2 3 4 5 6 
#
# 1 123.7924 31.3309 46.8052 10.3658 -3.3034 24.3280
# 2 31.3309 57.9339 47.9804 -8.8736 -6.5645 17.5302
# 3 46.8052 47.9804 117.0212 -10.3904 -18.1155 18.8282
# 4 10.3658 -8.8736 -10.3904 26.4638 8.3543 -3.4167
# 5 -3.3034 -6.5645 -18.1155 8.3543 39.3655 3.0537
# 6 24.3280 17.5302 18.8282 -3.4167 3.0537 22.3566
#
#
#
# Elastic Compliance Matrix: (Units=1/GPa)
#
#
# Indices 1 2 3 4 5 6 
#
# 1 0.012776 -0.002256 -0.002801 -0.009039 0.002214 -0.011458
# 2 -0.002256 0.030982 -0.009026 0.005792 0.000637 -0.013440
# 3 -0.002801 -0.009026 0.014708 0.001990 0.004809 -0.002614
# 4 -0.009039 0.005792 0.001990 0.048890 -0.010221 0.012486
# 5 0.002214 0.000637 0.004809 -0.010221 0.031067 -0.012764
# 6 -0.011458 -0.013440 -0.002614 0.012486 -0.012764 0.073590
#
#
# Mechanical properties :
#
#
# Convention : Reuss Voigt Hill
#
# Bulk Modulus (GPa) = 33.00229 61.22006 47.11117
# Shear Modulus (GPa) = 19.97772 29.14590 24.56181
#
# Velocity S-wave (km/s) = 3.10399 3.74918 3.44174
# Velocity P-wave (km/s) = 5.36307 6.94742 6.20601
#
# Compressibility (1/GPa) = 0.03030093
#
# Stress axis : x y z
#
# Youngs Moduli (GPa) = 78.27256 32.27699 67.98878
#
# Poissons Ratio (x) = 0.07280 0.19047
# Poissons Ratio (y) = 0.17655 0.61364
# Poissons Ratio (z) = 0.21928 0.29132
#
# Static dielectric constant tensor:
#      x y z
#    x 4.139050 0.274220 -0.087950 
#    y 0.274220 3.257600 0.063720 
#    z -0.087950 0.063720 3.969380 
# 
# 
# High freq. dielectric constant tensor:
#      x y z
#    x 1.814010 0.019980 -0.004760 
#    y 0.019980 1.762970 0.006200 
#    z -0.004760 0.006200 1.827360 
# 
# From -- ./inp_files/216562.got.cif
#   From: 2010.06.25/outbox.cif.g09.slc.cpg/sg2_109_cif.got.tgz:216562.got - 2010.06.27 13:26:56.
