data_PCOD8042833
_publ_section_title
;
Structure prediction by ZEFSAII (Michael W. Deem and Ramdas Pophale) SiO2 
 PCOD8042833
Probable space group: P -1
;
_chemical_formula_sum "Si O2"
_cell_formula_units_Z 16
_cell_length_a 11.509057
_cell_length_b 18.006178
_cell_length_c 21.136133
_cell_angle_alpha 20.113431
_cell_angle_beta 34.236252
_cell_angle_gamma 33.991686
_cell_volume 815.234403
_symmetry_space_group_name_H-M "P -1"
_symmetry_group_IT_number 2
_symmetry_cell_setting 'triclinic'
loop_
_space_group_symop_operation_xyz
x,y,z
-x,-y,-z
loop_
_atom_site_type_symbol
_atom_site_label
_atom_site_fract_x
_atom_site_fract_y
_atom_site_fract_z
Si Si1 0.824873 0.491221 0.385929
Si Si2 0.789635 0.813606 0.811462
Si Si3 0.564521 0.144827 0.436095
Si Si4 0.394522 0.663859 0.507342
Si Si5 0.836216 0.313384 0.980070
Si Si6 0.846847 0.928992 0.371130
Si Si7 0.392470 0.289069 0.153385
Si Si8 0.267436 0.570434 0.774612
O O1 0.644887 0.619124 0.413961
O O2 0.721085 0.458676 0.392049
O O3 0.944844 0.250037 0.553689
O O4 0.981742 0.649337 0.178381
O O5 0.650090 0.755426 0.864193
O O6 0.038307 0.755698 0.726150
O O7 0.714706 0.072367 0.655724
O O8 0.760021 0.671557 0.000136
O O9 0.324199 0.200918 0.471681
O O10 0.582182 0.354497 0.301857
O O11 0.735919 0.108650 0.331034
O O12 0.618099 0.921140 0.632034
O O13 0.379658 0.552385 0.670836
O O14 0.623286 0.337920 0.014519
O O15 0.916364 0.067339 0.172204
O O16 0.790865 0.500332 0.906097
#
# Coordination Sequence:
#
# PCOD8042833 Si02
#       8
#     2   2   2   2   2   2   2   2
#     4  11  24  42  62  82 119 164 201 240 290 353
#     4  11  23  38  62  92 120 152 193 247 303 348
#     4  10  19  35  62  91 122 150 191 249 298 350
#     4  11  25  42  60  86 119 161 203 239 288 358
#     4  10  21  36  60  92 119 153 196 243 296 347
#     4  10  21  36  60  92 119 153 196 243 296 347
#     4  10  19  35  62  91 122 150 191 249 298 350
#     4  11  23  38  62  92 120 152 193 247 303 348
#
# _framework density 19.626259000000001
#
# number of rings (size 3 to 8) (size 9 to 14) (size 15 to 20)
#    0.000    1.500    2.500    2.625    3.500    4.000 
#    0.000    3.750    0.000    0.000    0.000    0.000 
#    0.000    0.000    0.000    0.000    0.000    0.000 
#
# Total GULP energy -198494.615471 kJ/mol
# GULP energy per Si atom -12405.913467 kJ/mol
# Density = 1.958159 g / cm^3
# Si number density = 19.626259 Si / 1000 Ang^3
#
#
#
# Elastic Constant Matrix: (Units=GPa)
#
#
# Indices 1 2 3 4 5 6 
#
# 1 71.9955 23.1013 7.5935 16.6113 4.9370 9.1304
# 2 23.1013 71.2752 28.8843 30.3250 6.1225 4.1584
# 3 7.5935 28.8843 73.9418 26.4648 6.0424 3.5932
# 4 16.6113 30.3250 26.4648 27.9050 0.1730 -1.2192
# 5 4.9370 6.1225 6.0424 0.1730 27.2416 -1.5802
# 6 9.1304 4.1584 3.5932 -1.2192 -1.5802 26.2075
#
#
#
# Elastic Compliance Matrix: (Units=1/GPa)
#
#
# Indices 1 2 3 4 5 6 
#
# 1 0.018320 -0.000607 0.004368 -0.014703 -0.004514 -0.007841
# 2 -0.000607 0.028100 0.001238 -0.031583 -0.006644 -0.006287
# 3 0.004368 0.001238 0.022578 -0.025598 -0.006285 -0.006384
# 4 -0.014703 -0.031583 -0.025598 0.103938 0.015908 0.019438
# 5 -0.004514 -0.006644 -0.006285 0.015908 0.040701 0.006683
# 6 -0.007841 -0.006287 -0.006384 0.019438 0.006683 0.044069
#
#
# Mechanical properties :
#
#
# Convention : Reuss Voigt Hill
#
# Bulk Modulus (GPa) = 12.65885 37.37452 25.01669
# Shear Modulus (GPa) = 18.24553 26.77972 22.51263
#
# Velocity S-wave (km/s) = 3.05232 3.69790 3.39051
# Velocity P-wave (km/s) = 4.34582 6.10877 5.30110
#
# Compressibility (1/GPa) = 0.07899610
#
# Stress axis : x y z
#
# Youngs Moduli (GPa) = 54.58448 35.58685 44.29153
#
# Poissons Ratio (x) = 0.02161 -0.19347
# Poissons Ratio (y) = 0.03314 -0.05483
# Poissons Ratio (z) = -0.23843 -0.04405
#
# Static dielectric constant tensor:
#      x y z
#    x 3.740120 -0.109880 0.003530 
#    y -0.109880 3.378950 0.096760 
#    z 0.003530 0.096760 3.638750 
# 
# 
# High freq. dielectric constant tensor:
#      x y z
#    x 1.774540 -0.006570 0.003480 
#    y -0.006570 1.731070 0.004720 
#    z 0.003480 0.004720 1.780460 
# 
# From -- ./inp_files/402307.got.cif
#   From: 2010.06.25/outbox.cif.g09.slc.cpg/sg2_202_cif.got.tgz:402307.got - 2010.06.27 13:26:56.
