data_PCOD8042343
_publ_section_title
;
Structure prediction by ZEFSAII (Michael W. Deem and Ramdas Pophale) SiO2 
 PCOD8042343
Probable space group: P -1
;
_chemical_formula_sum "Si O2"
_cell_formula_units_Z 16
_cell_length_a 9.650379
_cell_length_b 13.496541
_cell_length_c 12.782953
_cell_angle_alpha 138.225649
_cell_angle_beta 47.987738
_cell_angle_gamma 121.351469
_cell_volume 823.369636
_symmetry_space_group_name_H-M "P -1"
_symmetry_group_IT_number 2
_symmetry_cell_setting 'triclinic'
loop_
_space_group_symop_operation_xyz
x,y,z
-x,-y,-z
loop_
_atom_site_type_symbol
_atom_site_label
_atom_site_fract_x
_atom_site_fract_y
_atom_site_fract_z
Si Si1 0.637856 0.134264 0.502546
Si Si2 0.948479 0.319195 0.581167
Si Si3 0.129816 0.860094 0.812956
Si Si4 0.302088 0.672554 0.743004
Si Si5 0.965900 0.515773 0.909978
Si Si6 0.812297 0.622722 0.785701
Si Si7 0.342605 0.385228 0.363676
Si Si8 0.617151 0.636845 0.095225
O O1 0.824409 0.167026 0.504432
O O2 0.706399 0.110590 0.331451
O O3 0.515741 0.274759 0.693983
O O4 0.500000 0.000000 0.500000
O O5 0.875116 0.461375 0.665547
O O6 0.943359 0.356816 0.736945
O O7 0.160227 0.290508 0.420087
O O8 0.238983 0.823514 0.836709
O O9 0.998987 0.717363 0.731125
O O10 0.000000 0.000000 0.000000
O O11 0.129824 0.614389 0.852798
O O12 0.352597 0.553122 0.534809
O O13 0.478573 0.702073 0.754320
O O14 0.000000 0.500000 0.000000
O O15 0.774229 0.596982 0.065532
O O16 0.665121 0.606140 0.751839
O O17 0.715262 0.711685 0.000689
O O18 0.500000 0.500000 0.000000
#
# Coordination Sequence:
#
# PCOD8042343 Si02
#       8
#     2   2   2   2   2   2   2   2
#     4  12  25  39  64  97 128 173 220 271 332 379
#     4  10  19  37  62  96 131 159 223 271 321 393
#     4  12  24  43  66  87 132 179 224 270 317 390
#     4  10  22  36  60  97 128 160 217 264 330 389
#     4  10  21  36  59  97 137 164 204 272 335 385
#     4  11  19  38  66  92 120 170 216 271 322 374
#     4  10  19  34  64  96 124 152 209 280 326 371
#     4  11  22  37  62  97 132 161 220 264 324 393
#
# _framework density 19.43234
#
# number of rings (size 3 to 8) (size 9 to 14) (size 15 to 20)
#    0.000    1.250    7.500    1.875    1.750    2.000 
#    0.000    0.625    0.000    3.000    0.000    0.000 
#    0.000    0.000    0.000    0.000    0.000    0.000 
#
# Total GULP energy -198271.500337 kJ/mol
# GULP energy per Si atom -12391.968771 kJ/mol
# Density = 1.938811 g / cm^3
# Si number density = 19.432340 Si / 1000 Ang^3
#
#
#
# Elastic Constant Matrix: (Units=GPa)
#
#
# Indices 1 2 3 4 5 6 
#
# 1 170.9594 53.3116 44.3753 -4.2497 -1.4137 -12.7937
# 2 53.3116 99.1626 38.3568 -8.7814 5.3817 5.3731
# 3 44.3753 38.3568 95.5575 -12.8664 -8.8375 -12.1633
# 4 -4.2497 -8.7814 -12.8664 28.3478 -1.1616 4.0111
# 5 -1.4137 5.3817 -8.8375 -1.1616 36.6837 -8.0237
# 6 -12.7937 5.3731 -12.1633 4.0111 -8.0237 43.1471
#
#
#
# Elastic Compliance Matrix: (Units=1/GPa)
#
#
# Indices 1 2 3 4 5 6 
#
# 1 0.007636 -0.003686 -0.001820 -0.001138 0.000904 0.002484
# 2 -0.003686 0.014757 -0.005018 0.002319 -0.004628 -0.005421
# 3 -0.001820 -0.005018 0.015075 0.004542 0.005522 0.004940
# 4 -0.001138 0.002319 0.004542 0.038317 0.001342 -0.002658
# 5 0.000904 -0.004628 0.005522 0.001342 0.031110 0.008062
# 6 0.002484 -0.005421 0.004940 -0.002658 0.008062 0.027727
#
#
# Mechanical properties :
#
#
# Convention : Reuss Voigt Hill
#
# Bulk Modulus (GPa) = 60.89584 70.86297 65.87941
# Shear Modulus (GPa) = 31.02825 36.94475 33.98650
#
# Velocity S-wave (km/s) = 4.00025 4.36500 4.18660
# Velocity P-wave (km/s) = 7.26233 7.87083 7.57270
#
# Compressibility (1/GPa) = 0.01642148
#
# Stress axis : x y z
#
# Youngs Moduli (GPa) = 130.95508 67.76366 66.33347
#
# Poissons Ratio (x) = 0.24976 0.12073
# Poissons Ratio (y) = 0.48266 0.33285
# Poissons Ratio (z) = 0.23835 0.34003
#
# Static dielectric constant tensor:
#      x y z
#    x 3.797250 0.286480 -0.371900 
#    y 0.286480 3.498260 -0.341930 
#    z -0.371900 -0.341930 3.151150 
# 
# 
# High freq. dielectric constant tensor:
#      x y z
#    x 1.766970 0.015340 -0.004100 
#    y 0.015340 1.730160 -0.032820 
#    z -0.004100 -0.032820 1.750630 
# 
# From -- ./inp_files/393011.got.cif
#   From: 2010.06.25/outbox.cif.g09.slc.cpg/sg2_197_cif.got.tgz:393011.got - 2010.06.27 13:26:56.
