data_PCOD8042104
_publ_section_title
;
Structure prediction by ZEFSAII (Michael W. Deem and Ramdas Pophale) SiO2 
 PCOD8042104
Probable space group: P -1
;
_chemical_formula_sum "Si O2"
_cell_formula_units_Z 12
_cell_length_a 24.115840
_cell_length_b 17.125278
_cell_length_c 26.387689
_cell_angle_alpha 21.062286
_cell_angle_beta 169.972578
_cell_angle_gamma 157.961663
_cell_volume 676.346918
_symmetry_space_group_name_H-M "P -1"
_symmetry_group_IT_number 2
_symmetry_cell_setting 'triclinic'
loop_
_space_group_symop_operation_xyz
x,y,z
-x,-y,-z
loop_
_atom_site_type_symbol
_atom_site_label
_atom_site_fract_x
_atom_site_fract_y
_atom_site_fract_z
Si Si1 0.703923 0.097702 0.898218
Si Si2 0.437850 0.662375 0.889902
Si Si3 0.250868 0.384566 0.263655
Si Si4 0.666800 0.227486 0.074144
Si Si5 0.697716 0.721663 0.188654
Si Si6 0.404968 0.268380 0.709581
O O1 0.444376 0.259252 0.554547
O O2 0.662723 0.898472 0.940175
O O3 0.062508 0.227786 0.146201
O O4 0.637547 0.973390 0.968241
O O5 0.070970 0.701253 0.539878
O O6 0.500000 0.500000 0.000000
O O7 0.540150 0.567098 0.094219
O O8 0.503483 0.559423 0.356786
O O9 0.000000 0.500000 0.000000
O O10 0.039617 0.268006 0.398076
O O11 0.531260 0.970513 0.107087
O O12 0.474610 0.344082 0.873581
O O13 0.615309 0.336166 0.907664
#
# Coordination Sequence:
#
# PCOD8042104 Si02
#       6
#     2   2   2   2   2   2
#     4  10  21  34  53  80 111 140 175 217 277 322
#     4  10  20  35  57  87 109 132 177 232 292 321
#     4  12  22  35  51  80 113 152 178 213 265 326
#     4  10  20  37  49  77 104 148 185 226 245 312
#     4  10  19  34  58  78 112 135 173 232 277 315
#     4  10  22  32  53  72 110 146 190 211 256 303
#
# _framework density 17.742374000000002
#
# number of rings (size 3 to 8) (size 9 to 14) (size 15 to 20)
#    1.000    0.667    1.667    4.000    0.000    2.667 
#    0.000    0.000    0.000    0.000    0.000   23.333 
#    0.000    0.000    0.000    0.000    0.000    0.000 
#
# Total GULP energy -148677.245005 kJ/mol
# GULP energy per Si atom -12389.770417 kJ/mol
# Density = 1.770199 g / cm^3
# Si number density = 17.742374 Si / 1000 Ang^3
#
#
#
# Elastic Constant Matrix: (Units=GPa)
#
#
# Indices 1 2 3 4 5 6 
#
# 1 86.5321 29.3905 25.3502 8.4097 9.6110 -9.4819
# 2 29.3905 55.2001 14.0607 4.4297 6.8756 -3.8578
# 3 25.3502 14.0607 78.3802 11.4226 -9.0394 -4.3442
# 4 8.4097 4.4297 11.4226 18.9846 -3.1912 -6.6181
# 5 9.6110 6.8756 -9.0394 -3.1912 30.7991 2.3873
# 6 -9.4819 -3.8578 -4.3442 -6.6181 2.3873 24.9296
#
#
#
# Elastic Compliance Matrix: (Units=1/GPa)
#
#
# Indices 1 2 3 4 5 6 
#
# 1 0.016281 -0.006426 -0.004118 -0.002655 -0.005463 0.004299
# 2 -0.006426 0.022758 -0.002192 -0.001578 -0.003933 0.000653
# 3 -0.004118 -0.002192 0.016082 -0.006869 0.005898 -0.001491
# 4 -0.002655 -0.001578 -0.006869 0.064060 0.004709 0.014104
# 5 -0.005463 -0.003933 0.005898 0.004709 0.037581 -0.004007
# 6 0.004299 0.000653 -0.001491 0.014104 -0.004007 0.045717
#
#
# Mechanical properties :
#
#
# Convention : Reuss Voigt Hill
#
# Bulk Modulus (GPa) = 33.72662 39.74614 36.73638
# Shear Modulus (GPa) = 21.02322 25.03005 23.02663
#
# Velocity S-wave (km/s) = 3.44599 3.76007 3.60645
# Velocity P-wave (km/s) = 5.90623 6.42661 6.17190
#
# Compressibility (1/GPa) = 0.02965017
#
# Stress axis : x y z
#
# Youngs Moduli (GPa) = 61.42091 43.94132 62.18165
#
# Poissons Ratio (x) = 0.28236 0.25606
# Poissons Ratio (y) = 0.39468 0.13628
# Poissons Ratio (z) = 0.25292 0.09630
#
# Static dielectric constant tensor:
#      x y z
#    x 3.270230 -0.112430 -0.269590 
#    y -0.112430 3.208840 0.135720 
#    z -0.269590 0.135720 3.309280 
# 
# 
# High freq. dielectric constant tensor:
#      x y z
#    x 1.675790 -0.006590 -0.027290 
#    y -0.006590 1.657870 0.016210 
#    z -0.027290 0.016210 1.695010 
# 
# From -- ./inp_files/43111.got.cif
#   From: 2010.06.25/outbox.cif.g09.slc.cpg/sg2_22_cif.got.tgz:43111.got - 2010.06.27 13:26:56.
