data_PCOD8042969
_publ_section_title
;
Structure prediction by ZEFSAII (Michael W. Deem and Ramdas Pophale) SiO2 
 PCOD8042969
Probable space group: P -1
;
_chemical_formula_sum "Si O2"
_cell_formula_units_Z 16
_cell_length_a 9.637278
_cell_length_b 12.153845
_cell_length_c 18.003484
_cell_angle_alpha 52.277193
_cell_angle_beta 151.168870
_cell_angle_gamma 122.836473
_cell_volume 804.240563
_symmetry_space_group_name_H-M "P -1"
_symmetry_group_IT_number 2
_symmetry_cell_setting 'triclinic'
loop_
_space_group_symop_operation_xyz
x,y,z
-x,-y,-z
loop_
_atom_site_type_symbol
_atom_site_label
_atom_site_fract_x
_atom_site_fract_y
_atom_site_fract_z
Si Si1 0.080307 0.086419 0.760118
Si Si2 0.798226 0.959805 0.811378
Si Si3 0.606761 0.143705 0.083878
Si Si4 0.814880 0.435022 0.041328
Si Si5 0.401550 0.499717 0.237660
Si Si6 0.612627 0.077376 0.824684
Si Si7 0.454099 0.681736 0.746914
Si Si8 0.839235 0.713555 0.416178
O O1 0.017946 0.198476 0.621023
O O2 0.165760 0.941873 0.821843
O O3 0.324217 0.157763 0.895796
O O4 0.811986 0.046664 0.704679
O O5 0.566373 0.836951 0.748401
O O6 0.702684 0.068115 0.785122
O O7 0.109068 0.894842 0.003798
O O8 0.729241 0.295028 0.102969
O O9 0.536592 0.067376 0.160070
O O10 0.156581 0.466650 0.198441
O O11 0.746632 0.402360 0.935205
O O12 0.627086 0.568091 0.924870
O O13 0.505286 0.358388 0.304645
O O14 0.680191 0.573197 0.373265
O O15 0.390700 0.201173 0.679535
O O16 0.114167 0.673307 0.611901
#
# Coordination Sequence:
#
# PCOD8042969 Si02
#       8
#     2   2   2   2   2   2   2   2
#     4   9  17  27  52  72 104 126 159 212 245 292
#     4  10  19  36  49  76  98 136 170 199 250 292
#     4   9  15  29  50  79  96 123 166 210 251 280
#     4   9  17  29  50  75  97 132 158 210 243 288
#     4   9  18  29  50  77 101 129 163 208 248 286
#     4   9  21  33  55  72 102 130 167 210 245 298
#     4  10  20  29  51  73 106 132 164 202 244 304
#     4  11  19  33  49  81 102 131 163 203 255 295
#
# _framework density 19.894545000000001
#
# number of rings (size 3 to 8) (size 9 to 14) (size 15 to 20)
#    0.750    1.750    1.250    2.625    0.000    1.000 
#    0.000    0.625    0.000    1.500    0.000   15.750 
#    0.000    0.000    0.000    0.000    0.000    0.000 
#
# Total GULP energy -198291.925775 kJ/mol
# GULP energy per Si atom -12393.245361 kJ/mol
# Density = 1.984926 g / cm^3
# Si number density = 19.894545 Si / 1000 Ang^3
#
#
#
# Elastic Constant Matrix: (Units=GPa)
#
#
# Indices 1 2 3 4 5 6 
#
# 1 70.4812 6.4533 14.5241 0.1600 11.3064 -2.3596
# 2 6.4533 75.5499 20.9779 19.4275 4.0320 4.0148
# 3 14.5241 20.9779 63.7004 11.6096 28.4302 -6.7697
# 4 0.1600 19.4275 11.6096 25.9600 2.1916 9.6241
# 5 11.3064 4.0320 28.4302 2.1916 20.1618 -3.0433
# 6 -2.3596 4.0148 -6.7697 9.6241 -3.0433 20.4820
#
#
#
# Elastic Compliance Matrix: (Units=1/GPa)
#
#
# Indices 1 2 3 4 5 6 
#
# 1 0.015747 -0.001506 0.001613 0.001017 -0.010831 0.000555
# 2 -0.001506 0.017743 -0.007700 -0.010695 0.009350 0.000218
# 3 0.001613 -0.007700 0.056802 -0.020420 -0.074371 0.019014
# 4 0.001017 -0.010695 -0.020420 0.066357 0.018166 -0.033016
# 5 -0.010831 0.009350 -0.074371 0.018166 0.154706 -0.013210
# 6 0.000555 0.000218 0.019014 -0.033016 -0.013210 0.068680
#
#
# Mechanical properties :
#
#
# Convention : Reuss Voigt Hill
#
# Bulk Modulus (GPa) = 13.31459 32.62689 22.97074
# Shear Modulus (GPa) = 11.89752 24.50584 18.20168
#
# Velocity S-wave (km/s) = 2.44812 3.51349 3.02803
# Velocity P-wave (km/s) = 3.83382 5.73542 4.87817
#
# Compressibility (1/GPa) = 0.07510560
#
# Stress axis : x y z
#
# Youngs Moduli (GPa) = 63.50244 56.36098 17.60515
#
# Poissons Ratio (x) = 0.08488 -0.02840
# Poissons Ratio (y) = 0.09564 0.13556
# Poissons Ratio (z) = -0.10245 0.43400
#
# Static dielectric constant tensor:
#      x y z
#    x 3.381920 0.112090 0.229460 
#    y 0.112090 3.392270 0.050900 
#    z 0.229460 0.050900 3.323690 
# 
# 
# High freq. dielectric constant tensor:
#      x y z
#    x 1.747470 0.004890 0.029340 
#    y 0.004890 1.771420 0.007400 
#    z 0.029340 0.007400 1.747670 
# 
# From -- ./inp_files/559120.got.cif
#   From: 2010.06.25/outbox.cif.g09.slc.cpg/sg2_280_cif.got.tgz:559120.got - 2010.06.27 13:26:56.
