data_PCOD8042817
_publ_section_title
;
Structure prediction by ZEFSAII (Michael W. Deem and Ramdas Pophale) SiO2 
 PCOD8042817
Probable space group: P -1
;
_chemical_formula_sum "Si O2"
_cell_formula_units_Z 16
_cell_length_a 10.753260
_cell_length_b 12.539895
_cell_length_c 9.119972
_cell_angle_alpha 68.860009
_cell_angle_beta 121.874333
_cell_angle_gamma 127.584308
_cell_volume 826.233602
_symmetry_space_group_name_H-M "P -1"
_symmetry_group_IT_number 2
_symmetry_cell_setting 'triclinic'
loop_
_space_group_symop_operation_xyz
x,y,z
-x,-y,-z
loop_
_atom_site_type_symbol
_atom_site_label
_atom_site_fract_x
_atom_site_fract_y
_atom_site_fract_z
Si Si1 0.281900 0.383323 0.078135
Si Si2 0.428773 0.635135 0.207780
Si Si3 0.930003 0.112572 0.029011
Si Si4 0.609620 0.123551 0.906621
Si Si5 0.550457 0.912326 0.482996
Si Si6 0.248013 0.351343 0.730468
Si Si7 0.063827 0.934383 0.275159
Si Si8 0.416841 0.614211 0.559064
O O1 0.283802 0.512637 0.078523
O O2 0.429759 0.386470 0.264138
O O3 0.108919 0.250241 0.078061
O O4 0.312086 0.391309 0.918502
O O5 0.380804 0.745516 0.088471
O O6 0.622008 0.682887 0.251629
O O7 0.416876 0.600298 0.390481
O O8 0.796930 0.144793 0.000920
O O9 0.874659 0.059147 0.856346
O O10 0.948502 0.001643 0.185583
O O11 0.504947 0.082315 0.714633
O O12 0.500000 0.000000 0.000000
O O13 0.439122 0.756470 0.547113
O O14 0.500000 0.000000 0.500000
O O15 0.756871 0.977288 0.570346
O O16 0.248624 0.477373 0.588381
O O17 0.053582 0.220065 0.665194
#
# Coordination Sequence:
#
# PCOD8042817 Si02
#       8
#     2   2   2   2   2   2   2   2
#     4  10  19  35  62  88 110 156 203 239 283 347
#     4  10  21  37  58  83 124 155 188 241 302 348
#     4  10  20  37  62  86 121 149 200 243 293 343
#     4  11  24  40  56  88 122 158 189 246 301 350
#     4  11  22  40  64  84 120 158 197 234 302 352
#     4  10  20  35  62  90 114 150 205 244 277 348
#     4  10  20  38  63  92 111 153 201 251 279 342
#     4  10  20  37  56  89 118 155 189 239 299 343
#
# _framework density 19.364985999999998
#
# number of rings (size 3 to 8) (size 9 to 14) (size 15 to 20)
#    0.000    1.750    2.500    3.750    0.000    2.500 
#    4.500    2.500    0.000    0.000    0.000    0.000 
#    0.000    0.000    0.000    0.000    0.000    0.000 
#
# Total GULP energy -198272.323949 kJ/mol
# GULP energy per Si atom -12392.020247 kJ/mol
# Density = 1.932091 g / cm^3
# Si number density = 19.364986 Si / 1000 Ang^3
#
#
#
# Elastic Constant Matrix: (Units=GPa)
#
#
# Indices 1 2 3 4 5 6 
#
# 1 51.4096 54.0484 15.3806 -14.2654 -9.8350 -10.5632
# 2 54.0484 152.6570 54.3280 -23.4989 -7.6681 -11.8058
# 3 15.3806 54.3280 56.8945 -15.2932 -6.0524 0.1954
# 4 -14.2654 -23.4989 -15.2932 34.7784 -0.9890 -2.1550
# 5 -9.8350 -7.6681 -6.0524 -0.9890 17.9579 0.4387
# 6 -10.5632 -11.8058 0.1954 -2.1550 0.4387 39.5540
#
#
#
# Elastic Compliance Matrix: (Units=1/GPa)
#
#
# Indices 1 2 3 4 5 6 
#
# 1 0.039396 -0.013216 0.006963 0.011255 0.018730 0.006948
# 2 -0.013216 0.015096 -0.011429 -0.000314 -0.004687 0.001068
# 3 0.006963 -0.011429 0.029900 0.008469 0.009510 -0.001343
# 4 0.011255 -0.000314 0.008469 0.037487 0.010832 0.004793
# 5 0.018730 -0.004687 0.009510 0.010832 0.067661 0.003396
# 6 0.006948 0.001068 -0.001343 0.004793 0.003396 0.027686
#
#
# Mechanical properties :
#
#
# Convention : Reuss Voigt Hill
#
# Bulk Modulus (GPa) = 20.39577 56.49722 38.44649
# Shear Modulus (GPa) = 18.59206 27.60500 23.09853
#
# Velocity S-wave (km/s) = 3.10189 3.77969 3.45744
# Velocity P-wave (km/s) = 4.83571 6.94884 5.98625
#
# Compressibility (1/GPa) = 0.04902978
#
# Stress axis : x y z
#
# Youngs Moduli (GPa) = 25.38310 66.24339 33.44485
#
# Poissons Ratio (x) = 0.87546 -0.23289
# Poissons Ratio (y) = 0.33546 0.38223
# Poissons Ratio (z) = -0.17675 0.75708
#
# Static dielectric constant tensor:
#      x y z
#    x 3.030630 0.061190 -0.000300 
#    y 0.061190 4.260050 -0.027740 
#    z -0.000300 -0.027740 3.526090 
# 
# 
# High freq. dielectric constant tensor:
#      x y z
#    x 1.734760 -0.003870 -0.005800 
#    y -0.003870 1.779880 -0.001290 
#    z -0.005800 -0.001290 1.750030 
# 
# From -- ./inp_files/257683.got.cif
#   From: 2010.06.25/outbox.cif.g09.slc.cpg/sg2_129_cif.got.tgz:257683.got - 2010.06.27 13:26:56.
