data_PCOD8042421
_publ_section_title
;
Structure prediction by ZEFSAII (Michael W. Deem and Ramdas Pophale) SiO2 
 PCOD8042421
Probable space group: P -1
;
_chemical_formula_sum "Si O2"
_cell_formula_units_Z 16
_cell_length_a 9.155843
_cell_length_b 12.172511
_cell_length_c 11.855715
_cell_angle_alpha 48.922817
_cell_angle_beta 91.575789
_cell_angle_gamma 116.750089
_cell_volume 815.768192
_symmetry_space_group_name_H-M "P -1"
_symmetry_group_IT_number 2
_symmetry_cell_setting 'triclinic'
loop_
_space_group_symop_operation_xyz
x,y,z
-x,-y,-z
loop_
_atom_site_type_symbol
_atom_site_label
_atom_site_fract_x
_atom_site_fract_y
_atom_site_fract_z
Si Si1 0.748067 0.840775 0.089257
Si Si2 0.198513 0.553914 0.466582
Si Si3 0.860772 0.496422 0.847486
Si Si4 0.619634 0.461851 0.320319
Si Si5 0.787284 0.695558 0.529150
Si Si6 0.028154 0.962097 0.835488
Si Si7 0.843834 0.554161 0.056579
Si Si8 0.400253 0.797147 0.112431
O O1 0.746892 0.667363 0.223963
O O2 0.543425 0.755476 0.115287
O O3 0.809232 0.959930 0.123717
O O4 0.871163 0.953971 0.908136
O O5 0.297343 0.618863 0.546024
O O6 0.219651 0.403520 0.517568
O O7 0.302161 0.724580 0.276517
O O8 0.000000 0.500000 0.500000
O O9 0.870523 0.641833 0.665991
O O10 0.738373 0.295873 0.930528
O O11 0.053810 0.534263 0.843386
O O12 0.781948 0.504816 0.959293
O O13 0.408924 0.360237 0.402309
O O14 0.663383 0.459012 0.191340
O O15 0.912292 0.906968 0.360195
O O16 0.968570 0.768833 0.923613
O O17 0.500000 0.000000 0.000000
#
# Coordination Sequence:
#
# PCOD8042421 Si02
#       8
#     2   2   2   2   2   2   2   2
#     4  10  19  35  55  87 118 148 191 237 296 344
#     4  11  22  34  57  88 123 155 188 239 303 353
#     4  10  22  42  61  84 118 156 204 237 293 357
#     4  11  19  37  59  86 115 155 191 241 298 342
#     4  11  21  36  60  89 120 148 200 253 290 342
#     4  10  21  34  60  86 118 154 192 241 293 350
#     4  10  23  41  62  79 118 167 197 234 292 363
#     4  11  22  36  59  88 117 149 191 245 293 348
#
# _framework density 19.613413999999999
#
# number of rings (size 3 to 8) (size 9 to 14) (size 15 to 20)
#    0.000    1.500    3.750    3.375    1.750    1.000 
#    0.000    0.000    0.000    2.250    0.000    0.000 
#    0.000    0.000    0.000    0.000    0.000    0.000 
#
# Total GULP energy -198271.822539 kJ/mol
# GULP energy per Si atom -12391.988909 kJ/mol
# Density = 1.956877 g / cm^3
# Si number density = 19.613414 Si / 1000 Ang^3
#
#
#
# Elastic Constant Matrix: (Units=GPa)
#
#
# Indices 1 2 3 4 5 6 
#
# 1 93.9007 5.3959 57.5486 8.6589 -10.9503 -0.6211
# 2 5.3959 75.2373 57.1563 14.4040 7.3818 -10.1622
# 3 57.5486 57.1563 147.3364 10.8514 -12.2196 -0.6124
# 4 8.6589 14.4040 10.8514 29.3790 2.2230 -0.9704
# 5 -10.9503 7.3818 -12.2196 2.2230 31.1124 4.8168
# 6 -0.6211 -10.1622 -0.6124 -0.9704 4.8168 25.0229
#
#
#
# Elastic Compliance Matrix: (Units=1/GPa)
#
#
# Indices 1 2 3 4 5 6 
#
# 1 0.015848 0.006199 -0.008168 -0.004681 0.000868 0.002362
# 2 0.006199 0.027431 -0.013235 -0.009148 -0.010838 0.012702
# 3 -0.008168 -0.013235 0.015503 0.002412 0.007186 -0.006488
# 4 -0.004681 -0.009148 0.002412 0.039019 -0.000998 -0.002067
# 5 0.000868 -0.010838 0.007186 -0.000998 0.039754 -0.011895
# 6 0.002362 0.012702 -0.006488 -0.002067 -0.011895 0.047231
#
#
# Mechanical properties :
#
#
# Convention : Reuss Voigt Hill
#
# Bulk Modulus (GPa) = 35.24417 61.85289 48.54853
# Shear Modulus (GPa) = 22.25661 30.19444 26.22552
#
# Velocity S-wave (km/s) = 3.37228 3.92788 3.66063
# Velocity P-wave (km/s) = 5.75947 7.22326 6.53249
#
# Compressibility (1/GPa) = 0.02837349
#
# Stress axis : x y z
#
# Youngs Moduli (GPa) = 63.10038 36.45476 64.50272
#
# Poissons Ratio (x) = -0.22597 0.52687
# Poissons Ratio (y) = -0.39114 0.85368
# Poissons Ratio (z) = 0.51541 0.48247
#
# Static dielectric constant tensor:
#      x y z
#    x 3.241010 -0.024230 0.142690 
#    y -0.024230 3.388330 0.166240 
#    z 0.142690 0.166240 3.465260 
# 
# 
# High freq. dielectric constant tensor:
#      x y z
#    x 1.766600 -0.002690 -0.005640 
#    y -0.002690 1.738950 0.008800 
#    z -0.005640 0.008800 1.772520 
# 
# From -- ./inp_files/181254.got.cif
#   From: 2010.06.25/outbox.cif.g09.slc.cpg/sg2_91_cif.got.tgz:181254.got - 2010.06.27 13:26:56.
