data_PCOD8042792
_publ_section_title
;
Structure prediction by ZEFSAII (Michael W. Deem and Ramdas Pophale) SiO2 
 PCOD8042792
Probable space group: P -1
;
_chemical_formula_sum "Si O2"
_cell_formula_units_Z 16
_cell_length_a 9.700700
_cell_length_b 28.216466
_cell_length_c 13.354279
_cell_angle_alpha 154.932426
_cell_angle_beta 32.182065
_cell_angle_gamma 153.428799
_cell_volume 679.982903
_symmetry_space_group_name_H-M "P -1"
_symmetry_group_IT_number 2
_symmetry_cell_setting 'triclinic'
loop_
_space_group_symop_operation_xyz
x,y,z
-x,-y,-z
loop_
_atom_site_type_symbol
_atom_site_label
_atom_site_fract_x
_atom_site_fract_y
_atom_site_fract_z
Si Si1 0.801605 0.500196 0.312385
Si Si2 0.026253 0.852134 0.066346
Si Si3 0.704882 0.861659 0.958366
Si Si4 0.472554 0.150331 0.381656
Si Si5 0.766507 0.410686 0.603196
Si Si6 0.094340 0.692703 0.874408
Si Si7 0.125967 0.758850 0.502372
Si Si8 0.542325 0.221340 0.850089
O O1 0.500000 0.500000 0.500000
O O2 0.936548 0.549995 0.436071
O O3 0.028293 0.607034 0.291990
O O4 0.760386 0.360825 0.044135
O O5 0.701542 0.768559 0.047463
O O6 0.132971 0.008365 0.310427
O O7 0.289467 0.846098 0.837031
O O8 0.970462 0.779772 0.070739
O O9 0.394109 0.793658 0.952514
O O10 0.820957 0.762380 0.711536
O O11 0.627922 0.892124 0.175165
O O12 0.000000 0.000000 0.000000
O O13 0.467191 0.282010 0.603084
O O14 0.592797 0.148094 0.414454
O O15 0.778782 0.360234 0.389653
O O16 0.800606 0.555430 0.847646
O O17 0.250785 0.805705 0.401836
#
# Coordination Sequence:
#
# PCOD8042792 Si02
#       8
#     2   2   2   2   2   2   2   2
#     4  11  18  39  66  95 123 166 218 264 315 380
#     4  10  20  36  65  92 120 169 215 257 318 380
#     4  12  25  42  66  92 131 175 208 263 325 382
#     4   9  18  36  61  89 121 163 217 258 306 382
#     4   9  18  31  58  90 119 159 209 258 312 374
#     4  10  19  35  61  93 122 164 212 256 319 381
#     4  11  23  40  66  97 128 164 218 265 317 379
#     4  12  24  40  67  97 127 166 216 266 318 384
#
# _framework density 23.530004000000002
#
# number of rings (size 3 to 8) (size 9 to 14) (size 15 to 20)
#    0.000    1.500    3.750    2.625    3.500    2.000 
#    0.000    0.000    8.250    3.750    0.000    0.000 
#    0.000    0.000    0.000    0.000    0.000    0.000 
#
# Total GULP energy -198217.772262 kJ/mol
# GULP energy per Si atom -12388.610766 kJ/mol
# Density = 2.347645 g / cm^3
# Si number density = 23.530004 Si / 1000 Ang^3
#
#
#
# Elastic Constant Matrix: (Units=GPa)
#
#
# Indices 1 2 3 4 5 6 
#
# 1 127.1059 41.9313 23.3760 7.2220 20.3980 -17.4889
# 2 41.9313 105.4305 30.6966 24.2467 7.9085 -31.0840
# 3 23.3760 30.6966 34.8960 14.0739 14.0627 -15.7425
# 4 7.2220 24.2467 14.0739 41.7568 -11.8873 3.2901
# 5 20.3980 7.9085 14.0627 -11.8873 31.1983 1.7228
# 6 -17.4889 -31.0840 -15.7425 3.2901 1.7228 38.5176
#
#
#
# Elastic Compliance Matrix: (Units=1/GPa)
#
#
# Indices 1 2 3 4 5 6 
#
# 1 0.010532 -0.001249 0.003452 -0.005782 -0.010668 0.006156
# 2 -0.001249 0.019887 0.007883 -0.020421 -0.016729 0.021196
# 3 0.003452 0.007883 0.111782 -0.072255 -0.085685 0.063619
# 4 -0.005782 -0.020421 -0.072255 0.088187 0.078423 -0.059677
# 5 -0.010668 -0.016729 -0.085685 0.078423 0.115374 -0.065224
# 6 0.006156 0.021196 0.063619 -0.059677 -0.065224 0.079879
#
#
# Mechanical properties :
#
#
# Convention : Reuss Voigt Hill
#
# Bulk Modulus (GPa) = 6.15870 51.04891 28.60380
# Shear Modulus (GPa) = 10.87915 33.72312 22.30113
#
# Velocity S-wave (km/s) = 2.15257 3.78987 3.08193
# Velocity P-wave (km/s) = 2.96667 6.39477 4.98469
#
# Compressibility (1/GPa) = 0.16237199
#
# Stress axis : x y z
#
# Youngs Moduli (GPa) = 94.94619 50.28388 8.94598
#
# Poissons Ratio (x) = 0.06280 -0.03088
# Poissons Ratio (y) = 0.11857 -0.07052
# Poissons Ratio (z) = -0.32771 -0.39636
#
# Static dielectric constant tensor:
#      x y z
#    x 4.356580 -0.472010 0.146740 
#    y -0.472010 4.675270 0.586340 
#    z 0.146740 0.586340 4.247240 
# 
# 
# High freq. dielectric constant tensor:
#      x y z
#    x 1.933530 -0.023780 0.021440 
#    y -0.023780 1.938730 0.026070 
#    z 0.021440 0.026070 1.902630 
# 
# From -- ./inp_files/407351.got.cif
#   From: 2010.06.25/outbox.cif.g09.slc.cpg/sg2_204_cif.got.tgz:407351.got - 2010.06.27 13:26:56.
