data_PCOD8042140
_publ_section_title
;
Structure prediction by ZEFSAII (Michael W. Deem and Ramdas Pophale) SiO2 
 PCOD8042140
Probable space group: P -1
;
_chemical_formula_sum "Si O2"
_cell_formula_units_Z 16
_cell_length_a 11.433437
_cell_length_b 12.034572
_cell_length_c 12.724915
_cell_angle_alpha 65.494382
_cell_angle_beta 100.846269
_cell_angle_gamma 45.251539
_cell_volume 757.233479
_symmetry_space_group_name_H-M "P -1"
_symmetry_group_IT_number 2
_symmetry_cell_setting 'triclinic'
loop_
_space_group_symop_operation_xyz
x,y,z
-x,-y,-z
loop_
_atom_site_type_symbol
_atom_site_label
_atom_site_fract_x
_atom_site_fract_y
_atom_site_fract_z
Si Si1 0.108805 0.000755 0.595087
Si Si2 0.669812 0.477252 0.923357
Si Si3 0.216388 0.144510 0.440562
Si Si4 0.960224 0.411471 0.089620
Si Si5 0.023779 0.957223 0.228844
Si Si6 0.013262 0.203841 0.893323
Si Si7 0.336988 0.893074 0.254765
Si Si8 0.671904 0.696796 0.546999
O O1 0.385042 0.709788 0.774604
O O2 0.092576 0.151187 0.486791
O O3 0.000000 0.000000 0.500000
O O4 0.947949 0.144345 0.618686
O O5 0.803009 0.355571 0.880629
O O6 0.700914 0.580796 0.948754
O O7 0.795242 0.253900 0.095776
O O8 0.007766 0.385778 0.231587
O O9 0.291189 0.191552 0.509189
O O10 0.458071 0.872531 0.530318
O O11 0.158606 0.134890 0.198534
O O12 0.000000 0.500000 0.000000
O O13 0.956447 0.928932 0.133865
O O14 0.274436 0.807009 0.302692
O O15 0.925652 0.408201 0.743874
O O16 0.277786 0.978361 0.088351
O O17 0.604238 0.690817 0.425972
#
# Coordination Sequence:
#
# PCOD8042140 Si02
#       8
#     2   2   2   2   2   2   2   2
#     4  12  23  38  56  86 123 155 189 235 294 357
#     4  10  20  36  60  82 114 156 194 242 289 339
#     4  10  20  34  55  88 118 146 195 238 292 342
#     4   9  17  31  56  87 112 141 190 246 293 331
#     4  10  22  38  55  85 119 154 195 237 288 363
#     4  10  19  38  60  87 115 152 198 246 294 339
#     4   9  19  33  54  84 115 145 198 241 285 338
#     4  10  19  34  58  87 113 148 193 250 285 340
#
# _framework density 21.129545
#
# number of rings (size 3 to 8) (size 9 to 14) (size 15 to 20)
#    0.000    2.250    1.250    5.625    3.500    0.500 
#    2.250    0.625    0.000    0.750    0.000    0.000 
#    0.000    0.000    0.000    0.000    0.000    0.000 
#
# Total GULP energy -198250.262850 kJ/mol
# GULP energy per Si atom -12390.641428 kJ/mol
# Density = 2.108145 g / cm^3
# Si number density = 21.129545 Si / 1000 Ang^3
#
#
#
# Elastic Constant Matrix: (Units=GPa)
#
#
# Indices 1 2 3 4 5 6 
#
# 1 114.7747 37.7923 69.0944 15.6318 -10.1092 30.4123
# 2 37.7923 64.6368 36.4864 27.6034 1.7247 23.3347
# 3 69.0944 36.4864 116.2935 31.6379 -9.8675 13.6748
# 4 15.6318 27.6034 31.6379 34.3442 8.1161 4.8638
# 5 -10.1092 1.7247 -9.8675 8.1161 36.6268 2.0013
# 6 30.4123 23.3347 13.6748 4.8638 2.0013 25.8026
#
#
#
# Elastic Compliance Matrix: (Units=1/GPa)
#
#
# Indices 1 2 3 4 5 6 
#
# 1 0.019401 -0.000379 -0.009554 0.002052 0.003333 -0.018106
# 2 -0.000379 0.037674 -0.000402 -0.026979 0.005563 -0.028757
# 3 -0.009554 -0.000402 0.018084 -0.013789 0.005077 0.004245
# 4 0.002052 -0.026979 -0.013789 0.063976 -0.017068 0.018552
# 5 0.003333 0.005563 0.005077 -0.017068 0.033714 -0.011048
# 6 -0.018106 -0.028757 0.004245 0.018552 -0.011048 0.081213
#
#
# Mechanical properties :
#
#
# Convention : Reuss Voigt Hill
#
# Bulk Modulus (GPa) = 18.35206 64.71680 41.53443
# Shear Modulus (GPa) = 17.07094 29.51019 23.29056
#
# Velocity S-wave (km/s) = 2.84547 3.74121 3.32365
# Velocity P-wave (km/s) = 4.41588 7.02547 5.86759
#
# Compressibility (1/GPa) = 0.05448979
#
# Stress axis : x y z
#
# Youngs Moduli (GPa) = 51.54384 26.54335 55.29601
#
# Poissons Ratio (x) = 0.01006 0.52832
# Poissons Ratio (y) = 0.01954 0.02220
# Poissons Ratio (z) = 0.49247 0.01066
#
# Static dielectric constant tensor:
#      x y z
#    x 4.762840 0.938570 0.551930 
#    y 0.938570 3.852990 0.647560 
#    z 0.551930 0.647560 4.690620 
# 
# 
# High freq. dielectric constant tensor:
#      x y z
#    x 1.808810 0.040050 -0.007020 
#    y 0.040050 1.794650 0.020540 
#    z -0.007020 0.020540 1.840870 
# 
# From -- ./inp_files/518854.got.cif
#   From: 2010.06.25/outbox.cif.g09.slc.cpg/sg2_260_cif.got.tgz:518854.got - 2010.06.27 13:26:56.
