data_PCOD8042223
_publ_section_title
;
Structure prediction by ZEFSAII (Michael W. Deem and Ramdas Pophale) SiO2 
 PCOD8042223
Probable space group: P -1
;
_chemical_formula_sum "Si O2"
_cell_formula_units_Z 16
_cell_length_a 11.510211
_cell_length_b 8.881436
_cell_length_c 9.530447
_cell_angle_alpha 94.597801
_cell_angle_beta 121.729557
_cell_angle_gamma 88.891981
_cell_volume 825.690402
_symmetry_space_group_name_H-M "P -1"
_symmetry_group_IT_number 2
_symmetry_cell_setting 'triclinic'
loop_
_space_group_symop_operation_xyz
x,y,z
-x,-y,-z
loop_
_atom_site_type_symbol
_atom_site_label
_atom_site_fract_x
_atom_site_fract_y
_atom_site_fract_z
Si Si1 0.898504 0.353623 0.416744
Si Si2 0.655053 0.630208 0.458340
Si Si3 0.344875 0.476132 0.848028
Si Si4 0.084842 0.163238 0.336588
Si Si5 0.211646 0.489483 0.051265
Si Si6 0.993489 0.733010 0.979736
Si Si7 0.145844 0.833512 0.352757
Si Si8 0.379122 0.653947 0.398235
O O1 0.746469 0.386414 0.261809
O O2 0.887374 0.291001 0.561527
O O3 0.000000 0.500000 0.500000
O O4 0.963451 0.219922 0.359923
O O5 0.646277 0.642391 0.283402
O O6 0.797758 0.708253 0.593314
O O7 0.533379 0.713177 0.469138
O O8 0.641822 0.455609 0.488403
O O9 0.500000 0.500000 0.000000
O O10 0.261195 0.422824 0.928651
O O11 0.027597 0.138288 0.140730
O O12 0.139146 0.004771 0.417897
O O13 0.151784 0.350023 0.091270
O O14 0.336171 0.563572 0.223167
O O15 0.096467 0.613994 0.967613
O O16 0.039348 0.808180 0.158610
O O17 0.295990 0.804700 0.383754
#
# Coordination Sequence:
#
# PCOD8042223 Si02
#       8
#     2   2   2   2   2   2   2   2
#     4  12  23  42  64  91 123 159 209 257 301 364
#     4  11  22  37  63  87 120 157 212 248 302 356
#     4  12  22  36  62  94 120 156 202 264 305 349
#     4  12  23  39  61  92 125 163 199 250 313 371
#     4  10  19  34  60  86 116 149 205 253 300 341
#     4  10  21  36  58  90 117 157 202 251 303 358
#     4  11  24  39  61  90 127 162 197 250 315 369
#     4  10  20  39  59  87 116 158 205 256 292 358
#
# _framework density 19.377724000000001
#
# number of rings (size 3 to 8) (size 9 to 14) (size 15 to 20)
#    0.000    1.000    6.250    1.500    1.750    0.500 
#    0.000    0.000    0.000    0.750    0.000    0.000 
#    0.000    0.000    0.000    0.000    0.000    0.000 
#
# Total GULP energy -198249.795054 kJ/mol
# GULP energy per Si atom -12390.612191 kJ/mol
# Density = 1.933362 g / cm^3
# Si number density = 19.377724 Si / 1000 Ang^3
#
#
#
# Elastic Constant Matrix: (Units=GPa)
#
#
# Indices 1 2 3 4 5 6 
#
# 1 108.8213 35.2391 40.5610 -2.6932 -2.0019 -13.7211
# 2 35.2391 73.1100 16.8170 -6.7761 -3.2379 -19.5494
# 3 40.5610 16.8170 100.1479 -10.2998 -10.6781 -10.1738
# 4 -2.6932 -6.7761 -10.2998 19.8062 -3.1103 -2.1241
# 5 -2.0019 -3.2379 -10.6781 -3.1103 36.4113 -5.6854
# 6 -13.7211 -19.5494 -10.1738 -2.1241 -5.6854 21.7214
#
#
#
# Elastic Compliance Matrix: (Units=1/GPa)
#
#
# Indices 1 2 3 4 5 6 
#
# 1 0.012534 -0.005122 -0.004545 -0.002538 -0.001221 0.000611
# 2 -0.005122 0.022621 0.002321 0.011563 0.006692 0.021093
# 3 -0.004545 0.002321 0.013869 0.009226 0.006094 0.008211
# 4 -0.002538 0.011563 0.009226 0.063288 0.012528 0.022593
# 5 -0.001221 0.006692 0.006094 0.012528 0.033683 0.018148
# 6 0.000611 0.021093 0.008211 0.022593 0.018148 0.076213
#
#
# Mechanical properties :
#
#
# Convention : Reuss Voigt Hill
#
# Bulk Modulus (GPa) = 29.12663 51.92372 40.52518
# Shear Modulus (GPa) = 20.13333 28.21859 24.17596
#
# Velocity S-wave (km/s) = 3.22684 3.82021 3.53599
# Velocity P-wave (km/s) = 5.38024 6.80532 6.13430
#
# Compressibility (1/GPa) = 0.03433284
#
# Stress axis : x y z
#
# Youngs Moduli (GPa) = 79.78350 44.20651 72.10246
#
# Poissons Ratio (x) = 0.22641 0.32773
# Poissons Ratio (y) = 0.40862 -0.16737
# Poissons Ratio (z) = 0.36265 -0.10262
#
# Static dielectric constant tensor:
#      x y z
#    x 3.783190 -0.222360 -0.057910 
#    y -0.222360 3.246610 -0.155750 
#    z -0.057910 -0.155750 3.689490 
# 
# 
# High freq. dielectric constant tensor:
#      x y z
#    x 1.770560 -0.017960 -0.011210 
#    y -0.017960 1.711410 -0.012900 
#    z -0.011210 -0.012900 1.767240 
# 
# From -- ./inp_files/177782.got.cif
#   From: 2010.06.25/outbox.cif.g09.slc.cpg/sg2_89_cif.got.tgz:177782.got - 2010.06.27 13:26:56.
