data_PCOD8042759
_publ_section_title
;
Structure prediction by ZEFSAII (Michael W. Deem and Ramdas Pophale) SiO2 
 PCOD8042759
Probable space group: P -1
;
_chemical_formula_sum "Si O2"
_cell_formula_units_Z 14
_cell_length_a 8.448244
_cell_length_b 17.864755
_cell_length_c 12.056899
_cell_angle_alpha 29.946769
_cell_angle_beta 95.823838
_cell_angle_gamma 77.204382
_cell_volume 706.885507
_symmetry_space_group_name_H-M "P -1"
_symmetry_group_IT_number 2
_symmetry_cell_setting 'triclinic'
loop_
_space_group_symop_operation_xyz
x,y,z
-x,-y,-z
loop_
_atom_site_type_symbol
_atom_site_label
_atom_site_fract_x
_atom_site_fract_y
_atom_site_fract_z
Si Si1 0.776234 0.634523 0.363334
Si Si2 0.989407 0.959800 0.737048
Si Si3 0.049717 0.746039 0.788757
Si Si4 0.627873 0.579859 0.638043
Si Si5 0.606071 0.969095 0.433537
Si Si6 0.564358 0.299612 0.897131
Si Si7 0.649146 0.024404 0.781620
O O1 0.776919 0.568400 0.572224
O O2 0.617906 0.622741 0.300565
O O3 0.000000 0.500000 0.500000
O O4 0.704855 0.848354 0.085902
O O5 0.017183 0.841528 0.783110
O O6 0.898369 0.170667 0.415218
O O7 0.846972 0.971911 0.803023
O O8 0.211761 0.842271 0.962396
O O9 0.842226 0.783337 0.694828
O O10 0.238256 0.522612 0.108528
O O11 0.528648 0.482383 0.715148
O O12 0.440603 0.798420 0.370509
O O13 0.516033 0.923924 0.386989
O O14 0.500000 0.000000 0.500000
O O15 0.570598 0.167595 0.160810
#
# Coordination Sequence:
#
# PCOD8042759 Si02
#       7
#     2   2   2   2   2   2   2
#     4  11  23  42  64  83 110 158 201 235 283 354
#     4   9  17  36  59  82 115 151 197 227 282 349
#     4   9  18  34  57  84 114 158 189 234 278 349
#     4  11  23  38  57  89 124 146 193 245 292 339
#     4  10  19  35  61  85 117 155 199 231 277 353
#     4   9  21  39  61  84 109 156 199 234 280 353
#     4  11  23  37  59  89 119 152 188 252 292 324
#
# _framework density 19.805187
#
# number of rings (size 3 to 8) (size 9 to 14) (size 15 to 20)
#    0.000    2.000    1.429    3.429    2.000    1.143 
#    0.000    7.143    0.000    0.000    0.000    0.000 
#    0.000    0.000    0.000    0.000    0.000    0.000 
#
# Total GULP energy -173555.016873 kJ/mol
# GULP energy per Si atom -12396.786919 kJ/mol
# Density = 1.976011 g / cm^3
# Si number density = 19.805187 Si / 1000 Ang^3
#
#
#
# Elastic Constant Matrix: (Units=GPa)
#
#
# Indices 1 2 3 4 5 6 
#
# 1 132.6341 35.7001 46.9071 0.5910 0.5125 0.6586
# 2 35.7001 47.1069 29.8338 -9.8561 -11.9874 0.2141
# 3 46.9071 29.8338 110.0474 -6.4666 -2.0826 18.7788
# 4 0.5910 -9.8561 -6.4666 31.0268 3.9389 -0.8510
# 5 0.5125 -11.9874 -2.0826 3.9389 35.6673 6.8066
# 6 0.6586 0.2141 18.7788 -0.8510 6.8066 16.1166
#
#
#
# Elastic Compliance Matrix: (Units=1/GPa)
#
#
# Indices 1 2 3 4 5 6 
#
# 1 0.010853 -0.007325 -0.003797 -0.002721 -0.003578 0.005446
# 2 -0.007325 0.035103 -0.006273 0.008819 0.009910 0.003422
# 3 -0.003797 -0.006273 0.015746 0.000525 0.002456 -0.019118
# 4 -0.002721 0.008819 0.000525 0.035395 -0.001212 0.001763
# 5 -0.003578 0.009910 0.002456 -0.001212 0.035079 -0.017726
# 6 0.005446 0.003422 -0.019118 0.001763 -0.017726 0.091635
#
#
# Mechanical properties :
#
#
# Convention : Reuss Voigt Hill
#
# Bulk Modulus (GPa) = 37.15682 57.18560 47.17121
# Shear Modulus (GPa) = 18.68667 28.38529 23.53598
#
# Velocity S-wave (km/s) = 3.07502 3.78990 3.45102
# Velocity P-wave (km/s) = 5.60442 6.93454 6.30466
#
# Compressibility (1/GPa) = 0.02691296
#
# Stress axis : x y z
#
# Youngs Moduli (GPa) = 92.14159 28.48731 63.50967
#
# Poissons Ratio (x) = 0.20866 0.24115
# Poissons Ratio (y) = 0.67491 0.39837
# Poissons Ratio (z) = 0.34987 0.17869
#
# Static dielectric constant tensor:
#      x y z
#    x 3.951520 0.075400 0.046180 
#    y 0.075400 3.183700 0.192470 
#    z 0.046180 0.192470 3.969980 
# 
# 
# High freq. dielectric constant tensor:
#      x y z
#    x 1.786140 -0.004190 -0.003920 
#    y -0.004190 1.732220 0.014970 
#    z -0.003920 0.014970 1.787630 
# 
# From -- ./inp_files/171591.got.cif
#   From: 2010.06.25/outbox.cif.g09.slc.cpg/sg2_86_cif.got.tgz:171591.got - 2010.06.27 13:26:56.
