data_PCOD8042757
_publ_section_title
;
Structure prediction by ZEFSAII (Michael W. Deem and Ramdas Pophale) SiO2 
 PCOD8042757
Probable space group: P -1
;
_chemical_formula_sum "Si O2"
_cell_formula_units_Z 16
_cell_length_a 9.113738
_cell_length_b 11.107164
_cell_length_c 11.942239
_cell_angle_alpha 128.287289
_cell_angle_beta 78.661215
_cell_angle_gamma 123.257777
_cell_volume 774.346852
_symmetry_space_group_name_H-M "P -1"
_symmetry_group_IT_number 2
_symmetry_cell_setting 'triclinic'
loop_
_space_group_symop_operation_xyz
x,y,z
-x,-y,-z
loop_
_atom_site_type_symbol
_atom_site_label
_atom_site_fract_x
_atom_site_fract_y
_atom_site_fract_z
Si Si1 0.731201 0.373994 0.036985
Si Si2 0.968499 0.714204 0.063341
Si Si3 0.453202 0.225966 0.395234
Si Si4 0.250666 0.371518 0.394381
Si Si5 0.422490 0.990744 0.885039
Si Si6 0.080606 0.425370 0.666000
Si Si7 0.012708 0.734202 0.821534
Si Si8 0.896070 0.070074 0.621462
O O1 0.783971 0.528822 0.024922
O O2 0.749783 0.453783 0.206003
O O3 0.864296 0.306136 0.970636
O O4 0.529258 0.200504 0.943385
O O5 0.021619 0.880248 0.236190
O O6 0.941916 0.756772 0.965074
O O7 0.348969 0.266395 0.340675
O O8 0.604970 0.416946 0.540770
O O9 0.551319 0.139773 0.273603
O O10 0.315684 0.088424 0.431992
O O11 0.144143 0.360574 0.515408
O O12 0.113477 0.265721 0.253503
O O13 0.212991 0.910856 0.873650
O O14 0.500000 0.000000 0.000000
O O15 0.002121 0.543224 0.705693
O O16 0.924140 0.248584 0.657142
O O17 0.000000 0.000000 0.500000
#
# Coordination Sequence:
#
# PCOD8042757 Si02
#       8
#     2   2   2   2   2   2   2   2
#     4   9  17  31  57  87 115 145 198 247 279 340
#     4   9  18  34  56  88 115 151 196 240 295 339
#     4  11  23  38  61  87 117 158 204 239 290 363
#     4  11  23  41  56  87 126 158 193 241 305 350
#     4  12  19  35  61  93 114 149 204 244 287 351
#     4  10  19  35  61  85 115 156 194 239 292 344
#     4  11  22  37  63  87 124 156 191 250 296 346
#     4  11  20  36  62  88 115 153 202 243 288 355
#
# _framework density 20.662573999999999
#
# number of rings (size 3 to 8) (size 9 to 14) (size 15 to 20)
#    0.000    1.500    6.250    1.125    0.000    0.000 
#    0.000    4.375    0.000    0.750    0.000    0.000 
#    0.000    0.000    0.000    0.000    0.000    0.000 
#
# Total GULP energy -198405.464848 kJ/mol
# GULP energy per Si atom -12400.341553 kJ/mol
# Density = 2.061555 g / cm^3
# Si number density = 20.662574 Si / 1000 Ang^3
#
#
#
# Elastic Constant Matrix: (Units=GPa)
#
#
# Indices 1 2 3 4 5 6 
#
# 1 41.2755 21.2399 27.8085 -4.1245 21.6471 11.6822
# 2 21.2399 136.1750 37.3359 12.9380 18.3863 24.1404
# 3 27.8085 37.3359 114.6331 -16.1726 8.7334 12.1739
# 4 -4.1245 12.9380 -16.1726 35.9909 7.5090 0.4448
# 5 21.6471 18.3863 8.7334 7.5090 30.4968 6.0191
# 6 11.6822 24.1404 12.1739 0.4448 6.0191 17.1528
#
#
#
# Elastic Compliance Matrix: (Units=1/GPa)
#
#
# Indices 1 2 3 4 5 6 
#
# 1 0.053914 0.001047 -0.007049 0.010248 -0.035242 -0.021088
# 2 0.001047 0.011117 -0.002871 -0.004390 -0.002942 -0.013175
# 3 -0.007049 -0.002871 0.011995 0.005176 0.002135 -0.000555
# 4 0.010248 -0.004390 0.005176 0.035981 -0.014936 -0.000166
# 5 -0.035242 -0.002942 0.002135 -0.014936 0.061579 0.005407
# 6 -0.021088 -0.013175 -0.000555 -0.000166 0.005407 0.089705
#
#
# Mechanical properties :
#
#
# Convention : Reuss Voigt Hill
#
# Bulk Modulus (GPa) = 16.86941 51.65025 34.25983
# Shear Modulus (GPa) = 16.56738 30.44140 23.50439
#
# Velocity S-wave (km/s) = 2.83469 3.84247 3.37639
# Velocity P-wave (km/s) = 4.34694 6.68860 5.64063
#
# Compressibility (1/GPa) = 0.05927891
#
# Stress axis : x y z
#
# Youngs Moduli (GPa) = 18.54821 89.94984 83.36732
#
# Poissons Ratio (x) = -0.09415 0.58769
# Poissons Ratio (y) = -0.01941 0.23933
# Poissons Ratio (z) = 0.13075 0.25823
#
# Static dielectric constant tensor:
#      x y z
#    x 3.223380 0.155930 -0.165180 
#    y 0.155930 4.406510 0.074980 
#    z -0.165180 0.074980 3.918490 
# 
# 
# High freq. dielectric constant tensor:
#      x y z
#    x 1.752930 0.012390 -0.020230 
#    y 0.012390 1.830780 0.007300 
#    z -0.020230 0.007300 1.811960 
# 
# From -- ./inp_files/391046.got.cif
#   From: 2010.06.25/outbox.cif.g09.slc.cpg/sg2_196_cif.got.tgz:391046.got - 2010.06.27 13:26:56.
