data_PCOD8042524
_publ_section_title
;
Structure prediction by ZEFSAII (Michael W. Deem and Ramdas Pophale) SiO2 
 PCOD8042524
Probable space group: P -1
;
_chemical_formula_sum "Si O2"
_cell_formula_units_Z 16
_cell_length_a 11.578004
_cell_length_b 13.865871
_cell_length_c 14.181695
_cell_angle_alpha 41.880330
_cell_angle_beta 53.682879
_cell_angle_gamma 32.319488
_cell_volume 808.225792
_symmetry_space_group_name_H-M "P -1"
_symmetry_group_IT_number 2
_symmetry_cell_setting 'triclinic'
loop_
_space_group_symop_operation_xyz
x,y,z
-x,-y,-z
loop_
_atom_site_type_symbol
_atom_site_label
_atom_site_fract_x
_atom_site_fract_y
_atom_site_fract_z
Si Si1 0.006591 0.181806 0.588068
Si Si2 0.194774 0.466487 0.429668
Si Si3 0.508631 0.160457 0.350049
Si Si4 0.110003 0.980714 0.367416
Si Si5 0.505543 0.133353 0.678462
Si Si6 0.310315 0.301480 0.149199
Si Si7 0.135362 0.543920 0.885935
Si Si8 0.874599 0.529974 0.256661
O O1 0.891498 0.316017 0.644676
O O2 0.980783 0.333062 0.418385
O O3 0.258937 0.952309 0.649690
O O4 0.889384 0.132124 0.636936
O O5 0.305181 0.400488 0.321345
O O6 0.394787 0.251225 0.547706
O O7 0.000000 0.500000 0.500000
O O8 0.486380 0.200862 0.218271
O O9 0.500000 0.000000 0.500000
O O10 0.997046 0.209523 0.216038
O O11 0.358674 0.829364 0.382123
O O12 0.000000 0.000000 0.500000
O O13 0.321959 0.235726 0.770010
O O14 0.665665 0.878489 0.772505
O O15 0.066101 0.498331 0.165579
O O16 0.325331 0.398740 0.980817
O O17 0.222955 0.472359 0.788377
O O18 0.000000 0.500000 0.000000
#
# Coordination Sequence:
#
# PCOD8042524 Si02
#       8
#     2   2   2   2   2   2   2   2
#     4  11  22  36  57  89 121 152 196 251 298 344
#     4  11  20  33  56  89 120 148 202 253 288 342
#     4  12  19  35  62  83 116 159 201 244 295 344
#     4  12  22  40  62  87 129 159 191 249 304 362
#     4  11  21  34  61  90 120 158 192 240 311 353
#     4  11  20  38  59  88 120 155 200 250 290 351
#     4  10  21  40  61  85 124 160 195 245 297 356
#     4  10  19  35  57  89 121 148 195 242 299 352
#
# _framework density 19.796447000000001
#
# number of rings (size 3 to 8) (size 9 to 14) (size 15 to 20)
#    0.000    1.000    7.500    1.500    0.000    2.500 
#    2.250    0.625    0.000    0.750    0.000    0.000 
#    0.000    0.000    0.000    0.000    0.000    0.000 
#
# Total GULP energy -198321.671318 kJ/mol
# GULP energy per Si atom -12395.104457 kJ/mol
# Density = 1.975139 g / cm^3
# Si number density = 19.796447 Si / 1000 Ang^3
#
#
#
# Elastic Constant Matrix: (Units=GPa)
#
#
# Indices 1 2 3 4 5 6 
#
# 1 125.0004 39.5071 30.5554 -6.3081 14.8322 3.1693
# 2 39.5071 107.2883 14.0314 4.9969 0.5572 7.8212
# 3 30.5554 14.0314 62.1917 -11.4793 18.6810 -1.2415
# 4 -6.3081 4.9969 -11.4793 17.0461 3.9892 4.1404
# 5 14.8322 0.5572 18.6810 3.9892 37.5060 -4.0868
# 6 3.1693 7.8212 -1.2415 4.1404 -4.0868 39.4709
#
#
#
# Elastic Compliance Matrix: (Units=1/GPa)
#
#
# Indices 1 2 3 4 5 6 
#
# 1 0.010393 -0.003604 -0.002524 0.004230 -0.003357 -0.000991
# 2 -0.003604 0.011482 -0.003317 -0.007553 0.003609 -0.000924
# 3 -0.002524 -0.003317 0.026461 0.021808 -0.014682 -0.002116
# 4 0.004230 -0.007553 0.021808 0.084657 -0.022447 -0.009361
# 5 -0.003357 0.003609 -0.014682 -0.022447 0.038226 0.005405
# 6 -0.000991 -0.000924 -0.002116 -0.009361 0.005405 0.027073
#
#
# Mechanical properties :
#
#
# Convention : Reuss Voigt Hill
#
# Bulk Modulus (GPa) = 33.95942 51.40758 42.68350
# Shear Modulus (GPa) = 22.02682 32.83036 27.42859
#
# Velocity S-wave (km/s) = 3.33928 4.07676 3.72631
# Velocity P-wave (km/s) = 5.66209 6.94150 6.33418
#
# Compressibility (1/GPa) = 0.02944691
#
# Stress axis : x y z
#
# Youngs Moduli (GPa) = 96.21899 87.09232 37.79184
#
# Poissons Ratio (x) = 0.31391 0.09537
# Poissons Ratio (y) = 0.34680 0.12534
# Poissons Ratio (z) = 0.24282 0.28885
#
# Static dielectric constant tensor:
#      x y z
#    x 3.883760 0.194950 0.481400 
#    y 0.194950 3.712350 0.012540 
#    z 0.481400 0.012540 3.599180 
# 
# 
# High freq. dielectric constant tensor:
#      x y z
#    x 1.775360 0.010210 0.035870 
#    y 0.010210 1.773000 -0.006770 
#    z 0.035870 -0.006770 1.734480 
# 
# From -- ./inp_files/465837.got.cif
#   From: 2010.06.25/outbox.cif.g09.slc.cpg/sg2_233_cif.got.tgz:465837.got - 2010.06.27 13:26:56.
