data_PCOD8042681
_publ_section_title
;
Structure prediction by ZEFSAII (Michael W. Deem and Ramdas Pophale) SiO2 
 PCOD8042681
Probable space group: P -1
;
_chemical_formula_sum "Si O2"
_cell_formula_units_Z 16
_cell_length_a 23.847854
_cell_length_b 8.696431
_cell_length_c 13.853300
_cell_angle_alpha 57.167799
_cell_angle_beta 159.146394
_cell_angle_gamma 123.400352
_cell_volume 850.108210
_symmetry_space_group_name_H-M "P -1"
_symmetry_group_IT_number 2
_symmetry_cell_setting 'triclinic'
loop_
_space_group_symop_operation_xyz
x,y,z
-x,-y,-z
loop_
_atom_site_type_symbol
_atom_site_label
_atom_site_fract_x
_atom_site_fract_y
_atom_site_fract_z
Si Si1 0.840597 0.553484 0.180974
Si Si2 0.402539 0.165022 0.798075
Si Si3 0.092526 0.237672 0.974200
Si Si4 0.557573 0.559201 0.866928
Si Si5 0.555390 0.863704 0.918246
Si Si6 0.229564 0.969465 0.418902
Si Si7 0.398035 0.731535 0.205266
Si Si8 0.647448 0.503465 0.609280
O O1 0.872404 0.720642 0.097092
O O2 0.000000 0.500000 0.500000
O O3 0.719723 0.607741 0.049465
O O4 0.764767 0.369452 0.066768
O O5 0.530385 0.348756 0.930057
O O6 0.265612 0.129254 0.507058
O O7 0.335814 0.156972 0.804064
O O8 0.500000 0.000000 0.000000
O O9 0.904208 0.194379 0.702276
O O10 0.168148 0.416664 0.100055
O O11 0.170654 0.060041 0.195670
O O12 0.569894 0.692790 0.931712
O O13 0.396797 0.579613 0.539482
O O14 0.375232 0.862944 0.663843
O O15 0.612303 0.052149 0.888053
O O16 0.548413 0.678045 0.405256
O O17 0.418206 0.666509 0.368937
#
# Coordination Sequence:
#
# PCOD8042681 Si02
#       8
#     2   2   2   2   2   2   2   2
#     4  10  22  36  60  82 111 146 195 233 275 332
#     4  10  20  37  61  81 108 151 195 232 268 331
#     4  10  19  35  60  85 107 145 199 230 268 325
#     4  11  22  37  57  87 115 146 184 236 288 332
#     4  11  22  35  58  87 118 145 185 232 291 334
#     4  10  20  35  61  83 111 146 195 230 272 334
#     4   9  18  34  57  81 107 148 192 230 268 328
#     4   9  16  35  57  79 111 143 194 230 261 330
#
# _framework density 18.821133
#
# number of rings (size 3 to 8) (size 9 to 14) (size 15 to 20)
#    0.000    2.000    2.500    3.375    5.250    0.500 
#    0.000    1.250    0.000    0.000    0.000    0.000 
#    0.000    0.000    0.000    0.000    0.000    0.000 
#
# Total GULP energy -198267.676653 kJ/mol
# GULP energy per Si atom -12391.729791 kJ/mol
# Density = 1.877830 g / cm^3
# Si number density = 18.821133 Si / 1000 Ang^3
#
#
#
# Elastic Constant Matrix: (Units=GPa)
#
#
# Indices 1 2 3 4 5 6 
#
# 1 106.7231 63.4338 42.8603 0.6927 -18.1706 -1.7714
# 2 63.4338 111.4910 34.3766 4.6804 -4.7852 8.9803
# 3 42.8603 34.3766 83.3803 8.6353 -9.6810 0.4911
# 4 0.6927 4.6804 8.6353 24.5309 8.3769 -3.9596
# 5 -18.1706 -4.7852 -9.6810 8.3769 30.0241 4.9368
# 6 -1.7714 8.9803 0.4911 -3.9596 4.9368 31.2992
#
#
#
# Elastic Compliance Matrix: (Units=1/GPa)
#
#
# Indices 1 2 3 4 5 6 
#
# 1 0.017566 -0.008434 -0.004822 0.000782 0.007108 0.002467
# 2 -0.008434 0.014663 -0.001706 -0.002019 -0.001998 -0.004598
# 3 -0.004822 -0.001706 0.016420 -0.007062 0.004341 -0.001619
# 4 0.000782 -0.002019 -0.007062 0.051439 -0.018139 0.010103
# 5 0.007108 -0.001998 0.004341 -0.018139 0.045149 -0.008509
# 6 0.002467 -0.004598 -0.001619 0.010103 -0.008509 0.036054
#
#
# Mechanical properties :
#
#
# Convention : Reuss Voigt Hill
#
# Bulk Modulus (GPa) = 53.40476 64.77063 59.08769
# Shear Modulus (GPa) = 22.99298 27.89908 25.44603
#
# Velocity S-wave (km/s) = 3.49901 3.85428 3.68093
# Velocity P-wave (km/s) = 6.69034 7.36857 7.03763
#
# Compressibility (1/GPa) = 0.01872492
#
# Stress axis : x y z
#
# Youngs Moduli (GPa) = 56.92957 68.19833 60.89962
#
# Poissons Ratio (x) = 0.57516 0.29368
# Poissons Ratio (y) = 0.48012 0.10390
# Poissons Ratio (z) = 0.27454 0.11635
#
# Static dielectric constant tensor:
#      x y z
#    x 3.697400 0.295840 -0.515620 
#    y 0.295840 3.479830 0.328800 
#    z -0.515620 0.328800 3.735080 
# 
# 
# High freq. dielectric constant tensor:
#      x y z
#    x 1.715410 0.035560 -0.036100 
#    y 0.035560 1.725400 0.012530 
#    z -0.036100 0.012530 1.724030 
# 
# From -- ./inp_files/269550.got.cif
#   From: 2010.06.25/outbox.cif.g09.slc.cpg/sg2_135_cif.got.tgz:269550.got - 2010.06.27 13:26:56.
