data_PCOD8042115
_publ_section_title
;
Structure prediction by ZEFSAII (Michael W. Deem and Ramdas Pophale) SiO2 
 PCOD8042115
Probable space group: P -1
;
_chemical_formula_sum "Si O2"
_cell_formula_units_Z 16
_cell_length_a 15.646367
_cell_length_b 9.868070
_cell_length_c 11.385382
_cell_angle_alpha 102.217793
_cell_angle_beta 119.440102
_cell_angle_gamma 35.993140
_cell_volume 838.141116
_symmetry_space_group_name_H-M "P -1"
_symmetry_group_IT_number 2
_symmetry_cell_setting 'triclinic'
loop_
_space_group_symop_operation_xyz
x,y,z
-x,-y,-z
loop_
_atom_site_type_symbol
_atom_site_label
_atom_site_fract_x
_atom_site_fract_y
_atom_site_fract_z
Si Si1 0.562361 0.466035 0.791156
Si Si2 0.050873 0.771658 0.619439
Si Si3 0.196461 0.893740 0.685379
Si Si4 0.307955 0.886841 0.997084
Si Si5 0.118617 0.946443 0.217703
Si Si6 0.391703 0.238336 0.834351
Si Si7 0.039709 0.745725 0.059818
Si Si8 0.380002 0.278674 0.104807
O O1 0.361084 0.656061 0.670619
O O2 0.679824 0.268912 0.727954
O O3 0.566194 0.626368 0.826611
O O4 0.631581 0.326270 0.937805
O O5 0.116503 0.852086 0.681590
O O6 0.215714 0.475782 0.685752
O O7 0.947825 0.857704 0.445440
O O8 0.916021 0.922044 0.665264
O O9 0.272072 0.906381 0.838801
O O10 0.456073 0.828662 0.101648
O O11 0.124840 0.149285 0.982563
O O12 0.078911 0.829010 0.189614
O O13 0.988200 0.155900 0.069302
O O14 0.463413 0.004862 0.798151
O O15 0.337489 0.295528 0.943924
O O16 0.209197 0.448733 0.102558
#
# Coordination Sequence:
#
# PCOD8042115 Si02
#       8
#     2   2   2   2   2   2   2   2
#     4  10  19  34  58  82 104 134 184 220 260 310
#     4  11  21  35  51  81 115 135 173 219 272 308
#     4  11  21  32  54  82 107 141 174 219 262 317
#     4  11  19  33  59  82 105 135 181 223 256 307
#     4   9  17  30  52  79 108 135 167 226 267 300
#     4  11  21  34  55  80 111 137 174 224 259 314
#     4   9  17  30  53  80 104 134 176 218 265 305
#     4  10  20  33  55  81 107 138 175 218 268 308
#
# _framework density 19.089862
#
# number of rings (size 3 to 8) (size 9 to 14) (size 15 to 20)
#    0.000    1.750    5.000    1.875    0.000    1.000 
#    0.000    0.625    0.000    0.750    0.000    0.000 
#    0.000    0.000    0.000    0.000    0.000    0.000 
#
# Total GULP energy -198332.497296 kJ/mol
# GULP energy per Si atom -12395.781081 kJ/mol
# Density = 1.904641 g / cm^3
# Si number density = 19.089862 Si / 1000 Ang^3
#
#
#
# Elastic Constant Matrix: (Units=GPa)
#
#
# Indices 1 2 3 4 5 6 
#
# 1 72.2951 48.0626 28.8282 -6.7907 0.3679 -19.1295
# 2 48.0626 132.5389 44.2176 -22.9308 -9.7828 -17.3736
# 3 28.8282 44.2176 65.4725 -25.1429 -4.5196 -3.0487
# 4 -6.7907 -22.9308 -25.1429 25.5028 2.0854 5.3300
# 5 0.3679 -9.7828 -4.5196 2.0854 15.4007 -8.1752
# 6 -19.1295 -17.3736 -3.0487 5.3300 -8.1752 32.0809
#
#
#
# Elastic Compliance Matrix: (Units=1/GPa)
#
#
# Indices 1 2 3 4 5 6 
#
# 1 0.023922 -0.005400 -0.010760 -0.011810 0.001108 0.012562
# 2 -0.005400 0.012865 -0.003606 0.004783 0.009229 0.004962
# 3 -0.010760 -0.003606 0.032805 0.028571 -0.001830 -0.010465
# 4 -0.011810 0.004783 0.028571 0.072246 -0.006211 -0.015322
# 5 0.001108 0.009229 -0.001830 -0.006211 0.086191 0.028481
# 6 0.012562 0.004962 -0.010465 -0.015322 0.028481 0.050158
#
#
# Mechanical properties :
#
#
# Convention : Reuss Voigt Hill
#
# Bulk Modulus (GPa) = 33.26623 56.94703 45.10663
# Shear Modulus (GPa) = 15.25604 24.54341 19.89973
#
# Velocity S-wave (km/s) = 2.83003 3.58953 3.23216
# Velocity P-wave (km/s) = 5.30497 6.86115 6.13262
#
# Compressibility (1/GPa) = 0.03006051
#
# Stress axis : x y z
#
# Youngs Moduli (GPa) = 41.80326 77.72803 30.48290
#
# Poissons Ratio (x) = 0.41971 0.32799
# Poissons Ratio (y) = 0.22573 0.10993
# Poissons Ratio (z) = 0.44980 0.28031
#
# Static dielectric constant tensor:
#      x y z
#    x 3.544980 -0.353330 -0.032080 
#    y -0.353330 3.649270 -0.298800 
#    z -0.032080 -0.298800 3.153220 
# 
# 
# High freq. dielectric constant tensor:
#      x y z
#    x 1.740120 -0.032740 -0.003200 
#    y -0.032740 1.738520 -0.021000 
#    z -0.003200 -0.021000 1.702090 
# 
# From -- ./inp_files/254165.got.cif
#   From: 2010.06.25/outbox.cif.g09.slc.cpg/sg2_128_cif.got.tgz:254165.got - 2010.06.27 13:26:56.
