data_PCOD8042290
_publ_section_title
;
Structure prediction by ZEFSAII (Michael W. Deem and Ramdas Pophale) SiO2 
 PCOD8042290
Probable space group: P -1
;
_chemical_formula_sum "Si O2"
_cell_formula_units_Z 14
_cell_length_a 9.758206
_cell_length_b 9.594786
_cell_length_c 8.432548
_cell_angle_alpha 112.675480
_cell_angle_beta 113.139985
_cell_angle_gamma 75.827652
_cell_volume 665.818988
_symmetry_space_group_name_H-M "P -1"
_symmetry_group_IT_number 2
_symmetry_cell_setting 'triclinic'
loop_
_space_group_symop_operation_xyz
x,y,z
-x,-y,-z
loop_
_atom_site_type_symbol
_atom_site_label
_atom_site_fract_x
_atom_site_fract_y
_atom_site_fract_z
Si Si1 0.861270 0.070374 0.748289
Si Si2 0.830457 0.771484 0.429548
Si Si3 0.253434 0.344212 0.334777
Si Si4 0.550372 0.202995 0.270828
Si Si5 0.838146 0.313080 0.589857
Si Si6 0.183899 0.053283 0.011732
Si Si7 0.398565 0.124040 0.876766
O O1 0.829686 0.233670 0.723044
O O2 0.809354 0.946343 0.549965
O O3 0.776476 0.066776 0.877961
O O4 0.035111 0.020834 0.839370
O O5 0.783740 0.660535 0.497147
O O6 0.712150 0.761159 0.227612
O O7 0.998454 0.722719 0.427503
O O8 0.431599 0.310030 0.369832
O O9 0.195100 0.509090 0.314552
O O10 0.162570 0.224120 0.148566
O O11 0.714958 0.254461 0.390842
O O12 0.531785 0.029591 0.250184
O O13 0.508963 0.220694 0.070366
O O14 0.313499 0.034460 0.934499
#
# Coordination Sequence:
#
# PCOD8042290 Si02
#       7
#     2   2   2   2   2   2   2
#     4  10  19  34  62  88 115 144 202 246 284 329
#     4  11  21  39  65  89 111 156 203 243 282 344
#     4  10  24  39  58  85 129 155 189 231 305 357
#     4  10  22  39  61  85 120 157 191 243 294 345
#     4  12  21  38  64  89 117 155 196 243 289 348
#     4   9  19  37  56  90 116 149 191 248 286 339
#     4  10  19  39  63  85 117 152 200 243 291 337
#
# _framework density 21.026737000000001
#
# number of rings (size 3 to 8) (size 9 to 14) (size 15 to 20)
#    0.000    1.714    2.857    2.143    0.000    1.143 
#    5.143    0.714    0.000    0.000    0.000    0.000 
#    0.000    0.000    0.000    0.000    0.000    0.000 
#
# Total GULP energy -173524.417824 kJ/mol
# GULP energy per Si atom -12394.601273 kJ/mol
# Density = 2.097888 g / cm^3
# Si number density = 21.026737 Si / 1000 Ang^3
#
#
#
# Elastic Constant Matrix: (Units=GPa)
#
#
# Indices 1 2 3 4 5 6 
#
# 1 37.8462 36.0771 23.3627 -14.9385 -5.2738 -6.3537
# 2 36.0771 134.5600 36.6771 -22.0020 -15.5388 9.4087
# 3 23.3627 36.6771 96.5136 -25.9145 13.0802 1.9010
# 4 -14.9385 -22.0020 -25.9145 23.5192 -0.7788 3.7598
# 5 -5.2738 -15.5388 13.0802 -0.7788 35.6957 -4.5584
# 6 -6.3537 9.4087 1.9010 3.7598 -4.5584 24.4313
#
#
#
# Elastic Compliance Matrix: (Units=1/GPa)
#
#
# Indices 1 2 3 4 5 6 
#
# 1 0.047723 -0.009352 -0.005889 0.012781 0.007446 0.015893
# 2 -0.009352 0.012033 -0.001253 0.005190 0.003520 -0.007110
# 3 -0.005889 -0.001253 0.017604 0.015218 -0.008341 -0.006317
# 4 0.012781 0.005190 0.015218 0.074054 -0.001281 -0.011495
# 5 0.007446 0.003520 -0.008341 -0.001281 0.034684 0.007898
# 6 0.015893 -0.007110 -0.006317 -0.011495 0.007898 0.051537
#
#
# Mechanical properties :
#
#
# Convention : Reuss Voigt Hill
#
# Bulk Modulus (GPa) = 22.53607 51.23927 36.88767
# Shear Modulus (GPa) = 17.51861 28.24945 22.88403
#
# Velocity S-wave (km/s) = 2.88958 3.66936 3.30256
# Velocity P-wave (km/s) = 4.67696 6.50951 5.66779
#
# Compressibility (1/GPa) = 0.04437331
#
# Stress axis : x y z
#
# Youngs Moduli (GPa) = 20.95437 83.10784 56.80646
#
# Poissons Ratio (x) = 0.77718 0.33452
# Poissons Ratio (y) = 0.19595 0.07115
# Poissons Ratio (z) = 0.12340 0.10409
#
# Static dielectric constant tensor:
#      x y z
#    x 3.888840 0.041950 0.034270 
#    y 0.041950 3.579670 -0.114380 
#    z 0.034270 -0.114380 3.926800 
# 
# 
# High freq. dielectric constant tensor:
#      x y z
#    x 1.825510 -0.008430 0.007290 
#    y -0.008430 1.800220 -0.012030 
#    z 0.007290 -0.012030 1.827570 
# 
# From -- ./inp_files/159908.got.cif
#   From: 2010.06.25/outbox.cif.g09.slc.cpg/sg2_80_cif.got.tgz:159908.got - 2010.06.27 13:26:56.
