data_PCOD8042772
_publ_section_title
;
Structure prediction by ZEFSAII (Michael W. Deem and Ramdas Pophale) SiO2 
 PCOD8042772
Probable space group: P -1
;
_chemical_formula_sum "Si O2"
_cell_formula_units_Z 16
_cell_length_a 9.631698
_cell_length_b 13.905484
_cell_length_c 8.779206
_cell_angle_alpha 87.058427
_cell_angle_beta 107.225485
_cell_angle_gamma 48.987956
_cell_volume 796.710191
_symmetry_space_group_name_H-M "P -1"
_symmetry_group_IT_number 2
_symmetry_cell_setting 'triclinic'
loop_
_space_group_symop_operation_xyz
x,y,z
-x,-y,-z
loop_
_atom_site_type_symbol
_atom_site_label
_atom_site_fract_x
_atom_site_fract_y
_atom_site_fract_z
Si Si1 0.606587 0.388857 0.255571
Si Si2 0.052064 0.177580 0.887790
Si Si3 0.692128 0.312132 0.961455
Si Si4 0.600928 0.642322 0.582782
Si Si5 0.733760 0.785037 0.546844
Si Si6 0.089934 0.641773 0.450277
Si Si7 0.219279 0.861280 0.243148
Si Si8 0.314889 0.027663 0.247300
O O1 0.512235 0.534245 0.160299
O O2 0.432338 0.399064 0.266304
O O3 0.776955 0.331934 0.443030
O O4 0.709811 0.290198 0.150602
O O5 0.885207 0.281300 0.957061
O O6 0.044919 0.258207 0.743935
O O7 0.995235 0.097031 0.809457
O O8 0.272222 0.078911 0.053453
O O9 0.684925 0.210216 0.886781
O O10 0.681437 0.713128 0.630616
O O11 0.762441 0.512913 0.539313
O O12 0.377996 0.749203 0.427654
O O13 0.765300 0.856051 0.670023
O O14 0.939377 0.671992 0.528267
O O15 0.553830 0.894744 0.359545
O O16 0.180318 0.993315 0.233750
#
# Coordination Sequence:
#
# PCOD8042772 Si02
#       8
#     2   2   2   2   2   2   2   2
#     4  11  18  34  61  90 124 139 192 233 296 349
#     4  10  19  35  61  88 114 148 192 241 287 333
#     4   9  19  31  57  96 115 148 175 249 291 334
#     4  11  19  39  60  89 121 149 185 236 292 354
#     4  10  25  39  60  80 118 160 195 234 283 339
#     4  12  20  37  60  92 114 153 187 239 295 345
#     4   9  18  36  62  87 113 150 187 241 286 331
#     4  10  21  43  58  74 118 163 197 233 281 336
#
# _framework density 20.082585999999999
#
# number of rings (size 3 to 8) (size 9 to 14) (size 15 to 20)
#    0.750    1.000    3.750    1.875    0.000    0.500 
#    0.000    7.500    0.000    0.000    0.000    0.000 
#    0.000    0.000    0.000    0.000    0.000    0.000 
#
# Total GULP energy -198290.230784 kJ/mol
# GULP energy per Si atom -12393.139424 kJ/mol
# Density = 2.003688 g / cm^3
# Si number density = 20.082586 Si / 1000 Ang^3
#
#
#
# Elastic Constant Matrix: (Units=GPa)
#
#
# Indices 1 2 3 4 5 6 
#
# 1 85.1119 39.5769 31.3395 10.7665 -2.0899 7.7802
# 2 39.5769 59.5982 30.3749 18.6835 -6.7680 16.0678
# 3 31.3395 30.3749 85.9742 -5.5776 -0.4590 20.0587
# 4 10.7665 18.6835 -5.5776 29.0802 -2.4656 1.3175
# 5 -2.0899 -6.7680 -0.4590 -2.4656 23.3649 5.9421
# 6 7.7802 16.0678 20.0587 1.3175 5.9421 28.9049
#
#
#
# Elastic Compliance Matrix: (Units=1/GPa)
#
#
# Indices 1 2 3 4 5 6 
#
# 1 0.018035 -0.011670 -0.003607 -0.000351 -0.003093 0.004788
# 2 -0.011670 0.041058 -0.007931 -0.021816 0.012392 -0.015732
# 3 -0.003607 -0.007931 0.018282 0.010371 0.000857 -0.007956
# 4 -0.000351 -0.021816 0.010371 0.050246 -0.001625 0.003069
# 5 -0.003093 0.012392 0.000857 -0.001625 0.050258 -0.016909
# 6 0.004788 -0.015732 -0.007956 0.003069 -0.016909 0.050910
#
#
# Mechanical properties :
#
#
# Convention : Reuss Voigt Hill
#
# Bulk Modulus (GPa) = 32.30072 48.14077 40.22074
# Shear Modulus (GPa) = 17.51162 24.89621 21.20392
#
# Velocity S-wave (km/s) = 2.95613 3.52475 3.25289
# Velocity P-wave (km/s) = 5.26977 6.37091 5.84633
#
# Compressibility (1/GPa) = 0.03095907
#
# Stress axis : x y z
#
# Youngs Moduli (GPa) = 55.44871 24.35551 54.69865
#
# Poissons Ratio (x) = 0.28422 0.19732
# Poissons Ratio (y) = 0.64707 0.43381
# Poissons Ratio (z) = 0.20002 0.19316
#
# Static dielectric constant tensor:
#      x y z
#    x 3.352930 0.082950 0.115170 
#    y 0.082950 3.502880 -0.016960 
#    z 0.115170 -0.016960 3.693880 
# 
# 
# High freq. dielectric constant tensor:
#      x y z
#    x 1.756750 0.006560 0.006850 
#    y 0.006560 1.774250 -0.006820 
#    z 0.006850 -0.006820 1.787410 
# 
# From -- ./inp_files/206990.got.cif
#   From: 2010.06.25/outbox.cif.g09.slc.cpg/sg2_104_cif.got.tgz:206990.got - 2010.06.27 13:26:56.
