data_PCOD8042703
_publ_section_title
;
Structure prediction by ZEFSAII (Michael W. Deem and Ramdas Pophale) SiO2 
 PCOD8042703
Probable space group: P -1
;
_chemical_formula_sum "Si O2"
_cell_formula_units_Z 14
_cell_length_a 8.500721
_cell_length_b 13.258029
_cell_length_c 8.354419
_cell_angle_alpha 60.139356
_cell_angle_beta 66.856817
_cell_angle_gamma 46.571712
_cell_volume 591.088186
_symmetry_space_group_name_H-M "P -1"
_symmetry_group_IT_number 2
_symmetry_cell_setting 'triclinic'
loop_
_space_group_symop_operation_xyz
x,y,z
-x,-y,-z
loop_
_atom_site_type_symbol
_atom_site_label
_atom_site_fract_x
_atom_site_fract_y
_atom_site_fract_z
Si Si1 0.990136 0.748173 0.919722
Si Si2 0.997483 0.418090 0.218394
Si Si3 0.325678 0.271353 0.775643
Si Si4 0.401646 0.253229 0.412806
Si Si5 0.267807 0.792680 0.181494
Si Si6 0.657757 0.463473 0.821506
Si Si7 0.156282 0.930656 0.777870
O O1 0.064522 0.679389 0.764139
O O2 0.029830 0.868333 0.817071
O O3 0.746669 0.803175 0.015605
O O4 0.108975 0.629051 0.112354
O O5 0.229584 0.302426 0.302142
O O6 0.820040 0.548397 0.304200
O O7 0.000000 0.500000 0.000000
O O8 0.330143 0.220511 0.631594
O O9 0.569015 0.206508 0.772291
O O10 0.412463 0.385624 0.344358
O O11 0.645385 0.110122 0.380879
O O12 0.346647 0.628094 0.247989
O O13 0.260281 0.863439 0.961075
O O14 0.027428 0.892183 0.279971
O O15 0.500000 0.500000 0.000000
#
# Coordination Sequence:
#
# PCOD8042703 Si02
#       7
#     2   2   2   2   2   2   2
#     4  10  20  36  62  87 117 152 201 238 290 341
#     4  10  19  35  60  88 116 154 192 246 284 347
#     4  11  23  35  58  93 126 150 185 254 300 347
#     4  12  22  37  62  91 123 150 194 242 306 338
#     4  10  22  40  62  86 119 156 202 235 291 345
#     4  11  19  36  64  92 112 152 199 250 276 351
#     4  10  22  41  64  85 111 164 203 239 274 359
#
# _framework density 23.685129
#
# number of rings (size 3 to 8) (size 9 to 14) (size 15 to 20)
#    0.000    1.429    5.714    3.000    0.000    1.714 
#    0.000    1.429    0.000    8.571    0.000    0.000 
#    0.000    0.000    0.000    0.000    0.000    0.000 
#
# Total GULP energy -173509.925379 kJ/mol
# GULP energy per Si atom -12393.566099 kJ/mol
# Density = 2.363122 g / cm^3
# Si number density = 23.685129 Si / 1000 Ang^3
#
#
#
# Elastic Constant Matrix: (Units=GPa)
#
#
# Indices 1 2 3 4 5 6 
#
# 1 85.1913 13.8666 20.8460 5.5170 27.1813 -7.4410
# 2 13.8666 96.5216 15.5017 31.3505 1.1292 -7.3010
# 3 20.8460 15.5017 57.0614 29.8515 12.8920 2.8012
# 4 5.5170 31.3505 29.8515 30.7308 1.7349 -2.7715
# 5 27.1813 1.1292 12.8920 1.7349 27.7895 4.7548
# 6 -7.4410 -7.3010 2.8012 -2.7715 4.7548 28.0325
#
#
#
# Elastic Compliance Matrix: (Units=1/GPa)
#
#
# Indices 1 2 3 4 5 6 
#
# 1 0.020277 -0.003940 -0.007806 0.009822 -0.018239 0.009201
# 2 -0.003940 0.018891 0.012613 -0.030799 -0.000792 -0.000297
# 3 -0.007806 0.012613 0.053141 -0.063145 -0.012172 -0.008276
# 4 0.009822 -0.030799 -0.063145 0.123912 0.011281 0.011233
# 5 -0.018239 -0.000792 -0.012172 0.011281 0.061035 -0.013069
# 6 0.009201 -0.000297 -0.008276 0.011233 -0.013069 0.042192
#
#
# Mechanical properties :
#
#
# Convention : Reuss Voigt Hill
#
# Bulk Modulus (GPa) = 10.63357 37.68920 24.16139
# Shear Modulus (GPa) = 14.32412 29.88123 22.10268
#
# Velocity S-wave (km/s) = 2.46188 3.55576 3.05813
# Velocity P-wave (km/s) = 3.54689 5.72757 4.76369
#
# Compressibility (1/GPa) = 0.09404181
#
# Stress axis : x y z
#
# Youngs Moduli (GPa) = 49.31772 52.93505 18.81793
#
# Poissons Ratio (x) = 0.20857 0.14690
# Poissons Ratio (y) = 0.19432 -0.23735
# Poissons Ratio (z) = 0.38499 -0.66767
#
# Static dielectric constant tensor:
#      x y z
#    x 3.911520 0.586000 -0.346440 
#    y 0.586000 4.218910 0.916920 
#    z -0.346440 0.916920 3.206700 
# 
# 
# High freq. dielectric constant tensor:
#      x y z
#    x 1.942980 -0.005900 0.017180 
#    y -0.005900 1.933200 0.025180 
#    z 0.017180 0.025180 1.904740 
# 
# From -- ./inp_files/200718.got.cif
#   From: 2010.06.25/outbox.cif.g09.slc.cpg/sg2_101_cif.got.tgz:200718.got - 2010.06.27 13:26:56.
