data_PCOD8042138
_publ_section_title
;
Structure prediction by ZEFSAII (Michael W. Deem and Ramdas Pophale) SiO2 
 PCOD8042138
Probable space group: P -1
;
_chemical_formula_sum "Si O2"
_cell_formula_units_Z 16
_cell_length_a 17.773197
_cell_length_b 9.609557
_cell_length_c 11.642142
_cell_angle_alpha 62.233416
_cell_angle_beta 146.739215
_cell_angle_gamma 92.959539
_cell_volume 692.584695
_symmetry_space_group_name_H-M "P -1"
_symmetry_group_IT_number 2
_symmetry_cell_setting 'triclinic'
loop_
_space_group_symop_operation_xyz
x,y,z
-x,-y,-z
loop_
_atom_site_type_symbol
_atom_site_label
_atom_site_fract_x
_atom_site_fract_y
_atom_site_fract_z
Si Si1 0.599374 0.553655 0.426770
Si Si2 0.290397 0.208702 0.615129
Si Si3 0.778318 0.739914 0.245417
Si Si4 0.187941 0.769983 0.779915
Si Si5 0.712467 0.118856 0.695282
Si Si6 0.031192 0.727162 0.399764
Si Si7 0.661083 0.932056 0.503548
Si Si8 0.645797 0.628883 0.708058
O O1 0.712389 0.604424 0.491841
O O2 0.700443 0.316377 0.599393
O O3 0.613834 0.550599 0.583776
O O4 0.372401 0.735485 0.039010
O O5 0.164158 0.273450 0.542071
O O6 0.223462 0.160483 0.435801
O O7 0.500000 0.000000 0.000000
O O8 0.886689 0.777332 0.291749
O O9 0.831771 0.517729 0.375670
O O10 0.555046 0.938928 0.856858
O O11 0.160186 0.756552 0.614551
O O12 0.216971 0.579306 0.953756
O O13 0.000000 0.000000 0.500000
O O14 0.682662 0.077124 0.543558
O O15 0.552302 0.178903 0.552788
O O16 0.919170 0.897527 0.086886
O O17 0.737306 0.726492 0.759209
#
# Coordination Sequence:
#
# PCOD8042138 Si02
#       8
#     2   2   2   2   2   2   2   2
#     4  10  21  39  62  87 119 165 200 245 294 361
#     4   9  21  41  65  83 116 160 212 242 284 359
#     4  10  21  39  61  86 122 154 200 249 296 350
#     4  11  22  33  56  92 125 151 191 247 313 349
#     4  11  20  35  60  92 121 153 203 246 301 352
#     4  11  23  35  60  94 126 149 188 256 315 343
#     4  10  20  36  62  88 114 161 206 241 289 355
#     4  10  19  34  58  86 122 156 201 241 293 358
#
# _framework density 23.101866999999999
#
# number of rings (size 3 to 8) (size 9 to 14) (size 15 to 20)
#    0.000    1.750    1.250    4.875    7.000    0.000 
#    0.000    6.875    0.000    0.000    0.000    0.000 
#    0.000    0.000    0.000    0.000    0.000    0.000 
#
# Total GULP energy -198366.736271 kJ/mol
# GULP energy per Si atom -12397.921017 kJ/mol
# Density = 2.304929 g / cm^3
# Si number density = 23.101867 Si / 1000 Ang^3
#
#
#
# Elastic Constant Matrix: (Units=GPa)
#
#
# Indices 1 2 3 4 5 6 
#
# 1 58.3879 22.7504 1.4752 6.1112 -20.4217 -22.0381
# 2 22.7504 132.4102 11.3859 12.9889 -17.6867 -24.3662
# 3 1.4752 11.3859 70.2772 -0.6617 -14.6321 -1.3915
# 4 6.1112 12.9889 -0.6617 39.1183 -5.5587 -12.7649
# 5 -20.4217 -17.6867 -14.6321 -5.5587 24.6809 5.4018
# 6 -22.0381 -24.3662 -1.3915 -12.7649 5.4018 28.8980
#
#
#
# Elastic Compliance Matrix: (Units=1/GPa)
#
#
# Indices 1 2 3 4 5 6 
#
# 1 0.036368 0.001538 0.005915 0.006942 0.030422 0.026696
# 2 0.001538 0.009636 -0.000107 0.000124 0.006356 0.008159
# 3 0.005915 -0.000107 0.017322 0.002719 0.014896 0.003671
# 4 0.006942 0.000124 0.002719 0.031735 0.010754 0.017537
# 5 0.030422 0.006356 0.014896 0.010754 0.077208 0.019595
# 6 0.026696 0.008159 0.003671 0.017537 0.019595 0.066103
#
#
# Mechanical properties :
#
#
# Convention : Reuss Voigt Hill
#
# Bulk Modulus (GPa) = 12.81757 36.92203 24.86980
# Shear Modulus (GPa) = 20.02512 33.57038 26.79775
#
# Velocity S-wave (km/s) = 2.94737 3.81615 3.40955
# Velocity P-wave (km/s) = 4.14041 5.95267 5.12725
#
# Compressibility (1/GPa) = 0.07801789
#
# Stress axis : x y z
#
# Youngs Moduli (GPa) = 27.49658 103.78274 57.72902
#
# Poissons Ratio (x) = -0.15961 -0.34149
# Poissons Ratio (y) = -0.04229 0.00619
# Poissons Ratio (z) = -0.16265 0.01113
#
# Static dielectric constant tensor:
#      x y z
#    x 3.786270 -0.464520 -0.211460 
#    y -0.464520 4.272270 -0.003740 
#    z -0.211460 -0.003740 4.086530 
# 
# 
# High freq. dielectric constant tensor:
#      x y z
#    x 1.887390 -0.017190 -0.021090 
#    y -0.017190 1.924490 -0.008810 
#    z -0.021090 -0.008810 1.912340 
# 
# From -- ./inp_files/263525.got.cif
#   From: 2010.06.25/outbox.cif.g09.slc.cpg/sg2_132_cif.got.tgz:263525.got - 2010.06.27 13:26:56.
