data_PCOD8042449
_publ_section_title
;
Structure prediction by ZEFSAII (Michael W. Deem and Ramdas Pophale) SiO2 
 PCOD8042449
Probable space group: P -1
;
_chemical_formula_sum "Si O2"
_cell_formula_units_Z 12
_cell_length_a 15.905442
_cell_length_b 12.126522
_cell_length_c 12.214817
_cell_angle_alpha 143.486559
_cell_angle_beta 142.935744
_cell_angle_gamma 26.058054
_cell_volume 589.232469
_symmetry_space_group_name_H-M "P -1"
_symmetry_group_IT_number 2
_symmetry_cell_setting 'triclinic'
loop_
_space_group_symop_operation_xyz
x,y,z
-x,-y,-z
loop_
_atom_site_type_symbol
_atom_site_label
_atom_site_fract_x
_atom_site_fract_y
_atom_site_fract_z
Si Si1 0.691957 0.400678 0.059732
Si Si2 0.771951 0.612276 0.773915
Si Si3 0.912002 0.060008 0.811399
Si Si4 0.471662 0.214670 0.983715
Si Si5 0.095450 0.540048 0.974025
Si Si6 0.522473 0.422709 0.586417
O O1 0.500000 0.500000 0.000000
O O2 0.791003 0.166575 0.886364
O O3 0.618509 0.658429 0.129791
O O4 0.881090 0.256231 0.223854
O O5 0.626716 0.602611 0.558591
O O6 0.938100 0.520547 0.785562
O O7 0.874834 0.430237 0.843962
O O8 0.662305 0.905324 0.928793
O O9 0.752535 0.137285 0.617563
O O10 0.974037 0.212881 0.968069
O O11 0.530706 0.353942 0.212573
O O12 0.305195 0.267889 0.925676
O O13 0.500000 0.500000 0.500000
#
# Coordination Sequence:
#
# PCOD8042449 Si02
#       6
#     2   2   2   2   2   2
#     4   9  17  33  58  78 102 145 189 221 263 321
#     4  11  19  35  56  79 114 146 175 224 269 330
#     4   9  18  34  55  79 110 143 179 226 270 315
#     4  10  21  36  57  80 109 146 182 222 275 319
#     4   9  19  32  53  81 109 143 182 214 272 325
#     4  10  19  35  56  83 114 144 177 223 277 324
#
# _framework density 20.365475
#
# number of rings (size 3 to 8) (size 9 to 14) (size 15 to 20)
#    0.000    2.667    3.333    1.500    0.000    0.000 
#    0.000   10.833    0.000   32.000    0.000    0.000 
#    0.000    0.000    0.000    0.000    0.000    0.000 
#
# Total GULP energy -148679.749928 kJ/mol
# GULP energy per Si atom -12389.979161 kJ/mol
# Density = 2.031912 g / cm^3
# Si number density = 20.365475 Si / 1000 Ang^3
#
#
#
# Elastic Constant Matrix: (Units=GPa)
#
#
# Indices 1 2 3 4 5 6 
#
# 1 135.0693 38.3056 38.9969 -20.2741 22.6492 -16.3275
# 2 38.3056 95.9036 48.0406 -21.7585 3.9163 -4.4737
# 3 38.9969 48.0406 91.0274 -23.0148 26.9777 -3.8601
# 4 -20.2741 -21.7585 -23.0148 35.9460 -6.6242 1.8571
# 5 22.6492 3.9163 26.9777 -6.6242 30.6127 -12.7364
# 6 -16.3275 -4.4737 -3.8601 1.8571 -12.7364 35.2837
#
#
#
# Elastic Compliance Matrix: (Units=1/GPa)
#
#
# Indices 1 2 3 4 5 6 
#
# 1 0.009823 -0.002783 -0.000545 0.002476 -0.004978 0.002206
# 2 -0.002783 0.017197 -0.009892 0.004349 0.010995 0.003550
# 3 -0.000545 -0.009892 0.023692 0.005380 -0.020842 -0.006721
# 4 0.002476 0.004349 0.005380 0.035410 0.000833 0.000723
# 5 -0.004978 0.010995 -0.020842 0.000833 0.061361 0.018916
# 6 0.002206 0.003550 -0.006721 0.000723 0.018916 0.035867
#
#
# Mechanical properties :
#
#
# Convention : Reuss Voigt Hill
#
# Bulk Modulus (GPa) = 41.19765 63.63182 52.41473
# Shear Modulus (GPa) = 22.94835 33.47895 28.21365
#
# Velocity S-wave (km/s) = 3.36047 4.05891 3.72609
# Velocity P-wave (km/s) = 5.94391 7.29926 6.65617
#
# Compressibility (1/GPa) = 0.02427323
#
# Stress axis : x y z
#
# Youngs Moduli (GPa) = 101.80056 58.14892 42.20804
#
# Poissons Ratio (x) = 0.16181 0.02300
# Poissons Ratio (y) = 0.28328 0.41753
# Poissons Ratio (z) = 0.05546 0.57522
#
# Static dielectric constant tensor:
#      x y z
#    x 3.923000 0.065510 0.089220 
#    y 0.065510 3.975800 -0.522300 
#    z 0.089220 -0.522300 3.451970 
# 
# 
# High freq. dielectric constant tensor:
#      x y z
#    x 1.809310 0.004300 0.009130 
#    y 0.004300 1.803020 -0.032100 
#    z 0.009130 -0.032100 1.740010 
# 
# From -- ./inp_files/160916.got.cif
#   From: 2010.06.25/outbox.cif.g09.slc.cpg/sg2_81_cif.got.tgz:160916.got - 2010.06.27 13:26:56.
