data_PCOD8042963
_publ_section_title
;
Structure prediction by ZEFSAII (Michael W. Deem and Ramdas Pophale) SiO2 
 PCOD8042963
Probable space group: P -1
;
_chemical_formula_sum "Si O2"
_cell_formula_units_Z 14
_cell_length_a 10.381211
_cell_length_b 8.095906
_cell_length_c 19.865577
_cell_angle_alpha 144.553284
_cell_angle_beta 42.837546
_cell_angle_gamma 120.322619
_cell_volume 639.983424
_symmetry_space_group_name_H-M "P -1"
_symmetry_group_IT_number 2
_symmetry_cell_setting 'triclinic'
loop_
_space_group_symop_operation_xyz
x,y,z
-x,-y,-z
loop_
_atom_site_type_symbol
_atom_site_label
_atom_site_fract_x
_atom_site_fract_y
_atom_site_fract_z
Si Si1 0.292935 0.474737 0.647923
Si Si2 0.295828 0.339405 0.873563
Si Si3 0.003725 0.982479 0.071828
Si Si4 0.939697 0.391797 0.416812
Si Si5 0.281051 0.978115 0.074151
Si Si6 0.401691 0.187146 0.377151
Si Si7 0.291312 0.121084 0.653240
O O1 0.130166 0.710359 0.747481
O O2 0.389551 0.224724 0.475263
O O3 0.466327 0.630555 0.652878
O O4 0.194011 0.366748 0.716237
O O5 0.315060 0.278186 0.766114
O O6 0.090379 0.278236 0.954347
O O7 0.483073 0.155444 0.783980
O O8 0.273863 0.676219 0.013592
O O9 0.216283 0.951421 0.012335
O O10 0.000000 0.000000 0.000000
O O11 0.813984 0.696122 0.532482
O O12 0.000000 0.500000 0.500000
O O13 0.822910 0.135400 0.381026
O O14 0.139874 0.258184 0.255942
O O15 0.500000 0.000000 0.000000
O O16 0.500000 0.000000 0.500000
#
# Coordination Sequence:
#
# PCOD8042963 Si02
#       7
#     2   2   2   2   2   2   2
#     4  10  19  35  69 102 127 170 229 295 337 399
#     4  11  24  44  74 104 137 181 239 301 347 426
#     4  11  23  43  72 101 139 185 244 291 352 421
#     4  12  27  46  68 101 145 189 232 289 360 430
#     4  12  28  48  68 103 153 189 233 297 364 419
#     4  10  19  42  65  99 134 171 230 288 339 415
#     4  12  21  39  75 106 135 175 242 289 354 421
#
# _framework density 21.875568000000001
#
# number of rings (size 3 to 8) (size 9 to 14) (size 15 to 20)
#    0.000    0.857    5.714    2.143    4.000    2.286 
#    2.571    2.857    0.000    0.000    0.000    0.000 
#    0.000    0.000    0.000    0.000    0.000    0.000 
#
# Total GULP energy -173470.964461 kJ/mol
# GULP energy per Si atom -12390.783176 kJ/mol
# Density = 2.182578 g / cm^3
# Si number density = 21.875568 Si / 1000 Ang^3
#
#
#
# Elastic Constant Matrix: (Units=GPa)
#
#
# Indices 1 2 3 4 5 6 
#
# 1 140.4457 49.0230 57.2048 3.2150 -24.6416 0.4640
# 2 49.0230 84.3755 17.0326 -12.4576 -1.1119 -5.4377
# 3 57.2048 17.0326 74.8978 -5.0263 -6.8391 5.0227
# 4 3.2150 -12.4576 -5.0263 39.8354 -4.0225 -3.4293
# 5 -24.6416 -1.1119 -6.8391 -4.0225 33.4565 -6.7781
# 6 0.4640 -5.4377 5.0227 -3.4293 -6.7781 34.7858
#
#
#
# Elastic Compliance Matrix: (Units=1/GPa)
#
#
# Indices 1 2 3 4 5 6 
#
# 1 0.015096 -0.007202 -0.009427 -0.003653 0.008794 0.001387
# 2 -0.007202 0.016687 0.001645 0.005891 -0.003214 0.002422
# 3 -0.009427 0.001645 0.020322 0.003306 -0.002902 -0.002791
# 4 -0.003653 0.005891 0.003306 0.028214 0.002329 0.003727
# 5 0.008794 -0.003214 -0.002902 0.002329 0.037430 0.007322
# 6 0.001387 0.002422 -0.002791 0.003727 0.007322 0.031305
#
#
# Mechanical properties :
#
#
# Convention : Reuss Voigt Hill
#
# Bulk Modulus (GPa) = 45.17294 60.69330 52.93312
# Shear Modulus (GPa) = 26.82416 33.37945 30.10180
#
# Velocity S-wave (km/s) = 3.50554 3.91049 3.71353
# Velocity P-wave (km/s) = 6.08932 6.94221 6.52970
#
# Compressibility (1/GPa) = 0.02213715
#
# Stress axis : x y z
#
# Youngs Moduli (GPa) = 66.24445 59.92516 49.20889
#
# Poissons Ratio (x) = 0.43156 0.46389
# Poissons Ratio (y) = 0.47707 -0.08095
# Poissons Ratio (z) = 0.62449 -0.09857
#
# Static dielectric constant tensor:
#      x y z
#    x 4.359560 -0.894260 -0.531130 
#    y -0.894260 5.030870 0.130030 
#    z -0.531130 0.130030 4.435600 
# 
# 
# High freq. dielectric constant tensor:
#      x y z
#    x 1.854270 -0.028140 -0.029240 
#    y -0.028140 1.844080 -0.003640 
#    z -0.029240 -0.003640 1.875490 
# 
# From -- ./inp_files/213113.got.cif
#   From: 2010.06.25/outbox.cif.g09.slc.cpg/sg2_107_cif.got.tgz:213113.got - 2010.06.27 13:26:56.
