data_PCOD8042023
_publ_section_title
;
Structure prediction by ZEFSAII (Michael W. Deem and Ramdas Pophale) SiO2 
 PCOD8042023
Probable space group: P -1
;
_chemical_formula_sum "Si O2"
_cell_formula_units_Z 14
_cell_length_a 9.936203
_cell_length_b 18.569933
_cell_length_c 11.828429
_cell_angle_alpha 132.929036
_cell_angle_beta 48.093627
_cell_angle_gamma 153.123520
_cell_volume 710.295249
_symmetry_space_group_name_H-M "P -1"
_symmetry_group_IT_number 2
_symmetry_cell_setting 'triclinic'
loop_
_space_group_symop_operation_xyz
x,y,z
-x,-y,-z
loop_
_atom_site_type_symbol
_atom_site_label
_atom_site_fract_x
_atom_site_fract_y
_atom_site_fract_z
Si Si1 0.216114 0.848166 0.650640
Si Si2 0.777992 0.367461 0.839311
Si Si3 0.645353 0.830436 0.700078
Si Si4 0.719469 0.518959 0.457058
Si Si5 0.449218 0.010175 0.167484
Si Si6 0.783563 0.286699 0.991184
Si Si7 0.714314 0.952611 0.346108
O O1 0.518742 0.928983 0.519616
O O2 0.908590 0.652057 0.594370
O O3 0.260473 0.879704 0.794808
O O4 0.184986 0.939049 0.702732
O O5 0.481595 0.226668 0.777747
O O6 0.044940 0.411638 0.696445
O O7 0.898773 0.532731 0.944430
O O8 0.695823 0.301814 0.941458
O O9 0.466120 0.654274 0.572460
O O10 0.496561 0.808578 0.873017
O O11 0.637925 0.912429 0.695543
O O12 0.994072 0.958919 0.659461
O O13 0.500000 0.500000 0.500000
O O14 0.190134 0.820340 0.153754
O O15 0.500000 0.000000 0.000000
#
# Coordination Sequence:
#
# PCOD8042023 Si02
#       7
#     2   2   2   2   2   2   2
#     4  10  20  35  58  78 115 144 176 228 279 318
#     4   9  18  33  55  80 106 142 180 228 276 309
#     4  10  21  34  55  83 112 141 185 220 269 333
#     4  10  19  34  56  85 110 134 186 234 270 318
#     4  10  21  38  53  78 114 153 177 216 276 332
#     4   9  18  35  54  75 109 150 178 222 268 321
#     4  10  19  34  56  87 105 138 187 232 271 315
#
# _framework density 19.710113
#
# number of rings (size 3 to 8) (size 9 to 14) (size 15 to 20)
#    0.000    2.286    2.857    0.000    0.000    1.714 
#    0.000    0.714    0.000    0.000    0.000    0.000 
#    0.000    0.000    0.000    0.000    0.000    0.000 
#
# Total GULP energy -173493.070452 kJ/mol
# GULP energy per Si atom -12392.362175 kJ/mol
# Density = 1.966525 g / cm^3
# Si number density = 19.710113 Si / 1000 Ang^3
#
#
#
# Elastic Constant Matrix: (Units=GPa)
#
#
# Indices 1 2 3 4 5 6 
#
# 1 103.1100 53.6745 28.8073 22.4166 -5.4509 1.8121
# 2 53.6745 139.6071 39.6328 42.5431 -12.7364 5.1142
# 3 28.8073 39.6328 46.4794 30.0761 7.7065 -0.2371
# 4 22.4166 42.5431 30.0761 40.8374 -2.3954 -3.2588
# 5 -5.4509 -12.7364 7.7065 -2.3954 33.3031 10.3302
# 6 1.8121 5.1142 -0.2371 -3.2588 10.3302 28.4820
#
#
#
# Elastic Compliance Matrix: (Units=1/GPa)
#
#
# Indices 1 2 3 4 5 6 
#
# 1 0.013151 -0.003184 -0.006588 0.001020 0.002925 -0.001264
# 2 -0.003184 0.013187 -0.005052 -0.008318 0.006843 -0.005641
# 3 -0.006588 -0.005052 0.053148 -0.030974 -0.019139 0.005167
# 4 0.001020 -0.008318 -0.030974 0.056207 0.006578 0.005216
# 5 0.002925 0.006843 -0.019139 0.006578 0.043132 -0.016465
# 6 -0.001264 -0.005641 0.005167 0.005216 -0.016465 0.042815
#
#
# Mechanical properties :
#
#
# Convention : Reuss Voigt Hill
#
# Bulk Modulus (GPa) = 20.06432 59.26949 39.66691
# Shear Modulus (GPa) = 18.66364 31.66328 25.16346
#
# Velocity S-wave (km/s) = 3.08052 4.01240 3.57694
# Velocity P-wave (km/s) = 4.78065 7.18343 6.10149
#
# Compressibility (1/GPa) = 0.04983971
#
# Stress axis : x y z
#
# Youngs Moduli (GPa) = 76.03822 75.83262 18.81529
#
# Poissons Ratio (x) = 0.24144 0.12395
# Poissons Ratio (y) = 0.24209 0.09505
# Poissons Ratio (z) = 0.50092 0.38310
#
# Static dielectric constant tensor:
#      x y z
#    x 3.599470 -0.302310 -0.093550 
#    y -0.302310 4.004380 0.508000 
#    z -0.093550 0.508000 3.647630 
# 
# 
# High freq. dielectric constant tensor:
#      x y z
#    x 1.747260 -0.009790 0.005340 
#    y -0.009790 1.775750 0.029840 
#    z 0.005340 0.029840 1.757500 
# 
# From -- ./inp_files/153792.got.cif
#   From: 2010.06.25/outbox.cif.g09.slc.cpg/sg2_77_cif.got.tgz:153792.got - 2010.06.27 13:26:56.
