data_PCOD8042497
_publ_section_title
;
Structure prediction by ZEFSAII (Michael W. Deem and Ramdas Pophale) SiO2 
 PCOD8042497
Probable space group: P -1
;
_chemical_formula_sum "Si O2"
_cell_formula_units_Z 16
_cell_length_a 14.442676
_cell_length_b 14.965055
_cell_length_c 9.383936
_cell_angle_alpha 140.708478
_cell_angle_beta 52.223728
_cell_angle_gamma 148.626692
_cell_volume 661.484811
_symmetry_space_group_name_H-M "P -1"
_symmetry_group_IT_number 2
_symmetry_cell_setting 'triclinic'
loop_
_space_group_symop_operation_xyz
x,y,z
-x,-y,-z
loop_
_atom_site_type_symbol
_atom_site_label
_atom_site_fract_x
_atom_site_fract_y
_atom_site_fract_z
Si Si1 0.950157 0.134579 0.810131
Si Si2 0.739947 0.677053 0.456314
Si Si3 0.971099 0.461965 0.148689
Si Si4 0.635085 0.124159 0.655950
Si Si5 0.503479 0.285465 0.010998
Si Si6 0.153627 0.366385 0.424805
Si Si7 0.259862 0.074077 0.734953
Si Si8 0.246817 0.368601 0.033228
O O1 0.089161 0.242350 0.680871
O O2 0.771055 0.873371 0.647886
O O3 0.878491 0.228927 0.988804
O O4 0.047418 0.183857 0.926699
O O5 0.732902 0.624769 0.561786
O O6 0.549688 0.452007 0.286443
O O7 0.158862 0.642054 0.281222
O O8 0.837576 0.461849 0.326681
O O9 0.000000 0.500000 0.000000
O O10 0.552345 0.174414 0.896346
O O11 0.500000 0.000000 0.500000
O O12 0.652833 0.975354 0.502667
O O13 0.306814 0.110489 0.907439
O O14 0.627959 0.419246 0.918768
O O15 0.246122 0.436667 0.272604
O O16 0.953032 0.124035 0.313692
O O17 0.324581 0.279478 0.856992
#
# Coordination Sequence:
#
# PCOD8042497 Si02
#       8
#     2   2   2   2   2   2   2   2
#     4  10  20  34  56  80 117 144 192 229 284 330
#     4  10  19  35  57  82 112 152 185 238 280 334
#     4  11  19  35  57  86 108 148 191 235 277 343
#     4   9  18  33  54  82 109 143 186 234 275 326
#     4  10  20  39  59  83 113 152 196 234 277 343
#     4  11  22  35  60  87 115 146 192 237 288 331
#     4  10  21  35  58  85 112 153 192 230 283 346
#     4  11  21  37  56  85 120 147 186 243 287 328
#
# _framework density 24.188009999999998
#
# number of rings (size 3 to 8) (size 9 to 14) (size 15 to 20)
#    0.000    1.750    5.000    0.750    0.000    0.500 
#    0.000    0.625    0.000    0.000    0.000   13.125 
#    0.000    0.000    0.000    0.000    0.000    0.000 
#
# Total GULP energy -198240.947981 kJ/mol
# GULP energy per Si atom -12390.059249 kJ/mol
# Density = 2.413296 g / cm^3
# Si number density = 24.188010 Si / 1000 Ang^3
#
#
#
# Elastic Constant Matrix: (Units=GPa)
#
#
# Indices 1 2 3 4 5 6 
#
# 1 112.3328 22.9070 61.1416 9.9492 -10.1363 -15.7238
# 2 22.9070 33.2471 26.6302 5.9819 4.6236 -6.4592
# 3 61.1416 26.6302 159.9323 19.0636 -10.0437 -23.1989
# 4 9.9492 5.9819 19.0636 35.7566 -11.0706 9.2807
# 5 -10.1363 4.6236 -10.0437 -11.0706 57.3074 12.0955
# 6 -15.7238 -6.4592 -23.1989 9.2807 12.0955 23.2913
#
#
#
# Elastic Compliance Matrix: (Units=1/GPa)
#
#
# Indices 1 2 3 4 5 6 
#
# 1 0.012414 -0.005091 -0.003000 -0.001869 0.000811 0.004304
# 2 -0.005091 0.041940 -0.001819 -0.012208 -0.010484 0.016691
# 3 -0.003000 -0.001819 0.010404 -0.008635 -0.002929 0.012795
# 4 -0.001869 -0.012208 -0.008635 0.052149 0.018416 -0.043592
# 5 0.000811 -0.010484 -0.002929 0.018416 0.027118 -0.026698
# 6 0.004304 0.016691 0.012795 -0.043592 -0.026698 0.094448
#
#
# Mechanical properties :
#
#
# Convention : Reuss Voigt Hill
#
# Bulk Modulus (GPa) = 22.25300 58.54108 40.39704
# Shear Modulus (GPa) = 18.29671 36.25995 27.27833
#
# Velocity S-wave (km/s) = 2.75332 3.87601 3.36186
# Velocity P-wave (km/s) = 4.39633 6.65479 5.63977
#
# Compressibility (1/GPa) = 0.04493776
#
# Stress axis : x y z
#
# Youngs Moduli (GPa) = 80.55122 23.84375 96.11807
#
# Poissons Ratio (x) = 0.12138 0.28838
# Poissons Ratio (y) = 0.41005 0.17487
# Poissons Ratio (z) = 0.24168 0.04338
#
# Static dielectric constant tensor:
#      x y z
#    x 4.618040 -0.012590 -0.091090 
#    y -0.012590 3.818370 0.386030 
#    z -0.091090 0.386030 4.980350 
# 
# 
# High freq. dielectric constant tensor:
#      x y z
#    x 1.969470 0.005890 -0.007050 
#    y 0.005890 1.907800 0.028750 
#    z -0.007050 0.028750 1.981350 
# 
# From -- ./inp_files/260547.got.cif
#   From: 2010.06.25/outbox.cif.g09.slc.cpg/sg2_131_cif.got.tgz:260547.got - 2010.06.27 13:26:56.
