data_PCOD8042203
_publ_section_title
;
Structure prediction by ZEFSAII (Michael W. Deem and Ramdas Pophale) SiO2 
 PCOD8042203
Probable space group: P -1
;
_chemical_formula_sum "Si O2"
_cell_formula_units_Z 16
_cell_length_a 16.808398
_cell_length_b 12.529265
_cell_length_c 10.319684
_cell_angle_alpha 69.740349
_cell_angle_beta 136.480702
_cell_angle_gamma 143.345980
_cell_volume 732.304269
_symmetry_space_group_name_H-M "P -1"
_symmetry_group_IT_number 2
_symmetry_cell_setting 'triclinic'
loop_
_space_group_symop_operation_xyz
x,y,z
-x,-y,-z
loop_
_atom_site_type_symbol
_atom_site_label
_atom_site_fract_x
_atom_site_fract_y
_atom_site_fract_z
Si Si1 0.084369 0.400303 0.933167
Si Si2 0.473089 0.380076 0.415348
Si Si3 0.275509 0.203077 0.997549
Si Si4 0.033832 0.228866 0.689815
Si Si5 0.276715 0.540474 0.625638
Si Si6 0.441836 0.143553 0.657989
Si Si7 0.357696 0.856860 0.519761
Si Si8 0.934362 0.722089 0.754244
O O1 0.043343 0.263353 0.840585
O O2 0.904233 0.348005 0.727514
O O3 0.328255 0.651406 0.079469
O O4 0.061894 0.342561 0.079273
O O5 0.500000 0.500000 0.500000
O O6 0.447928 0.233930 0.505634
O O7 0.701312 0.590235 0.520704
O O8 0.272791 0.222061 0.142560
O O9 0.156898 0.216250 0.796718
O O10 0.527819 0.391295 0.172070
O O11 0.135789 0.977962 0.880124
O O12 0.148855 0.425317 0.659859
O O13 0.769808 0.001656 0.440872
O O14 0.398723 0.764172 0.658559
O O15 0.082872 0.369134 0.357826
O O16 0.433053 0.007125 0.656161
O O17 0.500000 0.000000 0.500000
#
# Coordination Sequence:
#
# PCOD8042203 Si02
#       8
#     2   2   2   2   2   2   2   2
#     4  10  22  40  65  93 120 157 202 251 305 359
#     4  10  19  34  59  93 123 151 199 256 298 352
#     4  11  21  38  63  87 122 167 205 248 306 361
#     4  11  24  41  60  88 127 163 201 250 306 367
#     4  11  26  41  58  91 126 160 205 254 302 360
#     4  10  22  38  61  93 124 160 203 248 306 362
#     4  11  22  41  66  90 123 158 202 256 303 360
#     4  10  21  37  59  89 118 153 205 249 297 356
#
# _framework density 21.848841
#
# number of rings (size 3 to 8) (size 9 to 14) (size 15 to 20)
#    0.000    1.500    0.000    7.125    0.000    9.000 
#    0.000    1.250    0.000    0.000    0.000    0.000 
#    0.000    0.000    0.000    0.000    0.000    0.000 
#
# Total GULP energy -198221.604195 kJ/mol
# GULP energy per Si atom -12388.850262 kJ/mol
# Density = 2.179911 g / cm^3
# Si number density = 21.848841 Si / 1000 Ang^3
#
#
#
# Elastic Constant Matrix: (Units=GPa)
#
#
# Indices 1 2 3 4 5 6 
#
# 1 76.3869 30.5557 34.5500 1.2953 11.3565 -1.5012
# 2 30.5557 89.4237 35.3623 13.8768 5.9920 1.0119
# 3 34.5500 35.3623 88.4718 21.9324 20.8158 1.9370
# 4 1.2953 13.8768 21.9324 31.7703 -0.8248 2.7422
# 5 11.3565 5.9920 20.8158 -0.8248 41.2199 7.0821
# 6 -1.5012 1.0119 1.9370 2.7422 7.0821 38.7289
#
#
#
# Elastic Compliance Matrix: (Units=1/GPa)
#
#
# Indices 1 2 3 4 5 6 
#
# 1 0.017779 -0.004360 -0.006295 0.005414 -0.001139 0.000943
# 2 -0.004360 0.014536 -0.003323 -0.003837 0.000731 -0.000245
# 3 -0.006295 -0.003323 0.020151 -0.012531 -0.008426 0.001263
# 4 0.005414 -0.003837 -0.012531 0.042042 0.006799 -0.003283
# 5 -0.001139 0.000731 -0.008426 0.006799 0.029817 -0.005576
# 6 0.000943 -0.000245 0.001263 -0.003283 -0.005576 0.027052
#
#
# Mechanical properties :
#
#
# Convention : Reuss Voigt Hill
#
# Bulk Modulus (GPa) = 40.80051 50.57982 45.69016
# Shear Modulus (GPa) = 26.66639 32.59811 29.63225
#
# Velocity S-wave (km/s) = 3.49735 3.86681 3.68671
# Velocity P-wave (km/s) = 5.91803 6.56783 6.25138
#
# Compressibility (1/GPa) = 0.02450950
#
# Stress axis : x y z
#
# Youngs Moduli (GPa) = 56.24710 68.79605 49.62568
#
# Poissons Ratio (x) = 0.29996 0.31240
# Poissons Ratio (y) = 0.24524 0.16489
# Poissons Ratio (z) = 0.35408 0.22859
#
# Static dielectric constant tensor:
#      x y z
#    x 3.772350 -0.078950 0.207060 
#    y -0.078950 3.832010 0.363660 
#    z 0.207060 0.363660 4.202340 
# 
# 
# High freq. dielectric constant tensor:
#      x y z
#    x 1.852630 -0.003460 0.009220 
#    y -0.003460 1.845720 0.019670 
#    z 0.009220 0.019670 1.863560 
# 
# From -- ./inp_files/454828.got.cif
#   From: 2010.06.25/outbox.cif.g09.slc.cpg/sg2_228_cif.got.tgz:454828.got - 2010.06.27 13:26:56.
