data_PCOD8042074
_publ_section_title
;
Structure prediction by ZEFSAII (Michael W. Deem and Ramdas Pophale) SiO2 
 PCOD8042074
Probable space group: P -1
;
_chemical_formula_sum "Si O2"
_cell_formula_units_Z 16
_cell_length_a 14.460348
_cell_length_b 13.165933
_cell_length_c 14.519103
_cell_angle_alpha 150.184573
_cell_angle_beta 33.114598
_cell_angle_gamma 142.398049
_cell_volume 728.650428
_symmetry_space_group_name_H-M "P -1"
_symmetry_group_IT_number 2
_symmetry_cell_setting 'triclinic'
loop_
_space_group_symop_operation_xyz
x,y,z
-x,-y,-z
loop_
_atom_site_type_symbol
_atom_site_label
_atom_site_fract_x
_atom_site_fract_y
_atom_site_fract_z
Si Si1 0.083412 0.660461 0.723996
Si Si2 0.617107 0.972150 0.295339
Si Si3 0.005978 0.962306 0.168757
Si Si4 0.201795 0.337237 0.168639
Si Si5 0.375588 0.468262 0.301802
Si Si6 0.305004 0.050420 0.121499
Si Si7 0.557189 0.754013 0.655985
Si Si8 0.629319 0.861721 0.477472
O O1 0.205328 0.847937 0.711251
O O2 0.200284 0.497226 0.525562
O O3 0.923619 0.556731 0.705944
O O4 0.010597 0.743811 0.942536
O O5 0.505503 0.990863 0.310699
O O6 0.500000 0.000000 0.500000
O O7 0.674190 0.753254 0.075802
O O8 0.809634 0.965768 0.359251
O O9 0.089540 0.154675 0.183909
O O10 0.107996 0.971877 0.187945
O O11 0.330501 0.501308 0.257432
O O12 0.406572 0.239296 0.118095
O O13 0.547991 0.637210 0.320466
O O14 0.307946 0.152548 0.301193
O O15 0.390025 0.850860 0.888143
O O16 0.500000 0.500000 0.500000
O O17 0.654281 0.835298 0.544121
#
# Coordination Sequence:
#
# PCOD8042074 Si02
#       8
#     2   2   2   2   2   2   2   2
#     4  10  19  34  57  84 120 168 199 250 305 351
#     4  10  19  34  59  84 117 160 207 244 298 360
#     4  10  21  37  59  86 125 158 204 248 303 363
#     4  10  19  35  57  84 119 163 210 245 297 361
#     4  10  20  36  58  86 120 159 207 246 299 365
#     4  10  22  41  66  92 115 158 204 246 305 373
#     4  11  22  41  72  89 119 156 205 249 308 363
#     4  11  21  37  59  90 123 163 197 254 307 350
#
# _framework density 21.958403000000001
#
# number of rings (size 3 to 8) (size 9 to 14) (size 15 to 20)
#    0.000    1.750    1.250    6.375    0.000    0.500 
#    0.000   12.500    0.000    0.000    0.000    0.000 
#    0.000    0.000    0.000    0.000    0.000    0.000 
#
# Total GULP energy -198284.428773 kJ/mol
# GULP energy per Si atom -12392.776798 kJ/mol
# Density = 2.190842 g / cm^3
# Si number density = 21.958403 Si / 1000 Ang^3
#
#
#
# Elastic Constant Matrix: (Units=GPa)
#
#
# Indices 1 2 3 4 5 6 
#
# 1 137.1452 26.2630 20.0722 -0.6621 13.8078 23.5763
# 2 26.2630 38.7206 26.7863 -3.2554 2.9962 8.5359
# 3 20.0722 26.7863 83.1104 2.8547 6.9206 6.4067
# 4 -0.6621 -3.2554 2.8547 33.9954 -4.7052 0.9036
# 5 13.8078 2.9962 6.9206 -4.7052 41.0489 3.2364
# 6 23.5763 8.5359 6.4067 0.9036 3.2364 30.1616
#
#
#
# Elastic Compliance Matrix: (Units=1/GPa)
#
#
# Indices 1 2 3 4 5 6 
#
# 1 0.009477 -0.005011 -0.000015 -0.000478 -0.002424 -0.005712
# 2 -0.005011 0.038213 -0.011038 0.004853 0.001698 -0.004881
# 3 -0.000015 -0.011038 0.015861 -0.002693 -0.002178 0.000081
# 4 -0.000478 0.004853 -0.002693 0.030686 0.003917 -0.001768
# 5 -0.002424 0.001698 -0.002178 0.003917 0.025950 -0.001025
# 6 -0.005712 -0.004881 0.000081 -0.001768 -0.001025 0.039147
#
#
# Mechanical properties :
#
#
# Convention : Reuss Voigt Hill
#
# Bulk Modulus (GPa) = 31.82333 45.02437 38.42385
# Shear Modulus (GPa) = 24.76032 33.43149 29.09590
#
# Velocity S-wave (km/s) = 3.36162 3.90615 3.64407
# Velocity P-wave (km/s) = 5.43979 6.39475 5.93651
#
# Compressibility (1/GPa) = 0.03142349
#
# Stress axis : x y z
#
# Youngs Moduli (GPa) = 105.51839 26.16907 63.04791
#
# Poissons Ratio (x) = 0.13113 0.00096
# Poissons Ratio (y) = 0.52873 0.69590
# Poissons Ratio (z) = 0.00161 0.28885
#
# Static dielectric constant tensor:
#      x y z
#    x 4.360770 0.146130 0.020500 
#    y 0.146130 3.572390 0.265110 
#    z 0.020500 0.265110 4.283620 
# 
# 
# High freq. dielectric constant tensor:
#      x y z
#    x 1.877250 0.016700 0.001760 
#    y 0.016700 1.821110 0.014050 
#    z 0.001760 0.014050 1.869880 
# 
# From -- ./inp_files/533860.got.cif
#   From: 2010.06.25/outbox.cif.g09.slc.cpg/sg2_267_cif.got.tgz:533860.got - 2010.06.27 13:26:56.
