data_PCOD8042719
_publ_section_title
;
Structure prediction by ZEFSAII (Michael W. Deem and Ramdas Pophale) SiO2 
 PCOD8042719
Probable space group: P -1
;
_chemical_formula_sum "Si O2"
_cell_formula_units_Z 16
_cell_length_a 8.918226
_cell_length_b 9.016214
_cell_length_c 12.054038
_cell_angle_alpha 67.178713
_cell_angle_beta 57.036882
_cell_angle_gamma 78.364635
_cell_volume 749.505647
_symmetry_space_group_name_H-M "P -1"
_symmetry_group_IT_number 2
_symmetry_cell_setting 'triclinic'
loop_
_space_group_symop_operation_xyz
x,y,z
-x,-y,-z
loop_
_atom_site_type_symbol
_atom_site_label
_atom_site_fract_x
_atom_site_fract_y
_atom_site_fract_z
Si Si1 0.431726 0.108412 0.621390
Si Si2 0.482936 0.243977 0.026780
Si Si3 0.732968 0.533710 0.798911
Si Si4 0.754212 0.620378 0.512404
Si Si5 0.930652 0.160718 0.619328
Si Si6 0.484550 0.881212 0.175924
Si Si7 0.786680 0.093752 0.369743
Si Si8 0.112854 0.632868 0.622688
O O1 0.384016 0.249296 0.513386
O O2 0.436784 0.182240 0.721343
O O3 0.627977 0.039786 0.534731
O O4 0.284755 0.962659 0.707002
O O5 0.649768 0.367281 0.923615
O O6 0.415838 0.214724 0.934925
O O7 0.332445 0.315145 0.146004
O O8 0.538248 0.069842 0.100067
O O9 0.693830 0.563296 0.675745
O O10 0.941960 0.521014 0.745605
O O11 0.744602 0.468402 0.476434
O O12 0.958181 0.691988 0.409700
O O13 0.728287 0.146976 0.749243
O O14 0.932809 0.204470 0.475469
O O15 0.029357 0.994163 0.649806
O O16 0.811940 0.288823 0.315109
#
# Coordination Sequence:
#
# PCOD8042719 Si02
#       8
#     2   2   2   2   2   2   2   2
#     4  10  23  37  56  92 125 151 183 246 310 349
#     4  10  23  37  58  87 116 164 196 240 275 337
#     4  10  21  39  59  89 119 152 199 240 288 352
#     4  10  22  37  61  94 123 148 181 249 317 347
#     4  10  19  35  60  90 114 148 193 253 295 333
#     4  11  21  39  63  86 116 153 207 239 278 350
#     4  10  21  34  55  92 119 150 182 235 320 341
#     4  11  19  34  62  88 120 150 192 247 299 346
#
# _framework density 21.347404999999998
#
# number of rings (size 3 to 8) (size 9 to 14) (size 15 to 20)
#    0.000    1.750    1.250    4.125    7.000    0.500 
#    0.000    0.000    0.000   28.500    0.000    0.000 
#    0.000    0.000    0.000    0.000    0.000    0.000 
#
# Total GULP energy -198248.209376 kJ/mol
# GULP energy per Si atom -12390.513086 kJ/mol
# Density = 2.129882 g / cm^3
# Si number density = 21.347405 Si / 1000 Ang^3
#
#
#
# Elastic Constant Matrix: (Units=GPa)
#
#
# Indices 1 2 3 4 5 6 
#
# 1 70.7961 25.7751 23.6450 6.3030 2.1716 3.8874
# 2 25.7751 112.4777 17.3779 16.2484 -10.4461 10.8565
# 3 23.6450 17.3779 67.0235 3.8500 -8.6617 -2.3865
# 4 6.3030 16.2484 3.8500 34.4690 2.6962 -2.1903
# 5 2.1716 -10.4461 -8.6617 2.6962 16.1477 1.1769
# 6 3.8874 10.8565 -2.3865 -2.1903 1.1769 17.0849
#
#
#
# Elastic Compliance Matrix: (Units=1/GPa)
#
#
# Indices 1 2 3 4 5 6 
#
# 1 0.018012 -0.003596 -0.006515 -0.000385 -0.008017 -0.002221
# 2 -0.003596 0.012523 -0.000627 -0.006512 0.009973 -0.008749
# 3 -0.006515 -0.000627 0.018948 -0.001225 0.010573 0.003642
# 4 -0.000385 -0.006512 -0.001225 0.033739 -0.011118 0.009146
# 5 -0.008017 0.009973 0.010573 -0.011118 0.077702 -0.009814
# 6 -0.002221 -0.008749 0.003642 0.009146 -0.009814 0.066953
#
#
# Mechanical properties :
#
#
# Convention : Reuss Voigt Hill
#
# Bulk Modulus (GPa) = 35.70530 42.65482 39.18006
# Shear Modulus (GPa) = 19.32824 25.77359 22.55092
#
# Velocity S-wave (km/s) = 3.01227 3.47845 3.25372
# Velocity P-wave (km/s) = 5.37220 6.01311 5.70167
#
# Compressibility (1/GPa) = 0.02800705
#
# Stress axis : x y z
#
# Youngs Moduli (GPa) = 55.51751 79.85377 52.77678
#
# Poissons Ratio (x) = 0.28713 0.34386
# Poissons Ratio (y) = 0.19962 0.03309
# Poissons Ratio (z) = 0.36171 0.05007
#
# Static dielectric constant tensor:
#      x y z
#    x 3.810890 0.371150 -0.051900 
#    y 0.371150 4.122660 0.126460 
#    z -0.051900 0.126460 3.658290 
# 
# 
# High freq. dielectric constant tensor:
#      x y z
#    x 1.815140 0.024600 -0.012770 
#    y 0.024600 1.864170 0.010370 
#    z -0.012770 0.010370 1.801950 
# 
# From -- ./inp_files/378248.got.cif
#   From: 2010.06.25/outbox.cif.g09.slc.cpg/sg2_190_cif.got.tgz:378248.got - 2010.06.27 13:26:56.
