data_PCOD8042474
_publ_section_title
;
Structure prediction by ZEFSAII (Michael W. Deem and Ramdas Pophale) SiO2 
 PCOD8042474
Probable space group: P -1
;
_chemical_formula_sum "Si O2"
_cell_formula_units_Z 16
_cell_length_a 9.092771
_cell_length_b 12.937589
_cell_length_c 14.708315
_cell_angle_alpha 38.137100
_cell_angle_beta 130.711694
_cell_angle_gamma 111.179671
_cell_volume 766.209954
_symmetry_space_group_name_H-M "P -1"
_symmetry_group_IT_number 2
_symmetry_cell_setting 'triclinic'
loop_
_space_group_symop_operation_xyz
x,y,z
-x,-y,-z
loop_
_atom_site_type_symbol
_atom_site_label
_atom_site_fract_x
_atom_site_fract_y
_atom_site_fract_z
Si Si1 0.786475 0.746362 0.757419
Si Si2 0.632278 0.507283 0.334349
Si Si3 0.175425 0.827108 0.653493
Si Si4 0.498873 0.802132 0.432803
Si Si5 0.131197 0.507794 0.747632
Si Si6 0.600669 0.834601 0.801823
Si Si7 0.673406 0.587729 0.487241
Si Si8 0.768963 0.369243 0.016530
O O1 0.679093 0.782193 0.592036
O O2 0.681803 0.871204 0.711462
O O3 0.011046 0.766127 0.829753
O O4 0.798404 0.552148 0.930812
O O5 0.644392 0.313921 0.513396
O O6 0.785300 0.493079 0.321571
O O7 0.676115 0.623718 0.354718
O O8 0.397362 0.609119 0.143568
O O9 0.095751 0.703151 0.640076
O O10 0.361252 0.874851 0.649483
O O11 0.301063 0.710643 0.868145
O O12 0.000000 0.000000 0.500000
O O13 0.604870 0.758656 0.406372
O O14 0.368684 0.010095 0.229724
O O15 0.910797 0.475001 0.683702
O O16 0.287927 0.354327 0.976216
O O17 0.500000 0.500000 0.500000
#
# Coordination Sequence:
#
# PCOD8042474 Si02
#       8
#     2   2   2   2   2   2   2   2
#     4  10  20  33  61  87 127 158 200 246 313 368
#     4  10  22  41  66  85 125 164 220 251 306 360
#     4  12  23  38  62  95 133 165 196 251 319 381
#     4  10  22  41  61  93 127 165 208 253 305 376
#     4  12  23  41  66  94 126 163 207 260 311 370
#     4  12  23  37  63 100 131 160 202 254 317 374
#     4  10  23  43  68  87 118 171 216 260 306 361
#     4  10  19  35  56  92 118 161 200 252 303 368
#
# _framework density 20.882003000000001
#
# number of rings (size 3 to 8) (size 9 to 14) (size 15 to 20)
#    0.000    1.250    2.500    4.875    5.250    1.000 
#    0.000    3.125    2.750    0.000    0.000    0.000 
#    0.000    0.000    0.000    0.000    0.000    0.000 
#
# Total GULP energy -198213.687431 kJ/mol
# GULP energy per Si atom -12388.355464 kJ/mol
# Density = 2.083447 g / cm^3
# Si number density = 20.882003 Si / 1000 Ang^3
#
#
#
# Elastic Constant Matrix: (Units=GPa)
#
#
# Indices 1 2 3 4 5 6 
#
# 1 119.0342 65.4797 32.5098 3.7571 19.1327 -15.5542
# 2 65.4797 118.2475 46.1585 2.6587 7.4819 -31.9909
# 3 32.5098 46.1585 46.4370 -3.1356 3.9603 -11.0586
# 4 3.7571 2.6587 -3.1356 26.7722 3.9726 4.5351
# 5 19.1327 7.4819 3.9603 3.9726 34.6983 5.6558
# 6 -15.5542 -31.9909 -11.0586 4.5351 5.6558 45.1966
#
#
#
# Elastic Compliance Matrix: (Units=1/GPa)
#
#
# Indices 1 2 3 4 5 6 
#
# 1 0.013417 -0.005585 -0.003244 -0.000962 -0.005827 0.000696
# 2 -0.005585 0.019338 -0.013410 -0.004145 -0.000547 0.008969
# 3 -0.003244 -0.013410 0.037042 0.006489 0.000069 -0.002204
# 4 -0.000962 -0.004145 0.006489 0.040009 -0.003031 -0.005313
# 5 -0.005827 -0.000547 0.000069 -0.003031 0.033511 -0.006265
# 6 0.000696 0.008969 -0.002204 -0.005313 -0.006265 0.029492
#
#
# Mechanical properties :
#
#
# Convention : Reuss Voigt Hill
#
# Bulk Modulus (GPa) = 39.49345 63.55720 51.52532
# Shear Modulus (GPa) = 22.15068 30.63812 26.39440
#
# Velocity S-wave (km/s) = 3.26046 3.83456 3.55910
# Velocity P-wave (km/s) = 5.75568 7.07867 6.45118
#
# Compressibility (1/GPa) = 0.02532065
#
# Stress axis : x y z
#
# Youngs Moduli (GPa) = 74.53273 51.71053 26.99609
#
# Poissons Ratio (x) = 0.28878 0.08757
# Poissons Ratio (y) = 0.41624 0.36202
# Poissons Ratio (z) = 0.24178 0.69344
#
# Static dielectric constant tensor:
#      x y z
#    x 4.162290 -0.187700 0.018870 
#    y -0.187700 3.967220 -0.069250 
#    z 0.018870 -0.069250 3.676450 
# 
# 
# High freq. dielectric constant tensor:
#      x y z
#    x 1.839460 -0.010980 0.004350 
#    y -0.010980 1.805780 0.001120 
#    z 0.004350 0.001120 1.800040 
# 
# From -- ./inp_files/176143.got.cif
#   From: 2010.06.25/outbox.cif.g09.slc.cpg/sg2_89_cif.got.tgz:176143.got - 2010.06.27 13:26:56.
