data_PCOD8042961
_publ_section_title
;
Structure prediction by ZEFSAII (Michael W. Deem and Ramdas Pophale) SiO2 
 PCOD8042961
Probable space group: P -1
;
_chemical_formula_sum "Si O2"
_cell_formula_units_Z 16
_cell_length_a 12.811861
_cell_length_b 18.298170
_cell_length_c 9.442005
_cell_angle_alpha 78.523943
_cell_angle_beta 88.991995
_cell_angle_gamma 155.543908
_cell_volume 782.994399
_symmetry_space_group_name_H-M "P -1"
_symmetry_group_IT_number 2
_symmetry_cell_setting 'triclinic'
loop_
_space_group_symop_operation_xyz
x,y,z
-x,-y,-z
loop_
_atom_site_type_symbol
_atom_site_label
_atom_site_fract_x
_atom_site_fract_y
_atom_site_fract_z
Si Si1 0.732842 0.942023 0.516781
Si Si2 0.305739 0.300617 0.506241
Si Si3 0.383314 0.344151 0.006210
Si Si4 0.617013 0.423333 0.228875
Si Si5 0.966232 0.215028 0.593314
Si Si6 0.428922 0.605390 0.294936
Si Si7 0.742060 0.957343 0.178151
Si Si8 0.238226 0.881891 0.057183
O O1 0.459727 0.708256 0.652048
O O2 0.730527 0.960533 0.345276
O O3 0.727000 0.016502 0.574955
O O4 0.022676 0.090930 0.499759
O O5 0.572567 0.460122 0.331944
O O6 0.319199 0.253691 0.657091
O O7 0.262115 0.358487 0.537055
O O8 0.427788 0.310719 0.136807
O O9 0.500000 0.500000 0.000000
O O10 0.564617 0.440692 0.827675
O O11 0.049430 0.129214 0.055535
O O12 0.955293 0.651167 0.093563
O O13 0.810127 0.123834 0.779147
O O14 0.104851 0.382056 0.456840
O O15 0.494399 0.735750 0.213590
O O16 0.682271 0.995873 0.090831
O O17 0.500000 0.000000 0.000000
#
# Coordination Sequence:
#
# PCOD8042961 Si02
#       8
#     2   2   2   2   2   2   2   2
#     4  10  22  37  66 101 127 168 202 259 332 386
#     4  10  19  35  67  97 136 158 201 252 325 392
#     4  12  23  35  61 105 134 166 201 267 328 380
#     4  12  21  41  65  94 139 165 205 261 327 383
#     4  10  23  39  64  93 129 166 213 252 323 389
#     4  12  22  36  61  98 136 168 203 255 322 393
#     4  12  23  40  62  96 133 164 215 262 324 383
#     4  12  28  47  64  87 127 178 222 267 314 375
#
# _framework density 20.434373000000001
#
# number of rings (size 3 to 8) (size 9 to 14) (size 15 to 20)
#    0.750    0.000    5.000    4.125    1.750    0.000 
#    0.000    3.750    0.000    0.000    0.000    0.000 
#    0.000    0.000    0.000    0.000    0.000    0.000 
#
# Total GULP energy -198388.873926 kJ/mol
# GULP energy per Si atom -12399.304620 kJ/mol
# Density = 2.038786 g / cm^3
# Si number density = 20.434373 Si / 1000 Ang^3
#
#
#
# Elastic Constant Matrix: (Units=GPa)
#
#
# Indices 1 2 3 4 5 6 
#
# 1 91.3163 57.1842 64.0194 -9.4541 8.4173 -2.2848
# 2 57.1842 81.3967 46.9470 -2.6379 4.7554 -21.3274
# 3 64.0194 46.9470 140.6185 13.8344 15.9886 -8.6498
# 4 -9.4541 -2.6379 13.8344 40.8614 -10.1220 3.3114
# 5 8.4173 4.7554 15.9886 -10.1220 31.4144 -5.5622
# 6 -2.2848 -21.3274 -8.6498 3.3114 -5.5622 29.2098
#
#
#
# Elastic Compliance Matrix: (Units=1/GPa)
#
#
# Indices 1 2 3 4 5 6 
#
# 1 0.030731 -0.020168 -0.009260 0.010249 -0.000040 -0.016233
# 2 -0.020168 0.032311 -0.000259 -0.003465 0.003603 0.023017
# 3 -0.009260 -0.000259 0.013135 -0.008410 -0.006394 0.002712
# 4 0.010249 -0.003465 -0.008410 0.032809 0.011616 -0.005726
# 5 -0.000040 0.003603 -0.006394 0.011616 0.039525 0.006943
# 6 -0.016233 0.023017 0.002712 -0.005726 0.006943 0.052545
#
#
# Mechanical properties :
#
#
# Convention : Reuss Voigt Hill
#
# Bulk Modulus (GPa) = 59.50792 72.18142 65.84467
# Shear Modulus (GPa) = 18.79487 29.97586 24.38537
#
# Velocity S-wave (km/s) = 3.03606 3.83421 3.45824
# Velocity P-wave (km/s) = 6.44010 7.41632 6.94538
#
# Compressibility (1/GPa) = 0.01680449
#
# Stress axis : x y z
#
# Youngs Moduli (GPa) = 32.54064 30.94908 76.13346
#
# Poissons Ratio (x) = 0.62417 0.70499
# Poissons Ratio (y) = 0.65627 0.01969
# Poissons Ratio (z) = 0.30132 0.00800
#
# Static dielectric constant tensor:
#      x y z
#    x 3.282970 -0.229160 0.136300 
#    y -0.229160 3.751660 0.086900 
#    z 0.136300 0.086900 3.807610 
# 
# 
# High freq. dielectric constant tensor:
#      x y z
#    x 1.750320 -0.034340 0.015930 
#    y -0.034340 1.803200 0.008720 
#    z 0.015930 0.008720 1.811100 
# 
# From -- ./inp_files/318965.got.cif
#   From: 2010.06.25/outbox.cif.g09.slc.cpg/sg2_160_cif.got.tgz:318965.got - 2010.06.27 13:26:56.
