data_PCOD8042782
_publ_section_title
;
Structure prediction by ZEFSAII (Michael W. Deem and Ramdas Pophale) SiO2 
 PCOD8042782
Probable space group: P -1
;
_chemical_formula_sum "Si O2"
_cell_formula_units_Z 16
_cell_length_a 21.253420
_cell_length_b 9.161531
_cell_length_c 8.745559
_cell_angle_alpha 75.735170
_cell_angle_beta 106.981673
_cell_angle_gamma 151.936118
_cell_volume 765.957082
_symmetry_space_group_name_H-M "P -1"
_symmetry_group_IT_number 2
_symmetry_cell_setting 'triclinic'
loop_
_space_group_symop_operation_xyz
x,y,z
-x,-y,-z
loop_
_atom_site_type_symbol
_atom_site_label
_atom_site_fract_x
_atom_site_fract_y
_atom_site_fract_z
Si Si1 0.852721 0.094923 0.121102
Si Si2 0.403347 0.332932 0.331220
Si Si3 0.844855 0.746886 0.109607
Si Si4 0.155562 0.686525 0.202970
Si Si5 0.439541 0.841948 0.834176
Si Si6 0.622104 0.413331 0.622861
Si Si7 0.855238 0.676649 0.791242
Si Si8 0.409882 0.490304 0.744733
O O1 0.001608 0.406166 0.223883
O O2 0.849085 0.937197 0.054852
O O3 0.742060 0.870867 0.235537
O O4 0.820635 0.172785 0.972107
O O5 0.500000 0.500000 0.500000
O O6 0.366133 0.435109 0.275313
O O7 0.487275 0.446274 0.210913
O O8 0.262345 0.956964 0.337059
O O9 0.721940 0.446146 0.208003
O O10 0.820838 0.629036 0.956981
O O11 0.986940 0.971888 0.221850
O O12 0.185749 0.572959 0.221285
O O13 0.461990 0.708397 0.856167
O O14 0.505626 0.066455 0.685082
O O15 0.500000 0.000000 0.000000
O O16 0.764654 0.613205 0.649635
O O17 0.584012 0.407541 0.436265
#
# Coordination Sequence:
#
# PCOD8042782 Si02
#       8
#     2   2   2   2   2   2   2   2
#     4   9  20  39  61  89 117 156 198 248 303 350
#     4  10  23  40  58  85 121 165 200 243 299 356
#     4   9  19  35  56  91 123 145 196 249 292 362
#     4  10  20  36  63  89 119 153 201 252 294 358
#     4  11  21  36  61  91 118 151 196 245 300 355
#     4  11  22  40  59  83 123 162 195 244 303 349
#     4  10  19  35  61  89 119 154 194 247 306 346
#     4  10  23  42  60  86 121 158 201 245 300 364
#
# _framework density 20.888898000000001
#
# number of rings (size 3 to 8) (size 9 to 14) (size 15 to 20)
#    0.000    2.000    1.250    1.875    1.750    3.500 
#    0.000   10.625    0.000    0.000    0.000    0.000 
#    0.000    0.000    0.000    0.000    0.000    0.000 
#
# Total GULP energy -198346.135390 kJ/mol
# GULP energy per Si atom -12396.633462 kJ/mol
# Density = 2.084135 g / cm^3
# Si number density = 20.888898 Si / 1000 Ang^3
#
#
#
# Elastic Constant Matrix: (Units=GPa)
#
#
# Indices 1 2 3 4 5 6 
#
# 1 136.4477 50.2832 15.0288 6.5295 -4.3560 2.9438
# 2 50.2832 144.2283 30.7414 4.3220 -7.4378 11.4654
# 3 15.0288 30.7414 45.3485 0.3041 -2.2458 5.1722
# 4 6.5295 4.3220 0.3041 36.5577 0.7646 -6.6962
# 5 -4.3560 -7.4378 -2.2458 0.7646 28.0208 0.8637
# 6 2.9438 11.4654 5.1722 -6.6962 0.8637 29.8566
#
#
#
# Elastic Compliance Matrix: (Units=1/GPa)
#
#
# Indices 1 2 3 4 5 6 
#
# 1 0.008503 -0.002702 -0.000960 -0.001188 0.000558 0.000083
# 2 -0.002702 0.009280 -0.004989 -0.001110 0.001758 -0.002733
# 3 -0.000960 -0.004989 0.026072 0.000070 0.000691 -0.002510
# 4 -0.001188 -0.001110 0.000070 0.029025 -0.001484 0.007084
# 5 0.000558 0.001758 0.000691 -0.001484 0.036406 -0.002236
# 6 0.000083 -0.002733 -0.002510 0.007084 -0.002236 0.036623
#
#
# Mechanical properties :
#
#
# Convention : Reuss Voigt Hill
#
# Bulk Modulus (GPa) = 37.66174 57.57016 47.61595
# Shear Modulus (GPa) = 29.05908 34.21843 31.63875
#
# Velocity S-wave (km/s) = 3.73383 4.05175 3.89603
# Velocity P-wave (km/s) = 6.05453 7.03626 6.56377
#
# Compressibility (1/GPa) = 0.02655215
#
# Stress axis : x y z
#
# Youngs Moduli (GPa) = 117.60285 107.75730 38.35552
#
# Poissons Ratio (x) = 0.29117 0.03683
# Poissons Ratio (y) = 0.31778 0.19136
# Poissons Ratio (z) = 0.11292 0.53762
#
# Static dielectric constant tensor:
#      x y z
#    x 4.483760 0.073900 -0.186200 
#    y 0.073900 4.140770 0.119770 
#    z -0.186200 0.119770 3.299050 
# 
# 
# High freq. dielectric constant tensor:
#      x y z
#    x 1.836900 0.004870 -0.007750 
#    y 0.004870 1.834000 0.011010 
#    z -0.007750 0.011010 1.775610 
# 
# From -- ./inp_files/208743.got.cif
#   From: 2010.06.25/outbox.cif.g09.slc.cpg/sg2_105_cif.got.tgz:208743.got - 2010.06.27 13:26:56.
