data_PCOD8042813
_publ_section_title
;
Structure prediction by ZEFSAII (Michael W. Deem and Ramdas Pophale) SiO2 
 PCOD8042813
Probable space group: P -1
;
_chemical_formula_sum "Si O2"
_cell_formula_units_Z 12
_cell_length_a 19.079606
_cell_length_b 11.532225
_cell_length_c 13.087457
_cell_angle_alpha 128.299534
_cell_angle_beta 18.619372
_cell_angle_gamma 137.185429
_cell_volume 585.930527
_symmetry_space_group_name_H-M "P -1"
_symmetry_group_IT_number 2
_symmetry_cell_setting 'triclinic'
loop_
_space_group_symop_operation_xyz
x,y,z
-x,-y,-z
loop_
_atom_site_type_symbol
_atom_site_label
_atom_site_fract_x
_atom_site_fract_y
_atom_site_fract_z
Si Si1 0.185535 0.852855 0.866336
Si Si2 0.741924 0.365446 0.500684
Si Si3 0.003408 0.234917 0.696981
Si Si4 0.712593 0.948787 0.780802
Si Si5 0.134450 0.150790 0.137089
Si Si6 0.137559 0.687712 0.469234
O O1 0.095030 0.694045 0.822914
O O2 0.500000 0.000000 0.500000
O O3 0.102535 0.762104 0.043047
O O4 0.056626 0.965300 0.087967
O O5 0.747131 0.315169 0.582296
O O6 0.899528 0.580804 0.393840
O O7 0.437839 0.268097 0.826069
O O8 0.246186 0.211608 0.350493
O O9 0.754910 0.058071 0.886283
O O10 0.397927 0.844594 0.128944
O O11 0.927231 0.098163 0.486520
O O12 0.082060 0.265195 0.193361
O O13 0.000000 0.500000 0.500000
#
# Coordination Sequence:
#
# PCOD8042813 Si02
#       6
#     2   2   2   2   2   2
#     4   9  19  37  60  83 111 153 192 229 281 334
#     4  11  22  38  59  86 117 150 190 234 282 336
#     4  10  19  35  62  87 114 150 188 233 284 339
#     4  10  20  36  58  86 115 150 190 232 286 336
#     4  10  22  39  60  85 117 151 189 235 280 337
#     4  12  24  37  59  87 115 150 191 236 286 337
#
# _framework density 20.480243999999999
#
# number of rings (size 3 to 8) (size 9 to 14) (size 15 to 20)
#    0.000    1.667    0.000    7.000    0.000    2.667 
#    0.000    0.000    0.000   14.000    0.000    0.000 
#    0.000    0.000    0.000    0.000    0.000    0.000 
#
# Total GULP energy -148733.591833 kJ/mol
# GULP energy per Si atom -12394.465986 kJ/mol
# Density = 2.043363 g / cm^3
# Si number density = 20.480244 Si / 1000 Ang^3
#
#
#
# Elastic Constant Matrix: (Units=GPa)
#
#
# Indices 1 2 3 4 5 6 
#
# 1 70.7599 43.7914 48.2026 6.3561 -11.1309 -5.1398
# 2 43.7914 117.5663 42.2021 14.1571 -4.5541 -4.6922
# 3 48.2026 42.2021 91.0067 2.3052 -3.7697 6.1450
# 4 6.3561 14.1571 2.3052 30.0115 -2.0373 0.8721
# 5 -11.1309 -4.5541 -3.7697 -2.0373 36.5399 6.1298
# 6 -5.1398 -4.6922 6.1450 0.8721 6.1298 38.8549
#
#
#
# Elastic Compliance Matrix: (Units=1/GPa)
#
#
# Indices 1 2 3 4 5 6 
#
# 1 0.026592 -0.005080 -0.011715 -0.002078 0.005482 0.003939
# 2 -0.005080 0.012001 -0.002896 -0.004463 -0.000846 0.001469
# 3 -0.011715 -0.002896 0.018750 0.002473 -0.001060 -0.004753
# 4 -0.002078 -0.004463 0.002473 0.035839 0.001439 -0.002236
# 5 0.005482 -0.000846 -0.001060 0.001439 0.029558 -0.003905
# 6 0.003939 0.001469 -0.004753 -0.002236 -0.003905 0.027853
#
#
# Mechanical properties :
#
#
# Convention : Reuss Voigt Hill
#
# Bulk Modulus (GPa) = 55.67425 60.85833 58.26629
# Shear Modulus (GPa) = 25.51532 30.75704 28.13618
#
# Velocity S-wave (km/s) = 3.53349 3.87950 3.71053
# Velocity P-wave (km/s) = 6.62501 7.06028 6.84610
#
# Compressibility (1/GPa) = 0.01796162
#
# Stress axis : x y z
#
# Youngs Moduli (GPa) = 37.60573 83.32869 53.33224
#
# Poissons Ratio (x) = 0.42330 0.62479
# Poissons Ratio (y) = 0.19103 0.15443
# Poissons Ratio (z) = 0.44056 0.24129
#
# Static dielectric constant tensor:
#      x y z
#    x 3.645150 -0.012600 0.065550 
#    y -0.012600 4.118340 0.427220 
#    z 0.065550 0.427220 3.994550 
# 
# 
# High freq. dielectric constant tensor:
#      x y z
#    x 1.783140 -0.009800 0.007390 
#    y -0.009800 1.817260 0.007090 
#    z 0.007390 0.007090 1.796860 
# 
# From -- ./inp_files/164951.got.cif
#   From: 2010.06.25/outbox.cif.g09.slc.cpg/sg2_83_cif.got.tgz:164951.got - 2010.06.27 13:26:56.
