data_PCOD8042174
_publ_section_title
;
Structure prediction by ZEFSAII (Michael W. Deem and Ramdas Pophale) SiO2 
 PCOD8042174
Probable space group: P -1
;
_chemical_formula_sum "Si O2"
_cell_formula_units_Z 16
_cell_length_a 5.294515
_cell_length_b 17.337386
_cell_length_c 9.993505
_cell_angle_alpha 61.984214
_cell_angle_beta 89.841984
_cell_angle_gamma 98.921616
_cell_volume 797.029872
_symmetry_space_group_name_H-M "P -1"
_symmetry_group_IT_number 2
_symmetry_cell_setting 'triclinic'
loop_
_space_group_symop_operation_xyz
x,y,z
-x,-y,-z
loop_
_atom_site_type_symbol
_atom_site_label
_atom_site_fract_x
_atom_site_fract_y
_atom_site_fract_z
Si Si1 0.445262 0.394468 0.073917
Si Si2 0.404613 0.356087 0.407755
Si Si3 0.329426 0.158682 0.662455
Si Si4 0.796882 0.094782 0.745893
Si Si5 0.067928 0.628416 0.070376
Si Si6 0.167431 0.810398 0.055217
Si Si7 0.039990 0.540814 0.611404
Si Si8 0.710033 0.893057 0.985285
O O1 0.405551 0.347675 0.255345
O O2 0.500000 0.500000 0.000000
O O3 0.686343 0.360472 0.035258
O O4 0.187418 0.362571 0.017092
O O5 0.404611 0.262033 0.551783
O O6 0.660359 0.419894 0.405172
O O7 0.145961 0.388119 0.429145
O O8 0.551591 0.108169 0.645689
O O9 0.051253 0.116609 0.634564
O O10 0.298983 0.136374 0.837331
O O11 0.762015 0.998831 0.890725
O O12 0.818638 0.168751 0.803592
O O13 0.039156 0.533199 0.216112
O O14 0.112369 0.704606 0.121149
O O15 0.438365 0.852546 0.950149
O O16 0.943241 0.853857 0.948658
O O17 0.000000 0.500000 0.500000
#
# Coordination Sequence:
#
# PCOD8042174 Si02
#       8
#     2   2   2   2   2   2   2   2
#     4  12  23  45  63  82 110 167 235 241 282 338
#     4  12  25  41  61  86 118 168 203 257 282 349
#     4  10  20  32  54  84 115 145 192 239 291 335
#     4  10  19  36  57  87 120 158 185 229 303 385
#     4  12  24  40  63  87 117 165 203 264 285 340
#     4  10  20  32  54  89 116 145 190 246 295 339
#     4  12  26  39  59  89 126 158 194 235 332 363
#     4  10  19  34  59  85 122 156 187 227 303 385
#
# _framework density 20.074529999999999
#
# number of rings (size 3 to 8) (size 9 to 14) (size 15 to 20)
#    0.000    1.000    2.500    6.750    7.000    0.000 
#    0.000    0.000    0.000    0.000    0.000   29.750 
#    0.000    0.000    0.000    0.000    0.000    0.000 
#
# Total GULP energy -198351.747238 kJ/mol
# GULP energy per Si atom -12396.984202 kJ/mol
# Density = 2.002884 g / cm^3
# Si number density = 20.074530 Si / 1000 Ang^3
#
#
#
# Elastic Constant Matrix: (Units=GPa)
#
#
# Indices 1 2 3 4 5 6 
#
# 1 175.7604 15.0507 9.2992 -4.7731 -3.5724 -1.4313
# 2 15.0507 47.9029 16.3856 -26.8374 0.3318 -3.1360
# 3 9.2992 16.3856 62.2845 -12.7883 -1.2151 -1.7251
# 4 -4.7731 -26.8374 -12.7883 28.6494 -0.4747 6.1126
# 5 -3.5724 0.3318 -1.2151 -0.4747 18.2235 -4.0730
# 6 -1.4313 -3.1360 -1.7251 6.1126 -4.0730 30.4638
#
#
#
# Elastic Compliance Matrix: (Units=1/GPa)
#
#
# Indices 1 2 3 4 5 6 
#
# 1 0.005927 -0.002707 -0.000518 -0.001868 0.001242 0.000511
# 2 -0.002707 0.046287 -0.003223 0.042350 -0.001431 -0.004234
# 3 -0.000518 -0.003223 0.018027 0.004998 0.001251 -0.000171
# 4 -0.001868 0.042350 0.004998 0.078918 -0.001309 -0.011455
# 5 0.001242 -0.001431 0.001251 -0.001309 0.056949 0.007859
# 6 0.000511 -0.004234 -0.000171 -0.011455 0.007859 0.035754
#
#
# Mechanical properties :
#
#
# Convention : Reuss Voigt Hill
#
# Bulk Modulus (GPa) = 17.43795 40.82432 29.13114
# Shear Modulus (GPa) = 18.25662 31.81483 25.03572
#
# Velocity S-wave (km/s) = 3.01897 3.98532 3.53532
# Velocity P-wave (km/s) = 4.56702 6.44651 5.58638
#
# Compressibility (1/GPa) = 0.05734618
#
# Stress axis : x y z
#
# Youngs Moduli (GPa) = 168.70693 21.60416 55.47382
#
# Poissons Ratio (x) = 0.05847 0.02873
# Poissons Ratio (y) = 0.45663 0.17879
# Poissons Ratio (z) = 0.08739 0.06963
#
# Static dielectric constant tensor:
#      x y z
#    x 6.073910 -0.075050 0.035330 
#    y -0.075050 3.504740 -0.178170 
#    z 0.035330 -0.178170 3.410400 
# 
# 
# High freq. dielectric constant tensor:
#      x y z
#    x 1.830680 -0.000410 0.001190 
#    y -0.000410 1.765940 -0.029870 
#    z 0.001190 -0.029870 1.745140 
# 
# From -- ./inp_files/134996.got.cif
#   From: 2010.06.25/outbox.cif.g09.slc.cpg/sg2_68_cif.got.tgz:134996.got - 2010.06.27 13:26:56.
