data_PCOD8042151
_publ_section_title
;
Structure prediction by ZEFSAII (Michael W. Deem and Ramdas Pophale) SiO2 
 PCOD8042151
Probable space group: P -1
;
_chemical_formula_sum "Si O2"
_cell_formula_units_Z 16
_cell_length_a 9.097258
_cell_length_b 11.194477
_cell_length_c 14.347883
_cell_angle_alpha 147.625837
_cell_angle_beta 82.290910
_cell_angle_gamma 85.078341
_cell_volume 718.665882
_symmetry_space_group_name_H-M "P -1"
_symmetry_group_IT_number 2
_symmetry_cell_setting 'triclinic'
loop_
_space_group_symop_operation_xyz
x,y,z
-x,-y,-z
loop_
_atom_site_type_symbol
_atom_site_label
_atom_site_fract_x
_atom_site_fract_y
_atom_site_fract_z
Si Si1 0.776264 0.298210 0.920692
Si Si2 0.992839 0.310424 0.053411
Si Si3 0.319946 0.513234 0.682676
Si Si4 0.325462 0.746217 0.474057
Si Si5 0.597138 0.837692 0.302540
Si Si6 0.305729 0.874053 0.761970
Si Si7 0.594532 0.978355 0.732344
Si Si8 0.880923 0.272225 0.689780
O O1 0.772538 0.307222 0.814558
O O2 0.705287 0.112674 0.852503
O O3 0.956217 0.223922 0.897320
O O4 0.684701 0.564343 0.145982
O O5 0.837036 0.347778 0.153245
O O6 0.019261 0.558389 0.204632
O O7 0.146171 0.104270 0.948462
O O8 0.484222 0.405407 0.658093
O O9 0.343861 0.695905 0.727244
O O10 0.294775 0.291132 0.485873
O O11 0.286769 0.727040 0.574316
O O12 0.227223 0.658632 0.349403
O O13 0.281238 0.034176 0.654762
O O14 0.500000 0.000000 0.500000
O O15 0.480235 0.848211 0.234585
O O16 0.452910 0.967614 0.803689
O O17 0.000000 0.000000 0.500000
#
# Coordination Sequence:
#
# PCOD8042151 Si02
#       8
#     2   2   2   2   2   2   2   2
#     4  12  23  39  61  93 132 169 202 253 312 383
#     4  12  25  40  60  93 130 168 211 257 316 380
#     4  10  22  44  66  89 122 164 214 269 316 365
#     4  10  21  40  66  92 119 165 216 255 307 381
#     4  10  19  34  58  89 123 159 197 249 308 368
#     4  10  22  44  65  89 123 163 211 274 320 358
#     4  10  21  38  64  91 117 160 214 256 307 379
#     4  12  24  41  63  96 134 170 205 255 316 382
#
# _framework density 22.263475
#
# number of rings (size 3 to 8) (size 9 to 14) (size 15 to 20)
#    0.000    1.500    0.000    8.625    0.000    3.000 
#    0.000    7.500    0.000    0.000    0.000    0.000 
#    0.000    0.000    0.000    0.000    0.000    0.000 
#
# Total GULP energy -198299.434402 kJ/mol
# GULP energy per Si atom -12393.714650 kJ/mol
# Density = 2.221280 g / cm^3
# Si number density = 22.263475 Si / 1000 Ang^3
#
#
#
# Elastic Constant Matrix: (Units=GPa)
#
#
# Indices 1 2 3 4 5 6 
#
# 1 122.7060 51.3989 51.1368 -1.3826 21.0714 7.9614
# 2 51.3989 105.1902 28.4254 4.8899 13.2371 11.4335
# 3 51.1368 28.4254 83.4624 1.5767 1.0912 1.0253
# 4 -1.3826 4.8899 1.5767 31.2350 7.7404 -8.0661
# 5 21.0714 13.2371 1.0912 7.7404 45.7594 0.3106
# 6 7.9614 11.4335 1.0253 -8.0661 0.3106 25.2530
#
#
#
# Elastic Compliance Matrix: (Units=1/GPa)
#
#
# Indices 1 2 3 4 5 6 
#
# 1 0.013887 -0.004177 -0.007049 0.002644 -0.005457 -0.001289
# 2 -0.004177 0.012899 -0.001690 -0.003240 -0.001182 -0.005475
# 3 -0.007049 -0.001690 0.016831 -0.001298 0.003540 0.001846
# 4 0.002644 -0.003240 -0.001298 0.037674 -0.006709 0.012802
# 5 -0.005457 -0.001182 0.003540 -0.006709 0.025761 -0.000348
# 6 -0.001289 -0.005475 0.001846 0.012802 -0.000348 0.046503
#
#
# Mechanical properties :
#
#
# Convention : Reuss Voigt Hill
#
# Bulk Modulus (GPa) = 56.22431 63.69786 59.96109
# Shear Modulus (GPa) = 26.98114 32.47599 29.72856
#
# Velocity S-wave (km/s) = 3.48501 3.82345 3.65815
# Velocity P-wave (km/s) = 6.44225 6.94008 6.69580
#
# Compressibility (1/GPa) = 0.01778590
#
# Stress axis : x y z
#
# Youngs Moduli (GPa) = 72.00848 77.52722 59.41326
#
# Poissons Ratio (x) = 0.32383 0.41879
# Poissons Ratio (y) = 0.30078 0.10040
# Poissons Ratio (z) = 0.50757 0.13101
#
# Static dielectric constant tensor:
#      x y z
#    x 3.999990 -0.054240 0.042380 
#    y -0.054240 4.172150 0.074010 
#    z 0.042380 0.074010 4.122530 
# 
# 
# High freq. dielectric constant tensor:
#      x y z
#    x 1.871820 0.004190 -0.005590 
#    y 0.004190 1.872630 0.002130 
#    z -0.005590 0.002130 1.877830 
# 
# From -- ./inp_files/501147.got.cif
#   From: 2010.06.25/outbox.cif.g09.slc.cpg/sg2_251_cif.got.tgz:501147.got - 2010.06.27 13:26:56.
