data_PCOD8042976
_publ_section_title
;
Structure prediction by ZEFSAII (Michael W. Deem and Ramdas Pophale) SiO2 
 PCOD8042976
Probable space group: P -1
;
_chemical_formula_sum "Si O2"
_cell_formula_units_Z 16
_cell_length_a 8.660141
_cell_length_b 13.150783
_cell_length_c 8.940337
_cell_angle_alpha 84.917290
_cell_angle_beta 75.506574
_cell_angle_gamma 47.059447
_cell_volume 716.825106
_symmetry_space_group_name_H-M "P -1"
_symmetry_group_IT_number 2
_symmetry_cell_setting 'triclinic'
loop_
_space_group_symop_operation_xyz
x,y,z
-x,-y,-z
loop_
_atom_site_type_symbol
_atom_site_label
_atom_site_fract_x
_atom_site_fract_y
_atom_site_fract_z
Si Si1 0.621145 0.797536 0.080267
Si Si2 0.501377 0.652490 0.981895
Si Si3 0.515152 0.531692 0.282076
Si Si4 0.858950 0.694722 0.527420
Si Si5 0.876956 0.254848 0.115101
Si Si6 0.269503 0.099275 0.221022
Si Si7 0.969286 0.365251 0.830475
Si Si8 0.312840 0.432586 0.504887
O O1 0.477241 0.766973 0.062724
O O2 0.825405 0.663095 0.142374
O O3 0.473743 0.933998 0.205124
O O4 0.694890 0.824077 0.911285
O O5 0.430964 0.595358 0.126978
O O6 0.323625 0.733767 0.880110
O O7 0.747122 0.528419 0.876841
O O8 0.770211 0.390654 0.224473
O O9 0.368873 0.499291 0.367403
O O10 0.520977 0.623156 0.387376
O O11 0.766831 0.834858 0.615897
O O12 0.668000 0.691370 0.549992
O O13 0.965477 0.687074 0.348264
O O14 0.055503 0.556842 0.594188
O O15 0.062988 0.126071 0.195589
O O16 0.970944 0.258025 0.936344
#
# Coordination Sequence:
#
# PCOD8042976 Si02
#       8
#     2   2   2   2   2   2   2   2
#     4  10  23  40  60  82 117 159 198 238 278 345
#     4  11  21  35  65  87 117 149 197 238 294 343
#     4  10  19  36  52  91 119 150 180 246 294 346
#     4  11  21  35  58  88 115 153 190 239 288 348
#     4  10  20  37  59  84 120 155 188 238 288 345
#     4  10  23  41  56  83 121 159 196 233 281 344
#     4  10  21  37  60  91 116 145 191 247 297 334
#     4  10  21  31  57  87 125 145 187 236 305 339
#
# _framework density 22.320646
#
# number of rings (size 3 to 8) (size 9 to 14) (size 15 to 20)
#    0.000    1.750    1.250    4.125    5.250    1.000 
#    0.000    0.000    0.000    3.000    0.000    0.000 
#    0.000    0.000    0.000    0.000    0.000    0.000 
#
# Total GULP energy -198231.514010 kJ/mol
# GULP energy per Si atom -12389.469626 kJ/mol
# Density = 2.226984 g / cm^3
# Si number density = 22.320646 Si / 1000 Ang^3
#
#
#
# Elastic Constant Matrix: (Units=GPa)
#
#
# Indices 1 2 3 4 5 6 
#
# 1 137.1185 37.0457 57.3498 6.4227 23.6462 -13.3555
# 2 37.0457 45.8060 31.1223 11.9241 6.6896 -4.8141
# 3 57.3498 31.1223 118.6061 19.5036 17.4281 6.9531
# 4 6.4227 11.9241 19.5036 22.7490 -0.5856 7.5628
# 5 23.6462 6.6896 17.4281 -0.5856 34.1690 0.7289
# 6 -13.3555 -4.8141 6.9531 7.5628 0.7289 20.1614
#
#
#
# Elastic Compliance Matrix: (Units=1/GPa)
#
#
# Indices 1 2 3 4 5 6 
#
# 1 0.012284 -0.005370 -0.004225 -0.000002 -0.005477 0.008511
# 2 -0.005370 0.035292 -0.004288 -0.017683 -0.001588 0.013039
# 3 -0.004225 -0.004288 0.013409 -0.006127 -0.003053 -0.006038
# 4 -0.000002 -0.017683 -0.006127 0.067974 0.008349 -0.027910
# 5 -0.005477 -0.001588 -0.003053 0.008349 0.035224 -0.007360
# 6 0.008511 0.013039 -0.006038 -0.027910 -0.007360 0.071169
#
#
# Mechanical properties :
#
#
# Convention : Reuss Voigt Hill
#
# Bulk Modulus (GPa) = 30.10072 61.39624 45.74848
# Shear Modulus (GPa) = 18.23549 27.15008 22.69278
#
# Velocity S-wave (km/s) = 2.86138 3.49143 3.19199
# Velocity P-wave (km/s) = 4.94283 6.61964 5.84171
#
# Compressibility (1/GPa) = 0.03322180
#
# Stress axis : x y z
#
# Youngs Moduli (GPa) = 81.40563 28.33467 74.57554
#
# Poissons Ratio (x) = 0.15215 0.31506
# Poissons Ratio (y) = 0.43712 0.31976
# Poissons Ratio (z) = 0.34391 0.12149
#
# Static dielectric constant tensor:
#      x y z
#    x 4.241140 -0.240830 0.048050 
#    y -0.240830 3.529690 -0.023350 
#    z 0.048050 -0.023350 4.087340 
# 
# 
# High freq. dielectric constant tensor:
#      x y z
#    x 1.897190 -0.017070 0.011790 
#    y -0.017070 1.817440 -0.004830 
#    z 0.011790 -0.004830 1.885090 
# 
# From -- ./inp_files/202535.got.cif
#   From: 2010.06.25/outbox.cif.g09.slc.cpg/sg2_102_cif.got.tgz:202535.got - 2010.06.27 13:26:56.
