data_PCOD8042106
_publ_section_title
;
Structure prediction by ZEFSAII (Michael W. Deem and Ramdas Pophale) SiO2 
 PCOD8042106
Probable space group: P -1
;
_chemical_formula_sum "Si O2"
_cell_formula_units_Z 16
_cell_length_a 12.052380
_cell_length_b 28.052582
_cell_length_c 11.855154
_cell_angle_alpha 28.368304
_cell_angle_beta 131.914899
_cell_angle_gamma 152.637673
_cell_volume 747.959630
_symmetry_space_group_name_H-M "P -1"
_symmetry_group_IT_number 2
_symmetry_cell_setting 'triclinic'
loop_
_space_group_symop_operation_xyz
x,y,z
-x,-y,-z
loop_
_atom_site_type_symbol
_atom_site_label
_atom_site_fract_x
_atom_site_fract_y
_atom_site_fract_z
Si Si1 0.162411 0.732095 0.772395
Si Si2 0.765561 0.725165 0.710190
Si Si3 0.538690 0.736438 0.236872
Si Si4 0.369451 0.947857 0.139389
Si Si5 0.284029 0.908841 0.713423
Si Si6 0.481362 0.221093 0.617505
Si Si7 0.970863 0.427854 0.361171
Si Si8 0.985418 0.841486 0.369401
O O1 0.176190 0.766173 0.845014
O O2 0.014297 0.737412 0.588061
O O3 0.471545 0.887523 0.607122
O O4 0.985467 0.527847 0.072899
O O5 0.663999 0.779257 0.563095
O O6 0.913010 0.820514 0.492032
O O7 0.020993 0.827996 0.746058
O O8 0.500000 0.500000 0.000000
O O9 0.435312 0.677043 0.420618
O O10 0.739162 0.753837 0.311208
O O11 0.275428 0.577559 0.306808
O O12 0.709949 0.936612 0.912290
O O13 0.125930 0.725669 0.456209
O O14 0.605044 0.079869 0.122057
O O15 0.500000 0.000000 0.000000
O O16 0.263639 0.003616 0.947453
O O17 0.758621 0.334372 0.512298
#
# Coordination Sequence:
#
# PCOD8042106 Si02
#       8
#     2   2   2   2   2   2   2   2
#     4  10  19  35  62  84 107 141 187 234 273 323
#     4  10  20  33  56  86 110 134 182 238 276 321
#     4  10  19  34  58  80 110 144 184 232 270 324
#     4  10  23  38  52  77 116 153 184 219 272 333
#     4  10  20  38  59  83 112 145 180 228 284 323
#     4  10  20  36  55  79 112 147 182 227 277 321
#     4  11  21  34  53  83 110 144 190 223 264 329
#     4   9  19  33  53  86 111 135 177 235 290 315
#
# _framework density 21.391528000000001
#
# number of rings (size 3 to 8) (size 9 to 14) (size 15 to 20)
#    0.000    2.000    0.000    5.625    0.000    5.500 
#    0.000    3.750    0.000   14.250    0.000    3.500 
#    0.000    0.000    0.000    0.000    0.000    0.000 
#
# Total GULP energy -198257.380719 kJ/mol
# GULP energy per Si atom -12391.086295 kJ/mol
# Density = 2.134284 g / cm^3
# Si number density = 21.391528 Si / 1000 Ang^3
#
#
#
# Elastic Constant Matrix: (Units=GPa)
#
#
# Indices 1 2 3 4 5 6 
#
# 1 63.2925 48.4795 33.8338 -0.6476 9.8304 20.4573
# 2 48.4795 87.0695 48.6978 6.4816 20.0475 30.0999
# 3 33.8338 48.6978 151.2921 3.7365 38.3277 23.2713
# 4 -0.6476 6.4816 3.7365 23.1824 3.7318 -4.4175
# 5 9.8304 20.0475 38.3277 3.7318 41.6335 9.3154
# 6 20.4573 30.0999 23.2713 -4.4175 9.3154 30.4723
#
#
#
# Elastic Compliance Matrix: (Units=1/GPa)
#
#
# Indices 1 2 3 4 5 6 
#
# 1 0.028842 -0.014603 -0.001906 0.004116 0.002419 -0.003626
# 2 -0.014603 0.028241 -0.002062 -0.010647 -0.003496 -0.016992
# 3 -0.001906 -0.002062 0.009826 -0.000307 -0.007115 -0.002057
# 4 0.004116 -0.010647 -0.000307 0.049993 -0.003706 0.016368
# 5 0.002419 -0.003496 -0.007115 -0.003706 0.032749 -0.003285
# 6 -0.003626 -0.016992 -0.002057 0.016368 -0.003285 0.056983
#
#
# Mechanical properties :
#
#
# Convention : Reuss Voigt Hill
#
# Bulk Modulus (GPa) = 33.59487 62.63072 48.11279
# Shear Modulus (GPa) = 19.70836 30.43380 25.07108
#
# Velocity S-wave (km/s) = 3.03861 3.77597 3.42718
# Velocity P-wave (km/s) = 5.29620 6.95359 6.18070
#
# Compressibility (1/GPa) = 0.02976645
#
# Stress axis : x y z
#
# Youngs Moduli (GPa) = 34.67141 35.40977 101.76707
#
# Poissons Ratio (x) = 0.51708 0.19402
# Poissons Ratio (y) = 0.50630 0.20987
# Poissons Ratio (z) = 0.06610 0.07302
#
# Static dielectric constant tensor:
#      x y z
#    x 4.184760 0.440760 0.324490 
#    y 0.440760 3.980360 0.236920 
#    z 0.324490 0.236920 4.424810 
# 
# 
# High freq. dielectric constant tensor:
#      x y z
#    x 1.825950 0.026060 -0.005190 
#    y 0.026060 1.808330 0.022340 
#    z -0.005190 0.022340 1.856550 
# 
# From -- ./inp_files/439550.got.cif
#   From: 2010.06.25/outbox.cif.g09.slc.cpg/sg2_220_cif.got.tgz:439550.got - 2010.06.27 13:26:56.
