data_PCOD8042386
_publ_section_title
;
Structure prediction by ZEFSAII (Michael W. Deem and Ramdas Pophale) SiO2 
 PCOD8042386
Probable space group: P -1
;
_chemical_formula_sum "Si O2"
_cell_formula_units_Z 14
_cell_length_a 19.259141
_cell_length_b 6.675746
_cell_length_c 17.193505
_cell_angle_alpha 66.736231
_cell_angle_beta 148.483228
_cell_angle_gamma 134.772978
_cell_volume 683.162361
_symmetry_space_group_name_H-M "P -1"
_symmetry_group_IT_number 2
_symmetry_cell_setting 'triclinic'
loop_
_space_group_symop_operation_xyz
x,y,z
-x,-y,-z
loop_
_atom_site_type_symbol
_atom_site_label
_atom_site_fract_x
_atom_site_fract_y
_atom_site_fract_z
Si Si1 0.010927 0.286270 0.279068
Si Si2 0.927093 0.085426 0.977880
Si Si3 0.783977 0.318560 0.164156
Si Si4 0.304148 0.203350 0.761054
Si Si5 0.679278 0.639127 0.954866
Si Si6 0.064029 0.206078 0.626427
Si Si7 0.745569 0.282654 0.698396
O O1 0.193171 0.588606 0.350894
O O2 0.950016 0.423064 0.248411
O O3 0.075019 0.169079 0.414715
O O4 0.822870 0.953607 0.101131
O O5 0.819601 0.137500 0.816730
O O6 0.745649 0.770303 0.909765
O O7 0.135473 0.408939 0.174800
O O8 0.000000 0.000000 0.000000
O O9 0.897354 0.563446 0.308636
O O10 0.629282 0.931958 0.106203
O O11 0.671869 0.369095 0.001769
O O12 0.452886 0.440342 0.793860
O O13 0.279762 0.377364 0.770884
O O14 0.073476 0.860971 0.562272
O O15 0.500000 0.000000 0.500000
#
# Coordination Sequence:
#
# PCOD8042386 Si02
#       7
#     2   2   2   2   2   2   2
#     4   9  20  37  55  78 111 142 181 231 280 335
#     4  10  22  42  61  88 124 151 197 250 293 349
#     4  10  19  35  54  78 109 144 181 229 269 334
#     4  10  20  34  52  79 109 145 182 223 276 328
#     4  10  21  35  56  79 109 146 182 226 283 335
#     4   9  20  35  53  76 113 143 179 230 271 328
#     4  10  22  40  63  88 118 157 196 244 302 351
#
# _framework density 20.492930999999999
#
# number of rings (size 3 to 8) (size 9 to 14) (size 15 to 20)
#    0.000    2.286    0.000    1.714    2.000    6.857 
#    2.571    0.000    0.000    0.000    0.000    0.000 
#    0.000    0.000    0.000    0.000    0.000    0.000 
#
# Total GULP energy -173445.658081 kJ/mol
# GULP energy per Si atom -12388.975577 kJ/mol
# Density = 2.044629 g / cm^3
# Si number density = 20.492931 Si / 1000 Ang^3
#
#
#
# Elastic Constant Matrix: (Units=GPa)
#
#
# Indices 1 2 3 4 5 6 
#
# 1 169.0848 62.0380 41.1060 6.9493 27.8466 -1.1928
# 2 62.0380 78.8040 38.9753 -3.8783 23.8373 4.5185
# 3 41.1060 38.9753 78.6356 3.6425 16.2323 3.0642
# 4 6.9493 -3.8783 3.6425 20.5040 7.8122 5.2609
# 5 27.8466 23.8373 16.2323 7.8122 27.8103 5.0846
# 6 -1.1928 4.5185 3.0642 5.2609 5.0846 42.5445
#
#
#
# Elastic Compliance Matrix: (Units=1/GPa)
#
#
# Indices 1 2 3 4 5 6 
#
# 1 0.008955 -0.006022 -0.001084 -0.003460 -0.002511 0.001697
# 2 -0.006022 0.027074 -0.007438 0.015484 -0.016742 -0.002422
# 3 -0.001084 -0.007438 0.017497 -0.003502 -0.001795 0.000147
# 4 -0.003460 0.015484 -0.003502 0.064584 -0.024713 -0.006522
# 5 -0.002511 -0.016742 -0.001795 -0.024713 0.061256 -0.002428
# 6 0.001697 -0.002422 0.000147 -0.006522 -0.002428 0.024896
#
#
# Mechanical properties :
#
#
# Convention : Reuss Voigt Hill
#
# Bulk Modulus (GPa) = 40.91923 67.86256 54.39090
# Shear Modulus (GPa) = 20.70433 30.46541 25.58487
#
# Velocity S-wave (km/s) = 3.18199 3.85987 3.53721
# Velocity P-wave (km/s) = 5.78886 7.28366 6.57886
#
# Compressibility (1/GPa) = 0.02443839
#
# Stress axis : x y z
#
# Youngs Moduli (GPa) = 111.67308 36.93547 57.15159
#
# Poissons Ratio (x) = 0.22241 0.06195
# Poissons Ratio (y) = 0.67245 0.42511
# Poissons Ratio (z) = 0.12106 0.27474
#
# Static dielectric constant tensor:
#      x y z
#    x 3.959490 0.168070 0.023630 
#    y 0.168070 3.946290 -0.172550 
#    z 0.023630 -0.172550 3.369410 
# 
# 
# High freq. dielectric constant tensor:
#      x y z
#    x 1.819820 0.001220 0.001460 
#    y 0.001220 1.804700 -0.014510 
#    z 0.001460 -0.014510 1.778420 
# 
# From -- ./inp_files/46003.got.cif
#   From: 2010.06.25/outbox.cif.g09.slc.cpg/sg2_24_cif.got.tgz:46003.got - 2010.06.27 13:26:56.
