data_PCOD8042588
_publ_section_title
;
Structure prediction by ZEFSAII (Michael W. Deem and Ramdas Pophale) SiO2 
 PCOD8042588
Probable space group: P -1
;
_chemical_formula_sum "Si O2"
_cell_formula_units_Z 16
_cell_length_a 9.612615
_cell_length_b 13.786519
_cell_length_c 9.437251
_cell_angle_alpha 40.463639
_cell_angle_beta 63.393943
_cell_angle_gamma 51.481610
_cell_volume 634.203129
_symmetry_space_group_name_H-M "P -1"
_symmetry_group_IT_number 2
_symmetry_cell_setting 'triclinic'
loop_
_space_group_symop_operation_xyz
x,y,z
-x,-y,-z
loop_
_atom_site_type_symbol
_atom_site_label
_atom_site_fract_x
_atom_site_fract_y
_atom_site_fract_z
Si Si1 0.467915 0.078340 0.098867
Si Si2 0.532734 0.321755 0.010064
Si Si3 0.790446 0.333576 0.305896
Si Si4 0.589850 0.833182 0.550462
Si Si5 0.059684 0.252902 0.019184
Si Si6 0.997406 0.613142 0.599182
Si Si7 0.122612 0.799201 0.148539
Si Si8 0.752706 0.091424 0.784748
O O1 0.258052 0.149558 0.105819
O O2 0.553819 0.887505 0.341128
O O3 0.501733 0.197046 0.059300
O O4 0.573110 0.072696 0.908171
O O5 0.405236 0.516571 0.808308
O O6 0.741129 0.277476 0.961486
O O7 0.490967 0.289648 0.226876
O O8 0.768863 0.168373 0.541129
O O9 0.916612 0.285843 0.166208
O O10 0.875770 0.395524 0.321150
O O11 0.797628 0.737777 0.599078
O O12 0.500000 0.000000 0.500000
O O13 0.070687 0.108025 0.059569
O O14 0.025571 0.424416 0.766339
O O15 0.033237 0.682488 0.357658
O O16 0.256860 0.772083 0.249295
O O17 0.000000 0.000000 0.000000
#
# Coordination Sequence:
#
# PCOD8042588 Si02
#       8
#     2   2   2   2   2   2   2   2
#     4  10  21  37  59  86 120 153 198 239 296 342
#     4  10  19  35  61  88 115 148 201 248 286 341
#     4  11  21  37  60  90 117 153 199 248 289 340
#     4  10  19  35  58  90 116 148 191 252 288 338
#     4  12  22  38  59  91 119 155 198 240 294 350
#     4  11  21  35  64  90 115 153 204 243 285 342
#     4  10  22  40  61  89 117 155 197 241 297 347
#     4  10  24  38  60  84 123 157 189 241 303 349
#
# _framework density 25.22851
#
# number of rings (size 3 to 8) (size 9 to 14) (size 15 to 20)
#    0.000    1.500    2.500    4.875    1.750    2.500 
#    0.000    2.500    0.000    1.500    0.000    0.000 
#    0.000    0.000    0.000    0.000    0.000    0.000 
#
# Total GULP energy -198302.262166 kJ/mol
# GULP energy per Si atom -12393.891385 kJ/mol
# Density = 2.517109 g / cm^3
# Si number density = 25.228510 Si / 1000 Ang^3
#
#
#
# Elastic Constant Matrix: (Units=GPa)
#
#
# Indices 1 2 3 4 5 6 
#
# 1 35.4319 41.0487 29.5977 7.3892 -4.4885 -12.3217
# 2 41.0487 136.6738 86.0442 5.2561 -8.1581 -37.9448
# 3 29.5977 86.0442 233.9887 6.9358 -15.2576 -21.0359
# 4 7.3892 5.2561 6.9358 48.6484 -13.0312 -1.2807
# 5 -4.4885 -8.1581 -15.2576 -13.0312 34.3137 -2.5599
# 6 -12.3217 -37.9448 -21.0359 -1.2807 -2.5599 47.8127
#
#
#
# Elastic Compliance Matrix: (Units=1/GPa)
#
#
# Indices 1 2 3 4 5 6 
#
# 1 0.044821 -0.012351 -0.000813 -0.005133 0.000712 0.001292
# 2 -0.012351 0.015258 -0.003299 0.001331 0.001617 0.007596
# 3 -0.000813 -0.003299 0.005673 0.000108 0.001655 -0.000241
# 4 -0.005133 0.001331 0.000108 0.023528 0.008694 0.000877
# 5 0.000712 0.001617 0.001655 0.008694 0.033975 0.004247
# 6 0.001292 0.007596 -0.000241 0.000877 0.004247 0.027421
#
#
# Mechanical properties :
#
#
# Convention : Reuss Voigt Hill
#
# Bulk Modulus (GPa) = 30.46503 79.94173 55.20338
# Shear Modulus (GPa) = 25.70098 42.78189 34.24144
#
# Velocity S-wave (km/s) = 3.19521 4.12245 3.68809
# Velocity P-wave (km/s) = 5.07093 7.37667 6.32968
#
# Compressibility (1/GPa) = 0.03282452
#
# Stress axis : x y z
#
# Youngs Moduli (GPa) = 22.31077 65.53999 176.27638
#
# Poissons Ratio (x) = 0.80952 0.14329
# Poissons Ratio (y) = 0.27557 0.58162
# Poissons Ratio (z) = 0.01814 0.21625
#
# Static dielectric constant tensor:
#      x y z
#    x 6.287650 0.611270 -0.075970 
#    y 0.611270 5.042480 0.362550 
#    z -0.075970 0.362550 5.444760 
# 
# 
# High freq. dielectric constant tensor:
#      x y z
#    x 2.011940 -0.009090 -0.004220 
#    y -0.009090 2.012130 0.007360 
#    z -0.004220 0.007360 2.024400 
# 
# From -- ./inp_files/186046.got.cif
#   From: 2010.06.25/outbox.cif.g09.slc.cpg/sg2_94_cif.got.tgz:186046.got - 2010.06.27 13:26:56.
