data_PCOD8042000
_publ_section_title
;
Structure prediction by ZEFSAII (Michael W. Deem and Ramdas Pophale) SiO2 
 PCOD8042000
Probable space group: P -1
;
_chemical_formula_sum "Si O2"
_cell_formula_units_Z 16
_cell_length_a 24.989368
_cell_length_b 10.953918
_cell_length_c 9.817932
_cell_angle_alpha 27.617805
_cell_angle_beta 44.930308
_cell_angle_gamma 43.552460
_cell_volume 839.992915
_symmetry_space_group_name_H-M "P -1"
_symmetry_group_IT_number 2
_symmetry_cell_setting 'triclinic'
loop_
_space_group_symop_operation_xyz
x,y,z
-x,-y,-z
loop_
_atom_site_type_symbol
_atom_site_label
_atom_site_fract_x
_atom_site_fract_y
_atom_site_fract_z
Si Si1 0.142405 0.387531 0.646531
Si Si2 0.843940 0.632884 0.680072
Si Si3 0.957842 0.001481 0.716022
Si Si4 0.932818 0.043822 0.188020
Si Si5 0.573707 0.492476 0.282109
Si Si6 0.321027 0.160276 0.566359
Si Si7 0.669812 0.883214 0.721914
Si Si8 0.578031 0.457411 0.990441
O O1 0.144993 0.333479 0.533974
O O2 0.229984 0.271940 0.671505
O O3 0.108190 0.711425 0.416294
O O4 0.085614 0.233978 0.970945
O O5 0.754041 0.772450 0.754131
O O6 0.899679 0.781957 0.510045
O O7 0.863659 0.317975 0.002391
O O8 0.030821 0.927820 0.760736
O O9 0.000000 0.000000 0.500000
O O10 0.000000 0.000000 0.000000
O O11 0.500000 0.500000 0.500000
O O12 0.551507 0.513387 0.140994
O O13 0.641532 0.209165 0.468866
O O14 0.605384 0.740767 0.034305
O O15 0.317029 0.213025 0.361514
O O16 0.360834 0.843536 0.845912
O O17 0.376226 0.334213 0.355512
O O18 0.500000 0.500000 0.000000
#
# Coordination Sequence:
#
# PCOD8042000 Si02
#       8
#     2   2   2   2   2   2   2   2
#     4  11  20  38  60  83 109 145 189 232 272 326
#     4  11  20  35  61  87 109 137 188 246 273 306
#     4  12  25  38  57  80 115 152 184 220 279 341
#     4  12  21  36  59  86 109 140 188 232 279 321
#     4  10  19  34  56  79 110 145 176 210 264 332
#     4   9  19  33  57  83 104 138 183 225 265 311
#     4   9  19  33  54  84 108 138 180 221 268 315
#     4  10  19  34  56  83 108 136 178 226 264 309
#
# _framework density 19.047779999999999
#
# number of rings (size 3 to 8) (size 9 to 14) (size 15 to 20)
#    0.000    1.500    2.500    3.750    0.000    4.000 
#    0.000    0.000   16.500    0.000    0.000    0.000 
#    0.000    0.000    0.000    0.000    0.000    0.000 
#
# Total GULP energy -198424.297781 kJ/mol
# GULP energy per Si atom -12401.518611 kJ/mol
# Density = 1.900443 g / cm^3
# Si number density = 19.047780 Si / 1000 Ang^3
#
#
#
# Elastic Constant Matrix: (Units=GPa)
#
#
# Indices 1 2 3 4 5 6 
#
# 1 99.1737 31.8571 15.8209 6.8208 -5.0125 -11.0240
# 2 31.8571 47.9580 12.5962 9.7168 7.1670 -8.7641
# 3 15.8209 12.5962 72.4547 -2.3852 -8.8487 7.6765
# 4 6.8208 9.7168 -2.3852 34.0211 -3.1613 1.3259
# 5 -5.0125 7.1670 -8.8487 -3.1613 32.9359 -3.6006
# 6 -11.0240 -8.7641 7.6765 1.3259 -3.6006 22.5108
#
#
#
# Elastic Compliance Matrix: (Units=1/GPa)
#
#
# Indices 1 2 3 4 5 6 
#
# 1 0.013779 -0.008437 -0.001555 -0.000271 0.003997 0.004649
# 2 -0.008437 0.033531 -0.006622 -0.009690 -0.010183 0.010123
# 3 -0.001555 -0.006622 0.016975 0.004213 0.005236 -0.008539
# 4 -0.000271 -0.009690 0.004213 0.033289 0.005695 -0.006392
# 5 0.003997 -0.010183 0.005236 0.005695 0.035306 0.001519
# 6 0.004649 0.010123 -0.008539 -0.006392 0.001519 0.054172
#
#
# Mechanical properties :
#
#
# Convention : Reuss Voigt Hill
#
# Bulk Modulus (GPa) = 32.20013 37.79278 34.99645
# Shear Modulus (GPa) = 21.67945 28.51439 25.09692
#
# Velocity S-wave (km/s) = 3.37732 3.87330 3.63378
# Velocity P-wave (km/s) = 5.67010 6.31564 6.00156
#
# Compressibility (1/GPa) = 0.03105578
#
# Stress axis : x y z
#
# Youngs Moduli (GPa) = 72.57326 29.82357 58.90893
#
# Poissons Ratio (x) = 0.25164 0.09161
# Poissons Ratio (y) = 0.61233 0.39009
# Poissons Ratio (z) = 0.11287 0.19749
#
# Static dielectric constant tensor:
#      x y z
#    x 3.432490 -0.188100 -0.123000 
#    y -0.188100 3.396570 -0.120060 
#    z -0.123000 -0.120060 3.567060 
# 
# 
# High freq. dielectric constant tensor:
#      x y z
#    x 1.736470 -0.024280 -0.013140 
#    y -0.024280 1.723560 -0.016960 
#    z -0.013140 -0.016960 1.754130 
# 
# From -- ./inp_files/109381.got.cif
#   From: 2010.06.25/outbox.cif.g09.slc.cpg/sg2_55_cif.got.tgz:109381.got - 2010.06.27 13:26:56.
