data_PCOD8042795
_publ_section_title
;
Structure prediction by ZEFSAII (Michael W. Deem and Ramdas Pophale) SiO2 
 PCOD8042795
Probable space group: P -1
;
_chemical_formula_sum "Si O2"
_cell_formula_units_Z 12
_cell_length_a 10.520087
_cell_length_b 8.273140
_cell_length_c 11.714146
_cell_angle_alpha 142.239076
_cell_angle_beta 90.218849
_cell_angle_gamma 76.211324
_cell_volume 576.384633
_symmetry_space_group_name_H-M "P -1"
_symmetry_group_IT_number 2
_symmetry_cell_setting 'triclinic'
loop_
_space_group_symop_operation_xyz
x,y,z
-x,-y,-z
loop_
_atom_site_type_symbol
_atom_site_label
_atom_site_fract_x
_atom_site_fract_y
_atom_site_fract_z
Si Si1 0.658108 0.302984 0.887170
Si Si2 0.161683 0.338648 0.891742
Si Si3 0.831087 0.035399 0.942364
Si Si4 0.811669 0.972385 0.507537
Si Si5 0.875205 0.124224 0.230511
Si Si6 0.896627 0.389060 0.598281
O O1 0.685128 0.079816 0.657304
O O2 0.698702 0.143051 0.920167
O O3 0.500000 0.500000 0.000000
O O4 0.752368 0.482868 0.964620
O O5 0.201298 0.249850 0.709991
O O6 0.202641 0.056567 0.811185
O O7 0.000000 0.500000 0.000000
O O8 0.864502 0.715719 0.811393
O O9 0.960774 0.060326 0.890553
O O10 0.804534 0.231045 0.166387
O O11 0.811823 0.256956 0.603732
O O12 0.944767 0.812615 0.496036
O O13 0.860717 0.385089 0.460969
#
# Coordination Sequence:
#
# PCOD8042795 Si02
#       6
#     2   2   2   2   2   2
#     4  12  26  41  58  88 128 167 199 237 302 369
#     4  11  20  40  64  88 119 156 205 250 296 355
#     4  11  21  34  58  93 122 150 196 257 301 343
#     4  10  21  37  62  88 123 162 195 245 307 356
#     4  10  20  33  59  92 116 148 190 259 304 339
#     4  10  19  35  61  94 119 144 202 261 303 340
#
# _framework density 20.819431000000002
#
# number of rings (size 3 to 8) (size 9 to 14) (size 15 to 20)
#    0.000    1.333    3.333    4.500    2.333    0.667 
#    0.000    3.333    0.000    4.000    0.000    0.000 
#    0.000    0.000    0.000    0.000    0.000    0.000 
#
# Total GULP energy -148752.779394 kJ/mol
# GULP energy per Si atom -12396.064949 kJ/mol
# Density = 2.077204 g / cm^3
# Si number density = 20.819431 Si / 1000 Ang^3
#
#
#
# Elastic Constant Matrix: (Units=GPa)
#
#
# Indices 1 2 3 4 5 6 
#
# 1 60.9417 23.0641 20.6128 -1.0022 -8.1644 -14.4499
# 2 23.0641 99.1779 37.8491 -20.6465 -6.5784 -10.0633
# 3 20.6128 37.8491 111.9142 -38.2909 -8.9927 -14.7221
# 4 -1.0022 -20.6465 -38.2909 40.7527 7.4495 6.3161
# 5 -8.1644 -6.5784 -8.9927 7.4495 28.9680 9.9605
# 6 -14.4499 -10.0633 -14.7221 6.3161 9.9605 20.0636
#
#
#
# Elastic Compliance Matrix: (Units=1/GPa)
#
#
# Indices 1 2 3 4 5 6 
#
# 1 0.022164 -0.003906 -0.003252 -0.006796 0.001649 0.012938
# 2 -0.003906 0.012737 -0.001991 0.004400 -0.000252 0.000855
# 3 -0.003252 -0.001991 0.014968 0.012559 -0.001471 0.004419
# 4 -0.006796 0.004400 0.012559 0.040007 -0.006294 -0.002942
# 5 0.001649 -0.000252 -0.001471 -0.006294 0.042705 -0.019237
# 6 0.012938 0.000855 0.004419 -0.002942 -0.019237 0.073307
#
#
# Mechanical properties :
#
#
# Convention : Reuss Voigt Hill
#
# Bulk Modulus (GPa) = 31.67370 48.34287 40.00829
# Shear Modulus (GPa) = 21.30294 30.65737 25.98016
#
# Velocity S-wave (km/s) = 3.20226 3.84153 3.53637
# Velocity P-wave (km/s) = 5.37765 6.55339 5.99442
#
# Compressibility (1/GPa) = 0.03157193
#
# Stress axis : x y z
#
# Youngs Moduli (GPa) = 45.11771 78.51224 66.81021
#
# Poissons Ratio (x) = 0.30666 0.21727
# Poissons Ratio (y) = 0.17622 0.13299
# Poissons Ratio (z) = 0.14673 0.15628
#
# Static dielectric constant tensor:
#      x y z
#    x 3.966300 0.354270 0.249960 
#    y 0.354270 3.869980 -0.263170 
#    z 0.249960 -0.263170 3.940300 
# 
# 
# High freq. dielectric constant tensor:
#      x y z
#    x 1.752480 0.027140 0.019780 
#    y 0.027140 1.821170 -0.024160 
#    z 0.019780 -0.024160 1.830340 
# 
# From -- ./inp_files/152163.got.cif
#   From: 2010.06.25/outbox.cif.g09.slc.cpg/sg2_77_cif.got.tgz:152163.got - 2010.06.27 13:26:56.
