data_PCOD8042322
_publ_section_title
;
Structure prediction by ZEFSAII (Michael W. Deem and Ramdas Pophale) SiO2 
 PCOD8042322
Probable space group: P -1
;
_chemical_formula_sum "Si O2"
_cell_formula_units_Z 16
_cell_length_a 9.309596
_cell_length_b 15.590005
_cell_length_c 8.757617
_cell_angle_alpha 57.174347
_cell_angle_beta 96.604710
_cell_angle_gamma 126.234194
_cell_volume 821.023806
_symmetry_space_group_name_H-M "P -1"
_symmetry_group_IT_number 2
_symmetry_cell_setting 'triclinic'
loop_
_space_group_symop_operation_xyz
x,y,z
-x,-y,-z
loop_
_atom_site_type_symbol
_atom_site_label
_atom_site_fract_x
_atom_site_fract_y
_atom_site_fract_z
Si Si1 0.870486 0.218472 0.235239
Si Si2 0.338946 0.976654 0.839963
Si Si3 0.758712 0.482711 0.556441
Si Si4 0.003688 0.575375 0.205184
Si Si5 0.107663 0.264967 0.495515
Si Si6 0.755851 0.145342 0.745296
Si Si7 0.587034 0.763706 0.412410
Si Si8 0.285745 0.705004 0.627578
O O1 0.767315 0.074348 0.286892
O O2 0.714341 0.210931 0.320575
O O3 0.046293 0.266586 0.314192
O O4 0.933624 0.307069 0.009138
O O5 0.544018 0.017616 0.798575
O O6 0.354989 0.100514 0.783083
O O7 0.226292 0.858508 0.066165
O O8 0.890706 0.566292 0.346967
O O9 0.767547 0.588142 0.559943
O O10 0.547814 0.362460 0.592998
O O11 0.821761 0.414106 0.729777
O O12 0.867781 0.447414 0.204542
O O13 0.227753 0.216576 0.549795
O O14 0.919017 0.153603 0.675007
O O15 0.780820 0.273881 0.564852
O O16 0.486931 0.743937 0.582841
#
# Coordination Sequence:
#
# PCOD8042322 Si02
#       8
#     2   2   2   2   2   2   2   2
#     4  11  22  34  61  86 116 144 188 236 278 338
#     4  10  22  37  58  87 110 149 192 236 273 328
#     4  10  20  36  63  86 111 143 189 245 276 326
#     4  10  19  34  63  91 106 140 193 241 284 316
#     4  11  22  39  58  84 117 152 183 229 288 340
#     4   9  19  37  59  82 111 141 196 235 272 320
#     4  10  23  38  58  80 119 155 188 221 284 336
#     4   9  19  37  56  87 111 147 185 240 280 324
#
# _framework density 19.487863000000001
#
# number of rings (size 3 to 8) (size 9 to 14) (size 15 to 20)
#    0.000    2.000    2.500    1.500    8.750    5.500 
#    0.000    2.500    5.500    0.000    0.000    0.000 
#    0.000    0.000    0.000    0.000    0.000    0.000 
#
# Total GULP energy -198261.987500 kJ/mol
# GULP energy per Si atom -12391.374219 kJ/mol
# Density = 1.944351 g / cm^3
# Si number density = 19.487863 Si / 1000 Ang^3
#
#
#
# Elastic Constant Matrix: (Units=GPa)
#
#
# Indices 1 2 3 4 5 6 
#
# 1 142.9710 37.8954 42.4120 6.1968 -1.2186 4.3923
# 2 37.8954 107.9871 42.1933 13.9243 4.3054 -2.8809
# 3 42.4120 42.1933 91.3478 5.3035 1.1427 6.8569
# 4 6.1968 13.9243 5.3035 19.3557 3.3793 1.0347
# 5 -1.2186 4.3054 1.1427 3.3793 15.3884 -2.1297
# 6 4.3923 -2.8809 6.8569 1.0347 -2.1297 16.8139
#
#
#
# Elastic Compliance Matrix: (Units=1/GPa)
#
#
# Indices 1 2 3 4 5 6 
#
# 1 0.008429 -0.001773 -0.002987 -0.000795 0.001413 -0.001060
# 2 -0.001773 0.013032 -0.005132 -0.007491 -0.001052 0.005117
# 3 -0.002987 -0.005132 0.015144 0.001027 -0.001046 -0.006471
# 4 -0.000795 -0.007491 0.001027 0.059484 -0.012030 -0.006679
# 5 0.001413 -0.001052 -0.001046 -0.012030 0.069412 0.009409
# 6 -0.001060 0.005117 -0.006471 -0.006679 0.009409 0.064870
#
#
# Mechanical properties :
#
#
# Convention : Reuss Voigt Hill
#
# Bulk Modulus (GPa) = 59.44956 65.25638 62.35297
# Shear Modulus (GPa) = 19.54941 24.96530 22.25735
#
# Velocity S-wave (km/s) = 3.17070 3.58309 3.38318
# Velocity P-wave (km/s) = 6.63149 7.11873 6.87943
#
# Compressibility (1/GPa) = 0.01682098
#
# Stress axis : x y z
#
# Youngs Moduli (GPa) = 118.63117 76.73192 66.03462
#
# Poissons Ratio (x) = 0.13607 0.19722
# Poissons Ratio (y) = 0.21037 0.33891
# Poissons Ratio (z) = 0.35431 0.39381
#
# Static dielectric constant tensor:
#      x y z
#    x 3.386820 0.080710 -0.115100 
#    y 0.080710 3.614460 0.000890 
#    z -0.115100 0.000890 3.510070 
# 
# 
# High freq. dielectric constant tensor:
#      x y z
#    x 1.730830 0.005620 -0.007720 
#    y 0.005620 1.766340 -0.005630 
#    z -0.007720 -0.005630 1.751060 
# 
# From -- ./inp_files/205943.got.cif
#   From: 2010.06.25/outbox.cif.g09.slc.cpg/sg2_103_cif.got.tgz:205943.got - 2010.06.27 13:26:56.
