data_PCOD8042972
_publ_section_title
;
Structure prediction by ZEFSAII (Michael W. Deem and Ramdas Pophale) SiO2 
 PCOD8042972
Probable space group: P -1
;
_chemical_formula_sum "Si O2"
_cell_formula_units_Z 14
_cell_length_a 19.638576
_cell_length_b 10.047992
_cell_length_c 13.866447
_cell_angle_alpha 123.543641
_cell_angle_beta 150.624133
_cell_angle_gamma 37.982996
_cell_volume 739.835729
_symmetry_space_group_name_H-M "P -1"
_symmetry_group_IT_number 2
_symmetry_cell_setting 'triclinic'
loop_
_space_group_symop_operation_xyz
x,y,z
-x,-y,-z
loop_
_atom_site_type_symbol
_atom_site_label
_atom_site_fract_x
_atom_site_fract_y
_atom_site_fract_z
Si Si1 0.836998 0.410747 0.753707
Si Si2 0.947064 0.665368 0.684494
Si Si3 0.385055 0.317563 0.006542
Si Si4 0.461211 0.074191 0.822657
Si Si5 0.540170 0.463821 0.685435
Si Si6 0.863520 0.663701 0.035005
Si Si7 0.798874 0.144054 0.710969
O O1 0.615486 0.549216 0.486144
O O2 0.923642 0.187161 0.835350
O O3 0.006919 0.302608 0.838288
O O4 0.787539 0.607718 0.836414
O O5 0.147025 0.459563 0.780955
O O6 0.986082 0.559716 0.795722
O O7 0.745542 0.752023 0.427761
O O8 0.927479 0.872162 0.751153
O O9 0.453272 0.237707 0.947470
O O10 0.535217 0.084035 0.167718
O O11 0.405808 0.484566 0.130648
O O12 0.662854 0.913644 0.938995
O O13 0.753539 0.217451 0.798229
O O14 0.425667 0.679960 0.551915
#
# Coordination Sequence:
#
# PCOD8042972 Si02
#       7
#     2   2   2   2   2   2   2
#     4   9  18  36  55  79 109 141 173 211 267 335
#     4  11  20  33  57  86 101 134 184 225 254 313
#     4  10  20  32  56  79 105 145 175 217 273 300
#     4  10  19  36  51  77 114 139 175 222 259 314
#     4   9  17  34  56  77 106 140 170 217 263 316
#     4  10  21  35  57  77 109 145 172 210 277 309
#     4   9  17  32  57  76 111 129 170 224 262 301
#
# _framework density 18.923119
#
# number of rings (size 3 to 8) (size 9 to 14) (size 15 to 20)
#    0.857    1.429    1.429    3.000    0.000    2.286 
#    0.000    8.571    0.000    1.714    0.000    0.000 
#    0.000    0.000    0.000    0.000    0.000    0.000 
#
# Total GULP energy -173539.827135 kJ/mol
# GULP energy per Si atom -12395.701938 kJ/mol
# Density = 1.888005 g / cm^3
# Si number density = 18.923119 Si / 1000 Ang^3
#
#
#
# Elastic Constant Matrix: (Units=GPa)
#
#
# Indices 1 2 3 4 5 6 
#
# 1 93.4723 49.6130 51.7283 7.5829 26.2480 -17.2454
# 2 49.6130 100.8520 34.2679 12.0609 5.2447 -24.1264
# 3 51.7283 34.2679 78.5726 9.6711 10.9226 -8.8152
# 4 7.5829 12.0609 9.6711 29.1187 4.0760 -3.6318
# 5 26.2480 5.2447 10.9226 4.0760 25.3731 -0.7635
# 6 -17.2454 -24.1264 -8.8152 -3.6318 -0.7635 30.6049
#
#
#
# Elastic Compliance Matrix: (Units=1/GPa)
#
#
# Indices 1 2 3 4 5 6 
#
# 1 0.029223 -0.007862 -0.012242 0.003862 -0.023758 0.006609
# 2 -0.007862 0.016265 -0.001423 -0.004142 0.006279 0.007647
# 3 -0.012242 -0.001423 0.021027 -0.004128 0.004499 -0.002341
# 4 0.003862 -0.004142 -0.004128 0.037704 -0.007358 0.002012
# 5 -0.023758 0.006279 0.004499 -0.007358 0.061741 -0.006474
# 6 0.006609 0.007647 -0.002341 0.002012 -0.006474 0.041830
#
#
# Mechanical properties :
#
#
# Convention : Reuss Voigt Hill
#
# Bulk Modulus (GPa) = 42.62142 60.45727 51.53934
# Shear Modulus (GPa) = 19.33011 26.17184 22.75097
#
# Velocity S-wave (km/s) = 3.19957 3.72299 3.47116
# Velocity P-wave (km/s) = 6.01847 7.10627 6.58487
#
# Compressibility (1/GPa) = 0.02346238
#
# Stress axis : x y z
#
# Youngs Moduli (GPa) = 34.21929 61.48277 47.55797
#
# Poissons Ratio (x) = 0.48337 0.58219
# Poissons Ratio (y) = 0.26903 0.06766
# Poissons Ratio (z) = 0.41890 0.08747
#
# Static dielectric constant tensor:
#      x y z
#    x 3.199570 -0.170080 -0.012710 
#    y -0.170080 3.412910 0.025490 
#    z -0.012710 0.025490 3.386310 
# 
# 
# High freq. dielectric constant tensor:
#      x y z
#    x 1.699330 -0.016540 -0.000370 
#    y -0.016540 1.731430 0.000130 
#    z -0.000370 0.000130 1.738570 
# 
# From -- ./inp_files/438988.got.cif
#   From: 2010.06.25/outbox.cif.g09.slc.cpg/sg2_220_cif.got.tgz:438988.got - 2010.06.27 13:26:56.
