data_PCOD8042715
_publ_section_title
;
Structure prediction by ZEFSAII (Michael W. Deem and Ramdas Pophale) SiO2 
 PCOD8042715
Probable space group: P -1
;
_chemical_formula_sum "Si O2"
_cell_formula_units_Z 16
_cell_length_a 9.617383
_cell_length_b 14.267063
_cell_length_c 9.221506
_cell_angle_alpha 131.088791
_cell_angle_beta 107.878316
_cell_angle_gamma 100.918623
_cell_volume 760.751069
_symmetry_space_group_name_H-M "P -1"
_symmetry_group_IT_number 2
_symmetry_cell_setting 'triclinic'
loop_
_space_group_symop_operation_xyz
x,y,z
-x,-y,-z
loop_
_atom_site_type_symbol
_atom_site_label
_atom_site_fract_x
_atom_site_fract_y
_atom_site_fract_z
Si Si1 0.262537 0.132840 0.671816
Si Si2 0.858160 0.471478 0.090818
Si Si3 0.193557 0.959081 0.199989
Si Si4 0.401637 0.844502 0.226967
Si Si5 0.413988 0.257934 0.393971
Si Si6 0.672564 0.614647 0.255596
Si Si7 0.819291 0.786920 0.979417
Si Si8 0.198291 0.502692 0.223063
O O1 0.461298 0.186963 0.836070
O O2 0.239057 0.237061 0.660558
O O3 0.195108 0.986022 0.403439
O O4 0.160053 0.117003 0.771527
O O5 0.796425 0.553691 0.259801
O O6 0.040933 0.506826 0.251680
O O7 0.716538 0.295695 0.849644
O O8 0.868036 0.539500 0.005933
O O9 0.267472 0.853815 0.085551
O O10 0.318020 0.103450 0.292060
O O11 0.987547 0.874234 0.014597
O O12 0.500000 0.000000 0.500000
O O13 0.376063 0.366711 0.579200
O O14 0.342852 0.234863 0.184991
O O15 0.622953 0.336879 0.535322
O O16 0.500000 0.500000 0.000000
O O17 0.780826 0.626562 0.842354
#
# Coordination Sequence:
#
# PCOD8042715 Si02
#       8
#     2   2   2   2   2   2   2   2
#     4  10  20  35  62  91 117 152 204 249 294 348
#     4  11  20  36  62  90 122 152 200 255 295 346
#     4  10  22  41  61  87 120 160 206 240 297 362
#     4  10  19  35  60  89 118 156 197 248 299 350
#     4  11  24  41  61  86 125 164 194 243 309 358
#     4  11  18  36  61  89 115 157 203 242 291 357
#     4  12  22  40  60  93 123 154 199 253 301 355
#     4  11  22  36  58  92 121 153 197 250 298 345
#
# _framework density 21.031846000000002
#
# number of rings (size 3 to 8) (size 9 to 14) (size 15 to 20)
#    0.000    1.250    5.000    2.625    0.000    0.000 
#    0.000    2.500    0.000    0.000    0.000    0.000 
#    0.000    0.000    0.000    0.000    0.000    0.000 
#
# Total GULP energy -198227.648065 kJ/mol
# GULP energy per Si atom -12389.228004 kJ/mol
# Density = 2.098398 g / cm^3
# Si number density = 21.031846 Si / 1000 Ang^3
#
#
#
# Elastic Constant Matrix: (Units=GPa)
#
#
# Indices 1 2 3 4 5 6 
#
# 1 128.7150 42.3954 13.8613 11.3099 21.3545 -13.5290
# 2 42.3954 79.0740 19.0251 12.8612 2.3174 -4.1581
# 3 13.8613 19.0251 41.4657 -0.8345 9.3496 -1.6439
# 4 11.3099 12.8612 -0.8345 32.2453 4.1463 6.4958
# 5 21.3545 2.3174 9.3496 4.1463 33.1606 5.8063
# 6 -13.5290 -4.1581 -1.6439 6.4958 5.8063 30.0336
#
#
#
# Elastic Compliance Matrix: (Units=1/GPa)
#
#
# Indices 1 2 3 4 5 6 
#
# 1 0.011785 -0.005537 0.000690 -0.002182 -0.008289 0.006654
# 2 -0.005537 0.018377 -0.007905 -0.006264 0.005302 -0.000053
# 3 0.000690 -0.007905 0.029725 0.004525 -0.009124 0.001628
# 4 -0.002182 -0.006264 0.004525 0.036524 -0.002418 -0.009035
# 5 -0.008289 0.005302 -0.009124 -0.002418 0.039869 -0.010684
# 6 0.006654 -0.000053 0.001628 -0.009035 -0.010684 0.040395
#
#
# Mechanical properties :
#
#
# Convention : Reuss Voigt Hill
#
# Bulk Modulus (GPa) = 29.08304 44.42425 36.75365
# Shear Modulus (GPa) = 23.40386 30.68609 27.04497
#
# Velocity S-wave (km/s) = 3.33946 3.82387 3.58984
# Velocity P-wave (km/s) = 5.35980 6.37685 5.89031
#
# Compressibility (1/GPa) = 0.03438430
#
# Stress axis : x y z
#
# Youngs Moduli (GPa) = 84.85544 54.41506 33.64124
#
# Poissons Ratio (x) = 0.30127 -0.02320
# Poissons Ratio (y) = 0.46981 0.26592
# Poissons Ratio (z) = -0.05852 0.43013
#
# Static dielectric constant tensor:
#      x y z
#    x 4.645070 -0.290170 0.088940 
#    y -0.290170 3.595820 0.245270 
#    z 0.088940 0.245270 3.604050 
# 
# 
# High freq. dielectric constant tensor:
#      x y z
#    x 1.840130 -0.010990 0.019740 
#    y -0.010990 1.815910 0.020650 
#    z 0.019740 0.020650 1.788370 
# 
# From -- ./inp_files/209150.got.cif
#   From: 2010.06.25/outbox.cif.g09.slc.cpg/sg2_105_cif.got.tgz:209150.got - 2010.06.27 13:26:56.
