data_PCOD8042013
_publ_section_title
;
Structure prediction by ZEFSAII (Michael W. Deem and Ramdas Pophale) SiO2 
 PCOD8042013
Probable space group: P -1
;
_chemical_formula_sum "Si O2"
_cell_formula_units_Z 16
_cell_length_a 10.172707
_cell_length_b 18.222856
_cell_length_c 12.815799
_cell_angle_alpha 151.998878
_cell_angle_beta 55.094088
_cell_angle_gamma 113.730736
_cell_volume 881.507521
_symmetry_space_group_name_H-M "P -1"
_symmetry_group_IT_number 2
_symmetry_cell_setting 'triclinic'
loop_
_space_group_symop_operation_xyz
x,y,z
-x,-y,-z
loop_
_atom_site_type_symbol
_atom_site_label
_atom_site_fract_x
_atom_site_fract_y
_atom_site_fract_z
Si Si1 0.035959 0.657974 0.313160
Si Si2 0.911208 0.295851 0.225089
Si Si3 0.911227 0.633407 0.562646
Si Si4 0.757714 0.977155 0.599615
Si Si5 0.572401 0.208820 0.288984
Si Si6 0.757717 0.645295 0.267750
Si Si7 0.035963 0.997217 0.652400
Si Si8 0.427578 0.128639 0.048482
O O1 0.063542 0.832057 0.496166
O O2 0.023569 0.637928 0.416710
O O3 0.867391 0.635623 0.310263
O O4 0.194702 0.523291 0.027516
O O5 0.895937 0.452417 0.357230
O O6 0.728298 0.281226 0.314559
O O7 0.999973 0.307342 0.307355
O O8 0.023563 0.140871 0.919651
O O9 0.728332 0.752162 0.785509
O O10 0.791776 0.783592 0.350783
O O11 0.867385 0.039016 0.713660
O O12 0.805296 0.019061 0.514839
O O13 0.565677 0.066967 0.819224
O O14 0.434320 0.314727 0.562480
O O15 0.627861 0.020490 0.061446
O O16 0.499964 0.223112 0.223133
#
# Coordination Sequence:
#
# PCOD8042013 Si02
#       8
#     2   2   2   2   2   2   2   2
#     4  10  19  34  56  82 112 146 185 226 275 332
#     4  11  24  39  55  80 115 151 188 230 276 329
#     4  11  24  39  55  80 115 151 188 230 276 329
#     4   9  18  33  55  84 115 141 175 230 281 326
#     4  10  19  36  59  85 113 142 184 232 278 329
#     4   9  18  33  55  84 115 141 175 230 281 326
#     4  10  19  34  56  82 112 146 185 226 275 332
#     4  10  19  36  59  85 113 142 184 232 278 329
#
# _framework density 18.150725000000001
#
# number of rings (size 3 to 8) (size 9 to 14) (size 15 to 20)
#    0.000    2.000    2.500    1.500    0.000    4.500 
#    0.000    1.250    0.000    0.000    0.000    0.000 
#    0.000    0.000    0.000    0.000    0.000    0.000 
#
# Total GULP energy -198471.403838 kJ/mol
# GULP energy per Si atom -12404.462740 kJ/mol
# Density = 1.810941 g / cm^3
# Si number density = 18.150725 Si / 1000 Ang^3
#
#
#
# Elastic Constant Matrix: (Units=GPa)
#
#
# Indices 1 2 3 4 5 6 
#
# 1 76.8942 55.9199 50.0934 6.1831 -3.7489 2.0029
# 2 55.9199 135.4474 65.2289 -4.2271 5.0481 -1.5034
# 3 50.0934 65.2289 133.0321 6.8669 1.4606 -3.0282
# 4 6.1831 -4.2271 6.8669 25.2670 1.3409 -1.6284
# 5 -3.7489 5.0481 1.4606 1.3409 21.6829 3.9275
# 6 2.0029 -1.5034 -3.0282 -1.6284 3.9275 25.5226
#
#
#
# Elastic Compliance Matrix: (Units=1/GPa)
#
#
# Indices 1 2 3 4 5 6 
#
# 1 0.022451 -0.007554 -0.004607 -0.006156 0.007099 -0.004239
# 2 -0.007554 0.012537 -0.003478 0.005267 -0.004674 0.001974
# 3 -0.004607 -0.003478 0.011120 -0.002337 -0.000855 0.001459
# 4 -0.006156 0.005267 -0.002337 0.043160 -0.005549 0.004124
# 5 0.007099 -0.004674 -0.000855 -0.005549 0.050476 -0.009055
# 6 -0.004239 0.001974 0.001459 0.004124 -0.009055 0.041460
#
#
# Mechanical properties :
#
#
# Convention : Reuss Voigt Hill
#
# Bulk Modulus (GPa) = 67.42974 76.42868 71.92921
# Shear Modulus (GPa) = 22.99627 26.10327 24.54977
#
# Velocity S-wave (km/s) = 3.56330 3.79639 3.68169
# Velocity P-wave (km/s) = 7.35935 7.83684 7.60184
#
# Compressibility (1/GPa) = 0.01483025
#
# Stress axis : x y z
#
# Youngs Moduli (GPa) = 44.54118 79.76162 89.92485
#
# Poissons Ratio (x) = 0.60254 0.41425
# Poissons Ratio (y) = 0.33648 0.31279
# Poissons Ratio (z) = 0.20518 0.27744
#
# Static dielectric constant tensor:
#      x y z
#    x 3.079790 0.030860 -0.053870 
#    y 0.030860 3.418860 0.004660 
#    z -0.053870 0.004660 3.413370 
# 
# 
# High freq. dielectric constant tensor:
#      x y z
#    x 1.673330 0.003290 -0.005740 
#    y 0.003290 1.711710 -0.003530 
#    z -0.005740 -0.003530 1.714890 
# 
# From -- ./inp_files/259974.got.cif
#   From: 2010.06.25/outbox.cif.g09.slc.cpg/sg2_130_cif.got.tgz:259974.got - 2010.06.27 13:26:56.
