data_PCOD8042518
_publ_section_title
;
Structure prediction by ZEFSAII (Michael W. Deem and Ramdas Pophale) SiO2 
 PCOD8042518
Probable space group: P -1
;
_chemical_formula_sum "Si O2"
_cell_formula_units_Z 16
_cell_length_a 20.071334
_cell_length_b 11.538003
_cell_length_c 8.919316
_cell_angle_alpha 88.057200
_cell_angle_beta 66.901298
_cell_angle_gamma 31.924472
_cell_volume 792.341974
_symmetry_space_group_name_H-M "P -1"
_symmetry_group_IT_number 2
_symmetry_cell_setting 'triclinic'
loop_
_space_group_symop_operation_xyz
x,y,z
-x,-y,-z
loop_
_atom_site_type_symbol
_atom_site_label
_atom_site_fract_x
_atom_site_fract_y
_atom_site_fract_z
Si Si1 0.569050 0.964621 0.794884
Si Si2 0.837466 0.413025 0.411317
Si Si3 0.323188 0.992836 0.114598
Si Si4 0.813405 0.764486 0.079274
Si Si5 0.227814 0.887357 0.139483
Si Si6 0.663379 0.733181 0.271097
Si Si7 0.322047 0.565559 0.305533
Si Si8 0.562042 0.339632 0.309187
O O1 0.703674 0.692641 0.596903
O O2 0.676634 0.925475 0.743596
O O3 0.401106 0.237584 0.825747
O O4 0.500000 0.000000 0.000000
O O5 0.791217 0.467895 0.271913
O O6 0.825627 0.305253 0.506735
O O7 0.025784 0.195019 0.268737
O O8 0.300343 0.889339 0.177622
O O9 0.173626 0.236563 0.112625
O O10 0.506634 0.754040 0.881767
O O11 0.752493 0.723650 0.156354
O O12 0.682303 0.051864 0.253986
O O13 0.000000 0.500000 0.000000
O O14 0.250864 0.735818 0.216316
O O15 0.332729 0.731371 0.896880
O O16 0.500000 0.000000 0.500000
O O17 0.379496 0.568057 0.386803
O O18 0.500000 0.500000 0.500000
#
# Coordination Sequence:
#
# PCOD8042518 Si02
#       8
#     2   2   2   2   2   2   2   2
#     4  11  19  37  61  92 118 157 209 248 297 374
#     4  11  22  39  60  90 127 162 199 255 315 358
#     4  10  19  37  63  87 118 157 208 250 296 372
#     4  10  19  36  61  87 125 157 187 258 322 354
#     4  10  22  41  62  86 121 164 203 252 313 355
#     4  10  19  35  57  87 119 160 196 241 313 367
#     4  10  20  42  62  81 122 169 208 243 303 367
#     4  10  21  41  63  89 120 160 216 250 296 384
#
# _framework density 20.193301000000002
#
# number of rings (size 3 to 8) (size 9 to 14) (size 15 to 20)
#    0.000    2.000    2.500    5.625    0.000    0.500 
#   15.750    0.625    0.000    0.000    0.000    0.000 
#    0.000    0.000    0.000    0.000    0.000    0.000 
#
# Total GULP energy -198261.025935 kJ/mol
# GULP energy per Si atom -12391.314121 kJ/mol
# Density = 2.014734 g / cm^3
# Si number density = 20.193301 Si / 1000 Ang^3
#
#
#
# Elastic Constant Matrix: (Units=GPa)
#
#
# Indices 1 2 3 4 5 6 
#
# 1 125.6090 52.3615 55.8726 -11.3187 1.2065 -14.4965
# 2 52.3615 111.6578 33.8353 -15.2313 7.1735 -8.6096
# 3 55.8726 33.8353 70.0243 -8.3978 3.4203 -4.7158
# 4 -11.3187 -15.2313 -8.3978 26.6087 -3.2312 -9.8288
# 5 1.2065 7.1735 3.4203 -3.2312 31.2286 -8.2303
# 6 -14.4965 -8.6096 -4.7158 -9.8288 -8.2303 36.5877
#
#
#
# Elastic Compliance Matrix: (Units=1/GPa)
#
#
# Indices 1 2 3 4 5 6 
#
# 1 0.014325 -0.003191 -0.009225 0.003718 0.003000 0.005410
# 2 -0.003191 0.012245 -0.002460 0.005684 -0.001156 0.002567
# 3 -0.009225 -0.002460 0.022970 0.001191 -0.001831 -0.001365
# 4 0.003718 0.005684 0.001191 0.050660 0.008536 0.018494
# 5 0.003000 -0.001156 -0.001831 0.008536 0.036184 0.011114
# 6 0.005410 0.002567 -0.001365 0.018494 0.011114 0.037371
#
#
# Mechanical properties :
#
#
# Convention : Reuss Voigt Hill
#
# Bulk Modulus (GPa) = 50.53131 65.71443 58.12287
# Shear Modulus (GPa) = 23.79784 29.89979 26.84882
#
# Velocity S-wave (km/s) = 3.43666 3.85213 3.65031
# Velocity P-wave (km/s) = 6.38949 7.23869 6.82730
#
# Compressibility (1/GPa) = 0.01978971
#
# Stress axis : x y z
#
# Youngs Moduli (GPa) = 69.80721 81.66506 43.53511
#
# Poissons Ratio (x) = 0.26058 0.40159
# Poissons Ratio (y) = 0.22274 0.10709
# Poissons Ratio (z) = 0.64394 0.20089
#
# Static dielectric constant tensor:
#      x y z
#    x 3.541630 0.002250 -0.278580 
#    y 0.002250 3.754170 -0.086210 
#    z -0.278580 -0.086210 3.348530 
# 
# 
# High freq. dielectric constant tensor:
#      x y z
#    x 1.794700 -0.010960 -0.018760 
#    y -0.010960 1.793460 -0.016360 
#    z -0.018760 -0.016360 1.759590 
# 
# From -- ./inp_files/314184.got.cif
#   From: 2010.06.25/outbox.cif.g09.slc.cpg/sg2_158_cif.got.tgz:314184.got - 2010.06.27 13:26:56.
