data_PCOD8042189
_publ_section_title
;
Structure prediction by ZEFSAII (Michael W. Deem and Ramdas Pophale) SiO2 
 PCOD8042189
Probable space group: P -1
;
_chemical_formula_sum "Si O2"
_cell_formula_units_Z 16
_cell_length_a 14.564132
_cell_length_b 9.613509
_cell_length_c 13.561949
_cell_angle_alpha 139.808954
_cell_angle_beta 129.908325
_cell_angle_gamma 47.643798
_cell_volume 872.884631
_symmetry_space_group_name_H-M "P -1"
_symmetry_group_IT_number 2
_symmetry_cell_setting 'triclinic'
loop_
_space_group_symop_operation_xyz
x,y,z
-x,-y,-z
loop_
_atom_site_type_symbol
_atom_site_label
_atom_site_fract_x
_atom_site_fract_y
_atom_site_fract_z
Si Si1 0.257217 0.938328 0.416358
Si Si2 0.405647 0.247523 0.776951
Si Si3 0.450084 0.985667 0.068413
Si Si4 0.717427 0.314882 0.191644
Si Si5 0.024194 0.713959 0.584898
Si Si6 0.633938 0.506867 0.627690
Si Si7 0.613944 0.018324 0.654312
Si Si8 0.243135 0.490876 0.483667
O O1 0.327292 0.095477 0.599304
O O2 0.104933 0.063891 0.395245
O O3 0.300472 0.680543 0.346192
O O4 0.294921 0.894214 0.303315
O O5 0.429986 0.187859 0.877812
O O6 0.332304 0.520135 0.849761
O O7 0.546643 0.182785 0.788546
O O8 0.388646 0.239429 0.210575
O O9 0.334930 0.890418 0.943881
O O10 0.500000 0.000000 0.000000
O O11 0.874201 0.214041 0.240448
O O12 0.673149 0.466853 0.344303
O O13 0.090799 0.621640 0.473921
O O14 0.000000 0.500000 0.500000
O O15 0.500000 0.500000 0.500000
O O16 0.728432 0.419776 0.552418
O O17 0.500000 0.000000 0.500000
O O18 0.711325 0.783800 0.642713
#
# Coordination Sequence:
#
# PCOD8042189 Si02
#       8
#     2   2   2   2   2   2   2   2
#     4  11  20  34  64  93 114 151 206 250 284 350
#     4  11  20  35  62  88 118 153 200 248 304 349
#     4  12  26  39  55  89 131 157 187 245 311 362
#     4  10  22  38  61  89 121 153 193 250 302 346
#     4  10  18  37  63  91 117 150 205 252 286 340
#     4  12  23  38  59  88 122 157 199 240 302 359
#     4  10  15  30  57  88 112 141 196 249 290 336
#     4  10  19  35  61  84 117 154 195 245 289 348
#
# _framework density 18.330030000000001
#
# number of rings (size 3 to 8) (size 9 to 14) (size 15 to 20)
#    0.750    0.500    7.500    1.875    1.750    0.500 
#    0.000    0.625    0.000    3.000    0.000    0.000 
#    0.000    0.000    0.000    0.000    0.000    0.000 
#
# Total GULP energy -198228.906253 kJ/mol
# GULP energy per Si atom -12389.306641 kJ/mol
# Density = 1.828831 g / cm^3
# Si number density = 18.330030 Si / 1000 Ang^3
#
#
#
# Elastic Constant Matrix: (Units=GPa)
#
#
# Indices 1 2 3 4 5 6 
#
# 1 132.7894 52.9921 37.5668 -2.1060 1.5583 -2.9425
# 2 52.9921 102.8781 33.7230 8.9054 8.4908 -4.1146
# 3 37.5668 33.7230 66.7663 1.9202 16.0109 4.0874
# 4 -2.1060 8.9054 1.9202 22.8940 6.2399 -1.2108
# 5 1.5583 8.4908 16.0109 6.2399 31.8794 2.0950
# 6 -2.9425 -4.1146 4.0874 -1.2108 2.0950 37.9446
#
#
#
# Elastic Compliance Matrix: (Units=1/GPa)
#
#
# Indices 1 2 3 4 5 6 
#
# 1 0.010546 -0.004360 -0.004408 0.002441 0.002331 0.000769
# 2 -0.004360 0.013976 -0.004467 -0.005294 -0.000329 0.001508
# 3 -0.004408 -0.004467 0.022207 0.002052 -0.009979 -0.002602
# 4 0.002441 -0.005294 0.002052 0.048406 -0.009310 0.001453
# 5 0.002331 -0.000329 -0.009979 -0.009310 0.038254 -0.001189
# 6 0.000769 0.001508 -0.002602 0.001453 -0.001189 0.026970
#
#
# Mechanical properties :
#
#
# Convention : Reuss Voigt Hill
#
# Bulk Modulus (GPa) = 49.36083 61.22196 55.29140
# Shear Modulus (GPa) = 25.82879 30.42038 28.12459
#
# Velocity S-wave (km/s) = 3.75787 4.07823 3.92132
# Velocity P-wave (km/s) = 6.76876 7.45978 7.12265
#
# Compressibility (1/GPa) = 0.02025898
#
# Stress axis : x y z
#
# Youngs Moduli (GPa) = 94.82044 71.55004 45.03039
#
# Poissons Ratio (x) = 0.31199 0.19849
# Poissons Ratio (y) = 0.41346 0.20115
# Poissons Ratio (z) = 0.41796 0.31962
#
# Static dielectric constant tensor:
#      x y z
#    x 4.263780 -0.339640 -0.432710 
#    y -0.339640 3.744820 0.230590 
#    z -0.432710 0.230590 3.377840 
# 
# 
# High freq. dielectric constant tensor:
#      x y z
#    x 1.714030 0.013370 -0.001550 
#    y 0.013370 1.709540 0.009710 
#    z -0.001550 0.009710 1.681660 
# 
# From -- ./inp_files/529139.got.cif
#   From: 2010.06.25/outbox.cif.g09.slc.cpg/sg2_265_cif.got.tgz:529139.got - 2010.06.27 13:26:56.
