data_PCOD8042639
_publ_section_title
;
Structure prediction by ZEFSAII (Michael W. Deem and Ramdas Pophale) SiO2 
 PCOD8042639
Probable space group: P -1
;
_chemical_formula_sum "Si O2"
_cell_formula_units_Z 16
_cell_length_a 9.110770
_cell_length_b 8.415930
_cell_length_c 16.848987
_cell_angle_alpha 121.780910
_cell_angle_beta 122.352461
_cell_angle_gamma 97.815695
_cell_volume 754.534640
_symmetry_space_group_name_H-M "P -1"
_symmetry_group_IT_number 2
_symmetry_cell_setting 'triclinic'
loop_
_space_group_symop_operation_xyz
x,y,z
-x,-y,-z
loop_
_atom_site_type_symbol
_atom_site_label
_atom_site_fract_x
_atom_site_fract_y
_atom_site_fract_z
Si Si1 0.827350 0.454194 0.607559
Si Si2 0.352426 0.907717 0.153378
Si Si3 0.045681 0.111197 0.333604
Si Si4 0.820734 0.240339 0.404635
Si Si5 0.546897 0.810826 0.459487
Si Si6 0.690883 0.435374 0.820826
Si Si7 0.937334 0.311283 0.119779
Si Si8 0.041106 0.081164 0.910724
O O1 0.842665 0.630024 0.595341
O O2 0.807545 0.245246 0.498871
O O3 0.621183 0.384869 0.579911
O O4 0.035007 0.566779 0.755611
O O5 0.357883 0.732885 0.165735
O O6 0.176691 0.941408 0.144003
O O7 0.585359 0.148878 0.280198
O O8 0.293550 0.807109 0.019391
O O9 0.213649 0.076910 0.413264
O O10 0.876773 0.068750 0.342120
O O11 0.931069 0.940201 0.180936
O O12 0.000000 0.500000 0.500000
O O13 0.512394 0.696694 0.332336
O O14 0.500000 0.000000 0.500000
O O15 0.894425 0.496525 0.843844
O O16 0.746819 0.674191 0.935824
O O17 0.980800 0.119044 0.096408
#
# Coordination Sequence:
#
# PCOD8042639 Si02
#       8
#     2   2   2   2   2   2   2   2
#     4   9  19  37  57  83 110 142 186 231 278 328
#     4  11  20  36  57  81 112 148 182 227 280 330
#     4  10  21  37  56  80 112 147 187 230 271 327
#     4  10  22  38  56  80 113 154 190 225 273 331
#     4  11  21  35  58  85 110 143 185 232 282 328
#     4  10  20  33  55  87 112 138 180 230 283 328
#     4   9  19  33  58  89 111 137 184 235 278 326
#     4  10  19  35  59  87 110 139 185 234 277 328
#
# _framework density 21.205120999999998
#
# number of rings (size 3 to 8) (size 9 to 14) (size 15 to 20)
#    0.000    2.000    0.000    5.625    0.000    8.000 
#    0.000   10.000    0.000    0.000    0.000    0.000 
#    0.000    0.000    0.000    0.000    0.000    0.000 
#
# Total GULP energy -198247.357068 kJ/mol
# GULP energy per Si atom -12390.459817 kJ/mol
# Density = 2.115686 g / cm^3
# Si number density = 21.205121 Si / 1000 Ang^3
#
#
#
# Elastic Constant Matrix: (Units=GPa)
#
#
# Indices 1 2 3 4 5 6 
#
# 1 79.0258 12.6324 50.3155 -11.2128 -20.5174 -12.2811
# 2 12.6324 55.7354 25.0904 -8.0363 4.6613 2.2203
# 3 50.3155 25.0904 164.4735 -11.5219 -22.0524 -1.1560
# 4 -11.2128 -8.0363 -11.5219 32.8611 5.6361 -2.0884
# 5 -20.5174 4.6613 -22.0524 5.6361 27.9433 8.1873
# 6 -12.2811 2.2203 -1.1560 -2.0884 8.1873 11.3078
#
#
#
# Elastic Compliance Matrix: (Units=1/GPa)
#
#
# Indices 1 2 3 4 5 6 
#
# 1 0.021661 -0.003232 -0.004886 0.005263 0.005469 0.020673
# 2 -0.003232 0.021594 -0.003235 0.004611 -0.009317 -0.000484
# 3 -0.004886 -0.003235 0.008833 -0.001078 0.006730 -0.008841
# 4 0.005263 0.004611 -0.001078 0.036002 -0.010588 0.019016
# 5 0.005469 -0.009317 0.006730 -0.010588 0.059527 -0.036598
# 6 0.020673 -0.000484 -0.008841 0.019016 -0.036598 0.140088
#
#
# Mechanical properties :
#
#
# Convention : Reuss Voigt Hill
#
# Bulk Modulus (GPa) = 34.03432 52.81237 43.42334
# Shear Modulus (GPa) = 15.61499 28.50220 22.05860
#
# Velocity S-wave (km/s) = 2.71657 3.67020 3.22879
# Velocity P-wave (km/s) = 5.09162 6.55134 5.86705
#
# Compressibility (1/GPa) = 0.02938210
#
# Stress axis : x y z
#
# Youngs Moduli (GPa) = 46.16538 46.30913 113.21070
#
# Poissons Ratio (x) = 0.14967 0.55318
# Poissons Ratio (y) = 0.14920 0.36624
# Poissons Ratio (z) = 0.22558 0.14981
#
# Static dielectric constant tensor:
#      x y z
#    x 4.134430 0.176360 -0.477020 
#    y 0.176360 3.630570 -0.023170 
#    z -0.477020 -0.023170 4.478960 
# 
# 
# High freq. dielectric constant tensor:
#      x y z
#    x 1.796130 0.013070 -0.029510 
#    y 0.013070 1.814820 0.001090 
#    z -0.029510 0.001090 1.854740 
# 
# From -- ./inp_files/557508.got.cif
#   From: 2010.06.25/outbox.cif.g09.slc.cpg/sg2_279_cif.got.tgz:557508.got - 2010.06.27 13:26:56.
