data_PCOD8042431
_publ_section_title
;
Structure prediction by ZEFSAII (Michael W. Deem and Ramdas Pophale) SiO2 
 PCOD8042431
Probable space group: P -1
;
_chemical_formula_sum "Si O2"
_cell_formula_units_Z 16
_cell_length_a 8.402183
_cell_length_b 13.735821
_cell_length_c 11.955944
_cell_angle_alpha 80.101324
_cell_angle_beta 90.644347
_cell_angle_gamma 145.836682
_cell_volume 741.612492
_symmetry_space_group_name_H-M "P -1"
_symmetry_group_IT_number 2
_symmetry_cell_setting 'triclinic'
loop_
_space_group_symop_operation_xyz
x,y,z
-x,-y,-z
loop_
_atom_site_type_symbol
_atom_site_label
_atom_site_fract_x
_atom_site_fract_y
_atom_site_fract_z
Si Si1 0.577819 0.825335 0.134953
Si Si2 0.965579 0.156270 0.382545
Si Si3 0.488524 0.562835 0.263146
Si Si4 0.330168 0.830590 0.963445
Si Si5 0.541421 0.062286 0.726961
Si Si6 0.997051 0.160633 0.638072
Si Si7 0.834365 0.882552 0.798864
Si Si8 0.334365 0.483521 0.916389
O O1 0.457942 0.652791 0.185030
O O2 0.422255 0.820215 0.221243
O O3 0.483191 0.807151 0.010625
O O4 0.928262 0.014424 0.120227
O O5 0.167492 0.357671 0.329059
O O6 0.072322 0.124142 0.311500
O O7 0.967845 0.119422 0.516298
O O8 0.638772 0.012985 0.372632
O O9 0.672026 0.580124 0.187050
O O10 0.662613 0.665075 0.360796
O O11 0.379168 0.886581 0.824374
O O12 0.986953 0.653794 0.021022
O O13 0.500000 0.000000 0.000000
O O14 0.860047 0.195567 0.660899
O O15 0.822639 0.991320 0.746930
O O16 0.516350 0.679953 0.872347
O O17 0.500000 0.500000 0.000000
#
# Coordination Sequence:
#
# PCOD8042431 Si02
#       8
#     2   2   2   2   2   2   2   2
#     4   9  19  37  56  80 114 146 176 223 275 327
#     4  10  20  38  57  80 111 144 182 233 275 313
#     4  10  21  36  58  84 109 140 186 227 270 328
#     4  10  19  35  56  78 110 146 175 219 274 321
#     4  10  21  37  54  79 112 147 184 221 269 331
#     4  11  21  37  59  81 107 148 188 226 271 319
#     4   9  21  37  57  83 111 142 186 226 269 327
#     4  11  21  37  58  83 113 145 179 225 274 326
#
# _framework density 21.57461
#
# number of rings (size 3 to 8) (size 9 to 14) (size 15 to 20)
#    0.000    2.000    0.000    5.625    0.000    2.000 
#    0.000    8.750    0.000    0.000    0.000    0.000 
#    0.000    0.000    0.000    0.000    0.000    0.000 
#
# Total GULP energy -198361.764571 kJ/mol
# GULP energy per Si atom -12397.610286 kJ/mol
# Density = 2.152551 g / cm^3
# Si number density = 21.574610 Si / 1000 Ang^3
#
#
#
# Elastic Constant Matrix: (Units=GPa)
#
#
# Indices 1 2 3 4 5 6 
#
# 1 61.7773 18.8704 -5.8972 -1.7107 8.8933 3.1340
# 2 18.8704 71.7854 -0.4754 -2.0879 4.8017 0.5859
# 3 -5.8972 -0.4754 50.9659 15.4016 13.0256 9.9234
# 4 -1.7107 -2.0879 15.4016 32.5143 10.4967 4.1398
# 5 8.8933 4.8017 13.0256 10.4967 27.4051 2.2894
# 6 3.1340 0.5859 9.9234 4.1398 2.2894 32.0943
#
#
#
# Elastic Compliance Matrix: (Units=1/GPa)
#
#
# Indices 1 2 3 4 5 6 
#
# 1 0.019269 -0.004440 0.004254 0.001610 -0.007883 -0.002761
# 2 -0.004440 0.015241 -0.000444 0.001440 -0.001588 0.000220
# 3 0.004254 -0.000444 0.026524 -0.008209 -0.010195 -0.006822
# 4 0.001610 0.001440 -0.008209 0.038791 -0.011579 -0.001823
# 5 -0.007883 -0.001588 -0.010195 -0.011579 0.048441 0.001989
# 6 -0.002761 0.000220 -0.006822 -0.001823 0.001989 0.033626
#
#
# Mechanical properties :
#
#
# Convention : Reuss Voigt Hill
#
# Bulk Modulus (GPa) = 16.72988 23.28048 20.00518
# Shear Modulus (GPa) = 24.62119 29.87146 27.24632
#
# Velocity S-wave (km/s) = 3.38185 3.72501 3.55757
# Velocity P-wave (km/s) = 4.79796 5.41434 5.11544
#
# Compressibility (1/GPa) = 0.05977328
#
# Stress axis : x y z
#
# Youngs Moduli (GPa) = 51.89655 65.61207 37.70226
#
# Poissons Ratio (x) = 0.29135 -0.16038
# Poissons Ratio (y) = 0.23045 0.01673
# Poissons Ratio (z) = -0.22076 0.02911
#
# Static dielectric constant tensor:
#      x y z
#    x 4.012490 -0.089200 0.319870 
#    y -0.089200 4.155140 0.078170 
#    z 0.319870 0.078170 4.016890 
# 
# 
# High freq. dielectric constant tensor:
#      x y z
#    x 1.849060 0.001330 0.009570 
#    y 0.001330 1.846030 0.014130 
#    z 0.009570 0.014130 1.836720 
# 
# From -- ./inp_files/180696.got.cif
#   From: 2010.06.25/outbox.cif.g09.slc.cpg/sg2_91_cif.got.tgz:180696.got - 2010.06.27 13:26:56.
