data_PCOD8042959
_publ_section_title
;
Structure prediction by ZEFSAII (Michael W. Deem and Ramdas Pophale) SiO2 
 PCOD8042959
Probable space group: P -1
;
_chemical_formula_sum "Si O2"
_cell_formula_units_Z 16
_cell_length_a 11.856774
_cell_length_b 9.528444
_cell_length_c 9.683568
_cell_angle_alpha 51.247827
_cell_angle_beta 59.653032
_cell_angle_gamma 76.255944
_cell_volume 731.231869
_symmetry_space_group_name_H-M "P -1"
_symmetry_group_IT_number 2
_symmetry_cell_setting 'triclinic'
loop_
_space_group_symop_operation_xyz
x,y,z
-x,-y,-z
loop_
_atom_site_type_symbol
_atom_site_label
_atom_site_fract_x
_atom_site_fract_y
_atom_site_fract_z
Si Si1 0.484139 0.971457 0.798399
Si Si2 0.120042 0.855433 0.817086
Si Si3 0.308761 0.926926 0.169407
Si Si4 0.181519 0.250169 0.938275
Si Si5 0.156715 0.462292 0.079644
Si Si6 0.382684 0.348841 0.197591
Si Si7 0.920547 0.173330 0.441202
Si Si8 0.700981 0.807082 0.378017
O O1 0.567955 0.844180 0.739219
O O2 0.577791 0.084368 0.781075
O O3 0.429966 0.108929 0.639522
O O4 0.362573 0.859392 0.030031
O O5 0.164470 0.848088 0.634185
O O6 0.190286 0.032771 0.737334
O O7 0.160819 0.675115 0.977566
O O8 0.963195 0.860196 0.918707
O O9 0.175302 0.813298 0.376601
O O10 0.276889 0.131673 0.036378
O O11 0.239577 0.298208 0.721087
O O12 0.177199 0.430942 0.921550
O O13 0.262991 0.375690 0.156793
O O14 0.015327 0.360492 0.271629
O O15 0.335904 0.344294 0.388707
O O16 0.500000 0.500000 0.000000
O O17 0.000000 0.000000 0.500000
#
# Coordination Sequence:
#
# PCOD8042959 Si02
#       8
#     2   2   2   2   2   2   2   2
#     4  10  21  40  62  90 126 165 215 257 309 377
#     4  11  22  39  64  98 131 168 207 261 324 382
#     4  10  19  35  67  95 120 162 215 265 304 374
#     4  10  20  40  66  97 128 161 212 265 314 377
#     4  11  23  41  65  94 133 166 213 264 312 383
#     4  12  25  44  63  91 129 170 212 261 320 383
#     4  11  18  35  65  97 124 165 213 257 318 372
#     4  11  24  41  68  91 126 171 213 260 327 375
#
# _framework density 21.880883000000001
#
# number of rings (size 3 to 8) (size 9 to 14) (size 15 to 20)
#    0.000    1.250    3.750    4.500    0.000    1.000 
#    4.500    1.250    0.000    0.000    0.000    0.000 
#    0.000    0.000    0.000    0.000    0.000    0.000 
#
# Total GULP energy -198370.186904 kJ/mol
# GULP energy per Si atom -12398.136681 kJ/mol
# Density = 2.183108 g / cm^3
# Si number density = 21.880883 Si / 1000 Ang^3
#
#
#
# Elastic Constant Matrix: (Units=GPa)
#
#
# Indices 1 2 3 4 5 6 
#
# 1 110.7502 21.3354 35.2257 7.3363 5.9400 -0.2312
# 2 21.3354 30.3812 39.6199 3.2254 2.5992 1.9407
# 3 35.2257 39.6199 152.0951 21.7759 1.5782 6.1887
# 4 7.3363 3.2254 21.7759 32.4390 -4.2513 -1.6476
# 5 5.9400 2.5992 1.5782 -4.2513 18.7659 4.5290
# 6 -0.2312 1.9407 6.1887 -1.6476 4.5290 28.0626
#
#
#
# Elastic Compliance Matrix: (Units=1/GPa)
#
#
# Indices 1 2 3 4 5 6 
#
# 1 0.010731 -0.006396 -0.000578 -0.001757 -0.003116 0.001058
# 2 -0.006396 0.054649 -0.013366 0.004540 -0.003374 -0.000073
# 3 -0.000578 -0.013366 0.011139 -0.006092 0.000182 -0.001924
# 4 -0.001757 0.004540 -0.006092 0.036024 0.008163 0.001812
# 5 -0.003116 -0.003374 0.000182 0.008163 0.058706 -0.008828
# 6 0.001058 -0.000073 -0.001924 0.001812 -0.008828 0.037604
#
#
# Mechanical properties :
#
#
# Convention : Reuss Voigt Hill
#
# Bulk Modulus (GPa) = 27.90356 53.95429 40.92892
# Shear Modulus (GPa) = 19.12176 28.98987 24.05581
#
# Velocity S-wave (km/s) = 2.95939 3.64386 3.31932
# Velocity P-wave (km/s) = 4.94545 6.51271 5.78242
#
# Compressibility (1/GPa) = 0.03583772
#
# Stress axis : x y z
#
# Youngs Moduli (GPa) = 93.18606 18.29845 89.77309
#
# Poissons Ratio (x) = 0.11704 0.05191
# Poissons Ratio (y) = 0.59606 1.19994
# Poissons Ratio (z) = 0.05389 0.24458
#
# Static dielectric constant tensor:
#      x y z
#    x 4.046120 -0.099240 0.071400 
#    y -0.099240 3.752790 0.376620 
#    z 0.071400 0.376620 4.220350 
# 
# 
# High freq. dielectric constant tensor:
#      x y z
#    x 1.874740 -0.012870 0.005900 
#    y -0.012870 1.829890 0.019000 
#    z 0.005900 0.019000 1.864110 
# 
# From -- ./inp_files/242456.got.cif
#   From: 2010.06.25/outbox.cif.g09.slc.cpg/sg2_122_cif.got.tgz:242456.got - 2010.06.27 13:26:56.
