data_PCOD8042545
_publ_section_title
;
Structure prediction by ZEFSAII (Michael W. Deem and Ramdas Pophale) SiO2 
 PCOD8042545
Probable space group: P -1
;
_chemical_formula_sum "Si O2"
_cell_formula_units_Z 16
_cell_length_a 5.167343
_cell_length_b 16.298872
_cell_length_c 18.082288
_cell_angle_alpha 33.501943
_cell_angle_beta 111.907465
_cell_angle_gamma 101.673905
_cell_volume 762.100817
_symmetry_space_group_name_H-M "P -1"
_symmetry_group_IT_number 2
_symmetry_cell_setting 'triclinic'
loop_
_space_group_symop_operation_xyz
x,y,z
-x,-y,-z
loop_
_atom_site_type_symbol
_atom_site_label
_atom_site_fract_x
_atom_site_fract_y
_atom_site_fract_z
Si Si1 0.454819 0.334515 0.793186
Si Si2 0.947471 0.136727 0.448740
Si Si3 0.699861 0.963775 0.978552
Si Si4 0.722261 0.462575 0.850499
Si Si5 0.804421 0.345283 0.525552
Si Si6 0.691306 0.474749 0.111768
Si Si7 0.528036 0.202064 0.481989
Si Si8 0.532011 0.734102 0.319408
O O1 0.710788 0.347283 0.867526
O O2 0.239510 0.498655 0.642570
O O3 0.576761 0.290420 0.757059
O O4 0.287249 0.213788 0.903503
O O5 0.812875 0.295574 0.274329
O O6 0.730385 0.108436 0.510869
O O7 0.257440 0.128263 0.526063
O O8 0.000000 0.000000 0.500000
O O9 0.565182 0.084386 0.809037
O O10 0.500000 0.000000 0.000000
O O11 0.000000 0.000000 0.000000
O O12 0.508089 0.437293 0.911112
O O13 0.616171 0.631560 0.684173
O O14 0.045030 0.440232 0.931917
O O15 0.719870 0.211723 0.567712
O O16 0.609388 0.365239 0.563691
O O17 0.129019 0.308290 0.612208
O O18 0.500000 0.500000 0.000000
#
# Coordination Sequence:
#
# PCOD8042545 Si02
#       8
#     2   2   2   2   2   2   2   2
#     4  10  22  39  61  85 113 154 204 235 276 352
#     4  10  19  35  58  81 106 146 183 218 276 350
#     4  10  22  39  56  77 113 155 188 232 291 343
#     4   9  20  35  58  82 109 147 186 231 281 333
#     4  11  22  37  59  86 116 151 193 245 283 321
#     4  10  20  37  57  82 112 141 179 233 286 332
#     4   9  19  35  54  81 115 145 181 226 281 337
#     4  11  22  37  57  86 117 151 191 244 290 322
#
# _framework density 20.994599000000001
#
# number of rings (size 3 to 8) (size 9 to 14) (size 15 to 20)
#    0.000    2.000    0.000    3.750    0.000    8.000 
#    0.000    3.750    0.000    0.000    0.000    0.000 
#    0.000    0.000    0.000    0.000    0.000    0.000 
#
# Total GULP energy -198274.728532 kJ/mol
# GULP energy per Si atom -12392.170533 kJ/mol
# Density = 2.094681 g / cm^3
# Si number density = 20.994599 Si / 1000 Ang^3
#
#
#
# Elastic Constant Matrix: (Units=GPa)
#
#
# Indices 1 2 3 4 5 6 
#
# 1 150.1452 55.1993 31.1793 5.0621 21.2214 12.7867
# 2 55.1993 136.6864 38.6215 13.4708 11.8709 9.1450
# 3 31.1793 38.6215 71.9385 -1.7672 5.5311 11.5434
# 4 5.0621 13.4708 -1.7672 25.6301 7.0587 -1.1388
# 5 21.2214 11.8709 5.5311 7.0587 22.8244 3.1531
# 6 12.7867 9.1450 11.5434 -1.1388 3.1531 31.8125
#
#
#
# Elastic Compliance Matrix: (Units=1/GPa)
#
#
# Indices 1 2 3 4 5 6 
#
# 1 0.009018 -0.002587 -0.001719 0.001265 -0.006801 -0.001538
# 2 -0.002587 0.010141 -0.004361 -0.005092 -0.000174 -0.000458
# 3 -0.001719 -0.004361 0.017857 0.003975 -0.001099 -0.004284
# 4 0.001265 -0.005092 0.003975 0.045676 -0.013967 0.002532
# 5 -0.006801 -0.000174 -0.001099 -0.013967 0.055198 -0.002789
# 6 -0.001538 -0.000458 -0.004284 0.002532 -0.002789 0.034105
#
#
# Mechanical properties :
#
#
# Convention : Reuss Voigt Hill
#
# Bulk Modulus (GPa) = 50.81074 67.64114 59.22594
# Shear Modulus (GPa) = 25.52473 31.63808 28.58140
#
# Velocity S-wave (km/s) = 3.49058 3.88617 3.69368
# Velocity P-wave (km/s) = 6.36395 7.24049 6.81633
#
# Compressibility (1/GPa) = 0.01968088
#
# Stress axis : x y z
#
# Youngs Moduli (GPa) = 110.89049 98.61297 56.00199
#
# Poissons Ratio (x) = 0.25514 0.09625
# Poissons Ratio (y) = 0.28690 0.24423
# Poissons Ratio (z) = 0.19059 0.43006
#
# Static dielectric constant tensor:
#      x y z
#    x 4.309060 0.180610 -0.186240 
#    y 0.180610 4.013530 -0.156860 
#    z -0.186240 -0.156860 4.072660 
# 
# 
# High freq. dielectric constant tensor:
#      x y z
#    x 1.832480 0.008190 0.006190 
#    y 0.008190 1.815950 0.001100 
#    z 0.006190 0.001100 1.803370 
# 
# From -- ./inp_files/550081.got.cif
#   From: 2010.06.25/outbox.cif.g09.slc.cpg/sg2_276_cif.got.tgz:550081.got - 2010.06.27 13:26:56.
