data_PCOD8042324
_publ_section_title
;
Structure prediction by ZEFSAII (Michael W. Deem and Ramdas Pophale) SiO2 
 PCOD8042324
Probable space group: P -1
;
_chemical_formula_sum "Si O2"
_cell_formula_units_Z 16
_cell_length_a 9.354296
_cell_length_b 14.793940
_cell_length_c 9.153626
_cell_angle_alpha 77.213702
_cell_angle_beta 91.936501
_cell_angle_gamma 42.629322
_cell_volume 798.694424
_symmetry_space_group_name_H-M "P -1"
_symmetry_group_IT_number 2
_symmetry_cell_setting 'triclinic'
loop_
_space_group_symop_operation_xyz
x,y,z
-x,-y,-z
loop_
_atom_site_type_symbol
_atom_site_label
_atom_site_fract_x
_atom_site_fract_y
_atom_site_fract_z
Si Si1 0.379849 0.057587 0.825106
Si Si2 0.691848 0.616370 0.202588
Si Si3 0.651414 0.985612 0.614217
Si Si4 0.482486 0.204579 0.157395
Si Si5 0.461363 0.409525 0.527831
Si Si6 0.739536 0.140355 0.441157
Si Si7 0.951813 0.642750 0.379571
Si Si8 0.098851 0.308839 0.299528
O O1 0.134765 0.222776 0.757442
O O2 0.539024 0.047937 0.744744
O O3 0.366822 0.961232 0.794552
O O4 0.500000 0.000000 0.000000
O O5 0.519279 0.646922 0.290073
O O6 0.849612 0.603163 0.312720
O O7 0.852345 0.460480 0.190309
O O8 0.569178 0.731140 0.028407
O O9 0.879741 0.812775 0.689409
O O10 0.500000 0.000000 0.500000
O O11 0.655093 0.087001 0.523892
O O12 0.635483 0.201593 0.252852
O O13 0.264226 0.287533 0.212489
O O14 0.500000 0.500000 0.500000
O O15 0.653703 0.269873 0.485022
O O16 0.216444 0.510155 0.420559
O O17 0.000000 0.000000 0.500000
O O18 0.865879 0.689642 0.526951
#
# Coordination Sequence:
#
# PCOD8042324 Si02
#       8
#     2   2   2   2   2   2   2   2
#     4  11  20  34  62  98 129 153 204 262 319 361
#     4  11  22  37  67  92 127 155 208 264 317 364
#     4  11  20  37  64  90 122 160 213 255 301 371
#     4  11  21  38  61  98 126 157 204 267 313 370
#     4  11  27  44  64  90 127 172 216 254 307 375
#     4  12  26  44  67  88 124 173 214 254 310 381
#     4  11  20  37  65  92 123 165 210 255 309 371
#     4  10  19  34  63  91 124 158 202 250 314 365
#
# _framework density 20.032691
#
# number of rings (size 3 to 8) (size 9 to 14) (size 15 to 20)
#    0.000    1.000    5.000    4.125    5.250    0.000 
#    0.000    2.500    0.000    0.000    0.000    0.000 
#    0.000    0.000    0.000    0.000    0.000    0.000 
#
# Total GULP energy -198289.897227 kJ/mol
# GULP energy per Si atom -12393.118577 kJ/mol
# Density = 1.998710 g / cm^3
# Si number density = 20.032691 Si / 1000 Ang^3
#
#
#
# Elastic Constant Matrix: (Units=GPa)
#
#
# Indices 1 2 3 4 5 6 
#
# 1 85.1986 31.0224 38.7769 2.7503 -4.7175 9.5844
# 2 31.0224 128.3940 22.6864 -7.5792 -1.8359 4.7261
# 3 38.7769 22.6864 108.5648 -3.5945 -11.1458 -7.0290
# 4 2.7503 -7.5792 -3.5945 31.1777 5.9052 -4.2718
# 5 -4.7175 -1.8359 -11.1458 5.9052 20.0776 -3.5640
# 6 9.5844 4.7261 -7.0290 -4.2718 -3.5640 30.7493
#
#
#
# Elastic Compliance Matrix: (Units=1/GPa)
#
#
# Indices 1 2 3 4 5 6 
#
# 1 0.016247 -0.002899 -0.005699 -0.003738 0.000352 -0.006400
# 2 -0.002899 0.008786 -0.000867 0.002451 -0.001158 -0.000439
# 3 -0.005699 -0.000867 0.012466 0.001347 0.006109 0.005654
# 4 -0.003738 0.002451 0.001347 0.035634 -0.009509 0.004945
# 5 0.000352 -0.001158 0.006109 -0.009509 0.057174 0.006770
# 6 -0.006400 -0.000439 0.005654 0.004945 0.006770 0.037347
#
#
# Mechanical properties :
#
#
# Convention : Reuss Voigt Hill
#
# Bulk Modulus (GPa) = 53.85176 56.34762 55.09969
# Shear Modulus (GPa) = 25.93722 31.71238 28.82480
#
# Velocity S-wave (km/s) = 3.60216 3.98305 3.79738
# Velocity P-wave (km/s) = 6.65139 7.02437 6.84043
#
# Compressibility (1/GPa) = 0.01856949
#
# Stress axis : x y z
#
# Youngs Moduli (GPa) = 61.55068 113.81332 80.21945
#
# Poissons Ratio (x) = 0.32990 0.45719
# Poissons Ratio (y) = 0.17841 0.06954
# Poissons Ratio (z) = 0.35079 0.09866
#
# Static dielectric constant tensor:
#      x y z
#    x 3.196340 0.138900 -0.112530 
#    y 0.138900 4.317360 -0.149670 
#    z -0.112530 -0.149670 3.730500 
# 
# 
# High freq. dielectric constant tensor:
#      x y z
#    x 1.741890 0.017390 -0.014250 
#    y 0.017390 1.808940 -0.006460 
#    z -0.014250 -0.006460 1.783150 
# 
# From -- ./inp_files/206926.got.cif
#   From: 2010.06.25/outbox.cif.g09.slc.cpg/sg2_104_cif.got.tgz:206926.got - 2010.06.27 13:26:56.
