data_PCOD8042412
_publ_section_title
;
Structure prediction by ZEFSAII (Michael W. Deem and Ramdas Pophale) SiO2 
 PCOD8042412
Probable space group: P -1
;
_chemical_formula_sum "Si O2"
_cell_formula_units_Z 14
_cell_length_a 12.118465
_cell_length_b 14.907596
_cell_length_c 8.898096
_cell_angle_alpha 133.005040
_cell_angle_beta 142.149786
_cell_angle_gamma 52.184240
_cell_volume 711.295531
_symmetry_space_group_name_H-M "P -1"
_symmetry_group_IT_number 2
_symmetry_cell_setting 'triclinic'
loop_
_space_group_symop_operation_xyz
x,y,z
-x,-y,-z
loop_
_atom_site_type_symbol
_atom_site_label
_atom_site_fract_x
_atom_site_fract_y
_atom_site_fract_z
Si Si1 0.406103 0.474635 0.596990
Si Si2 0.587773 0.273254 0.766723
Si Si3 0.012285 0.561211 0.355801
Si Si4 0.679233 0.895248 0.701065
Si Si5 0.513179 0.157087 0.841796
Si Si6 0.654582 0.642662 0.902812
Si Si7 0.984126 0.307162 0.178186
O O1 0.469587 0.405640 0.742858
O O2 0.216462 0.567353 0.526014
O O3 0.563870 0.545595 0.791841
O O4 0.377828 0.371093 0.323928
O O5 0.485444 0.164219 0.465968
O O6 0.589700 0.261050 0.937819
O O7 0.790087 0.262251 0.907864
O O8 0.992536 0.417911 0.197286
O O9 0.968602 0.645069 0.552559
O O10 0.870544 0.617973 0.140180
O O11 0.647465 0.893904 0.483493
O O12 0.872601 0.813150 0.854376
O O13 0.670458 0.037790 0.909899
O O14 0.435694 0.218540 0.984445
#
# Coordination Sequence:
#
# PCOD8042412 Si02
#       7
#     2   2   2   2   2   2   2
#     4  11  23  35  55  81 116 141 177 219 274 320
#     4  10  19  35  55  82 107 141 177 222 267 319
#     4  11  20  33  54  85 108 141 178 224 269 323
#     4   9  19  37  55  81 109 137 182 228 261 313
#     4   9  19  38  58  75 112 139 184 222 264 314
#     4  11  22  38  54  82 111 146 175 222 270 324
#     4  11  20  30  60  83 107 138 181 225 272 308
#
# _framework density 19.682395
#
# number of rings (size 3 to 8) (size 9 to 14) (size 15 to 20)
#    0.857    0.857    4.286    1.286    2.000    1.714 
#    0.000    0.714    0.000    0.857    0.000    0.000 
#    0.000    0.000    0.000    0.000    0.000    0.000 
#
# Total GULP energy -173512.398808 kJ/mol
# GULP energy per Si atom -12393.742772 kJ/mol
# Density = 1.963760 g / cm^3
# Si number density = 19.682395 Si / 1000 Ang^3
#
#
#
# Elastic Constant Matrix: (Units=GPa)
#
#
# Indices 1 2 3 4 5 6 
#
# 1 49.6863 28.7094 18.0533 -4.3721 14.3683 -10.1561
# 2 28.7094 118.4353 32.1857 -6.6632 -0.6436 -29.0074
# 3 18.0533 32.1857 56.3153 -5.9571 14.5662 -14.2563
# 4 -4.3721 -6.6632 -5.9571 17.8178 -14.3140 1.6033
# 5 14.3683 -0.6436 14.5662 -14.3140 32.1402 -1.1564
# 6 -10.1561 -29.0074 -14.2563 1.6033 -1.1564 29.5893
#
#
#
# Elastic Compliance Matrix: (Units=1/GPa)
#
#
# Indices 1 2 3 4 5 6 
#
# 1 0.028953 -0.006552 -0.001626 -0.009280 -0.016377 0.002594
# 2 -0.006552 0.014294 -0.005416 0.009233 0.010107 0.009050
# 3 -0.001626 -0.005416 0.025830 -0.004800 -0.012998 0.006330
# 4 -0.009280 0.009233 -0.004800 0.094833 0.048755 0.000320
# 5 -0.016377 0.010107 -0.012998 0.048755 0.066169 -0.002031
# 6 0.002594 0.009050 0.006330 0.000320 -0.002031 0.046511
#
#
# Mechanical properties :
#
#
# Convention : Reuss Voigt Hill
#
# Bulk Modulus (GPa) = 23.87235 42.48155 33.17695
# Shear Modulus (GPa) = 15.73607 25.60868 20.67237
#
# Velocity S-wave (km/s) = 2.83061 3.61098 3.24435
# Velocity P-wave (km/s) = 4.77894 6.24628 5.56122
#
# Compressibility (1/GPa) = 0.04188946
#
# Stress axis : x y z
#
# Youngs Moduli (GPa) = 34.53930 69.95781 38.71416
#
# Poissons Ratio (x) = 0.45839 0.06294
# Poissons Ratio (y) = 0.22631 0.20967
# Poissons Ratio (z) = 0.05615 0.37888
#
# Static dielectric constant tensor:
#      x y z
#    x 3.372590 -0.067620 0.097670 
#    y -0.067620 3.488030 -0.008000 
#    z 0.097670 -0.008000 3.377330 
# 
# 
# High freq. dielectric constant tensor:
#      x y z
#    x 1.745010 -0.010890 0.014900 
#    y -0.010890 1.760890 -0.003520 
#    z 0.014900 -0.003520 1.746220 
# 
# From -- ./inp_files/174291.got.cif
#   From: 2010.06.25/outbox.cif.g09.slc.cpg/sg2_88_cif.got.tgz:174291.got - 2010.06.27 13:26:56.
