data_PCOD8042644
_publ_section_title
;
Structure prediction by ZEFSAII (Michael W. Deem and Ramdas Pophale) SiO2 
 PCOD8042644
Probable space group: P -1
;
_chemical_formula_sum "Si O2"
_cell_formula_units_Z 16
_cell_length_a 9.234234
_cell_length_b 11.748571
_cell_length_c 11.879768
_cell_angle_alpha 133.415069
_cell_angle_beta 51.617109
_cell_angle_gamma 107.554457
_cell_volume 715.924201
_symmetry_space_group_name_H-M "P -1"
_symmetry_group_IT_number 2
_symmetry_cell_setting 'triclinic'
loop_
_space_group_symop_operation_xyz
x,y,z
-x,-y,-z
loop_
_atom_site_type_symbol
_atom_site_label
_atom_site_fract_x
_atom_site_fract_y
_atom_site_fract_z
Si Si1 0.192587 0.273745 0.944346
Si Si2 0.957489 0.386362 0.690731
Si Si3 0.116285 0.834210 0.622417
Si Si4 0.389876 0.959876 0.706706
Si Si5 0.163724 0.533557 0.521288
Si Si6 0.237184 0.284128 0.669678
Si Si7 0.161000 0.868381 0.964364
Si Si8 0.430198 0.561645 0.699590
O O1 0.184493 0.254792 0.801764
O O2 0.373685 0.152018 0.830718
O O3 0.205284 0.455629 0.094201
O O4 0.004830 0.223479 0.051200
O O5 0.130014 0.461204 0.609692
O O6 0.046184 0.289973 0.693210
O O7 0.877225 0.270387 0.565530
O O8 0.301819 0.909845 0.596285
O O9 0.136206 0.724923 0.652508
O O10 0.924785 0.972948 0.811895
O O11 0.604316 0.865173 0.554980
O O12 0.258811 0.926886 0.849250
O O13 0.379348 0.450441 0.325278
O O14 0.000000 0.500000 0.500000
O O15 0.304107 0.451091 0.742539
O O16 0.317587 0.745886 0.878017
O O17 0.500000 0.500000 0.500000
#
# Coordination Sequence:
#
# PCOD8042644 Si02
#       8
#     2   2   2   2   2   2   2   2
#     4  11  23  38  62  92 120 163 209 245 299 365
#     4  11  21  38  58  90 122 157 200 250 303 353
#     4  10  21  36  60  91 122 157 197 255 305 349
#     4  11  21  41  65  89 120 160 208 251 298 359
#     4  10  19  35  59  87 119 155 194 248 305 349
#     4  12  23  38  64  88 124 162 204 251 298 364
#     4  11  21  38  66  94 120 159 209 249 296 364
#     4  12  19  36  64  91 115 159 208 247 293 359
#
# _framework density 22.348734
#
# number of rings (size 3 to 8) (size 9 to 14) (size 15 to 20)
#    0.000    1.000    5.000    3.750    0.000    0.000 
#    0.000   11.250    0.000    0.000    0.000    0.000 
#    0.000    0.000    0.000    0.000    0.000    0.000 
#
# Total GULP energy -198236.934667 kJ/mol
# GULP energy per Si atom -12389.808417 kJ/mol
# Density = 2.229787 g / cm^3
# Si number density = 22.348734 Si / 1000 Ang^3
#
#
#
# Elastic Constant Matrix: (Units=GPa)
#
#
# Indices 1 2 3 4 5 6 
#
# 1 78.5880 21.6706 30.1493 26.9527 -10.2119 -15.6146
# 2 21.6706 74.4327 35.5550 17.4783 -8.7244 -29.5261
# 3 30.1493 35.5550 112.2801 41.3084 -5.6708 -14.8563
# 4 26.9527 17.4783 41.3084 48.1928 -15.0465 -9.5284
# 5 -10.2119 -8.7244 -5.6708 -15.0465 30.7459 9.2668
# 6 -15.6146 -29.5261 -14.8563 -9.5284 9.2668 29.3462
#
#
#
# Elastic Compliance Matrix: (Units=1/GPa)
#
#
# Indices 1 2 3 4 5 6 
#
# 1 0.016850 -0.000528 -0.000917 -0.007341 0.000001 0.005586
# 2 -0.000528 0.024641 -0.004499 -0.000709 -0.001096 0.022350
# 3 -0.000917 -0.004499 0.014747 -0.011961 -0.004734 0.000062
# 4 -0.007341 -0.000709 -0.011961 0.039633 0.015350 -0.002653
# 5 0.000001 -0.001096 -0.004734 0.015350 0.042445 -0.011918
# 6 0.005586 0.022350 0.000062 -0.002653 -0.011918 0.062469
#
#
# Mechanical properties :
#
#
# Convention : Reuss Voigt Hill
#
# Bulk Modulus (GPa) = 22.54734 48.89453 35.72094
# Shear Modulus (GPa) = 21.98226 33.51870 27.75048
#
# Velocity S-wave (km/s) = 3.13965 3.87693 3.52760
# Velocity P-wave (km/s) = 4.82223 6.47814 5.71053
#
# Compressibility (1/GPa) = 0.04435113
#
# Stress axis : x y z
#
# Youngs Moduli (GPa) = 59.34780 40.58212 67.81043
#
# Poissons Ratio (x) = 0.02141 0.06221
# Poissons Ratio (y) = 0.03131 0.30505
# Poissons Ratio (z) = 0.05445 0.18256
#
# Static dielectric constant tensor:
#      x y z
#    x 3.917230 -0.560030 -0.440440 
#    y -0.560030 7.658950 2.068120 
#    z -0.440440 2.068120 5.150110 
# 
# 
# High freq. dielectric constant tensor:
#      x y z
#    x 1.851920 -0.023030 -0.018920 
#    y -0.023030 1.888810 0.016110 
#    z -0.018920 0.016110 1.872350 
# 
# From -- ./inp_files/393003.got.cif
#   From: 2010.06.25/outbox.cif.g09.slc.cpg/sg2_197_cif.got.tgz:393003.got - 2010.06.27 13:26:56.
