data_PCOD8042251
_publ_section_title
;
Structure prediction by ZEFSAII (Michael W. Deem and Ramdas Pophale) SiO2 
 PCOD8042251
Probable space group: P -1
;
_chemical_formula_sum "Si O2"
_cell_formula_units_Z 12
_cell_length_a 9.729056
_cell_length_b 18.120578
_cell_length_c 5.145728
_cell_angle_alpha 84.297422
_cell_angle_beta 119.028644
_cell_angle_gamma 131.889742
_cell_volume 554.212887
_symmetry_space_group_name_H-M "P -1"
_symmetry_group_IT_number 2
_symmetry_cell_setting 'triclinic'
loop_
_space_group_symop_operation_xyz
x,y,z
-x,-y,-z
loop_
_atom_site_type_symbol
_atom_site_label
_atom_site_fract_x
_atom_site_fract_y
_atom_site_fract_z
Si Si1 0.387776 0.041705 0.951573
Si Si2 0.250614 0.716477 0.677974
Si Si3 0.608419 0.616670 0.563948
Si Si4 0.758627 0.383485 0.793690
Si Si5 0.740477 0.044322 0.636144
Si Si6 0.898416 0.716144 0.294180
O O1 0.282862 0.028839 0.579910
O O2 0.559835 0.157394 0.190499
O O3 0.500000 0.000000 0.000000
O O4 0.190872 0.967240 0.016969
O O5 0.291524 0.668063 0.516138
O O6 0.011728 0.673096 0.406116
O O7 0.257014 0.684605 0.980348
O O8 0.500000 0.500000 0.500000
O O9 0.422387 0.614205 0.327436
O O10 0.803593 0.693885 0.504914
O O11 0.702847 0.657942 0.925652
O O12 0.000000 0.500000 0.000000
O O13 0.916864 0.160785 0.643226
O O14 0.500000 0.000000 0.500000
#
# Coordination Sequence:
#
# PCOD8042251 Si02
#       6
#     2   2   2   2   2   2
#     4  10  19  34  61 102 136 163 225 281 312 391
#     4  12  23  40  73 104 130 179 229 279 344 393
#     4  12  27  47  67  96 140 177 230 287 346 409
#     4  12  27  47  67  96 140 177 230 287 346 409
#     4  10  19  34  61 102 136 163 225 281 312 391
#     4  12  23  40  73 104 130 179 229 279 344 393
#
# _framework density 21.652327
#
# number of rings (size 3 to 8) (size 9 to 14) (size 15 to 20)
#    0.000    0.667    3.333    7.000    4.667    0.000 
#    0.000    0.000    0.000   20.000    0.000    0.000 
#    0.000    0.000    0.000    0.000    0.000    0.000 
#
# Total GULP energy -148708.773967 kJ/mol
# GULP energy per Si atom -12392.397831 kJ/mol
# Density = 2.160305 g / cm^3
# Si number density = 21.652327 Si / 1000 Ang^3
#
#
#
# Elastic Constant Matrix: (Units=GPa)
#
#
# Indices 1 2 3 4 5 6 
#
# 1 91.6298 45.9049 28.8625 1.3423 -12.4307 10.5244
# 2 45.9049 106.4670 32.0598 6.0600 -0.4174 10.0649
# 3 28.8625 32.0598 102.0075 -4.9764 -21.5674 3.6434
# 4 1.3423 6.0600 -4.9764 43.6909 0.5679 -13.5493
# 5 -12.4307 -0.4174 -21.5674 0.5679 52.1117 -5.2438
# 6 10.5244 10.0649 3.6434 -13.5493 -5.2438 33.1495
#
#
#
# Elastic Compliance Matrix: (Units=1/GPa)
#
#
# Indices 1 2 3 4 5 6 
#
# 1 0.014966 -0.005559 -0.001906 -0.000804 0.002464 -0.002793
# 2 -0.005559 0.013275 -0.003233 -0.003132 -0.002891 -0.003648
# 3 -0.001906 -0.003233 0.012431 0.002480 0.004839 0.001999
# 4 -0.000804 -0.003132 0.002480 0.027464 0.001762 0.012438
# 5 0.002464 -0.002891 0.004839 0.001762 0.022118 0.003782
# 6 -0.002793 -0.003648 0.001999 0.012438 0.003782 0.037623
#
#
# Mechanical properties :
#
#
# Convention : Reuss Voigt Hill
#
# Bulk Modulus (GPa) = 51.87839 57.08429 54.48134
# Shear Modulus (GPa) = 32.11345 38.67556 35.39451
#
# Velocity S-wave (km/s) = 3.85533 4.23094 4.04750
# Velocity P-wave (km/s) = 6.62041 7.09148 6.85999
#
# Compressibility (1/GPa) = 0.01927585
#
# Stress axis : x y z
#
# Youngs Moduli (GPa) = 66.81904 75.32996 80.44399
#
# Poissons Ratio (x) = 0.41880 0.15330
# Poissons Ratio (y) = 0.37148 0.26006
# Poissons Ratio (z) = 0.12733 0.24353
#
# Static dielectric constant tensor:
#      x y z
#    x 1.431040 -1.798210 2.980470 
#    y -1.798210 2.553180 2.496960 
#    z 2.980470 2.496960 0.105430 
# 
# 
# High freq. dielectric constant tensor:
#      x y z
#    x 1.835060 0.015180 -0.031140 
#    y 0.015180 1.866300 -0.006900 
#    z -0.031140 -0.006900 1.864850 
# 
# From -- ./inp_files/44783.got.cif
#   From: 2010.06.25/outbox.cif.g09.slc.cpg/sg2_23_cif.got.tgz:44783.got - 2010.06.27 13:26:56.
