data_PCOD8042259
_publ_section_title
;
Structure prediction by ZEFSAII (Michael W. Deem and Ramdas Pophale) SiO2 
 PCOD8042259
Probable space group: P -1
;
_chemical_formula_sum "Si O2"
_cell_formula_units_Z 16
_cell_length_a 9.103656
_cell_length_b 23.161748
_cell_length_c 9.568525
_cell_angle_alpha 51.699726
_cell_angle_beta 87.220212
_cell_angle_gamma 44.957424
_cell_volume 795.128844
_symmetry_space_group_name_H-M "P -1"
_symmetry_group_IT_number 2
_symmetry_cell_setting 'triclinic'
loop_
_space_group_symop_operation_xyz
x,y,z
-x,-y,-z
loop_
_atom_site_type_symbol
_atom_site_label
_atom_site_fract_x
_atom_site_fract_y
_atom_site_fract_z
Si Si1 0.662551 0.810260 0.758589
Si Si2 0.765318 0.247019 0.897966
Si Si3 0.675152 0.927807 0.781069
Si Si4 0.188079 0.930351 0.733332
Si Si5 0.950676 0.858162 0.452939
Si Si6 0.435797 0.624841 0.575650
Si Si7 0.128390 0.522120 0.006891
Si Si8 0.412694 0.607779 0.024634
O O1 0.819567 0.798661 0.877145
O O2 0.521161 0.804103 0.860812
O O3 0.870525 0.689878 0.808867
O O4 0.388690 0.974627 0.461880
O O5 0.553439 0.360007 0.610734
O O6 0.616615 0.334742 0.917728
O O7 0.812322 0.139422 0.060340
O O8 0.075854 0.154451 0.998844
O O9 0.376908 0.031658 0.713928
O O10 0.000000 0.000000 0.500000
O O11 0.049297 0.055774 0.641885
O O12 0.108175 0.778690 0.416820
O O13 0.123129 0.740067 0.744111
O O14 0.540186 0.497430 0.788501
O O15 0.659829 0.581239 0.714044
O O16 0.305357 0.481726 0.932628
O O17 0.000000 0.500000 0.000000
#
# Coordination Sequence:
#
# PCOD8042259 Si02
#       8
#     2   2   2   2   2   2   2   2
#     4  10  19  35  59  91 111 145 208 247 282 340
#     4  12  23  38  61  90 122 159 195 243 308 353
#     4  10  19  34  61  87 114 150 197 249 290 345
#     4  11  20  37  61  89 118 157 194 248 293 352
#     4  10  21  39  62  88 117 152 206 247 290 347
#     4  11  25  40  58  89 127 158 193 246 301 353
#     4  11  23  39  63  87 114 159 203 245 283 354
#     4  11  21  41  63  86 120 159 203 241 293 351
#
# _framework density 20.122523999999999
#
# number of rings (size 3 to 8) (size 9 to 14) (size 15 to 20)
#    0.000    1.250    2.500    6.375    1.750    1.000 
#    0.000    5.000    0.000    0.000    0.000    0.000 
#    0.000    0.000    0.000    0.000    0.000    0.000 
#
# Total GULP energy -198422.240432 kJ/mol
# GULP energy per Si atom -12401.390027 kJ/mol
# Density = 2.007672 g / cm^3
# Si number density = 20.122524 Si / 1000 Ang^3
#
#
#
# Elastic Constant Matrix: (Units=GPa)
#
#
# Indices 1 2 3 4 5 6 
#
# 1 120.2512 27.7780 58.8124 -8.2894 -4.9719 11.0454
# 2 27.7780 100.9080 43.1800 -17.1737 -10.0751 -1.6320
# 3 58.8124 43.1800 94.8649 10.2579 -1.4352 4.1804
# 4 -8.2894 -17.1737 10.2579 37.0597 0.0031 -1.8522
# 5 -4.9719 -10.0751 -1.4352 0.0031 20.0960 -6.3791
# 6 11.0454 -1.6320 4.1804 -1.8522 -6.3791 25.3028
#
#
#
# Elastic Compliance Matrix: (Units=1/GPa)
#
#
# Indices 1 2 3 4 5 6 
#
# 1 0.013447 0.001681 -0.009609 0.006292 0.002504 -0.003082
# 2 0.001681 0.016614 -0.009885 0.011072 0.009697 0.005226
# 3 -0.009609 -0.009885 0.022434 -0.013078 -0.006609 -0.002773
# 4 0.006292 0.011072 -0.013078 0.037381 0.007693 0.004804
# 5 0.002504 0.009697 -0.006609 0.007693 0.059943 0.016300
# 6 -0.003082 0.005226 -0.002773 0.004804 0.016300 0.046123
#
#
# Mechanical properties :
#
#
# Convention : Reuss Voigt Hill
#
# Bulk Modulus (GPa) = 59.27739 63.95165 61.61452
# Shear Modulus (GPa) = 21.07993 28.90861 24.99427
#
# Velocity S-wave (km/s) = 3.24014 3.79440 3.52817
# Velocity P-wave (km/s) = 6.59699 7.14470 6.87630
#
# Compressibility (1/GPa) = 0.01686984
#
# Stress axis : x y z
#
# Youngs Moduli (GPa) = 74.36371 60.18874 44.57482
#
# Poissons Ratio (x) = -0.10117 0.42830
# Poissons Ratio (y) = -0.12500 0.44064
# Poissons Ratio (z) = 0.71453 0.59499
#
# Static dielectric constant tensor:
#      x y z
#    x 3.875760 0.067740 0.063820 
#    y 0.067740 3.791550 -0.164930 
#    z 0.063820 -0.164930 3.409630 
# 
# 
# High freq. dielectric constant tensor:
#      x y z
#    x 1.798990 0.003600 0.004520 
#    y 0.003600 1.793220 -0.019540 
#    z 0.004520 -0.019540 1.755350 
# 
# From -- ./inp_files/205233.got.cif
#   From: 2010.06.25/outbox.cif.g09.slc.cpg/sg2_103_cif.got.tgz:205233.got - 2010.06.27 13:26:56.
