data_PCOD8042689
_publ_section_title
;
Structure prediction by ZEFSAII (Michael W. Deem and Ramdas Pophale) SiO2 
 PCOD8042689
Probable space group: P -1
;
_chemical_formula_sum "Si O2"
_cell_formula_units_Z 16
_cell_length_a 8.873221
_cell_length_b 10.397146
_cell_length_c 15.391577
_cell_angle_alpha 70.333183
_cell_angle_beta 45.678718
_cell_angle_gamma 55.627218
_cell_volume 834.457492
_symmetry_space_group_name_H-M "P -1"
_symmetry_group_IT_number 2
_symmetry_cell_setting 'triclinic'
loop_
_space_group_symop_operation_xyz
x,y,z
-x,-y,-z
loop_
_atom_site_type_symbol
_atom_site_label
_atom_site_fract_x
_atom_site_fract_y
_atom_site_fract_z
Si Si1 0.568713 0.338126 0.554778
Si Si2 0.044000 0.292425 0.070182
Si Si3 0.681405 0.026039 0.480291
Si Si4 0.321793 0.114564 0.153598
Si Si5 0.368426 0.379804 0.810427
Si Si6 0.925024 0.867002 0.572470
Si Si7 0.190778 0.866787 0.215562
Si Si8 0.856647 0.022572 0.965245
O O1 0.500000 0.500000 0.500000
O O2 0.580013 0.206744 0.511536
O O3 0.396198 0.352984 0.701366
O O4 0.827429 0.293633 0.503498
O O5 0.187829 0.265166 0.109946
O O6 0.771984 0.435682 0.154675
O O7 0.194108 0.313631 0.927069
O O8 0.009522 0.145284 0.096971
O O9 0.500000 0.000000 0.500000
O O10 0.721872 0.908302 0.571622
O O11 0.939676 0.963541 0.344581
O O12 0.167362 0.141831 0.294763
O O13 0.343676 0.960969 0.131708
O O14 0.580395 0.083902 0.087214
O O15 0.628555 0.299415 0.774021
O O16 0.000000 0.000000 0.500000
O O17 0.136457 0.855322 0.137151
O O18 0.000000 0.000000 0.000000
#
# Coordination Sequence:
#
# PCOD8042689 Si02
#       8
#     2   2   2   2   2   2   2   2
#     4  11  22  38  63  90 120 156 204 247 300 363
#     4  10  22  36  61  88 114 154 202 250 295 346
#     4  11  24  39  62  93 122 158 201 253 307 357
#     4  11  18  38  60  85 115 151 209 245 289 351
#     4  11  20  37  64  86 114 152 209 248 286 351
#     4  10  19  35  60  86 113 156 208 244 289 367
#     4  11  19  40  63  84 115 160 204 244 288 366
#     4  11  24  36  59  91 120 156 195 249 305 349
#
# _framework density 19.174136000000001
#
# number of rings (size 3 to 8) (size 9 to 14) (size 15 to 20)
#    0.000    1.250    6.250    2.250    3.500    0.000 
#    0.000    1.250    5.500    0.000    0.000    0.000 
#    0.000    0.000    0.000    0.000    0.000    0.000 
#
# Total GULP energy -198228.837726 kJ/mol
# GULP energy per Si atom -12389.302358 kJ/mol
# Density = 1.913050 g / cm^3
# Si number density = 19.174136 Si / 1000 Ang^3
#
#
#
# Elastic Constant Matrix: (Units=GPa)
#
#
# Indices 1 2 3 4 5 6 
#
# 1 124.7725 56.9075 42.1628 1.2189 13.7546 -24.9623
# 2 56.9075 128.0050 51.9710 6.4888 3.2092 -28.6276
# 3 42.1628 51.9710 132.7620 0.2213 17.0135 -15.9120
# 4 1.2189 6.4888 0.2213 30.5126 -9.6204 3.3888
# 5 13.7546 3.2092 17.0135 -9.6204 25.9483 -3.9582
# 6 -24.9623 -28.6276 -15.9120 3.3888 -3.9582 26.1441
#
#
#
# Elastic Compliance Matrix: (Units=1/GPa)
#
#
# Indices 1 2 3 4 5 6 
#
# 1 0.011652 -0.003009 -0.001096 -0.002087 -0.004837 0.006701
# 2 -0.003009 0.012728 -0.003162 -0.002861 0.002543 0.009895
# 3 -0.001096 -0.003162 0.009981 -0.001320 -0.005934 0.000839
# 4 -0.002087 -0.002861 -0.001320 0.039354 0.015594 -0.008669
# 5 -0.004837 0.002543 -0.005934 0.015594 0.050487 0.000177
# 6 0.006701 0.009895 0.000839 -0.008669 0.000177 0.057144
#
#
# Mechanical properties :
#
#
# Convention : Reuss Voigt Hill
#
# Bulk Modulus (GPa) = 50.43709 76.40247 63.41978
# Shear Modulus (GPa) = 24.69266 32.15421 28.42344
#
# Velocity S-wave (km/s) = 3.59250 4.09951 3.85435
# Velocity P-wave (km/s) = 6.60075 7.89564 7.27705
#
# Compressibility (1/GPa) = 0.01982668
#
# Stress axis : x y z
#
# Youngs Moduli (GPa) = 85.82463 78.56591 100.18762
#
# Poissons Ratio (x) = 0.23644 0.10979
# Poissons Ratio (y) = 0.25828 0.31679
# Poissons Ratio (z) = 0.09405 0.24842
#
# Static dielectric constant tensor:
#      x y z
#    x 3.670810 -0.640370 0.316110 
#    y -0.640370 3.798130 -0.120650 
#    z 0.316110 -0.120650 3.730570 
# 
# 
# High freq. dielectric constant tensor:
#      x y z
#    x 1.711160 -0.043460 0.013250 
#    y -0.043460 1.738520 -0.000380 
#    z 0.013250 -0.000380 1.771110 
# 
# From -- ./inp_files/276031.got.cif
#   From: 2010.06.25/outbox.cif.g09.slc.cpg/sg2_139_cif.got.tgz:276031.got - 2010.06.27 13:26:56.
