data_PCOD8042842
_publ_section_title
;
Structure prediction by ZEFSAII (Michael W. Deem and Ramdas Pophale) SiO2 
 PCOD8042842
Probable space group: P -1
;
_chemical_formula_sum "Si O2"
_cell_formula_units_Z 16
_cell_length_a 16.550484
_cell_length_b 9.089723
_cell_length_c 12.434024
_cell_angle_alpha 145.408070
_cell_angle_beta 132.187711
_cell_angle_gamma 71.214886
_cell_volume 657.828347
_symmetry_space_group_name_H-M "P -1"
_symmetry_group_IT_number 2
_symmetry_cell_setting 'triclinic'
loop_
_space_group_symop_operation_xyz
x,y,z
-x,-y,-z
loop_
_atom_site_type_symbol
_atom_site_label
_atom_site_fract_x
_atom_site_fract_y
_atom_site_fract_z
Si Si1 0.575551 0.022274 0.335201
Si Si2 0.933414 0.528667 0.644731
Si Si3 0.824658 0.527056 0.759692
Si Si4 0.317511 0.815621 0.895667
Si Si5 0.431340 0.184601 0.572434
Si Si6 0.905167 0.916833 0.266990
Si Si7 0.786422 0.995750 0.895307
Si Si8 0.382092 0.390192 0.160489
O O1 0.705288 0.175997 0.469641
O O2 0.557444 0.294992 0.526058
O O3 0.591297 0.830520 0.328855
O O4 0.438603 0.780316 0.006077
O O5 0.924511 0.523617 0.763743
O O6 0.798273 0.484288 0.453655
O O7 0.934536 0.232138 0.427748
O O8 0.060811 0.833904 0.897079
O O9 0.753441 0.687426 0.742369
O O10 0.910714 0.711294 0.053010
O O11 0.246899 0.813394 0.940318
O O12 0.379570 0.127074 0.068486
O O13 0.292311 0.049000 0.310513
O O14 0.530611 0.532223 0.822728
O O15 0.500000 0.000000 0.500000
O O16 0.762032 0.718753 0.071441
O O17 0.000000 0.000000 0.500000
#
# Coordination Sequence:
#
# PCOD8042842 Si02
#       8
#     2   2   2   2   2   2   2   2
#     4  10  19  35  62  94 124 163 211 265 319 365
#     4  11  26  40  64  98 128 169 217 258 311 385
#     4  11  24  44  65  93 130 169 216 257 319 377
#     4  11  19  37  65  92 121 168 215 259 313 375
#     4  10  20  32  62  98 120 163 216 262 317 377
#     4  10  23  40  66  94 124 170 206 261 320 375
#     4  12  21  40  64  91 133 170 213 263 312 376
#     4   9  17  34  56  91 119 153 211 253 309 376
#
# _framework density 24.322452999999999
#
# number of rings (size 3 to 8) (size 9 to 14) (size 15 to 20)
#    0.000    1.500    6.250    1.875    5.250    1.000 
#    0.000    0.000    0.000    3.750    0.000    0.000 
#    0.000    0.000    0.000    0.000    0.000    0.000 
#
# Total GULP energy -198340.988183 kJ/mol
# GULP energy per Si atom -12396.311761 kJ/mol
# Density = 2.426709 g / cm^3
# Si number density = 24.322453 Si / 1000 Ang^3
#
#
#
# Elastic Constant Matrix: (Units=GPa)
#
#
# Indices 1 2 3 4 5 6 
#
# 1 97.2362 25.2436 31.2228 2.8079 19.8584 38.5153
# 2 25.2436 103.6521 51.4022 -24.7706 19.6899 30.6886
# 3 31.2228 51.4022 128.1418 -34.8100 32.0221 16.1256
# 4 2.8079 -24.7706 -34.8100 39.7491 3.1060 6.5167
# 5 19.8584 19.6899 32.0221 3.1060 28.3079 10.3846
# 6 38.5153 30.6886 16.1256 6.5167 10.3846 40.0546
#
#
#
# Elastic Compliance Matrix: (Units=1/GPa)
#
#
# Indices 1 2 3 4 5 6 
#
# 1 0.018806 0.004423 0.000033 0.005468 -0.009613 -0.019883
# 2 0.004423 0.020867 0.001685 0.018596 -0.014123 -0.020283
# 3 0.000033 0.001685 0.019354 0.020867 -0.022975 -0.006553
# 4 0.005468 0.018596 0.020867 0.062177 -0.036744 -0.028496
# 5 -0.009613 -0.014123 -0.022975 -0.036744 0.076216 0.015532
# 6 -0.019883 -0.020283 -0.006553 -0.028496 0.015532 0.062873
#
#
# Mechanical properties :
#
#
# Convention : Reuss Voigt Hill
#
# Bulk Modulus (GPa) = 14.02324 60.52970 37.27647
# Shear Modulus (GPa) = 18.39723 36.36643 27.38183
#
# Velocity S-wave (km/s) = 2.75324 3.87095 3.35891
# Velocity P-wave (km/s) = 3.98562 6.70219 5.51382
#
# Compressibility (1/GPa) = 0.07131020
#
# Stress axis : x y z
#
# Youngs Moduli (GPa) = 53.17354 47.92285 51.66835
#
# Poissons Ratio (x) = -0.21196 -0.00171
# Poissons Ratio (y) = -0.23519 -0.08707
# Poissons Ratio (z) = -0.00176 -0.08076
#
# Static dielectric constant tensor:
#      x y z
#    x 4.293200 0.347880 0.160600 
#    y 0.347880 4.470530 -0.040150 
#    z 0.160600 -0.040150 4.601650 
# 
# 
# High freq. dielectric constant tensor:
#      x y z
#    x 1.956650 0.018890 0.007980 
#    y 0.018890 1.957290 -0.006450 
#    z 0.007980 -0.006450 1.965950 
# 
# From -- ./inp_files/462575.got.cif
#   From: 2010.06.25/outbox.cif.g09.slc.cpg/sg2_232_cif.got.tgz:462575.got - 2010.06.27 13:26:56.
