data_PCOD8042691
_publ_section_title
;
Structure prediction by ZEFSAII (Michael W. Deem and Ramdas Pophale) SiO2 
 PCOD8042691
Probable space group: P -1
;
_chemical_formula_sum "Si O2"
_cell_formula_units_Z 16
_cell_length_a 15.022361
_cell_length_b 23.438105
_cell_length_c 9.261894
_cell_angle_alpha 133.495428
_cell_angle_beta 137.153981
_cell_angle_gamma 20.795740
_cell_volume 787.285292
_symmetry_space_group_name_H-M "P -1"
_symmetry_group_IT_number 2
_symmetry_cell_setting 'triclinic'
loop_
_space_group_symop_operation_xyz
x,y,z
-x,-y,-z
loop_
_atom_site_type_symbol
_atom_site_label
_atom_site_fract_x
_atom_site_fract_y
_atom_site_fract_z
Si Si1 0.253049 0.518401 0.796187
Si Si2 0.212605 0.120575 0.424008
Si Si3 0.180603 0.733658 0.004730
Si Si4 0.288003 0.038760 0.681817
Si Si5 0.035968 0.583493 0.360090
Si Si6 0.142448 0.270793 0.050210
Si Si7 0.327190 0.295976 0.083004
Si Si8 0.113581 0.025036 0.694153
O O1 0.248922 0.607139 0.880976
O O2 0.107973 0.537797 0.537714
O O3 0.112297 0.581253 0.892152
O O4 0.574589 0.338212 0.883874
O O5 0.255204 0.045529 0.484905
O O6 0.017177 0.297320 0.532777
O O7 0.071663 0.132208 0.170001
O O8 0.500000 0.000000 0.500000
O O9 0.098620 0.806368 0.191790
O O10 0.603555 0.879354 0.807540
O O11 0.177937 0.020806 0.603103
O O12 0.116477 0.205098 0.812364
O O13 0.281417 0.413267 0.267027
O O14 0.775209 0.671675 0.144564
O O15 0.163418 0.333320 0.076314
O O16 0.632176 0.111024 0.134762
O O17 0.000000 0.000000 0.500000
#
# Coordination Sequence:
#
# PCOD8042691 Si02
#       8
#     2   2   2   2   2   2   2   2
#     4  10  20  36  55  83 119 154 191 244 296 345
#     4  11  21  37  63  90 119 153 198 247 291 346
#     4  10  21  36  56  84 116 157 197 233 296 357
#     4  10  20  36  60  91 114 150 206 241 289 352
#     4  10  20  35  56  85 117 149 191 236 294 348
#     4  10  19  35  60  86 117 148 197 251 289 344
#     4  10  21  36  58  88 118 151 197 242 295 353
#     4  11  22  39  61  84 120 162 194 242 295 354
#
# _framework density 20.323001999999999
#
# number of rings (size 3 to 8) (size 9 to 14) (size 15 to 20)
#    0.000    1.750    2.500    3.000    1.750    0.500 
#    0.000    6.250    0.000    0.000    0.000    0.000 
#    0.000    0.000    0.000    0.000    0.000    0.000 
#
# Total GULP energy -198231.587689 kJ/mol
# GULP energy per Si atom -12389.474231 kJ/mol
# Density = 2.027675 g / cm^3
# Si number density = 20.323002 Si / 1000 Ang^3
#
#
#
# Elastic Constant Matrix: (Units=GPa)
#
#
# Indices 1 2 3 4 5 6 
#
# 1 77.7552 39.5821 47.0235 -14.7074 -4.6315 -19.1701
# 2 39.5821 79.0128 29.5801 -7.2705 -4.3813 -14.7723
# 3 47.0235 29.5801 112.4214 -16.1433 -9.3326 -9.7407
# 4 -14.7074 -7.2705 -16.1433 33.6427 6.8981 3.3846
# 5 -4.6315 -4.3813 -9.3326 6.8981 22.9964 3.3160
# 6 -19.1701 -14.7723 -9.7407 3.3846 3.3160 34.1057
#
#
#
# Elastic Compliance Matrix: (Units=1/GPa)
#
#
# Indices 1 2 3 4 5 6 
#
# 1 0.023384 -0.007447 -0.006589 0.005089 -0.002024 0.007728
# 2 -0.007447 0.017395 -0.001201 -0.000591 0.001077 0.002960
# 3 -0.006589 -0.001201 0.012447 0.002344 0.002964 -0.001190
# 4 0.005089 -0.000591 0.002344 0.034647 -0.008626 0.000674
# 5 -0.002024 0.001077 0.002964 -0.008626 0.047591 -0.003596
# 6 0.007728 0.002960 -0.001190 0.000674 -0.003596 0.034889
#
#
# Mechanical properties :
#
#
# Convention : Reuss Voigt Hill
#
# Bulk Modulus (GPa) = 43.95307 55.72897 49.84102
# Shear Modulus (GPa) = 23.99097 28.34920 26.17008
#
# Velocity S-wave (km/s) = 3.43954 3.73893 3.59236
# Velocity P-wave (km/s) = 6.11949 6.79122 6.46408
#
# Compressibility (1/GPa) = 0.02275154
#
# Stress axis : x y z
#
# Youngs Moduli (GPa) = 42.76425 57.48780 80.34109
#
# Poissons Ratio (x) = 0.42809 0.52940
# Poissons Ratio (y) = 0.31845 0.09650
# Poissons Ratio (z) = 0.28179 0.06905
#
# Static dielectric constant tensor:
#      x y z
#    x 3.338070 0.073690 -0.027560 
#    y 0.073690 3.807290 -0.233240 
#    z -0.027560 -0.233240 4.054780 
# 
# 
# High freq. dielectric constant tensor:
#      x y z
#    x 1.757070 0.004460 -0.007940 
#    y 0.004460 1.796820 0.000540 
#    z -0.007940 0.000540 1.800480 
# 
# From -- ./inp_files/258156.got.cif
#   From: 2010.06.25/outbox.cif.g09.slc.cpg/sg2_130_cif.got.tgz:258156.got - 2010.06.27 13:26:56.
