data_PCOD8042670
_publ_section_title
;
Structure prediction by ZEFSAII (Michael W. Deem and Ramdas Pophale) SiO2 
 PCOD8042670
Probable space group: P -1
;
_chemical_formula_sum "Si O2"
_cell_formula_units_Z 16
_cell_length_a 7.686444
_cell_length_b 11.600953
_cell_length_c 16.142299
_cell_angle_alpha 134.542528
_cell_angle_beta 118.416517
_cell_angle_gamma 57.618147
_cell_volume 854.285804
_symmetry_space_group_name_H-M "P -1"
_symmetry_group_IT_number 2
_symmetry_cell_setting 'triclinic'
loop_
_space_group_symop_operation_xyz
x,y,z
-x,-y,-z
loop_
_atom_site_type_symbol
_atom_site_label
_atom_site_fract_x
_atom_site_fract_y
_atom_site_fract_z
Si Si1 0.604071 0.313548 0.394696
Si Si2 0.059471 0.780411 0.708607
Si Si3 0.341185 0.848596 0.930339
Si Si4 0.884889 0.394724 0.205155
Si Si5 0.782910 0.995894 0.629014
Si Si6 0.861126 0.997345 0.388737
Si Si7 0.680958 0.790027 0.850169
Si Si8 0.674592 0.793690 0.352037
O O1 0.500000 0.500000 0.500000
O O2 0.792713 0.322422 0.383328
O O3 0.434373 0.255514 0.277212
O O4 0.694369 0.182845 0.425129
O O5 0.175426 0.900200 0.841982
O O6 0.026013 0.646251 0.700829
O O7 0.838763 0.895209 0.678189
O O8 0.282896 0.706408 0.901116
O O9 0.572786 0.770575 0.903192
O O10 0.322977 0.014481 0.064481
O O11 0.768619 0.592377 0.267653
O O12 0.079626 0.333817 0.155544
O O13 0.575553 0.155769 0.673278
O O14 0.977711 0.062708 0.682344
O O15 0.758573 0.865269 0.487501
O O16 0.735572 0.867301 0.316989
O O17 0.000000 0.000000 0.500000
#
# Coordination Sequence:
#
# PCOD8042670 Si02
#       8
#     2   2   2   2   2   2   2   2
#     4  10  21  34  56  87 109 138 187 227 274 324
#     4   8  19  35  52  79 108 140 175 235 261 315
#     4   8  19  38  54  83 109 138 188 221 281 323
#     4  10  21  33  55  87 107 137 189 230 264 327
#     4   9  19  36  49  71 113 150 178 220 265 325
#     4   9  20  35  50  71 109 148 176 213 262 331
#     4  10  19  35  60  80 110 146 171 236 281 311
#     4  10  21  33  51  78 109 152 182 206 280 330
#
# _framework density 18.729094
#
# number of rings (size 3 to 8) (size 9 to 14) (size 15 to 20)
#    0.750    2.000    0.000    0.375    7.000    4.500 
#    0.000    0.000    0.000    3.000    0.000    7.000 
#    0.000    0.000    0.000    0.000    0.000    0.000 
#
# Total GULP energy -198255.776151 kJ/mol
# GULP energy per Si atom -12390.986009 kJ/mol
# Density = 1.868647 g / cm^3
# Si number density = 18.729094 Si / 1000 Ang^3
#
#
#
# Elastic Constant Matrix: (Units=GPa)
#
#
# Indices 1 2 3 4 5 6 
#
# 1 113.3178 56.4304 36.1538 26.2984 0.0648 -17.1018
# 2 56.4304 111.8492 48.1415 30.6083 -2.7932 -5.7052
# 3 36.1538 48.1415 93.4638 25.1282 -3.1086 -13.9523
# 4 26.2984 30.6083 25.1282 26.7307 -1.6634 -4.3481
# 5 0.0648 -2.7932 -3.1086 -1.6634 17.9992 5.3431
# 6 -17.1018 -5.7052 -13.9523 -4.3481 5.3431 23.5709
#
#
#
# Elastic Compliance Matrix: (Units=1/GPa)
#
#
# Indices 1 2 3 4 5 6 
#
# 1 0.014259 -0.004895 0.000180 -0.007411 -0.004085 0.008826
# 2 -0.004895 0.015727 -0.004150 -0.009891 0.002169 -0.004518
# 3 0.000180 -0.004150 0.016445 -0.009757 -0.000860 0.007255
# 4 -0.007411 -0.009891 -0.009757 0.065036 0.003513 -0.002346
# 5 -0.004085 0.002169 -0.000860 0.003513 0.060864 -0.016097
# 6 0.008826 -0.004518 0.007255 -0.002346 -0.016097 0.055246
#
#
# Mechanical properties :
#
#
# Convention : Reuss Voigt Hill
#
# Bulk Modulus (GPa) = 34.84273 66.67581 50.75927
# Shear Modulus (GPa) = 19.61733 25.52051 22.56892
#
# Velocity S-wave (km/s) = 3.23991 3.69536 3.47510
# Velocity P-wave (km/s) = 5.71313 7.34064 6.57742
#
# Compressibility (1/GPa) = 0.02870039
#
# Stress axis : x y z
#
# Youngs Moduli (GPa) = 70.12878 63.58422 60.80772
#
# Poissons Ratio (x) = 0.31127 -0.01094
# Poissons Ratio (y) = 0.34331 0.25237
# Poissons Ratio (z) = -0.01261 0.26389
#
# Static dielectric constant tensor:
#      x y z
#    x 3.870190 0.033810 0.021700 
#    y 0.033810 3.262850 -0.059020 
#    z 0.021700 -0.059020 3.123770 
# 
# 
# High freq. dielectric constant tensor:
#      x y z
#    x 1.746980 -0.006640 -0.000160 
#    y -0.006640 1.704720 0.001310 
#    z -0.000160 0.001310 1.694260 
# 
# From -- ./inp_files/559315.got.cif
#   From: 2010.06.25/outbox.cif.g09.slc.cpg/sg2_280_cif.got.tgz:559315.got - 2010.06.27 13:26:56.
