data_PCOD8042022
_publ_section_title
;
Structure prediction by ZEFSAII (Michael W. Deem and Ramdas Pophale) SiO2 
 PCOD8042022
Probable space group: P -1
;
_chemical_formula_sum "Si O2"
_cell_formula_units_Z 16
_cell_length_a 8.999481
_cell_length_b 13.774434
_cell_length_c 13.749699
_cell_angle_alpha 148.296320
_cell_angle_beta 93.672021
_cell_angle_gamma 97.423546
_cell_volume 837.269844
_symmetry_space_group_name_H-M "P -1"
_symmetry_group_IT_number 2
_symmetry_cell_setting 'triclinic'
loop_
_space_group_symop_operation_xyz
x,y,z
-x,-y,-z
loop_
_atom_site_type_symbol
_atom_site_label
_atom_site_fract_x
_atom_site_fract_y
_atom_site_fract_z
Si Si1 0.988337 0.741242 0.354094
Si Si2 0.146416 0.840202 0.891718
Si Si3 0.084816 0.409466 0.167121
Si Si4 0.980328 0.136011 0.748157
Si Si5 0.621047 0.351007 0.335897
Si Si6 0.141551 0.227156 0.304836
Si Si7 0.265937 0.220828 0.512757
Si Si8 0.432977 0.553028 0.386613
O O1 0.798765 0.664027 0.308894
O O2 0.075997 0.615473 0.306506
O O3 0.007116 0.721942 0.222550
O O4 0.063540 0.973248 0.587524
O O5 0.306288 0.801960 0.836845
O O6 0.047791 0.688275 0.840393
O O7 0.041308 0.819083 0.772024
O O8 0.204587 0.064054 0.121601
O O9 0.257933 0.449647 0.251628
O O10 0.065557 0.263017 0.951637
O O11 0.792006 0.012437 0.658938
O O12 0.756185 0.558689 0.547903
O O13 0.497552 0.381124 0.278550
O O14 0.545959 0.291198 0.389843
O O15 0.158293 0.228690 0.421904
O O16 0.453496 0.319494 0.586489
#
# Coordination Sequence:
#
# PCOD8042022 Si02
#       8
#     2   2   2   2   2   2   2   2
#     4   9  20  38  66  82 103 147 195 229 286 332
#     4  11  21  32  60  84 109 150 199 226 268 329
#     4  12  20  35  60  89 109 144 192 238 272 328
#     4   9  20  39  64  82 107 140 196 238 273 337
#     4  10  21  38  52  73 123 164 178 221 281 331
#     4  10  19  34  56  85 108 143 197 237 255 330
#     4   9  18  39  58  74 119 149 173 232 290 326
#     4  10  22  35  53  85 121 149 184 230 282 332
#
# _framework density 19.109728
#
# number of rings (size 3 to 8) (size 9 to 14) (size 15 to 20)
#    0.750    1.250    2.500    2.250    1.750    0.000 
#    0.000    9.375    0.000    0.000    0.000    0.000 
#    0.000    0.000    0.000    0.000    0.000    0.000 
#
# Total GULP energy -198228.412287 kJ/mol
# GULP energy per Si atom -12389.275768 kJ/mol
# Density = 1.906623 g / cm^3
# Si number density = 19.109728 Si / 1000 Ang^3
#
#
#
# Elastic Constant Matrix: (Units=GPa)
#
#
# Indices 1 2 3 4 5 6 
#
# 1 82.8534 16.0403 15.7131 -6.0373 -19.3913 0.7542
# 2 16.0403 65.2713 4.2845 -6.2175 -12.5144 15.2335
# 3 15.7131 4.2845 48.2950 1.1110 -14.5285 -8.0870
# 4 -6.0373 -6.2175 1.1110 21.9346 -1.3346 -4.2052
# 5 -19.3913 -12.5144 -14.5285 -1.3346 24.9703 3.2150
# 6 0.7542 15.2335 -8.0870 -4.2052 3.2150 26.4811
#
#
#
# Elastic Compliance Matrix: (Units=1/GPa)
#
#
# Indices 1 2 3 4 5 6 
#
# 1 0.015495 -0.000912 -0.002004 0.004551 0.010797 -0.001117
# 2 -0.000912 0.021226 -0.000376 0.003984 0.011608 -0.013076
# 3 -0.002004 -0.000376 0.026353 0.000083 0.012718 0.006790
# 4 0.004551 0.003984 0.000083 0.049296 0.007633 0.004505
# 5 0.010797 0.011608 0.012718 0.007633 0.063290 -0.009573
# 6 -0.001117 -0.013076 0.006790 0.004505 -0.009573 0.049268
#
#
# Mechanical properties :
#
#
# Convention : Reuss Voigt Hill
#
# Bulk Modulus (GPa) = 17.70230 29.83284 23.76757
# Shear Modulus (GPa) = 19.97275 25.36932 22.67104
#
# Velocity S-wave (km/s) = 3.23640 3.64752 3.44810
# Velocity P-wave (km/s) = 4.82176 5.77793 5.32136
#
# Compressibility (1/GPa) = 0.05648984
#
# Stress axis : x y z
#
# Youngs Moduli (GPa) = 64.53765 47.11137 37.94690
#
# Poissons Ratio (x) = 0.04297 0.07605
# Poissons Ratio (y) = 0.05887 0.01425
# Poissons Ratio (z) = 0.12935 0.01770
#
# Static dielectric constant tensor:
#      x y z
#    x 3.334190 0.228270 -0.082480 
#    y 0.228270 3.727010 0.027990 
#    z -0.082480 0.027990 3.333340 
# 
# 
# High freq. dielectric constant tensor:
#      x y z
#    x 1.718570 0.013200 -0.009920 
#    y 0.013200 1.750050 -0.001810 
#    z -0.009920 -0.001810 1.729380 
# 
# From -- ./inp_files/337363.got.cif
#   From: 2010.06.25/outbox.cif.g09.slc.cpg/sg2_169_cif.got.tgz:337363.got - 2010.06.27 13:26:56.
