data_PCOD8042806
_publ_section_title
;
Structure prediction by ZEFSAII (Michael W. Deem and Ramdas Pophale) SiO2 
 PCOD8042806
Probable space group: P -1
;
_chemical_formula_sum "Si O2"
_cell_formula_units_Z 16
_cell_length_a 8.904431
_cell_length_b 9.225140
_cell_length_c 17.080093
_cell_angle_alpha 81.938700
_cell_angle_beta 64.135977
_cell_angle_gamma 47.900573
_cell_volume 912.077717
_symmetry_space_group_name_H-M "P -1"
_symmetry_group_IT_number 2
_symmetry_cell_setting 'triclinic'
loop_
_space_group_symop_operation_xyz
x,y,z
-x,-y,-z
loop_
_atom_site_type_symbol
_atom_site_label
_atom_site_fract_x
_atom_site_fract_y
_atom_site_fract_z
Si Si1 0.366639 0.522157 0.102766
Si Si2 0.846620 0.801058 0.216028
Si Si3 0.829535 0.966606 0.539365
Si Si4 0.543089 0.776942 0.788333
Si Si5 0.364247 0.362716 0.687045
Si Si6 0.998414 0.399488 0.371150
Si Si7 0.082201 0.220679 0.619910
Si Si8 0.583625 0.453678 0.742098
O O1 0.442757 0.309451 0.122810
O O2 0.419760 0.592412 0.161448
O O3 0.096577 0.685855 0.134951
O O4 0.500000 0.500000 0.000000
O O5 0.794080 0.660646 0.231392
O O6 0.815548 0.863422 0.309965
O O7 0.673590 0.988882 0.184637
O O8 0.763449 0.954079 0.466947
O O9 0.961151 0.749118 0.562857
O O10 0.596066 0.145237 0.622536
O O11 0.000000 0.000000 0.500000
O O12 0.515401 0.666600 0.736756
O O13 0.777522 0.724414 0.725299
O O14 0.221798 0.517801 0.636105
O O15 0.409965 0.463051 0.730769
O O16 0.943154 0.590992 0.407208
O O17 0.838971 0.284327 0.663696
#
# Coordination Sequence:
#
# PCOD8042806 Si02
#       8
#     2   2   2   2   2   2   2   2
#     4   9  19  38  62  86 109 134 178 227 267 331
#     4  10  19  35  62  78 107 149 181 215 277 326
#     4  12  23  34  53  82 111 144 193 236 261 307
#     4   9  18  37  57  81 102 149 181 214 269 336
#     4  11  20  37  54  79 109 150 178 225 280 314
#     4  10  21  37  54  74 110 153 185 223 267 323
#     4   9  19  38  51  77 109 147 188 228 267 314
#     4   8  18  36  54  76 115 138 173 224 281 315
#
# _framework density 17.542366000000001
#
# number of rings (size 3 to 8) (size 9 to 14) (size 15 to 20)
#    0.750    1.500    5.000    0.375    0.000    4.000 
#    4.500    0.625    0.000    0.750    0.000    0.000 
#    0.000    0.000    0.000    0.000    0.000    0.000 
#
# Total GULP energy -198255.462034 kJ/mol
# GULP energy per Si atom -12390.966377 kJ/mol
# Density = 1.750244 g / cm^3
# Si number density = 17.542366 Si / 1000 Ang^3
#
#
#
# Elastic Constant Matrix: (Units=GPa)
#
#
# Indices 1 2 3 4 5 6 
#
# 1 102.2738 12.3704 25.8391 3.6865 5.4538 -1.9860
# 2 12.3704 65.7716 17.0582 -9.3182 -0.4307 -14.0837
# 3 25.8391 17.0582 73.1678 -2.8960 -8.5978 7.2935
# 4 3.6865 -9.3182 -2.8960 20.6617 0.0116 -1.2830
# 5 5.4538 -0.4307 -8.5978 0.0116 19.8980 -1.1970
# 6 -1.9860 -14.0837 7.2935 -1.2830 -1.1970 22.1002
#
#
#
# Elastic Compliance Matrix: (Units=1/GPa)
#
#
# Indices 1 2 3 4 5 6 
#
# 1 0.011504 -0.001134 -0.004661 -0.003128 -0.005106 0.001392
# 2 -0.001134 0.021957 -0.006050 0.010278 -0.000845 0.016438
# 3 -0.004661 -0.006050 0.018739 0.000105 0.008643 -0.009984
# 4 -0.003128 0.010278 0.000105 0.054194 0.001663 0.009470
# 5 -0.005106 -0.000845 0.008643 0.001663 0.055326 -0.000757
# 6 0.001392 0.016438 -0.009984 0.009470 -0.000757 0.059652
#
#
# Mechanical properties :
#
#
# Convention : Reuss Voigt Hill
#
# Bulk Modulus (GPa) = 35.07388 39.08320 37.07854
# Shear Modulus (GPa) = 19.64144 24.92834 22.28489
#
# Velocity S-wave (km/s) = 3.34976 3.77375 3.56806
# Velocity P-wave (km/s) = 5.91594 6.42775 6.17715
#
# Compressibility (1/GPa) = 0.02851124
#
# Stress axis : x y z
#
# Youngs Moduli (GPa) = 86.92298 45.54412 53.36567
#
# Poissons Ratio (x) = 0.05162 0.24874
# Poissons Ratio (y) = 0.09853 0.32285
# Poissons Ratio (z) = 0.40515 0.27553
#
# Static dielectric constant tensor:
#      x y z
#    x 3.294710 -0.061910 -0.042860 
#    y -0.061910 3.157530 -0.080680 
#    z -0.042860 -0.080680 2.927470 
# 
# 
# High freq. dielectric constant tensor:
#      x y z
#    x 1.681080 -0.008390 -0.007760 
#    y -0.008390 1.669270 -0.009020 
#    z -0.007760 -0.009020 1.649190 
# 
# From -- ./inp_files/347216.got.cif
#   From: 2010.06.25/outbox.cif.g09.slc.cpg/sg2_174_cif.got.tgz:347216.got - 2010.06.27 13:26:56.
