data_PCOD8042103
_publ_section_title
;
Structure prediction by ZEFSAII (Michael W. Deem and Ramdas Pophale) SiO2 
 PCOD8042103
Probable space group: P -1
;
_chemical_formula_sum "Si O2"
_cell_formula_units_Z 16
_cell_length_a 12.400736
_cell_length_b 8.924440
_cell_length_c 11.885381
_cell_angle_alpha 130.596996
_cell_angle_beta 117.121515
_cell_angle_gamma 92.969965
_cell_volume 761.647561
_symmetry_space_group_name_H-M "P -1"
_symmetry_group_IT_number 2
_symmetry_cell_setting 'triclinic'
loop_
_space_group_symop_operation_xyz
x,y,z
-x,-y,-z
loop_
_atom_site_type_symbol
_atom_site_label
_atom_site_fract_x
_atom_site_fract_y
_atom_site_fract_z
Si Si1 0.553085 0.735837 0.927254
Si Si2 0.856376 0.318314 0.613499
Si Si3 0.339812 0.852065 0.957723
Si Si4 0.233350 0.173840 0.738125
Si Si5 0.669208 0.133156 0.640454
Si Si6 0.293357 0.269907 0.561682
Si Si7 0.162169 0.541925 0.925439
Si Si8 0.138279 0.501702 0.524823
O O1 0.480840 0.838024 0.025815
O O2 0.441795 0.488170 0.700674
O O3 0.666159 0.729306 0.058413
O O4 0.622574 0.887828 0.920852
O O5 0.721289 0.230465 0.587183
O O6 0.851043 0.483930 0.597798
O O7 0.000292 0.476164 0.829976
O O8 0.856949 0.104658 0.446085
O O9 0.236657 0.729849 0.953304
O O10 0.270266 0.728765 0.747265
O O11 0.314186 0.265165 0.703282
O O12 0.140610 0.293238 0.765239
O O13 0.500000 0.000000 0.500000
O O14 0.723518 0.959239 0.614051
O O15 0.743441 0.347100 0.865047
O O16 0.156161 0.288020 0.470663
O O17 0.000000 0.500000 0.500000
#
# Coordination Sequence:
#
# PCOD8042103 Si02
#       8
#     2   2   2   2   2   2   2   2
#     4  10  19  34  57  95 127 156 207 267 320 366
#     4  11  24  41  65  94 130 169 208 268 325 380
#     4  10  21  33  60  95 126 161 203 267 318 374
#     4  11  20  35  66  94 124 163 214 271 322 377
#     4  11  27  45  65  89 131 180 216 259 317 383
#     4  10  22  39  61  95 125 165 216 268 314 375
#     4  12  23  42  63  95 130 167 215 263 322 385
#     4  11  19  40  66  96 128 160 208 266 327 379
#
# _framework density 21.007090999999999
#
# number of rings (size 3 to 8) (size 9 to 14) (size 15 to 20)
#    0.000    1.250    5.000    1.875    3.500    1.000 
#    0.000    4.375    0.000    0.000    0.000    0.000 
#    0.000    0.000    0.000    0.000    0.000    0.000 
#
# Total GULP energy -198284.043060 kJ/mol
# GULP energy per Si atom -12392.752691 kJ/mol
# Density = 2.095928 g / cm^3
# Si number density = 21.007091 Si / 1000 Ang^3
#
#
#
# Elastic Constant Matrix: (Units=GPa)
#
#
# Indices 1 2 3 4 5 6 
#
# 1 91.9804 35.4484 18.9210 -6.1087 12.9489 7.0674
# 2 35.4484 108.4432 10.6854 -5.3715 3.1453 3.4647
# 3 18.9210 10.6854 70.7560 -9.9825 -0.8347 -3.7542
# 4 -6.1087 -5.3715 -9.9825 28.5691 -5.8663 -1.5798
# 5 12.9489 3.1453 -0.8347 -5.8663 30.9484 -0.4874
# 6 7.0674 3.4647 -3.7542 -1.5798 -0.4874 27.9936
#
#
#
# Elastic Compliance Matrix: (Units=1/GPa)
#
#
# Indices 1 2 3 4 5 6 
#
# 1 0.014218 -0.004034 -0.003502 -0.000327 -0.005753 -0.003678
# 2 -0.004034 0.010618 -0.000366 0.001159 0.000814 -0.000265
# 3 -0.003502 -0.000366 0.016141 0.005643 0.003062 0.003466
# 4 -0.000327 0.001159 0.005643 0.038846 0.007582 0.003020
# 5 -0.005753 0.000814 0.003062 0.007582 0.036200 0.002820
# 6 -0.003678 -0.000265 0.003466 0.003020 0.002820 0.037368
#
#
# Mechanical properties :
#
#
# Convention : Reuss Voigt Hill
#
# Bulk Modulus (GPa) = 39.72482 44.58768 42.15625
# Shear Modulus (GPa) = 28.15516 31.24386 29.69951
#
# Velocity S-wave (km/s) = 3.66494 3.86074 3.76411
# Velocity P-wave (km/s) = 6.07127 6.41443 6.24520
#
# Compressibility (1/GPa) = 0.02517318
#
# Stress axis : x y z
#
# Youngs Moduli (GPa) = 70.33389 94.17559 61.95458
#
# Poissons Ratio (x) = 0.37994 0.21696
# Poissons Ratio (y) = 0.28375 0.02266
# Poissons Ratio (z) = 0.24630 0.03444
#
# Static dielectric constant tensor:
#      x y z
#    x 3.717290 -0.237380 0.208450 
#    y -0.237380 4.169970 -0.019080 
#    z 0.208450 -0.019080 3.724400 
# 
# 
# High freq. dielectric constant tensor:
#      x y z
#    x 1.798680 0.000290 0.022710 
#    y 0.000290 1.835690 0.001660 
#    z 0.022710 0.001660 1.809390 
# 
# From -- ./inp_files/184352.got.cif
#   From: 2010.06.25/outbox.cif.g09.slc.cpg/sg2_93_cif.got.tgz:184352.got - 2010.06.27 13:26:56.
