data_PCOD8042892
_publ_section_title
;
Structure prediction by ZEFSAII (Michael W. Deem and Ramdas Pophale) SiO2 
 PCOD8042892
Probable space group: P -1
;
_chemical_formula_sum "Si O2"
_cell_formula_units_Z 16
_cell_length_a 12.117616
_cell_length_b 14.267257
_cell_length_c 7.506142
_cell_angle_alpha 79.639438
_cell_angle_beta 121.668339
_cell_angle_gamma 138.340707
_cell_volume 680.441224
_symmetry_space_group_name_H-M "P -1"
_symmetry_group_IT_number 2
_symmetry_cell_setting 'triclinic'
loop_
_space_group_symop_operation_xyz
x,y,z
-x,-y,-z
loop_
_atom_site_type_symbol
_atom_site_label
_atom_site_fract_x
_atom_site_fract_y
_atom_site_fract_z
Si Si1 0.426592 0.082116 0.988644
Si Si2 0.941934 0.092131 0.808718
Si Si3 0.673003 0.799582 0.889966
Si Si4 0.083292 0.626979 0.217040
Si Si5 0.328863 0.896999 0.547050
Si Si6 0.972102 0.234388 0.126891
Si Si7 0.336415 0.667072 0.158675
Si Si8 0.406799 0.540920 0.481413
O O1 0.432476 0.183273 0.075128
O O2 0.561983 0.071126 0.186746
O O3 0.513618 0.162642 0.841391
O O4 0.193503 0.910029 0.832161
O O5 0.812581 0.088678 0.569758
O O6 0.149658 0.164058 0.872924
O O7 0.781943 0.916588 0.779001
O O8 0.022188 0.190035 0.023305
O O9 0.498727 0.630501 0.716282
O O10 0.168935 0.718178 0.441310
O O11 0.230847 0.627016 0.275433
O O12 0.118815 0.723904 0.056135
O O13 0.845539 0.457728 0.097637
O O14 0.500000 0.000000 0.500000
O O15 0.164980 0.377284 0.360845
O O16 0.455655 0.639541 0.321460
O O17 0.500000 0.500000 0.500000
#
# Coordination Sequence:
#
# PCOD8042892 Si02
#       8
#     2   2   2   2   2   2   2   2
#     4  11  22  38  63  91 125 154 199 261 301 345
#     4   9  18  33  60  91 117 157 204 241 288 371
#     4  10  19  35  64  87 117 159 207 244 299 356
#     4   9  19  39  61  83 118 160 199 236 302 372
#     4  11  18  35  64  90 119 158 202 243 299 367
#     4   9  18  36  59  88 120 149 200 245 294 355
#     4  10  23  38  60  89 123 153 198 256 304 355
#     4  11  21  37  65  83 114 168 207 235 299 373
#
# _framework density 23.514154999999999
#
# number of rings (size 3 to 8) (size 9 to 14) (size 15 to 20)
#    0.000    2.000    5.000    0.750    0.000    1.000 
#    0.000    1.250    8.250    0.000    0.000    0.000 
#    0.000    0.000    0.000    0.000    0.000    0.000 
#
# Total GULP energy -198258.321540 kJ/mol
# GULP energy per Si atom -12391.145096 kJ/mol
# Density = 2.346064 g / cm^3
# Si number density = 23.514155 Si / 1000 Ang^3
#
#
#
# Elastic Constant Matrix: (Units=GPa)
#
#
# Indices 1 2 3 4 5 6 
#
# 1 55.9514 11.6681 29.6266 -7.3131 28.4254 -14.6343
# 2 11.6681 117.3687 36.5376 4.9229 11.8715 -5.9946
# 3 29.6266 36.5376 98.0295 7.4766 22.3755 -5.4594
# 4 -7.3131 4.9229 7.4766 40.2861 -13.9088 -2.5490
# 5 28.4254 11.8715 22.3755 -13.9088 35.4815 -2.3400
# 6 -14.6343 -5.9946 -5.4594 -2.5490 -2.3400 31.7445
#
#
#
# Elastic Compliance Matrix: (Units=1/GPa)
#
#
# Indices 1 2 3 4 5 6 
#
# 1 0.037481 0.001259 -0.004819 -0.000761 -0.026742 0.014656
# 2 0.001259 0.009803 -0.003271 -0.001150 -0.002572 0.001587
# 3 -0.004819 -0.003271 0.014740 -0.005569 -0.006605 -0.001238
# 4 -0.000761 -0.001150 -0.005569 0.031935 0.017177 0.002305
# 5 -0.026742 -0.002572 -0.006605 0.017177 0.060833 -0.008086
# 6 0.014656 0.001587 -0.001238 0.002305 -0.008086 0.037933
#
#
# Mechanical properties :
#
#
# Convention : Reuss Voigt Hill
#
# Bulk Modulus (GPa) = 20.67720 47.44603 34.06161
# Shear Modulus (GPa) = 22.47113 34.40359 28.43736
#
# Velocity S-wave (km/s) = 3.09470 3.82920 3.48138
# Velocity P-wave (km/s) = 4.64566 6.30649 5.53868
#
# Compressibility (1/GPa) = 0.04836246
#
# Stress axis : x y z
#
# Youngs Moduli (GPa) = 26.68005 102.01260 67.84222
#
# Poissons Ratio (x) = -0.12846 0.32692
# Poissons Ratio (y) = -0.03360 0.22192
# Poissons Ratio (z) = 0.12857 0.33370
#
# Static dielectric constant tensor:
#      x y z
#    x 4.094170 -0.916880 -0.311090 
#    y -0.916880 3.006790 -1.273270 
#    z -0.311090 -1.273270 2.116860 
# 
# 
# High freq. dielectric constant tensor:
#      x y z
#    x 1.925080 -0.038120 0.022400 
#    y -0.038120 1.921210 0.030260 
#    z 0.022400 0.030260 1.917470 
# 
# From -- ./inp_files/270242.got.cif
#   From: 2010.06.25/outbox.cif.g09.slc.cpg/sg2_136_cif.got.tgz:270242.got - 2010.06.27 13:26:56.
