data_PCOD8042478
_publ_section_title
;
Structure prediction by ZEFSAII (Michael W. Deem and Ramdas Pophale) SiO2 
 PCOD8042478
Probable space group: P -1
;
_chemical_formula_sum "Si O2"
_cell_formula_units_Z 12
_cell_length_a 11.811260
_cell_length_b 21.806684
_cell_length_c 5.156758
_cell_angle_alpha 102.902097
_cell_angle_beta 84.110340
_cell_angle_gamma 29.526976
_cell_volume 501.605239
_symmetry_space_group_name_H-M "P -1"
_symmetry_group_IT_number 2
_symmetry_cell_setting 'triclinic'
loop_
_space_group_symop_operation_xyz
x,y,z
-x,-y,-z
loop_
_atom_site_type_symbol
_atom_site_label
_atom_site_fract_x
_atom_site_fract_y
_atom_site_fract_z
Si Si1 0.318383 0.311541 0.302177
Si Si2 0.965697 0.384244 0.620279
Si Si3 0.695067 0.908880 0.617829
Si Si4 0.456651 0.591309 0.682124
Si Si5 0.141994 0.784987 0.436725
Si Si6 0.502188 0.283381 0.746122
O O1 0.266391 0.264522 0.339411
O O2 0.486136 0.258776 0.449163
O O3 0.000000 0.500000 0.500000
O O4 0.503728 0.229245 0.919518
O O5 0.051654 0.273594 0.625240
O O6 0.762434 0.473809 0.500606
O O7 0.776533 0.526483 0.987970
O O8 0.825453 0.913930 0.600331
O O9 0.500000 0.000000 0.500000
O O10 0.500000 0.000000 0.000000
O O11 0.500000 0.500000 0.500000
O O12 0.234199 0.735416 0.669438
O O13 0.346543 0.644011 0.053430
O O14 0.189386 0.835196 0.407681
#
# Coordination Sequence:
#
# PCOD8042478 Si02
#       6
#     2   2   2   2   2   2
#     4  10  19  35  56  95 123 147 185 238 317 373
#     4  10  22  38  63  89 128 154 194 249 301 360
#     4  12  28  42  59  84 122 171 210 241 286 349
#     4  11  21  34  61  92 118 151 189 246 319 357
#     4  11  22  40  59  88 123 150 202 250 302 360
#     4  10  21  35  63  93 117 149 186 251 316 359
#
# _framework density 23.923195
#
# number of rings (size 3 to 8) (size 9 to 14) (size 15 to 20)
#    0.000    1.333    1.667    6.500    2.333    5.333 
#    0.000    0.000    0.000    6.000    0.000    0.000 
#    0.000    0.000    0.000    0.000    0.000    0.000 
#
# Total GULP energy -148665.988252 kJ/mol
# GULP energy per Si atom -12388.832354 kJ/mol
# Density = 2.386874 g / cm^3
# Si number density = 23.923195 Si / 1000 Ang^3
#
#
#
# Elastic Constant Matrix: (Units=GPa)
#
#
# Indices 1 2 3 4 5 6 
#
# 1 170.7065 43.2429 31.6917 -10.0507 -41.9246 -46.5238
# 2 43.2429 102.4242 30.2502 -30.4209 -7.1770 -36.1304
# 3 31.6917 30.2502 72.0518 -24.7480 -13.3777 -12.6578
# 4 -10.0507 -30.4209 -24.7480 33.8437 -1.5775 4.8742
# 5 -41.9246 -7.1770 -13.3777 -1.5775 40.7937 -2.5987
# 6 -46.5238 -36.1304 -12.6578 4.8742 -2.5987 44.6808
#
#
#
# Elastic Compliance Matrix: (Units=1/GPa)
#
#
# Indices 1 2 3 4 5 6 
#
# 1 0.014279 0.002830 0.000625 0.005470 0.016718 0.017710
# 2 0.002830 0.020795 0.001157 0.018107 0.008833 0.018628
# 3 0.000625 0.001157 0.021578 0.016497 0.008969 0.006421
# 4 0.005470 0.018107 0.016497 0.057489 0.017700 0.019769
# 5 0.016718 0.008833 0.008969 0.017700 0.048658 0.027990
# 6 0.017710 0.018628 0.006421 0.019769 0.027990 0.057175
#
#
# Mechanical properties :
#
#
# Convention : Reuss Voigt Hill
#
# Bulk Modulus (GPa) = 15.18014 61.72800 38.45407
# Shear Modulus (GPa) = 21.48600 39.86349 30.67474
#
# Velocity S-wave (km/s) = 3.00012 4.08648 3.58469
# Velocity P-wave (km/s) = 4.28487 6.93717 5.76561
#
# Compressibility (1/GPa) = 0.06587554
#
# Stress axis : x y z
#
# Youngs Moduli (GPa) = 70.03053 48.08857 46.34321
#
# Poissons Ratio (x) = -0.13608 -0.02897
# Poissons Ratio (y) = -0.19818 -0.05360
# Poissons Ratio (z) = -0.04378 -0.05562
#
# Static dielectric constant tensor:
#      x y z
#    x 5.349270 -0.005230 -0.491920 
#    y -0.005230 4.313340 -0.440740 
#    z -0.491920 -0.440740 4.243970 
# 
# 
# High freq. dielectric constant tensor:
#      x y z
#    x 1.981880 -0.017890 -0.015410 
#    y -0.017890 1.922550 -0.033750 
#    z -0.015410 -0.033750 1.922900 
# 
# From -- ./inp_files/83684.got.cif
#   From: 2010.06.25/outbox.cif.g09.slc.cpg/sg2_42_cif.got.tgz:83684.got - 2010.06.27 13:26:56.
