data_PCOD8042666
_publ_section_title
;
Structure prediction by ZEFSAII (Michael W. Deem and Ramdas Pophale) SiO2 
 PCOD8042666
Probable space group: P -1
;
_chemical_formula_sum "Si O2"
_cell_formula_units_Z 16
_cell_length_a 8.493055
_cell_length_b 9.778237
_cell_length_c 16.034425
_cell_angle_alpha 34.776192
_cell_angle_beta 89.052079
_cell_angle_gamma 92.957853
_cell_volume 754.433199
_symmetry_space_group_name_H-M "P -1"
_symmetry_group_IT_number 2
_symmetry_cell_setting 'triclinic'
loop_
_space_group_symop_operation_xyz
x,y,z
-x,-y,-z
loop_
_atom_site_type_symbol
_atom_site_label
_atom_site_fract_x
_atom_site_fract_y
_atom_site_fract_z
Si Si1 0.862889 0.201250 0.517646
Si Si2 0.586632 0.861027 0.638939
Si Si3 0.351445 0.640835 0.416052
Si Si4 0.560858 0.086439 0.204909
Si Si5 0.463551 0.684186 0.072306
Si Si6 0.254197 0.014065 0.009537
Si Si7 0.025653 0.286316 0.764133
Si Si8 0.856170 0.804691 0.372175
O O1 0.729138 0.300915 0.525794
O O2 0.940523 0.432444 0.348058
O O3 0.004577 0.086810 0.621707
O O4 0.769387 0.984205 0.574283
O O5 0.501711 0.862137 0.728894
O O6 0.584004 0.580577 0.756017
O O7 0.500000 0.000000 0.500000
O O8 0.500000 0.500000 0.500000
O O9 0.227819 0.452880 0.459100
O O10 0.432730 0.894986 0.250682
O O11 0.732988 0.996042 0.260759
O O12 0.572622 0.316192 0.027583
O O13 0.362352 0.873039 0.020658
O O14 0.647559 0.771141 0.046763
O O15 0.157656 0.820853 0.168651
O O16 0.135531 0.131734 0.892419
O O17 0.057844 0.263286 0.678069
#
# Coordination Sequence:
#
# PCOD8042666 Si02
#       8
#     2   2   2   2   2   2   2   2
#     4  10  21  35  61  89 119 163 202 249 308 367
#     4  11  25  45  63  87 123 165 213 259 305 369
#     4   8  16  30  55  91 120 153 193 250 291 354
#     4  10  21  39  64  91 123 167 208 251 306 369
#     4  11  23  43  63  92 122 165 213 250 306 371
#     4  10  23  37  65  91 124 159 199 258 311 364
#     4  10  19  38  58  94 129 155 193 255 316 363
#     4  10  19  35  59  95 127 155 207 249 307 371
#
# _framework density 21.207972999999999
#
# number of rings (size 3 to 8) (size 9 to 14) (size 15 to 20)
#    0.000    2.000    1.250    2.625    5.250    1.000 
#    4.500    5.625    0.000    0.000    0.000    0.000 
#    0.000    0.000    0.000    0.000    0.000    0.000 
#
# Total GULP energy -198231.175174 kJ/mol
# GULP energy per Si atom -12389.448448 kJ/mol
# Density = 2.115970 g / cm^3
# Si number density = 21.207973 Si / 1000 Ang^3
#
#
#
# Elastic Constant Matrix: (Units=GPa)
#
#
# Indices 1 2 3 4 5 6 
#
# 1 90.4703 31.3258 29.6341 -1.5240 -15.7134 31.9864
# 2 31.3258 68.9452 35.9021 -7.7607 -2.8841 26.9251
# 3 29.6341 35.9021 125.3837 -11.6788 -3.9499 23.6515
# 4 -1.5240 -7.7607 -11.6788 26.0834 9.0366 -8.4510
# 5 -15.7134 -2.8841 -3.9499 9.0366 26.5224 -3.2286
# 6 31.9864 26.9251 23.6515 -8.4510 -3.2286 36.8576
#
#
#
# Elastic Compliance Matrix: (Units=1/GPa)
#
#
# Indices 1 2 3 4 5 6 
#
# 1 0.020076 -0.002849 -0.001517 -0.009815 0.012816 -0.015496
# 2 -0.002849 0.022088 -0.003422 0.001867 -0.001795 -0.011197
# 3 -0.001517 -0.003422 0.009934 0.003085 -0.001079 -0.001946
# 4 -0.009815 0.001867 0.003085 0.051909 -0.020984 0.015238
# 5 0.012816 -0.001795 -0.001079 -0.020984 0.050938 -0.009468
# 6 -0.015496 -0.011197 -0.001946 0.015238 -0.009468 0.052672
#
#
# Mechanical properties :
#
#
# Convention : Reuss Voigt Hill
#
# Bulk Modulus (GPa) = 27.37944 53.16925 40.27434
# Shear Modulus (GPa) = 21.24344 30.42182 25.83263
#
# Velocity S-wave (km/s) = 3.16835 3.79153 3.49386
# Velocity P-wave (km/s) = 5.13056 6.65525 5.94201
#
# Compressibility (1/GPa) = 0.03652376
#
# Stress axis : x y z
#
# Youngs Moduli (GPa) = 49.81095 45.27257 100.66235
#
# Poissons Ratio (x) = 0.12898 0.15265
# Poissons Ratio (y) = 0.14191 0.34446
# Poissons Ratio (z) = 0.07554 0.15492
#
# Static dielectric constant tensor:
#      x y z
#    x 4.204080 0.324040 -0.320390 
#    y 0.324040 3.682050 -0.240510 
#    z -0.320390 -0.240510 4.213380 
# 
# 
# High freq. dielectric constant tensor:
#      x y z
#    x 1.845780 0.017090 -0.003770 
#    y 0.017090 1.800050 -0.004810 
#    z -0.003770 -0.004810 1.839660 
# 
# From -- ./inp_files/331728.got.cif
#   From: 2010.06.25/outbox.cif.g09.slc.cpg/sg2_166_cif.got.tgz:331728.got - 2010.06.27 13:26:56.
