data_PCOD8042031
_publ_section_title
;
Structure prediction by ZEFSAII (Michael W. Deem and Ramdas Pophale) SiO2 
 PCOD8042031
Probable space group: P -1
;
_chemical_formula_sum "Si O2"
_cell_formula_units_Z 16
_cell_length_a 15.914059
_cell_length_b 11.853369
_cell_length_c 15.109885
_cell_angle_alpha 42.693812
_cell_angle_beta 35.229442
_cell_angle_gamma 26.401309
_cell_volume 731.030546
_symmetry_space_group_name_H-M "P -1"
_symmetry_group_IT_number 2
_symmetry_cell_setting 'triclinic'
loop_
_space_group_symop_operation_xyz
x,y,z
-x,-y,-z
loop_
_atom_site_type_symbol
_atom_site_label
_atom_site_fract_x
_atom_site_fract_y
_atom_site_fract_z
Si Si1 0.395663 0.891588 0.907163
Si Si2 0.421761 0.520949 0.652735
Si Si3 0.961711 0.072027 0.133421
Si Si4 0.801612 0.389191 0.918639
Si Si5 0.657375 0.879164 0.568947
Si Si6 0.765294 0.639945 0.155206
Si Si7 0.005770 0.545323 0.609256
Si Si8 0.714198 0.532110 0.448706
O O1 0.539339 0.625116 0.985554
O O2 0.514433 0.840059 0.742841
O O3 0.390708 0.065401 0.868935
O O4 0.150817 0.039749 0.014124
O O5 0.500000 0.500000 0.500000
O O6 0.365492 0.372213 0.793106
O O7 0.629553 0.411966 0.595103
O O8 0.199361 0.810561 0.711009
O O9 0.067260 0.806749 0.164330
O O10 0.819149 0.268964 0.061631
O O11 0.889307 0.500490 0.792188
O O12 0.779568 0.723327 0.464553
O O13 0.837230 0.770061 0.553830
O O14 0.500922 0.169876 0.516057
O O15 0.806937 0.504424 0.288729
O O16 0.000000 0.500000 0.000000
O O17 0.089639 0.615782 0.563485
#
# Coordination Sequence:
#
# PCOD8042031 Si02
#       8
#     2   2   2   2   2   2   2   2
#     4  10  20  37  61  86 118 159 199 248 306 363
#     4  10  22  38  62  90 119 165 212 250 305 359
#     4  11  21  38  60  85 128 154 196 256 305 367
#     4  10  22  35  58  96 118 154 201 249 310 366
#     4   9  19  33  56  87 119 155 196 243 293 371
#     4  10  19  37  64  85 114 163 207 250 301 352
#     4  10  19  34  56  86 122 157 195 241 300 363
#     4  10  20  35  60  82 115 156 200 246 298 357
#
# _framework density 21.88691
#
# number of rings (size 3 to 8) (size 9 to 14) (size 15 to 20)
#    0.000    2.000    1.250    3.000    0.000    2.000 
#    0.000    3.125    5.500   13.500    0.000    0.000 
#    0.000    0.000    0.000    0.000    0.000    0.000 
#
# Total GULP energy -198300.940712 kJ/mol
# GULP energy per Si atom -12393.808795 kJ/mol
# Density = 2.183709 g / cm^3
# Si number density = 21.886910 Si / 1000 Ang^3
#
#
#
# Elastic Constant Matrix: (Units=GPa)
#
#
# Indices 1 2 3 4 5 6 
#
# 1 121.8617 16.4761 36.2626 -2.0776 -24.9291 4.8185
# 2 16.4761 63.1163 18.5658 -0.3611 8.7589 2.8067
# 3 36.2626 18.5658 89.5325 19.9912 -10.2989 2.9251
# 4 -2.0776 -0.3611 19.9912 31.4418 9.7118 0.9735
# 5 -24.9291 8.7589 -10.2989 9.7118 37.2166 -0.2123
# 6 4.8185 2.8067 2.9251 0.9735 -0.2123 21.8450
#
#
#
# Elastic Compliance Matrix: (Units=1/GPa)
#
#
# Indices 1 2 3 4 5 6 
#
# 1 0.011042 -0.002860 -0.003144 0.000571 0.007041 -0.001604
# 2 -0.002860 0.019661 -0.005462 0.006578 -0.009780 -0.001552
# 3 -0.003144 -0.005462 0.017534 -0.013765 0.007622 -0.000265
# 4 0.000571 0.006578 -0.013765 0.045955 -0.016975 -0.001341
# 5 0.007041 -0.009780 0.007622 -0.016975 0.040426 -0.000168
# 6 -0.001604 -0.001552 -0.000265 -0.001341 -0.000168 0.046424
#
#
# Mechanical properties :
#
#
# Convention : Reuss Voigt Hill
#
# Bulk Modulus (GPa) = 39.51797 46.34661 42.93229
# Shear Modulus (GPa) = 23.53961 31.64775 27.59368
#
# Velocity S-wave (km/s) = 3.28306 3.80671 3.55454
# Velocity P-wave (km/s) = 5.69789 6.36733 6.04189
#
# Compressibility (1/GPa) = 0.02530494
#
# Stress axis : x y z
#
# Youngs Moduli (GPa) = 90.56397 50.86280 57.03200
#
# Poissons Ratio (x) = 0.14547 0.17932
# Poissons Ratio (y) = 0.25902 0.31148
# Poissons Ratio (z) = 0.28475 0.27779
#
# Static dielectric constant tensor:
#      x y z
#    x 4.371570 -0.044590 -0.188930 
#    y -0.044590 4.197380 0.211760 
#    z -0.188930 0.211760 4.045170 
# 
# 
# High freq. dielectric constant tensor:
#      x y z
#    x 1.856760 0.012570 -0.017290 
#    y 0.012570 1.837240 0.021560 
#    z -0.017290 0.021560 1.864640 
# 
# From -- ./inp_files/532401.got.cif
#   From: 2010.06.25/outbox.cif.g09.slc.cpg/sg2_267_cif.got.tgz:532401.got - 2010.06.27 13:26:56.
