data_PCOD8042244
_publ_section_title
;
Structure prediction by ZEFSAII (Michael W. Deem and Ramdas Pophale) SiO2 
 PCOD8042244
Probable space group: P -1
;
_chemical_formula_sum "Si O2"
_cell_formula_units_Z 16
_cell_length_a 13.481666
_cell_length_b 8.334586
_cell_length_c 8.861543
_cell_angle_alpha 90.545816
_cell_angle_beta 128.297998
_cell_angle_gamma 94.791224
_cell_volume 776.312825
_symmetry_space_group_name_H-M "P -1"
_symmetry_group_IT_number 2
_symmetry_cell_setting 'triclinic'
loop_
_space_group_symop_operation_xyz
x,y,z
-x,-y,-z
loop_
_atom_site_type_symbol
_atom_site_label
_atom_site_fract_x
_atom_site_fract_y
_atom_site_fract_z
Si Si1 0.539669 0.173523 0.730362
Si Si2 0.982209 0.926238 0.819003
Si Si3 0.128109 0.815564 0.462272
Si Si4 0.935418 0.542568 0.167573
Si Si5 0.847592 0.621241 0.781516
Si Si6 0.424961 0.489336 0.580939
Si Si7 0.609105 0.171195 0.445242
Si Si8 0.198950 0.773883 0.861557
O O1 0.462666 0.328809 0.700622
O O2 0.590743 0.180538 0.607971
O O3 0.455819 0.000959 0.680311
O O4 0.655504 0.183319 0.955145
O O5 0.857315 0.797616 0.717918
O O6 0.111878 0.855074 0.898523
O O7 0.951838 0.040639 0.656068
O O8 0.000000 0.000000 0.000000
O O9 0.240633 0.809862 0.447141
O O10 0.185651 0.842293 0.682385
O O11 0.022462 0.660362 0.361028
O O12 0.840378 0.419901 0.176590
O O13 0.027008 0.450233 0.152125
O O14 0.849274 0.631313 0.967233
O O15 0.723098 0.521776 0.598664
O O16 0.500000 0.500000 0.500000
O O17 0.449288 0.670022 0.683142
#
# Coordination Sequence:
#
# PCOD8042244 Si02
#       8
#     2   2   2   2   2   2   2   2
#     4  10  22  41  62  89 124 163 215 264 302 364
#     4  11  22  38  63  91 118 158 208 258 310 366
#     4  12  22  40  62  90 127 164 199 252 321 382
#     4  10  20  36  62  87 124 158 198 253 308 369
#     4  10  19  35  61  93 115 152 207 262 304 357
#     4  10  19  34  60  90 120 151 207 261 306 354
#     4  10  21  39  65  88 120 163 215 264 306 357
#     4  11  25  40  58  90 131 163 201 249 318 383
#
# _framework density 20.610247000000001
#
# number of rings (size 3 to 8) (size 9 to 14) (size 15 to 20)
#    0.000    1.500    2.500    3.750    1.750    2.500 
#    2.250    0.625    0.000    0.000    0.000    0.000 
#    0.000    0.000    0.000    0.000    0.000    0.000 
#
# Total GULP energy -198235.701332 kJ/mol
# GULP energy per Si atom -12389.731333 kJ/mol
# Density = 2.056334 g / cm^3
# Si number density = 20.610247 Si / 1000 Ang^3
#
#
#
# Elastic Constant Matrix: (Units=GPa)
#
#
# Indices 1 2 3 4 5 6 
#
# 1 39.4896 22.8781 15.0902 -0.2347 7.7920 5.9801
# 2 22.8781 157.0119 56.0234 7.5763 12.7314 1.6656
# 3 15.0902 56.0234 123.3659 -6.2674 3.4724 9.1686
# 4 -0.2347 7.5763 -6.2674 26.5023 4.7100 4.7594
# 5 7.7920 12.7314 3.4724 4.7100 28.9079 1.3122
# 6 5.9801 1.6656 9.1686 4.7594 1.3122 24.8532
#
#
#
# Elastic Compliance Matrix: (Units=1/GPa)
#
#
# Indices 1 2 3 4 5 6 
#
# 1 0.030210 -0.003513 -0.001227 0.003406 -0.006691 -0.006880
# 2 -0.003513 0.008508 -0.003735 -0.003442 -0.001900 0.002412
# 3 -0.001227 -0.003735 0.010469 0.004238 0.000216 -0.004139
# 4 0.003406 -0.003442 0.004238 0.042682 -0.006412 -0.009987
# 5 -0.006691 -0.001900 0.000216 -0.006412 0.038213 0.000868
# 6 -0.006880 0.002412 -0.004139 -0.009987 0.000868 0.045124
#
#
# Mechanical properties :
#
#
# Convention : Reuss Voigt Hill
#
# Bulk Modulus (GPa) = 31.02022 56.42786 43.72404
# Shear Modulus (GPa) = 24.64273 31.11106 27.87690
#
# Velocity S-wave (km/s) = 3.46157 3.88944 3.68173
# Velocity P-wave (km/s) = 5.57317 6.89987 6.27170
#
# Compressibility (1/GPa) = 0.03223704
#
# Stress axis : x y z
#
# Youngs Moduli (GPa) = 33.10209 117.53779 95.52072
#
# Poissons Ratio (x) = 0.41287 0.11724
# Poissons Ratio (y) = 0.11628 0.35673
# Poissons Ratio (z) = 0.04063 0.43896
#
# Static dielectric constant tensor:
#      x y z
#    x 3.526660 0.017020 0.165180 
#    y 0.017020 4.799330 -0.201010 
#    z 0.165180 -0.201010 3.452310 
# 
# 
# High freq. dielectric constant tensor:
#      x y z
#    x 1.785550 0.008360 0.017570 
#    y 0.008360 1.829390 0.001570 
#    z 0.017570 0.001570 1.785210 
# 
# From -- ./inp_files/179283.got.cif
#   From: 2010.06.25/outbox.cif.g09.slc.cpg/sg2_90_cif.got.tgz:179283.got - 2010.06.27 13:26:56.
