data_PCOD8042915
_publ_section_title
;
Structure prediction by ZEFSAII (Michael W. Deem and Ramdas Pophale) SiO2 
 PCOD8042915
Probable space group: P -1
;
_chemical_formula_sum "Si O2"
_cell_formula_units_Z 16
_cell_length_a 11.545289
_cell_length_b 10.584284
_cell_length_c 14.001689
_cell_angle_alpha 92.526384
_cell_angle_beta 59.472379
_cell_angle_gamma 139.817880
_cell_volume 746.900801
_symmetry_space_group_name_H-M "P -1"
_symmetry_group_IT_number 2
_symmetry_cell_setting 'triclinic'
loop_
_space_group_symop_operation_xyz
x,y,z
-x,-y,-z
loop_
_atom_site_type_symbol
_atom_site_label
_atom_site_fract_x
_atom_site_fract_y
_atom_site_fract_z
Si Si1 0.367042 0.231847 0.628597
Si Si2 0.930504 0.741507 0.073113
Si Si3 0.383288 0.299935 0.847277
Si Si4 0.727195 0.131735 0.345378
Si Si5 0.657869 0.104991 0.157289
Si Si6 0.700731 0.383795 0.819684
Si Si7 0.133842 0.300400 0.686011
Si Si8 0.450566 0.086147 0.087363
O O1 0.406622 0.290707 0.725256
O O2 0.173409 0.179801 0.660018
O O3 0.649056 0.457494 0.463995
O O4 0.234804 0.987789 0.668026
O O5 0.689740 0.609755 0.108225
O O6 0.829640 0.627020 0.217351
O O7 0.163283 0.036300 0.985475
O O8 0.044586 0.705881 0.979547
O O9 0.661128 0.488848 0.788259
O O10 0.996955 0.410337 0.282399
O O11 0.500000 0.000000 0.500000
O O12 0.642347 0.112860 0.276274
O O13 0.431250 0.826538 0.203039
O O14 0.612008 0.200127 0.123125
O O15 0.566022 0.288540 0.977775
O O16 0.848440 0.119403 0.765446
O O17 0.500000 0.000000 0.000000
#
# Coordination Sequence:
#
# PCOD8042915 Si02
#       8
#     2   2   2   2   2   2   2   2
#     4  10  22  38  60  95 126 169 209 258 318 377
#     4   9  15  31  63  89 117 156 205 258 306 364
#     4   9  16  34  63  87 119 160 206 254 308 372
#     4  12  27  40  60  94 132 167 212 262 320 384
#     4  10  21  40  61  93 122 168 210 258 315 368
#     4  10  21  39  63  92 122 161 214 258 312 375
#     4  10  19  36  66  93 122 168 218 253 313 379
#     4  10  19  35  64  96 121 162 216 260 309 378
#
# _framework density 21.421855000000001
#
# number of rings (size 3 to 8) (size 9 to 14) (size 15 to 20)
#    0.000    2.000    6.250    0.000    3.500    2.000 
#    0.000    2.500    0.000   10.500    0.000    0.000 
#    0.000    0.000    0.000    0.000    0.000    0.000 
#
# Total GULP energy -198216.669253 kJ/mol
# GULP energy per Si atom -12388.541828 kJ/mol
# Density = 2.137310 g / cm^3
# Si number density = 21.421855 Si / 1000 Ang^3
#
#
#
# Elastic Constant Matrix: (Units=GPa)
#
#
# Indices 1 2 3 4 5 6 
#
# 1 149.0049 29.3953 43.7471 9.0596 -9.2843 36.5048
# 2 29.3953 48.7328 27.3333 3.0522 -2.1576 26.3758
# 3 43.7471 27.3333 134.5033 8.9070 -9.8800 21.7389
# 4 9.0596 3.0522 8.9070 23.1508 2.3256 -0.8760
# 5 -9.2843 -2.1576 -9.8800 2.3256 39.5342 0.0806
# 6 36.5048 26.3758 21.7389 -0.8760 0.0806 27.8222
#
#
#
# Elastic Compliance Matrix: (Units=1/GPa)
#
#
# Indices 1 2 3 4 5 6 
#
# 1 0.011053 0.003863 -0.000963 -0.005423 0.002921 -0.017592
# 2 0.003863 0.045351 -0.002083 -0.008806 0.003475 -0.046722
# 3 -0.000963 -0.002083 0.009202 -0.003259 0.002160 -0.004061
# 4 -0.005423 -0.008806 -0.003259 0.049025 -0.005493 0.019571
# 5 0.002921 0.003475 0.002160 -0.005493 0.027052 -0.009066
# 6 -0.017592 -0.046722 -0.004061 0.019571 -0.009066 0.107133
#
#
# Mechanical properties :
#
#
# Convention : Reuss Voigt Hill
#
# Bulk Modulus (GPa) = 14.87187 59.24361 37.05774
# Shear Modulus (GPa) = 18.54634 33.55246 26.04940
#
# Velocity S-wave (km/s) = 2.94558 3.96191 3.49093
# Velocity P-wave (km/s) = 4.30419 6.97457 5.79529
#
# Compressibility (1/GPa) = 0.06724103
#
# Stress axis : x y z
#
# Youngs Moduli (GPa) = 90.46929 22.05025 108.67096
#
# Poissons Ratio (x) = -0.08519 0.10468
# Poissons Ratio (y) = -0.34950 0.22633
# Poissons Ratio (z) = 0.08714 0.04593
#
# Static dielectric constant tensor:
#      x y z
#    x 4.961410 0.102640 -0.012800 
#    y 0.102640 3.506160 0.038940 
#    z -0.012800 0.038940 3.931120 
# 
# 
# High freq. dielectric constant tensor:
#      x y z
#    x 1.874280 0.008510 -0.000690 
#    y 0.008510 1.780300 0.009690 
#    z -0.000690 0.009690 1.841560 
# 
# From -- ./inp_files/519707.got.cif
#   From: 2010.06.25/outbox.cif.g09.slc.cpg/sg2_260_cif.got.tgz:519707.got - 2010.06.27 13:26:56.
