data_PCOD8042391
_publ_section_title
;
Structure prediction by ZEFSAII (Michael W. Deem and Ramdas Pophale) SiO2 
 PCOD8042391
Probable space group: P -1
;
_chemical_formula_sum "Si O2"
_cell_formula_units_Z 16
_cell_length_a 7.890557
_cell_length_b 7.956960
_cell_length_c 17.684151
_cell_angle_alpha 104.452134
_cell_angle_beta 116.513377
_cell_angle_gamma 60.281681
_cell_volume 862.280279
_symmetry_space_group_name_H-M "P -1"
_symmetry_group_IT_number 2
_symmetry_cell_setting 'triclinic'
loop_
_space_group_symop_operation_xyz
x,y,z
-x,-y,-z
loop_
_atom_site_type_symbol
_atom_site_label
_atom_site_fract_x
_atom_site_fract_y
_atom_site_fract_z
Si Si1 0.306424 0.997309 0.361287
Si Si2 0.318683 0.283720 0.509804
Si Si3 0.916939 0.283713 0.509680
Si Si4 0.080956 0.002994 0.638705
Si Si5 0.631609 0.956257 0.176794
Si Si6 0.790928 0.725713 0.903753
Si Si7 0.734780 0.043441 0.823204
Si Si8 0.992988 0.720917 0.103617
O O1 0.473829 0.791723 0.405073
O O2 0.070511 0.034384 0.337716
O O3 0.322555 0.004432 0.275923
O O4 0.361265 0.161355 0.427239
O O5 0.264968 0.500007 0.500142
O O6 0.134767 0.267934 0.518814
O O7 0.954854 0.208471 0.594786
O O8 0.831786 0.161136 0.427145
O O9 0.274817 0.996354 0.724060
O O10 0.488736 0.848399 0.163195
O O11 0.811870 0.823385 0.140816
O O12 0.466953 0.163144 0.130098
O O13 0.868967 0.502520 0.870221
O O14 0.870306 0.836745 0.870034
O O15 0.884777 0.738764 0.004211
O O16 0.854296 0.176194 0.859003
#
# Coordination Sequence:
#
# PCOD8042391 Si02
#       8
#     2   2   2   2   2   2   2   2
#     4  10  19  35  54  81 119 153 194 250 292 346
#     4   9  19  34  54  79 112 155 198 240 294 353
#     4   9  19  34  54  79 112 155 198 240 294 353
#     4  10  19  35  54  81 119 153 194 250 292 346
#     4  10  22  39  62  91 122 164 198 252 306 356
#     4   9  24  40  65  96 119 162 201 250 306 369
#     4  10  22  39  62  91 122 164 198 252 306 356
#     4  11  20  46  63  90 131 150 207 254 298 375
#
# _framework density 18.555451000000001
#
# number of rings (size 3 to 8) (size 9 to 14) (size 15 to 20)
#    0.750    1.500    1.250    1.500    0.000    3.500 
#    2.250    3.750    0.000    0.000    0.000    0.000 
#    0.000    0.000    0.000    0.000    0.000    0.000 
#
# Total GULP energy -198311.925763 kJ/mol
# GULP energy per Si atom -12394.495360 kJ/mol
# Density = 1.851322 g / cm^3
# Si number density = 18.555451 Si / 1000 Ang^3
#
#
#
# Elastic Constant Matrix: (Units=GPa)
#
#
# Indices 1 2 3 4 5 6 
#
# 1 103.1194 46.0725 41.5214 5.2047 -1.2684 -0.3257
# 2 46.0725 143.1319 61.2376 -2.9575 0.7161 3.5003
# 3 41.5214 61.2376 119.7920 -5.2648 -0.6296 1.6472
# 4 5.2047 -2.9575 -5.2648 15.7031 0.0867 -0.1119
# 5 -1.2684 0.7161 -0.6296 0.0867 14.2372 -6.9586
# 6 -0.3257 3.5003 1.6472 -0.1119 -6.9586 28.0140
#
#
#
# Elastic Compliance Matrix: (Units=1/GPa)
#
#
# Indices 1 2 3 4 5 6 
#
# 1 0.012554 -0.002844 -0.003156 -0.005756 0.001686 0.001083
# 2 -0.002844 0.009626 -0.003860 0.001460 -0.001602 -0.001401
# 3 -0.003156 -0.003860 0.011603 0.004207 0.000333 -0.000137
# 4 -0.005756 0.001460 0.004207 0.067277 -0.001049 -0.000488
# 5 0.001686 -0.001602 0.000333 -0.001049 0.080340 0.020152
# 6 0.001083 -0.001401 -0.000137 -0.000488 0.020152 0.040896
#
#
# Mechanical properties :
#
#
# Convention : Reuss Voigt Hill
#
# Bulk Modulus (GPa) = 71.11233 73.74512 72.42873
# Shear Modulus (GPa) = 20.26709 26.07165 23.16937
#
# Velocity S-wave (km/s) = 3.30850 3.75249 3.53747
# Velocity P-wave (km/s) = 7.28027 7.65534 7.47016
#
# Compressibility (1/GPa) = 0.01406226
#
# Stress axis : x y z
#
# Youngs Moduli (GPa) = 79.65611 103.88518 86.18101
#
# Poissons Ratio (x) = 0.29550 0.27201
# Poissons Ratio (y) = 0.22658 0.33265
# Poissons Ratio (z) = 0.25142 0.40098
#
# Static dielectric constant tensor:
#      x y z
#    x 3.315630 0.010260 -0.006240 
#    y 0.010260 3.440960 -0.067410 
#    z -0.006240 -0.067410 3.445400 
# 
# 
# High freq. dielectric constant tensor:
#      x y z
#    x 1.718110 -0.000790 -0.000640 
#    y -0.000790 1.709520 -0.007020 
#    z -0.000640 -0.007020 1.728250 
# 
# From -- ./inp_files/349932.got.cif
#   From: 2010.06.25/outbox.cif.g09.slc.cpg/sg2_175_cif.got.tgz:349932.got - 2010.06.27 13:26:56.
