data_PCOD8042851
_publ_section_title
;
Structure prediction by ZEFSAII (Michael W. Deem and Ramdas Pophale) SiO2 
 PCOD8042851
Probable space group: P -1
;
_chemical_formula_sum "Si O2"
_cell_formula_units_Z 16
_cell_length_a 26.307593
_cell_length_b 16.485485
_cell_length_c 11.130916
_cell_angle_alpha 145.242302
_cell_angle_beta 24.544454
_cell_angle_gamma 158.040194
_cell_volume 742.286192
_symmetry_space_group_name_H-M "P -1"
_symmetry_group_IT_number 2
_symmetry_cell_setting 'triclinic'
loop_
_space_group_symop_operation_xyz
x,y,z
-x,-y,-z
loop_
_atom_site_type_symbol
_atom_site_label
_atom_site_fract_x
_atom_site_fract_y
_atom_site_fract_z
Si Si1 0.764028 0.601633 0.415299
Si Si2 0.593977 0.672078 0.309462
Si Si3 0.572907 0.333635 0.895979
Si Si4 0.218493 0.054957 0.161746
Si Si5 0.788716 0.259520 0.654140
Si Si6 0.148304 0.911908 0.872593
Si Si7 0.544438 0.848687 0.822092
Si Si8 0.903506 0.569153 0.303641
O O1 0.563954 0.417305 0.556446
O O2 0.817059 0.807053 0.599309
O O3 0.778139 0.502884 0.375830
O O4 0.921599 0.700994 0.098812
O O5 0.565870 0.710472 0.550295
O O6 0.790686 0.898376 0.106131
O O7 0.607890 0.517198 0.103513
O O8 0.767233 0.441715 0.557938
O O9 0.424589 0.208379 0.955788
O O10 0.483878 0.165752 0.991958
O O11 0.060381 0.831014 0.306513
O O12 0.219785 0.987140 0.945735
O O13 0.762134 0.149955 0.453521
O O14 0.000000 0.500000 0.500000
O O15 0.731274 0.106024 0.702149
O O16 0.643616 0.260177 0.969963
O O17 0.000000 0.500000 0.000000
#
# Coordination Sequence:
#
# PCOD8042851 Si02
#       8
#     2   2   2   2   2   2   2   2
#     4  10  20  38  64  89 122 160 208 252 296 372
#     4  10  20  39  65  91 114 162 208 249 305 355
#     4  11  23  40  62  88 130 159 195 258 309 362
#     4  10  22  40  60  92 121 162 209 247 307 368
#     4  10  22  41  61  84 120 162 206 247 306 364
#     4  10  19  35  63  87 117 156 204 251 294 362
#     4  10  23  40  59  92 118 158 208 252 298 365
#     4  11  24  39  58  93 127 164 202 249 313 364
#
# _framework density 21.555029000000001
#
# number of rings (size 3 to 8) (size 9 to 14) (size 15 to 20)
#    0.000    1.750    0.000    4.875    3.500    3.500 
#    6.750    0.000    0.000    8.250    0.000    0.000 
#    0.000    0.000    0.000    0.000    0.000    0.000 
#
# Total GULP energy -198349.889477 kJ/mol
# GULP energy per Si atom -12396.868092 kJ/mol
# Density = 2.150597 g / cm^3
# Si number density = 21.555029 Si / 1000 Ang^3
#
#
#
# Elastic Constant Matrix: (Units=GPa)
#
#
# Indices 1 2 3 4 5 6 
#
# 1 63.3670 18.8975 39.3506 0.4019 12.0677 -23.0253
# 2 18.8975 76.8948 40.9406 -12.7674 8.7534 -20.6249
# 3 39.3506 40.9406 130.7616 -10.9774 17.2098 -21.5010
# 4 0.4019 -12.7674 -10.9774 34.3935 -9.7519 1.4210
# 5 12.0677 8.7534 17.2098 -9.7519 36.1551 -3.6911
# 6 -23.0253 -20.6249 -21.5010 1.4210 -3.6911 21.3225
#
#
#
# Elastic Compliance Matrix: (Units=1/GPa)
#
#
# Indices 1 2 3 4 5 6 
#
# 1 0.029687 0.003210 -0.004501 -0.003662 -0.006495 0.029744
# 2 0.003210 0.020168 -0.003629 0.005262 -0.000887 0.018811
# 3 -0.004501 -0.003629 0.010903 0.001475 -0.002192 0.002147
# 4 -0.003662 0.005262 0.001475 0.033898 0.008578 0.001849
# 5 -0.006495 -0.000887 -0.002192 0.008578 0.032892 -0.004960
# 6 0.029744 0.018811 0.002147 0.001849 -0.004960 0.098396
#
#
# Mechanical properties :
#
#
# Convention : Reuss Voigt Hill
#
# Bulk Modulus (GPa) = 19.63916 52.15563 35.89739
# Shear Modulus (GPa) = 19.78184 29.82988 24.80586
#
# Velocity S-wave (km/s) = 3.03270 3.72411 3.39605
# Velocity P-wave (km/s) = 4.62537 6.53766 5.66282
#
# Compressibility (1/GPa) = 0.05091869
#
# Stress axis : x y z
#
# Youngs Moduli (GPa) = 33.68528 49.58265 91.71440
#
# Poissons Ratio (x) = -0.15914 0.41277
# Poissons Ratio (y) = -0.10812 0.33282
# Poissons Ratio (z) = 0.15160 0.17993
#
# Static dielectric constant tensor:
#      x y z
#    x 3.559680 -0.149590 0.104610 
#    y -0.149590 4.057480 -0.090110 
#    z 0.104610 -0.090110 4.069720 
# 
# 
# High freq. dielectric constant tensor:
#      x y z
#    x 1.820680 -0.006840 0.011930 
#    y -0.006840 1.853600 -0.006540 
#    z 0.011930 -0.006540 1.861070 
# 
# From -- ./inp_files/451725.got.cif
#   From: 2010.06.25/outbox.cif.g09.slc.cpg/sg2_226_cif.got.tgz:451725.got - 2010.06.27 13:26:56.
