data_PCOD8042556
_publ_section_title
;
Structure prediction by ZEFSAII (Michael W. Deem and Ramdas Pophale) SiO2 
 PCOD8042556
Probable space group: P -1
;
_chemical_formula_sum "Si O2"
_cell_formula_units_Z 14
_cell_length_a 11.753535
_cell_length_b 9.089047
_cell_length_c 13.610197
_cell_angle_alpha 122.098264
_cell_angle_beta 28.774125
_cell_angle_gamma 118.967226
_cell_volume 592.275533
_symmetry_space_group_name_H-M "P -1"
_symmetry_group_IT_number 2
_symmetry_cell_setting 'triclinic'
loop_
_space_group_symop_operation_xyz
x,y,z
-x,-y,-z
loop_
_atom_site_type_symbol
_atom_site_label
_atom_site_fract_x
_atom_site_fract_y
_atom_site_fract_z
Si Si1 0.161948 0.707646 0.544581
Si Si2 0.088154 0.682899 0.958321
Si Si3 0.228553 0.016222 0.738648
Si Si4 0.977485 0.471420 0.241217
Si Si5 0.284791 0.172150 0.154679
Si Si6 0.267733 0.782622 0.051941
Si Si7 0.652984 0.800145 0.103201
O O1 0.398645 0.761103 0.330885
O O2 0.167895 0.533053 0.546054
O O3 0.086718 0.850512 0.737527
O O4 0.942903 0.706249 0.632908
O O5 0.290155 0.754531 0.906635
O O6 0.867401 0.808542 0.172941
O O7 0.000000 0.500000 0.000000
O O8 0.173384 0.642601 0.767781
O O9 0.214735 0.036962 0.877346
O O10 0.500000 0.000000 0.500000
O O11 0.046453 0.667529 0.224149
O O12 0.225200 0.382034 0.042163
O O13 0.484977 0.267227 0.104072
O O14 0.391022 0.146690 0.956194
O O15 0.214016 0.982906 0.186156
#
# Coordination Sequence:
#
# PCOD8042556 Si02
#       7
#     2   2   2   2   2   2   2
#     4  10  19  35  58  83 109 143 190 228 278 325
#     4   9  17  32  58  81 109 147 182 229 287 330
#     4   9  17  31  56  82 112 139 188 239 271 327
#     4   9  20  35  59  83 110 142 181 237 280 326
#     4  10  21  36  59  77 111 153 185 224 268 340
#     4  10  20  37  54  81 114 148 185 220 280 335
#     4   9  20  35  56  84 109 141 191 230 273 326
#
# _framework density 23.637647000000001
#
# number of rings (size 3 to 8) (size 9 to 14) (size 15 to 20)
#    0.000    2.571    1.429    0.000    2.000    4.000 
#    0.000    7.143    0.000   11.143    0.000    0.000 
#    0.000    0.000    0.000    0.000    0.000    0.000 
#
# Total GULP energy -173472.877461 kJ/mol
# GULP energy per Si atom -12390.919819 kJ/mol
# Density = 2.358385 g / cm^3
# Si number density = 23.637647 Si / 1000 Ang^3
#
#
#
# Elastic Constant Matrix: (Units=GPa)
#
#
# Indices 1 2 3 4 5 6 
#
# 1 164.1088 24.9615 27.7810 -7.8855 -22.2764 3.5695
# 2 24.9615 76.3705 8.8441 -12.7574 1.0514 -7.7785
# 3 27.7810 8.8441 45.1603 -8.3753 2.6656 -4.7860
# 4 -7.8855 -12.7574 -8.3753 19.0954 2.7163 -4.0870
# 5 -22.2764 1.0514 2.6656 2.7163 18.3670 -5.5853
# 6 3.5695 -7.7785 -4.7860 -4.0870 -5.5853 32.7234
#
#
#
# Elastic Compliance Matrix: (Units=1/GPa)
#
#
# Indices 1 2 3 4 5 6 
#
# 1 0.009216 -0.003035 -0.006470 -0.003030 0.012457 -0.000925
# 2 -0.003035 0.016558 0.001786 0.012438 -0.005145 0.005203
# 3 -0.006470 0.001786 0.029762 0.014496 -0.012862 0.005098
# 4 -0.003030 0.012438 0.014496 0.070220 -0.013252 0.011915
# 5 0.012457 -0.005145 -0.012862 -0.013252 0.075746 0.006810
# 6 -0.000925 0.005203 0.005098 0.011915 0.006810 0.035293
#
#
# Mechanical properties :
#
#
# Convention : Reuss Voigt Hill
#
# Bulk Modulus (GPa) = 24.93929 45.42366 35.18148
# Shear Modulus (GPa) = 18.82546 28.97402 23.89974
#
# Velocity S-wave (km/s) = 2.82515 3.50488 3.18321
# Velocity P-wave (km/s) = 4.60603 5.96970 5.33164
#
# Compressibility (1/GPa) = 0.04009737
#
# Stress axis : x y z
#
# Youngs Moduli (GPa) = 108.50846 60.39537 33.60032
#
# Poissons Ratio (x) = 0.18328 0.21740
# Poissons Ratio (y) = 0.32929 -0.06001
# Poissons Ratio (z) = 0.70206 -0.10787
#
# Static dielectric constant tensor:
#      x y z
#    x 5.194590 0.132350 0.124480 
#    y 0.132350 4.388100 -0.041410 
#    z 0.124480 -0.041410 3.831830 
# 
# 
# High freq. dielectric constant tensor:
#      x y z
#    x 1.956330 -0.002260 0.000550 
#    y -0.002260 1.939770 -0.009830 
#    z 0.000550 -0.009830 1.898180 
# 
# From -- ./inp_files/257234.got.cif
#   From: 2010.06.25/outbox.cif.g09.slc.cpg/sg2_129_cif.got.tgz:257234.got - 2010.06.27 13:26:56.
