data_PCOD8042687
_publ_section_title
;
Structure prediction by ZEFSAII (Michael W. Deem and Ramdas Pophale) SiO2 
 PCOD8042687
Probable space group: P -1
;
_chemical_formula_sum "Si O2"
_cell_formula_units_Z 16
_cell_length_a 14.859587
_cell_length_b 15.205539
_cell_length_c 8.109399
_cell_angle_alpha 102.086282
_cell_angle_beta 42.556348
_cell_angle_gamma 133.702905
_cell_volume 708.035131
_symmetry_space_group_name_H-M "P -1"
_symmetry_group_IT_number 2
_symmetry_cell_setting 'triclinic'
loop_
_space_group_symop_operation_xyz
x,y,z
-x,-y,-z
loop_
_atom_site_type_symbol
_atom_site_label
_atom_site_fract_x
_atom_site_fract_y
_atom_site_fract_z
Si Si1 0.488828 0.891287 0.924355
Si Si2 0.204495 0.993783 0.165743
Si Si3 0.918329 0.135209 0.258943
Si Si4 0.693435 0.456917 0.631137
Si Si5 0.803564 0.819937 0.870506
Si Si6 0.082633 0.769577 0.028372
Si Si7 0.137750 0.627844 0.727710
Si Si8 0.006764 0.640658 0.577663
O O1 0.590171 0.886480 0.934443
O O2 0.647670 0.959468 0.574732
O O3 0.218739 0.720133 0.207117
O O4 0.500000 0.000000 0.000000
O O5 0.225809 0.906577 0.018727
O O6 0.960578 0.867809 0.532475
O O7 0.216786 0.083085 0.057199
O O8 0.091080 0.150489 0.083745
O O9 0.957424 0.236005 0.378052
O O10 0.990037 0.200699 0.004478
O O11 0.669484 0.337237 0.570898
O O12 0.777957 0.507633 0.726632
O O13 0.860114 0.603666 0.344016
O O14 0.442549 0.359718 0.905746
O O15 0.233904 0.772834 0.739363
O O16 0.989304 0.573075 0.743741
O O17 0.000000 0.500000 0.000000
#
# Coordination Sequence:
#
# PCOD8042687 Si02
#       8
#     2   2   2   2   2   2   2   2
#     4   9  17  34  57  83 112 149 196 240 281 339
#     4  10  21  39  61  84 114 153 197 242 289 348
#     4   9  20  37  56  85 120 153 194 242 292 347
#     4  11  21  37  61  88 118 154 195 241 291 348
#     4  10  22  39  59  85 117 153 199 244 283 345
#     4  10  21  38  59  85 118 154 194 242 299 349
#     4   9  20  37  55  84 122 149 185 241 296 346
#     4  10  19  35  60  85 115 156 199 239 286 347
#
# _framework density 22.597750000000001
#
# number of rings (size 3 to 8) (size 9 to 14) (size 15 to 20)
#    0.000    2.250    0.000    3.375    0.000    3.000 
#    0.000   21.875    0.000    0.000    0.000    0.000 
#    0.000    0.000    0.000    0.000    0.000    0.000 
#
# Total GULP energy -198217.801453 kJ/mol
# GULP energy per Si atom -12388.612591 kJ/mol
# Density = 2.254632 g / cm^3
# Si number density = 22.597750 Si / 1000 Ang^3
#
#
#
# Elastic Constant Matrix: (Units=GPa)
#
#
# Indices 1 2 3 4 5 6 
#
# 1 114.0254 1.8939 35.6593 -11.4966 16.3155 -16.5922
# 2 1.8939 61.7558 6.0517 4.9536 7.2618 -1.5800
# 3 35.6593 6.0517 62.0115 -14.7223 -2.3316 10.9117
# 4 -11.4966 4.9536 -14.7223 20.3430 2.5722 -0.9307
# 5 16.3155 7.2618 -2.3316 2.5722 35.1846 -3.2557
# 6 -16.5922 -1.5800 10.9117 -0.9307 -3.2557 31.4130
#
#
#
# Elastic Compliance Matrix: (Units=1/GPa)
#
#
# Indices 1 2 3 4 5 6 
#
# 1 0.014729 0.001507 -0.010336 0.001850 -0.006964 0.010779
# 2 0.001507 0.017638 -0.004690 -0.006214 -0.003944 0.002720
# 3 -0.010336 -0.004690 0.028839 0.014837 0.005224 -0.014732
# 4 0.001850 -0.006214 0.014837 0.062754 -0.003456 -0.002988
# 5 -0.006964 -0.003944 0.005224 -0.003456 0.032843 -0.002390
# 6 0.010779 0.002720 -0.014732 -0.002988 -0.002390 0.042445
#
#
# Mechanical properties :
#
#
# Convention : Reuss Voigt Hill
#
# Bulk Modulus (GPa) = 29.26764 36.11138 32.68951
# Shear Modulus (GPa) = 21.03723 30.33396 25.68560
#
# Velocity S-wave (km/s) = 3.05445 3.66778 3.37507
# Velocity P-wave (km/s) = 5.04175 5.82680 5.44843
#
# Compressibility (1/GPa) = 0.03416743
#
# Stress axis : x y z
#
# Youngs Moduli (GPa) = 67.89425 56.69561 34.67576
#
# Poissons Ratio (x) = -0.08546 0.35841
# Poissons Ratio (y) = -0.10235 0.16264
# Poissons Ratio (z) = 0.70176 0.26592
#
# Static dielectric constant tensor:
#      x y z
#    x 4.309280 -0.345460 0.007790 
#    y -0.345460 4.016080 0.119400 
#    z 0.007790 0.119400 4.158010 
# 
# 
# High freq. dielectric constant tensor:
#      x y z
#    x 1.904230 -0.024180 0.009100 
#    y -0.024180 1.868150 -0.002160 
#    z 0.009100 -0.002160 1.876350 
# 
# From -- ./inp_files/315371.got.cif
#   From: 2010.06.25/outbox.cif.g09.slc.cpg/sg2_158_cif.got.tgz:315371.got - 2010.06.27 13:26:56.
