data_PCOD8042002
_publ_section_title
;
Structure prediction by ZEFSAII (Michael W. Deem and Ramdas Pophale) SiO2 
 PCOD8042002
Probable space group: P -1
;
_chemical_formula_sum "Si O2"
_cell_formula_units_Z 14
_cell_length_a 26.958938
_cell_length_b 13.652027
_cell_length_c 10.134249
_cell_angle_alpha 148.628398
_cell_angle_beta 146.824797
_cell_angle_gamma 22.146440
_cell_volume 711.418940
_symmetry_space_group_name_H-M "P -1"
_symmetry_group_IT_number 2
_symmetry_cell_setting 'triclinic'
loop_
_space_group_symop_operation_xyz
x,y,z
-x,-y,-z
loop_
_atom_site_type_symbol
_atom_site_label
_atom_site_fract_x
_atom_site_fract_y
_atom_site_fract_z
Si Si1 0.658079 0.536945 0.826139
Si Si2 0.696707 0.831025 0.586630
Si Si3 0.717976 0.972936 0.058003
Si Si4 0.482899 0.410698 0.667599
Si Si5 0.863113 0.879547 0.520069
Si Si6 0.170116 0.379418 0.637280
Si Si7 0.557100 0.676916 0.047680
O O1 0.553650 0.670955 0.628542
O O2 0.771956 0.202806 0.698368
O O3 0.731746 0.622989 0.077358
O O4 0.564987 0.673603 0.904405
O O5 0.782079 0.744443 0.546741
O O6 0.663239 0.660802 0.328817
O O7 0.555673 0.168601 0.659793
O O8 0.776423 0.776923 0.832992
O O9 0.655317 0.276300 0.227666
O O10 0.835311 0.812302 0.243286
O O11 0.596916 0.033361 0.920945
O O12 0.587534 0.415152 0.860201
O O13 0.827941 0.810129 0.489306
O O14 0.019642 0.697399 0.659763
#
# Coordination Sequence:
#
# PCOD8042002 Si02
#       7
#     2   2   2   2   2   2   2
#     4  10  19  34  56  80 103 135 170 217 257 307
#     4  11  20  35  52  81 107 135 173 208 252 321
#     4   9  21  35  53  76 109 139 164 212 262 301
#     4   9  20  30  53  79 108 135 164 209 260 308
#     4  10  21  40  52  76 105 135 178 219 249 301
#     4  10  23  34  58  76  99 142 177 212 257 295
#     4   9  20  31  52  81 107 137 161 211 267 296
#
# _framework density 19.678982000000001
#
# number of rings (size 3 to 8) (size 9 to 14) (size 15 to 20)
#    0.857    1.429    0.000    2.571    4.000    1.714 
#    0.000    0.000    0.000    0.000    0.000   13.000 
#    0.000    0.000    0.000    0.000    0.000    0.000 
#
# Total GULP energy -173516.122084 kJ/mol
# GULP energy per Si atom -12394.008720 kJ/mol
# Density = 1.963419 g / cm^3
# Si number density = 19.678982 Si / 1000 Ang^3
#
#
#
# Elastic Constant Matrix: (Units=GPa)
#
#
# Indices 1 2 3 4 5 6 
#
# 1 54.7940 7.3232 43.1564 -2.1129 -9.9080 -7.1163
# 2 7.3232 35.4568 -5.8740 0.2931 -1.6225 -1.2069
# 3 43.1564 -5.8740 103.3237 -2.4579 -23.0881 -4.6191
# 4 -2.1129 0.2931 -2.4579 12.7337 3.0450 -4.1596
# 5 -9.9080 -1.6225 -23.0881 3.0450 28.2141 -2.2711
# 6 -7.1163 -1.2069 -4.6191 -4.1596 -2.2711 8.7908
#
#
#
# Elastic Compliance Matrix: (Units=1/GPa)
#
#
# Indices 1 2 3 4 5 6 
#
# 1 0.033182 -0.008105 -0.012570 0.010947 0.001712 0.024766
# 2 -0.008105 0.031142 0.006124 -0.001453 0.004220 0.001335
# 3 -0.012570 0.006124 0.017779 -0.000539 0.010748 0.002528
# 4 0.010947 -0.001453 -0.000539 0.098734 -0.002963 0.054332
# 5 0.001712 0.004220 0.010748 -0.002963 0.046877 0.018321
# 6 0.024766 0.001335 0.002528 0.054332 0.018321 0.165757
#
#
# Mechanical properties :
#
#
# Convention : Reuss Voigt Hill
#
# Bulk Modulus (GPa) = 18.86768 31.42062 25.14415
# Shear Modulus (GPa) = 11.35744 19.87901 15.61822
#
# Velocity S-wave (km/s) = 2.40497 3.18176 2.82024
# Velocity P-wave (km/s) = 4.16178 5.43133 4.83837
#
# Compressibility (1/GPa) = 0.05300069
#
# Stress axis : x y z
#
# Youngs Moduli (GPa) = 30.13704 32.11057 56.24723
#
# Poissons Ratio (x) = 0.26025 0.70703
# Poissons Ratio (y) = 0.24426 -0.34445
# Poissons Ratio (z) = 0.37882 -0.19664
#
# Static dielectric constant tensor:
#      x y z
#    x 3.385290 -0.019600 -0.020470 
#    y -0.019600 3.301380 -0.014770 
#    z -0.020470 -0.014770 3.764270 
# 
# 
# High freq. dielectric constant tensor:
#      x y z
#    x 1.755210 0.005280 -0.005420 
#    y 0.005280 1.737240 0.004080 
#    z -0.005420 0.004080 1.778070 
# 
# From -- ./inp_files/109335.got.cif
#   From: 2010.06.25/outbox.cif.g09.slc.cpg/sg2_55_cif.got.tgz:109335.got - 2010.06.27 13:26:56.
