data_PCOD8042257
_publ_section_title
;
Structure prediction by ZEFSAII (Michael W. Deem and Ramdas Pophale) SiO2 
 PCOD8042257
Probable space group: P -1
;
_chemical_formula_sum "Si O2"
_cell_formula_units_Z 12
_cell_length_a 10.966232
_cell_length_b 6.470760
_cell_length_c 8.595806
_cell_angle_alpha 97.546121
_cell_angle_beta 80.829209
_cell_angle_gamma 73.459204
_cell_volume 567.090295
_symmetry_space_group_name_H-M "P -1"
_symmetry_group_IT_number 2
_symmetry_cell_setting 'triclinic'
loop_
_space_group_symop_operation_xyz
x,y,z
-x,-y,-z
loop_
_atom_site_type_symbol
_atom_site_label
_atom_site_fract_x
_atom_site_fract_y
_atom_site_fract_z
Si Si1 0.894249 0.480986 0.399079
Si Si2 0.259618 0.671178 0.040189
Si Si3 0.438514 0.901648 0.864697
Si Si4 0.102444 0.147744 0.159288
Si Si5 0.297161 0.376488 0.293670
Si Si6 0.802870 0.715192 0.144644
O O1 0.763891 0.493455 0.522981
O O2 0.863461 0.682910 0.302440
O O3 0.000000 0.500000 0.500000
O O4 0.958979 0.249144 0.273764
O O5 0.374051 0.733327 0.937438
O O6 0.214338 0.517368 0.916864
O O7 0.309378 0.548265 0.178809
O O8 0.139550 0.886271 0.128993
O O9 0.556146 0.775520 0.713025
O O10 0.334572 0.091645 0.808599
O O11 0.500000 0.000000 0.000000
O O12 0.211433 0.227798 0.234130
O O13 0.097130 0.228945 0.989486
#
# Coordination Sequence:
#
# PCOD8042257 Si02
#       6
#     2   2   2   2   2   2
#     4  10  22  40  57  80 121 153 185 232 282 333
#     4  10  19  34  61  87 112 141 194 236 270 337
#     4  11  19  36  63  87 108 148 191 229 284 335
#     4   9  19  37  60  84 109 153 193 225 277 331
#     4  10  20  35  58  88 114 150 183 228 289 330
#     4  10  21  36  60  88 110 149 193 230 277 331
#
# _framework density 21.160653
#
# number of rings (size 3 to 8) (size 9 to 14) (size 15 to 20)
#    0.000    2.000    5.000    1.000    0.000    2.000 
#    0.000   10.833    0.000    0.000    0.000    0.000 
#    0.000    0.000    0.000    0.000    0.000    0.000 
#
# Total GULP energy -148749.252515 kJ/mol
# GULP energy per Si atom -12395.771043 kJ/mol
# Density = 2.111249 g / cm^3
# Si number density = 21.160653 Si / 1000 Ang^3
#
#
#
# Elastic Constant Matrix: (Units=GPa)
#
#
# Indices 1 2 3 4 5 6 
#
# 1 65.0517 52.1021 57.7754 10.5880 -22.1357 -32.8426
# 2 52.1021 136.0505 55.2654 10.4574 -8.2609 -20.8350
# 3 57.7754 55.2654 117.1622 3.3198 -25.9308 -39.5786
# 4 10.5880 10.4574 3.3198 24.3339 -23.0060 -0.7869
# 5 -22.1357 -8.2609 -25.9308 -23.0060 41.6089 9.5308
# 6 -32.8426 -20.8350 -39.5786 -0.7869 9.5308 33.9576
#
#
#
# Elastic Compliance Matrix: (Units=1/GPa)
#
#
# Indices 1 2 3 4 5 6 
#
# 1 0.049629 -0.010476 -0.006821 -0.005974 0.009724 0.030754
# 2 -0.010476 0.012555 -0.004410 -0.010146 -0.010314 -0.004909
# 3 -0.006821 -0.004410 0.020425 0.016512 0.014903 0.010703
# 4 -0.005974 -0.010146 0.016512 0.109639 0.067839 -0.009256
# 5 0.009724 -0.010314 0.014903 0.067839 0.073647 0.001348
# 6 0.030754 -0.004909 0.010703 -0.009256 0.001348 0.068062
#
#
# Mechanical properties :
#
#
# Convention : Reuss Voigt Hill
#
# Bulk Modulus (GPa) = 25.51333 72.06115 48.78724
# Shear Modulus (GPa) = 12.80617 30.18816 21.49717
#
# Velocity S-wave (km/s) = 2.46273 3.78116 3.19078
# Velocity P-wave (km/s) = 4.49108 7.29322 6.05644
#
# Compressibility (1/GPa) = 0.03919520
#
# Stress axis : x y z
#
# Youngs Moduli (GPa) = 20.14955 79.64799 48.95927
#
# Poissons Ratio (x) = 0.83437 0.33397
# Poissons Ratio (y) = 0.21108 0.21590
# Poissons Ratio (z) = 0.13745 0.35124
#
# Static dielectric constant tensor:
#      x y z
#    x 3.904930 -0.339390 -0.451780 
#    y -0.339390 4.295060 0.473390 
#    z -0.451780 0.473390 4.454210 
# 
# 
# High freq. dielectric constant tensor:
#      x y z
#    x 1.819030 -0.022810 -0.017460 
#    y -0.022810 1.832370 0.004590 
#    z -0.017460 0.004590 1.818860 
# 
# From -- ./inp_files/19213.got.cif
#   From: 2010.06.25/outbox.cif.g09.slc.cpg/sg2_10_cif.got.tgz:19213.got - 2010.06.27 13:26:56.
