data_PCOD8042385
_publ_section_title
;
Structure prediction by ZEFSAII (Michael W. Deem and Ramdas Pophale) SiO2 
 PCOD8042385
Probable space group: P -1
;
_chemical_formula_sum "Si O2"
_cell_formula_units_Z 16
_cell_length_a 15.428093
_cell_length_b 9.112093
_cell_length_c 9.560978
_cell_angle_alpha 139.763021
_cell_angle_beta 72.960189
_cell_angle_gamma 94.178784
_cell_volume 804.974635
_symmetry_space_group_name_H-M "P -1"
_symmetry_group_IT_number 2
_symmetry_cell_setting 'triclinic'
loop_
_space_group_symop_operation_xyz
x,y,z
-x,-y,-z
loop_
_atom_site_type_symbol
_atom_site_label
_atom_site_fract_x
_atom_site_fract_y
_atom_site_fract_z
Si Si1 0.024522 0.119891 0.352363
Si Si2 0.251178 0.528448 0.939918
Si Si3 0.606303 0.424523 0.851451
Si Si4 0.278864 0.036353 0.636770
Si Si5 0.287189 0.267741 0.098451
Si Si6 0.036841 0.680065 0.202355
Si Si7 0.779249 0.121390 0.034695
Si Si8 0.839780 0.265954 0.409770
O O1 0.128269 0.053589 0.196488
O O2 0.008586 0.326373 0.626351
O O3 0.952365 0.196240 0.313004
O O4 0.997747 0.916439 0.307026
O O5 0.264835 0.252125 0.689826
O O6 0.327532 0.575156 0.046354
O O7 0.148836 0.623642 0.123121
O O8 0.264099 0.666186 0.892997
O O9 0.625744 0.607344 0.855784
O O10 0.626218 0.161476 0.586339
O O11 0.500000 0.500000 0.000000
O O12 0.196663 0.899729 0.581474
O O13 0.278526 0.175383 0.880945
O O14 0.295769 0.039544 0.027566
O O15 0.195595 0.464422 0.330725
O O16 0.000000 0.500000 0.000000
O O17 0.803298 0.232064 0.248095
#
# Coordination Sequence:
#
# PCOD8042385 Si02
#       8
#     2   2   2   2   2   2   2   2
#     4  10  20  32  50  79 111 148 198 232 263 321
#     4  10  21  36  56  85 114 145 186 231 278 329
#     4  10  21  39  65  88 105 136 183 232 282 336
#     4   9  18  35  60  81 107 140 179 230 278 323
#     4   9  20  36  55  80 111 144 182 225 276 332
#     4  10  20  33  52  80 114 149 188 234 274 311
#     4  10  22  35  51  79 117 153 184 227 278 325
#     4  10  19  35  54  77 111 154 193 228 270 317
#
# _framework density 19.876404000000001
#
# number of rings (size 3 to 8) (size 9 to 14) (size 15 to 20)
#    0.000    2.250    0.000    3.375    0.000    8.500 
#    0.000    0.625    0.000    7.500    0.000    0.000 
#    0.000    0.000    0.000    0.000    0.000    0.000 
#
# Total GULP energy -198229.828452 kJ/mol
# GULP energy per Si atom -12389.364278 kJ/mol
# Density = 1.983116 g / cm^3
# Si number density = 19.876404 Si / 1000 Ang^3
#
#
#
# Elastic Constant Matrix: (Units=GPa)
#
#
# Indices 1 2 3 4 5 6 
#
# 1 79.5767 31.9482 41.0330 -7.8094 -7.1023 -2.5397
# 2 31.9482 136.5256 50.8086 13.2022 0.7145 11.4683
# 3 41.0330 50.8086 131.0762 7.6167 -0.8414 -1.9642
# 4 -7.8094 13.2022 7.6167 27.3362 3.8578 3.0548
# 5 -7.1023 0.7145 -0.8414 3.8578 27.0830 -2.2991
# 6 -2.5397 11.4683 -1.9642 3.0548 -2.2991 18.9949
#
#
#
# Elastic Compliance Matrix: (Units=1/GPa)
#
#
# Indices 1 2 3 4 5 6 
#
# 1 0.017331 -0.003359 -0.004453 0.006919 0.003784 0.003230
# 2 -0.003359 0.010055 -0.002704 -0.004198 -0.001164 -0.006265
# 3 -0.004453 -0.002704 0.010290 -0.003106 -0.000115 0.002587
# 4 0.006919 -0.004198 -0.003106 0.042577 -0.004598 -0.004265
# 5 0.003784 -0.001164 -0.000115 -0.004598 0.039165 0.006677
# 6 0.003230 -0.006265 0.002587 -0.004265 0.006677 0.058622
#
#
# Mechanical properties :
#
#
# Convention : Reuss Voigt Hill
#
# Bulk Modulus (GPa) = 60.07689 66.08424 63.08057
# Shear Modulus (GPa) = 24.43592 29.57540 27.00566
#
# Velocity S-wave (km/s) = 3.51007 3.86160 3.69003
# Velocity P-wave (km/s) = 6.83508 7.29400 7.06826
#
# Compressibility (1/GPa) = 0.01664533
#
# Stress axis : x y z
#
# Youngs Moduli (GPa) = 57.70107 99.45239 97.18545
#
# Poissons Ratio (x) = 0.33402 0.43275
# Poissons Ratio (y) = 0.19379 0.26275
# Poissons Ratio (z) = 0.25693 0.26888
#
# Static dielectric constant tensor:
#      x y z
#    x 3.093120 0.131320 0.233430 
#    y 0.131320 4.030420 0.346790 
#    z 0.233430 0.346790 3.699930 
# 
# 
# High freq. dielectric constant tensor:
#      x y z
#    x 1.733250 0.011980 0.005750 
#    y 0.011980 1.776890 0.010680 
#    z 0.005750 0.010680 1.790630 
# 
# From -- ./inp_files/39430.got.cif
#   From: 2010.06.25/outbox.cif.g09.slc.cpg/sg2_20_cif.got.tgz:39430.got - 2010.06.27 13:26:56.
