data_PCOD8042130
_publ_section_title
;
Structure prediction by ZEFSAII (Michael W. Deem and Ramdas Pophale) SiO2 
 PCOD8042130
Probable space group: P -1
;
_chemical_formula_sum "Si O2"
_cell_formula_units_Z 12
_cell_length_a 9.347376
_cell_length_b 7.354473
_cell_length_c 9.392996
_cell_angle_alpha 83.800512
_cell_angle_beta 72.809596
_cell_angle_gamma 107.341839
_cell_volume 575.060705
_symmetry_space_group_name_H-M "P -1"
_symmetry_group_IT_number 2
_symmetry_cell_setting 'triclinic'
loop_
_space_group_symop_operation_xyz
x,y,z
-x,-y,-z
loop_
_atom_site_type_symbol
_atom_site_label
_atom_site_fract_x
_atom_site_fract_y
_atom_site_fract_z
Si Si1 0.186711 0.620886 0.783601
Si Si2 0.825575 0.938198 0.987222
Si Si3 0.337010 0.401349 0.139514
Si Si4 0.349974 0.039494 0.697019
Si Si5 0.470047 0.234143 0.366729
Si Si6 0.146763 0.647948 0.123108
O O1 0.353631 0.596786 0.686506
O O2 0.037168 0.461218 0.765018
O O3 0.195786 0.842823 0.725208
O O4 0.172767 0.591075 0.959466
O O5 0.793932 0.759663 0.904426
O O6 0.807893 0.121223 0.890717
O O7 0.688312 0.867270 0.155197
O O8 0.000000 0.000000 0.000000
O O9 0.360520 0.297303 0.284846
O O10 0.262751 0.567588 0.189473
O O11 0.500000 0.500000 0.000000
O O12 0.381825 0.197006 0.548330
O O13 0.502644 0.966047 0.677135
#
# Coordination Sequence:
#
# PCOD8042130 Si02
#       6
#     2   2   2   2   2   2
#     4   8  14  32  57  78 110 161 185 229 287 347
#     4  11  23  38  63  90 116 158 199 239 290 354
#     4  12  22  36  61  93 117 150 197 251 294 333
#     4   8  17  36  58  87 118 156 200 234 290 359
#     4   9  18  34  62  86 116 160 192 240 299 344
#     4  10  19  34  58  84 121 147 196 242 286 347
#
# _framework density 20.867360999999999
#
# number of rings (size 3 to 8) (size 9 to 14) (size 15 to 20)
#    1.000    1.333    1.667    3.000    0.000    2.667 
#    0.000    4.167    0.000    4.000    0.000    0.000 
#    0.000    0.000    0.000    0.000    0.000    0.000 
#
# Total GULP energy -148687.152585 kJ/mol
# GULP energy per Si atom -12390.596049 kJ/mol
# Density = 2.081987 g / cm^3
# Si number density = 20.867361 Si / 1000 Ang^3
#
#
#
# Elastic Constant Matrix: (Units=GPa)
#
#
# Indices 1 2 3 4 5 6 
#
# 1 110.7610 37.8784 35.8374 -15.2775 11.8511 -11.5003
# 2 37.8784 77.4542 25.0691 -16.8020 6.3030 -8.2427
# 3 35.8374 25.0691 84.5931 -29.9760 1.4052 -4.5543
# 4 -15.2775 -16.8020 -29.9760 26.2535 -5.6901 -3.1153
# 5 11.8511 6.3030 1.4052 -5.6901 23.4427 -11.4649
# 6 -11.5003 -8.2427 -4.5543 -3.1153 -11.4649 35.3308
#
#
#
# Elastic Compliance Matrix: (Units=1/GPa)
#
#
# Indices 1 2 3 4 5 6 
#
# 1 0.012344 -0.004517 -0.004357 -0.001646 -0.004826 0.000691
# 2 -0.004517 0.017415 0.000503 0.010039 0.002069 0.004214
# 3 -0.004357 0.000503 0.023831 0.028426 0.011447 0.007992
# 4 -0.001646 0.010039 0.028426 0.084615 0.027685 0.021915
# 5 -0.004826 0.002069 0.011447 0.027685 0.061759 0.022869
# 6 0.000691 0.004214 0.007992 0.021915 0.022869 0.039896
#
#
# Mechanical properties :
#
#
# Convention : Reuss Voigt Hill
#
# Bulk Modulus (GPa) = 27.13892 52.26422 39.70157
# Shear Modulus (GPa) = 18.59530 28.60696 23.60113
#
# Velocity S-wave (km/s) = 2.98840 3.70658 3.36669
# Velocity P-wave (km/s) = 4.99410 6.58928 5.84635
#
# Compressibility (1/GPa) = 0.03684745
#
# Stress axis : x y z
#
# Youngs Moduli (GPa) = 81.01050 57.42090 41.96204
#
# Poissons Ratio (x) = 0.25940 0.18282
# Poissons Ratio (y) = 0.36596 -0.02110
# Poissons Ratio (z) = 0.35294 -0.02887
#
# Static dielectric constant tensor:
#      x y z
#    x 3.698000 -0.108350 -0.187390 
#    y -0.108350 3.686770 -0.382780 
#    z -0.187390 -0.382780 3.511890 
# 
# 
# High freq. dielectric constant tensor:
#      x y z
#    x 1.805170 -0.013860 -0.016250 
#    y -0.013860 1.805840 -0.034980 
#    z -0.016250 -0.034980 1.783660 
# 
# From -- ./inp_files/146848.got.cif
#   From: 2010.06.25/outbox.cif.g09.slc.cpg/sg2_74_cif.got.tgz:146848.got - 2010.06.27 13:26:56.
