data_PCOD8042353
_publ_section_title
;
Structure prediction by ZEFSAII (Michael W. Deem and Ramdas Pophale) SiO2 
 PCOD8042353
Probable space group: P -1
;
_chemical_formula_sum "Si O2"
_cell_formula_units_Z 16
_cell_length_a 19.349817
_cell_length_b 8.939162
_cell_length_c 12.079019
_cell_angle_alpha 126.195024
_cell_angle_beta 152.306720
_cell_angle_gamma 64.701152
_cell_volume 757.742142
_symmetry_space_group_name_H-M "P -1"
_symmetry_group_IT_number 2
_symmetry_cell_setting 'triclinic'
loop_
_space_group_symop_operation_xyz
x,y,z
-x,-y,-z
loop_
_atom_site_type_symbol
_atom_site_label
_atom_site_fract_x
_atom_site_fract_y
_atom_site_fract_z
Si Si1 0.891873 0.418490 0.154195
Si Si2 0.942228 0.492631 0.791019
Si Si3 0.600599 0.667926 0.147043
Si Si4 0.759652 0.077486 0.377961
Si Si5 0.127087 0.277442 0.571420
Si Si6 0.523221 0.030067 0.201174
Si Si7 0.159359 0.146020 0.257092
Si Si8 0.622155 0.078097 0.612228
O O1 0.919062 0.624758 0.341528
O O2 0.919863 0.452372 0.077923
O O3 0.012590 0.303763 0.321676
O O4 0.716360 0.295448 0.867463
O O5 0.845609 0.277543 0.530680
O O6 0.846417 0.652105 0.716386
O O7 0.000000 0.500000 0.000000
O O8 0.694471 0.604304 0.151641
O O9 0.739935 0.812877 0.472167
O O10 0.491129 0.803769 0.021208
O O11 0.500000 0.500000 0.000000
O O12 0.677016 0.135168 0.397003
O O13 0.880350 0.948738 0.520829
O O14 0.636275 0.937569 0.058670
O O15 0.537860 0.072466 0.371103
O O16 0.253891 0.048003 0.263347
O O17 0.000000 0.000000 0.000000
O O18 0.500000 0.000000 0.500000
#
# Coordination Sequence:
#
# PCOD8042353 Si02
#       8
#     2   2   2   2   2   2   2   2
#     4  11  24  43  63  97 127 170 224 264 328 388
#     4  12  25  38  68  96 127 169 220 269 324 393
#     4  10  19  34  67  94 117 163 220 265 316 383
#     4  10  22  43  64  95 128 169 214 269 333 378
#     4  10  23  41  68  90 132 169 211 278 319 391
#     4   9  21  39  63  92 131 165 210 271 324 393
#     4  11  22  42  67  94 127 172 223 271 317 385
#     4  11  24  41  67  96 132 170 215 271 331 390
#
# _framework density 21.115362000000001
#
# number of rings (size 3 to 8) (size 9 to 14) (size 15 to 20)
#    0.000    1.500    2.500    1.500    8.750    1.500 
#    2.250    0.625    0.000    0.000    0.000    0.000 
#    0.000    0.000    0.000    0.000    0.000    0.000 
#
# Total GULP energy -198245.886650 kJ/mol
# GULP energy per Si atom -12390.367916 kJ/mol
# Density = 2.106730 g / cm^3
# Si number density = 21.115362 Si / 1000 Ang^3
#
#
#
# Elastic Constant Matrix: (Units=GPa)
#
#
# Indices 1 2 3 4 5 6 
#
# 1 128.2622 30.7331 43.5069 0.9924 4.4624 12.4210
# 2 30.7331 112.9599 32.5750 8.6751 9.0916 7.0784
# 3 43.5069 32.5750 83.0252 9.2676 7.7536 8.2872
# 4 0.9924 8.6751 9.2676 32.1544 9.2117 3.9573
# 5 4.4624 9.0916 7.7536 9.2117 37.6247 0.3198
# 6 12.4210 7.0784 8.2872 3.9573 0.3198 31.7571
#
#
#
# Elastic Compliance Matrix: (Units=1/GPa)
#
#
# Indices 1 2 3 4 5 6 
#
# 1 0.009920 -0.001324 -0.004588 0.001788 -0.000327 -0.002607
# 2 -0.001324 0.010347 -0.003001 -0.001391 -0.001378 -0.000818
# 3 -0.004588 -0.003001 0.016238 -0.003194 -0.001284 -0.001363
# 4 0.001788 -0.001391 -0.003194 0.035038 -0.007764 -0.003844
# 5 -0.000327 -0.001378 -0.001284 -0.007764 0.029103 0.001444
# 6 -0.002607 -0.000818 -0.001363 -0.003844 0.001444 0.033511
#
#
# Mechanical properties :
#
#
# Convention : Reuss Voigt Hill
#
# Bulk Modulus (GPa) = 53.52857 59.76414 56.64636
# Shear Modulus (GPa) = 31.60400 34.80273 33.20337
#
# Velocity S-wave (km/s) = 3.87296 4.06423 3.96975
# Velocity P-wave (km/s) = 6.73835 7.09852 6.92078
#
# Compressibility (1/GPa) = 0.01868161
#
# Stress axis : x y z
#
# Youngs Moduli (GPa) = 100.80803 96.64610 61.58276
#
# Poissons Ratio (x) = 0.12791 0.28252
# Poissons Ratio (y) = 0.13342 0.18478
# Poissons Ratio (z) = 0.46248 0.28999
#
# Static dielectric constant tensor:
#      x y z
#    x 3.766560 0.166830 0.081410 
#    y 0.166830 4.998590 -0.157460 
#    z 0.081410 -0.157460 3.552510 
# 
# 
# High freq. dielectric constant tensor:
#      x y z
#    x 1.821700 0.005890 0.000180 
#    y 0.005890 1.828700 -0.005780 
#    z 0.000180 -0.005780 1.823300 
# 
# From -- ./inp_files/461595.got.cif
#   From: 2010.06.25/outbox.cif.g09.slc.cpg/sg2_231_cif.got.tgz:461595.got - 2010.06.27 13:26:56.
