data_PCOD8042619
_publ_section_title
;
Structure prediction by ZEFSAII (Michael W. Deem and Ramdas Pophale) SiO2 
 PCOD8042619
Probable space group: P -1
;
_chemical_formula_sum "Si O2"
_cell_formula_units_Z 16
_cell_length_a 11.329700
_cell_length_b 11.823175
_cell_length_c 17.879857
_cell_angle_alpha 38.232558
_cell_angle_beta 39.036395
_cell_angle_gamma 66.695042
_cell_volume 779.405937
_symmetry_space_group_name_H-M "P -1"
_symmetry_group_IT_number 2
_symmetry_cell_setting 'triclinic'
loop_
_space_group_symop_operation_xyz
x,y,z
-x,-y,-z
loop_
_atom_site_type_symbol
_atom_site_label
_atom_site_fract_x
_atom_site_fract_y
_atom_site_fract_z
Si Si1 0.219127 0.479016 0.118373
Si Si2 0.739411 0.138014 0.490651
Si Si3 0.805345 0.638391 0.512979
Si Si4 0.235497 0.193516 0.814603
Si Si5 0.710403 0.200031 0.831435
Si Si6 0.476975 0.603507 0.569385
Si Si7 0.410273 0.897088 0.897796
Si Si8 0.674818 0.709800 0.700045
O O1 0.206378 0.318507 0.272240
O O2 0.985630 0.353595 0.256055
O O3 0.253686 0.701739 0.018418
O O4 0.408604 0.533690 0.934935
O O5 0.582347 0.213407 0.495099
O O6 0.659847 0.033300 0.667998
O O7 0.729357 0.954283 0.539329
O O8 0.770151 0.403547 0.644613
O O9 0.612727 0.635684 0.561625
O O10 0.772725 0.676764 0.594499
O O11 0.066008 0.811697 0.268265
O O12 0.258543 0.354410 0.788420
O O13 0.351206 0.349484 0.605715
O O14 0.352458 0.075128 0.848394
O O15 0.000000 0.000000 0.000000
O O16 0.619081 0.217126 0.948770
O O17 0.500000 0.000000 0.000000
#
# Coordination Sequence:
#
# PCOD8042619 Si02
#       8
#     2   2   2   2   2   2   2   2
#     4  10  20  39  62  87 119 149 208 254 294 344
#     4  10  22  37  64  88 115 157 206 248 292 346
#     4  11  24  41  58  86 131 156 194 249 303 362
#     4  10  19  35  59  84 119 158 200 240 286 350
#     4  11  24  38  59  89 119 162 196 239 308 364
#     4  10  22  38  57  90 121 161 198 240 299 360
#     4  10  20  35  58  89 113 148 197 246 293 350
#     4  10  22  39  59  89 116 162 197 251 298 350
#
# _framework density 20.528455000000001
#
# number of rings (size 3 to 8) (size 9 to 14) (size 15 to 20)
#    0.000    1.750    1.250    2.625    1.750    3.500 
#    0.000    0.625    0.000    0.000    0.000    0.000 
#    0.000    0.000    0.000    0.000    0.000    0.000 
#
# Total GULP energy -198251.249897 kJ/mol
# GULP energy per Si atom -12390.703119 kJ/mol
# Density = 2.048173 g / cm^3
# Si number density = 20.528455 Si / 1000 Ang^3
#
#
#
# Elastic Constant Matrix: (Units=GPa)
#
#
# Indices 1 2 3 4 5 6 
#
# 1 75.1928 17.1994 36.4999 2.1374 -12.9543 -1.8210
# 2 17.1994 89.1934 32.6925 -7.2966 -4.6283 -3.1923
# 3 36.4999 32.6925 97.7730 -2.5328 -21.9150 7.0254
# 4 2.1374 -7.2966 -2.5328 36.5477 0.8166 6.5110
# 5 -12.9543 -4.6283 -21.9150 0.8166 32.6671 -8.1578
# 6 -1.8210 -3.1923 7.0254 6.5110 -8.1578 20.5815
#
#
#
# Elastic Compliance Matrix: (Units=1/GPa)
#
#
# Indices 1 2 3 4 5 6 
#
# 1 0.017243 -0.001064 -0.005570 -0.002762 0.004497 0.005918
# 2 -0.001064 0.013214 -0.004349 0.001982 -0.000904 0.002455
# 3 -0.005570 -0.004349 0.015558 0.001148 0.006521 -0.004257
# 4 -0.002762 0.001982 0.001148 0.030089 -0.003613 -0.011280
# 5 0.004497 -0.000904 0.006521 -0.003613 0.040539 0.015243
# 6 0.005918 0.002455 -0.004257 -0.011280 0.015243 0.060555
#
#
# Mechanical properties :
#
#
# Convention : Reuss Voigt Hill
#
# Bulk Modulus (GPa) = 41.58069 48.32698 44.95383
# Shear Modulus (GPa) = 24.13369 29.67707 26.90538
#
# Velocity S-wave (km/s) = 3.43245 3.80630 3.62420
# Velocity P-wave (km/s) = 6.00067 6.55056 6.28164
#
# Compressibility (1/GPa) = 0.02404963
#
# Stress axis : x y z
#
# Youngs Moduli (GPa) = 57.99483 75.67833 64.27415
#
# Poissons Ratio (x) = 0.08053 0.35800
# Poissons Ratio (y) = 0.06172 0.27951
# Poissons Ratio (z) = 0.32303 0.32910
#
# Static dielectric constant tensor:
#      x y z
#    x 3.459920 0.019960 -0.016090 
#    y 0.019960 3.431150 0.209930 
#    z -0.016090 0.209930 3.881120 
# 
# 
# High freq. dielectric constant tensor:
#      x y z
#    x 1.779960 -0.009610 -0.002780 
#    y -0.009610 1.801170 -0.013100 
#    z -0.002780 -0.013100 1.810780 
# 
# From -- ./inp_files/95219.got.cif
#   From: 2010.06.25/outbox.cif.g09.slc.cpg/sg2_48_cif.got.tgz:95219.got - 2010.06.27 13:26:56.
