data_PCOD8042001
_publ_section_title
;
Structure prediction by ZEFSAII (Michael W. Deem and Ramdas Pophale) SiO2 
 PCOD8042001
Probable space group: P -1
;
_chemical_formula_sum "Si O2"
_cell_formula_units_Z 16
_cell_length_a 29.860007
_cell_length_b 11.865863
_cell_length_c 9.331431
_cell_angle_alpha 116.348758
_cell_angle_beta 142.943812
_cell_angle_gamma 34.853960
_cell_volume 899.722044
_symmetry_space_group_name_H-M "P -1"
_symmetry_group_IT_number 2
_symmetry_cell_setting 'triclinic'
loop_
_space_group_symop_operation_xyz
x,y,z
-x,-y,-z
loop_
_atom_site_type_symbol
_atom_site_label
_atom_site_fract_x
_atom_site_fract_y
_atom_site_fract_z
Si Si1 0.123029 0.821941 0.055182
Si Si2 0.898180 0.935831 0.497562
Si Si3 0.062701 0.572788 0.479803
Si Si4 0.290764 0.219556 0.105155
Si Si5 0.580901 0.704208 0.451972
Si Si6 0.268444 0.600961 0.590946
Si Si7 0.034347 0.559698 0.852435
Si Si8 0.915604 0.330354 0.709793
O O1 0.295055 0.556501 0.291749
O O2 0.128686 0.809120 0.238131
O O3 0.035660 0.830291 0.777968
O O4 0.064576 0.036825 0.961526
O O5 0.915339 0.828597 0.336457
O O6 0.914572 0.823173 0.615161
O O7 0.742859 0.242489 0.277687
O O8 0.081823 0.632466 0.425832
O O9 0.043459 0.456965 0.316559
O O10 0.210204 0.372898 0.838154
O O11 0.366421 0.227784 0.379560
O O12 0.418820 0.929471 0.232961
O O13 0.173197 0.329413 0.973433
O O14 0.582203 0.649025 0.257415
O O15 0.228764 0.547852 0.570575
O O16 0.093404 0.535830 0.135005
#
# Coordination Sequence:
#
# PCOD8042001 Si02
#       8
#     2   2   2   2   2   2   2   2
#     4   9  15  29  54  70  92 121 161 203 228 285
#     4  10  15  30  48  72  92 123 163 198 240 263
#     4  11  23  28  45  78 106 122 154 200 240 282
#     4  10  18  32  50  72  99 122 167 191 235 287
#     4   9  16  30  55  72  90 126 164 199 228 287
#     4   9  15  29  53  70  94 120 161 204 228 286
#     4  11  17  34  50  65 101 135 160 189 229 296
#     4  11  18  31  49  75  98 126 157 197 249 278
#
# _framework density 17.783270999999999
#
# number of rings (size 3 to 8) (size 9 to 14) (size 15 to 20)
#    0.750    1.250    6.250    2.625    0.000    2.000 
#    0.000    0.625    0.000    7.500    0.000    0.000 
#    0.000    0.000    0.000    0.000    0.000    0.000 
#
# Total GULP energy -198210.086912 kJ/mol
# GULP energy per Si atom -12388.130432 kJ/mol
# Density = 1.774280 g / cm^3
# Si number density = 17.783271 Si / 1000 Ang^3
#
#
#
# Elastic Constant Matrix: (Units=GPa)
#
#
# Indices 1 2 3 4 5 6 
#
# 1 59.3820 18.2152 12.5547 -5.2180 -11.8683 5.6508
# 2 18.2152 103.0957 14.1592 -6.0090 3.2240 -2.7969
# 3 12.5547 14.1592 17.4693 -3.5703 -3.0644 1.7479
# 4 -5.2180 -6.0090 -3.5703 23.7544 -3.4300 5.8522
# 5 -11.8683 3.2240 -3.0644 -3.4300 18.1919 4.4535
# 6 5.6508 -2.7969 1.7479 5.8522 4.4535 22.0772
#
#
#
# Elastic Compliance Matrix: (Units=1/GPa)
#
#
# Indices 1 2 3 4 5 6 
#
# 1 0.026357 -0.003948 -0.008543 0.009982 0.021664 -0.013586
# 2 -0.003948 0.011934 -0.009063 -0.001631 -0.007809 0.005248
# 3 -0.008543 -0.009063 0.076758 0.012108 0.013954 -0.011063
# 4 0.009982 -0.001631 0.012108 0.055049 0.024935 -0.023343
# 5 0.021664 -0.007809 0.013954 0.024935 0.085236 -0.031443
# 6 -0.013586 0.005248 -0.011063 -0.023343 -0.031443 0.062844
#
#
# Mechanical properties :
#
#
# Convention : Reuss Voigt Hill
#
# Bulk Modulus (GPa) = 13.90032 29.97838 21.93935
# Shear Modulus (GPa) = 12.97807 21.80590 17.39199
#
# Velocity S-wave (km/s) = 2.70440 3.50552 3.13069
# Velocity P-wave (km/s) = 4.19347 5.76880 5.04303
#
# Compressibility (1/GPa) = 0.07194078
#
# Stress axis : x y z
#
# Youngs Moduli (GPa) = 37.94052 83.79761 13.02799
#
# Poissons Ratio (x) = 0.33082 0.11129
# Poissons Ratio (y) = 0.14978 0.11808
# Poissons Ratio (z) = 0.32411 0.75949
#
# Static dielectric constant tensor:
#      x y z
#    x 2.932560 -0.106870 -0.039100 
#    y -0.106870 3.783440 0.015530 
#    z -0.039100 0.015530 2.842850 
# 
# 
# High freq. dielectric constant tensor:
#      x y z
#    x 1.656100 -0.006420 -0.000150 
#    y -0.006420 1.713970 0.008880 
#    z -0.000150 0.008880 1.631360 
# 
# From -- ./inp_files/356978.got.cif
#   From: 2010.06.25/outbox.cif.g09.slc.cpg/sg2_179_cif.got.tgz:356978.got - 2010.06.27 13:26:56.
