data_PCOD8042925
_publ_section_title
;
Structure prediction by ZEFSAII (Michael W. Deem and Ramdas Pophale) SiO2 
 PCOD8042925
Probable space group: P -1
;
_chemical_formula_sum "Si O2"
_cell_formula_units_Z 12
_cell_length_a 5.497981
_cell_length_b 13.698439
_cell_length_c 12.415810
_cell_angle_alpha 27.671141
_cell_angle_beta 86.421873
_cell_angle_gamma 91.915400
_cell_volume 425.391905
_symmetry_space_group_name_H-M "P -1"
_symmetry_group_IT_number 2
_symmetry_cell_setting 'triclinic'
loop_
_space_group_symop_operation_xyz
x,y,z
-x,-y,-z
loop_
_atom_site_type_symbol
_atom_site_label
_atom_site_fract_x
_atom_site_fract_y
_atom_site_fract_z
Si Si1 0.729905 0.331370 0.943514
Si Si2 0.785472 0.659606 0.973001
Si Si3 0.970889 0.280444 0.773170
Si Si4 0.822410 0.775492 0.617163
Si Si5 0.311252 0.016379 0.082453
Si Si6 0.347733 0.837585 0.484583
O O1 0.444111 0.225129 0.093165
O O2 0.739804 0.268396 0.877781
O O3 0.783994 0.587815 0.710724
O O4 0.941762 0.229858 0.098604
O O5 0.726369 0.418343 0.253929
O O6 0.786024 0.653321 0.850451
O O7 0.937656 0.129229 0.816912
O O8 0.000000 0.500000 0.500000
O O9 0.217322 0.246389 0.868688
O O10 0.608569 0.915542 0.465524
O O11 0.104529 0.922899 0.458010
O O12 0.396110 0.911997 0.288739
O O13 0.500000 0.000000 0.000000
#
# Coordination Sequence:
#
# PCOD8042925 Si02
#       6
#     2   2   2   2   2   2
#     4  10  20  34  62  96 133 170 230 284 340 408
#     4  10  19  35  65 102 134 178 234 284 346 423
#     4  11  26  46  71 101 140 188 243 295 353 425
#     4  10  19  36  66 100 134 181 231 284 350 420
#     4  11  28  45  70 101 145 188 234 297 363 420
#     4  10  20  36  63  92 134 177 228 278 345 413
#
# _framework density 28.209284
#
# number of rings (size 3 to 8) (size 9 to 14) (size 15 to 20)
#    0.000    1.667    0.000    7.000   11.667    0.667 
#    0.000    0.000    0.000   11.000    0.000    0.000 
#    0.000    0.000    0.000    0.000    0.000    0.000 
#
# Total GULP energy -148724.257694 kJ/mol
# GULP energy per Si atom -12393.688141 kJ/mol
# Density = 2.814508 g / cm^3
# Si number density = 28.209284 Si / 1000 Ang^3
#
#
#
# Elastic Constant Matrix: (Units=GPa)
#
#
# Indices 1 2 3 4 5 6 
#
# 1 236.7045 16.5167 86.7998 6.6895 8.5479 -35.1625
# 2 16.5167 70.7576 41.1521 19.5479 4.0745 -17.3198
# 3 86.7998 41.1521 179.2758 48.0251 29.6399 -18.7375
# 4 6.6895 19.5479 48.0251 44.1014 -10.7037 -1.8636
# 5 8.5479 4.0745 29.6399 -10.7037 56.4454 6.4714
# 6 -35.1625 -17.3198 -18.7375 -1.8636 6.4714 54.7821
#
#
#
# Elastic Compliance Matrix: (Units=1/GPa)
#
#
# Indices 1 2 3 4 5 6 
#
# 1 0.005833 0.000414 -0.003890 0.003645 0.001535 0.002487
# 2 0.000414 0.018361 -0.001585 -0.006845 -0.002495 0.005590
# 3 -0.003890 -0.001585 0.014196 -0.016529 -0.010172 0.002497
# 4 0.003645 -0.006845 -0.016529 0.047340 0.018290 -0.006028
# 5 0.001535 -0.002495 -0.010172 0.018290 0.027146 -0.005867
# 6 0.002487 0.005590 0.002497 -0.006028 -0.005867 0.022960
#
#
# Mechanical properties :
#
#
# Convention : Reuss Voigt Hill
#
# Bulk Modulus (GPa) = 35.37454 86.18612 60.78033
# Shear Modulus (GPa) = 32.17926 53.88375 43.03150
#
# Velocity S-wave (km/s) = 3.38114 4.37526 3.90992
# Velocity P-wave (km/s) = 5.27352 7.49284 6.47891
#
# Compressibility (1/GPa) = 0.02826892
#
# Stress axis : x y z
#
# Youngs Moduli (GPa) = 171.43498 54.46377 70.44448
#
# Poissons Ratio (x) = -0.02254 0.27400
# Poissons Ratio (y) = -0.07096 0.11163
# Poissons Ratio (z) = 0.66681 0.08631
#
# Static dielectric constant tensor:
#      x y z
#    x 7.088700 0.941920 0.516520 
#    y 0.941920 5.813860 0.454860 
#    z 0.516520 0.454860 5.415770 
# 
# 
# High freq. dielectric constant tensor:
#      x y z
#    x 2.177550 -0.006930 0.010300 
#    y -0.006930 2.141770 -0.013750 
#    z 0.010300 -0.013750 2.160230 
# 
# From -- ./inp_files/20501.got.cif
#   From: 2010.06.25/outbox.cif.g09.slc.cpg/sg2_11_cif.got.tgz:20501.got - 2010.06.27 13:26:56.
