data_PCOD8042275
_publ_section_title
;
Structure prediction by ZEFSAII (Michael W. Deem and Ramdas Pophale) SiO2 
 PCOD8042275
Probable space group: P -1
;
_chemical_formula_sum "Si O2"
_cell_formula_units_Z 14
_cell_length_a 11.745576
_cell_length_b 14.284107
_cell_length_c 21.711105
_cell_angle_alpha 158.929358
_cell_angle_beta 148.654217
_cell_angle_gamma 31.155773
_cell_volume 646.669705
_symmetry_space_group_name_H-M "P -1"
_symmetry_group_IT_number 2
_symmetry_cell_setting 'triclinic'
loop_
_space_group_symop_operation_xyz
x,y,z
-x,-y,-z
loop_
_atom_site_type_symbol
_atom_site_label
_atom_site_fract_x
_atom_site_fract_y
_atom_site_fract_z
Si Si1 0.463563 0.749819 0.509064
Si Si2 0.839885 0.826659 0.460307
Si Si3 0.754832 0.439076 0.603585
Si Si4 0.757438 0.948168 0.863381
Si Si5 0.525412 0.498159 0.147216
Si Si6 0.853538 0.950311 0.678153
Si Si7 0.316043 0.564295 0.689506
O O1 0.247972 0.711329 0.424884
O O2 0.673214 0.807011 0.679271
O O3 0.565414 0.471573 0.345030
O O4 0.365992 0.996968 0.568954
O O5 0.763487 0.565460 0.284973
O O6 0.870852 0.986101 0.634275
O O7 0.072611 0.752722 0.483399
O O8 0.500000 0.500000 0.500000
O O9 0.799844 0.733515 0.808613
O O10 0.546388 0.228137 0.950621
O O11 0.000000 0.000000 0.000000
O O12 0.521531 0.411055 0.163750
O O13 0.297521 0.752582 0.182012
O O14 0.738033 0.718844 0.497351
O O15 0.102467 0.846115 0.761672
#
# Coordination Sequence:
#
# PCOD8042275 Si02
#       7
#     2   2   2   2   2   2   2
#     4  11  22  40  65  92 121 169 210 247 308 374
#     4  11  19  38  63  93 120 161 214 259 292 370
#     4  10  22  40  62  86 123 169 209 247 304 377
#     4  11  24  40  60  92 130 159 203 261 313 357
#     4  11  21  38  60  95 130 152 205 263 309 356
#     4  10  19  34  61  91 125 156 209 257 299 360
#     4  10  20  36  64  90 119 167 208 247 306 366
#
# _framework density 21.649384000000001
#
# number of rings (size 3 to 8) (size 9 to 14) (size 15 to 20)
#    0.000    1.429    4.286    3.000    4.000    0.571 
#    2.571    0.714    0.000    4.286    0.000    0.000 
#    0.000    0.000    0.000    0.000    0.000    0.000 
#
# Total GULP energy -173444.079456 kJ/mol
# GULP energy per Si atom -12388.862818 kJ/mol
# Density = 2.160011 g / cm^3
# Si number density = 21.649384 Si / 1000 Ang^3
#
#
#
# Elastic Constant Matrix: (Units=GPa)
#
#
# Indices 1 2 3 4 5 6 
#
# 1 126.1234 32.0353 28.7538 1.6165 -4.3204 -9.9840
# 2 32.0353 117.0279 29.9996 10.9744 -10.4541 -7.6978
# 3 28.7538 29.9996 51.5074 12.5041 1.5502 -1.1349
# 4 1.6165 10.9744 12.5041 28.1131 -5.8002 -7.2736
# 5 -4.3204 -10.4541 1.5502 -5.8002 27.4212 3.8941
# 6 -9.9840 -7.6978 -1.1349 -7.2736 3.8941 42.0959
#
#
#
# Elastic Compliance Matrix: (Units=1/GPa)
#
#
# Indices 1 2 3 4 5 6 
#
# 1 0.009702 -0.001250 -0.005500 0.003340 0.001737 0.002341
# 2 -0.001250 0.010784 -0.005537 -0.000586 0.003953 0.001059
# 3 -0.005500 -0.005537 0.028903 -0.012585 -0.006836 -0.003080
# 4 0.003340 -0.000586 -0.012585 0.045043 0.009513 0.007249
# 5 0.001737 0.003953 -0.006836 0.009513 0.040815 -0.001181
# 6 0.002341 0.001059 -0.003080 0.007249 -0.001181 0.025783
#
#
# Mechanical properties :
#
#
# Convention : Reuss Voigt Hill
#
# Bulk Modulus (GPa) = 40.29654 52.91513 46.60583
# Shear Modulus (GPa) = 25.78987 33.11736 29.45361
#
# Velocity S-wave (km/s) = 3.45520 3.91540 3.69247
# Velocity P-wave (km/s) = 5.87975 6.70339 6.30503
#
# Compressibility (1/GPa) = 0.02481603
#
# Stress axis : x y z
#
# Youngs Moduli (GPa) = 103.07078 92.72805 34.59903
#
# Poissons Ratio (x) = 0.11592 0.19028
# Poissons Ratio (y) = 0.12885 0.19156
# Poissons Ratio (z) = 0.56685 0.51340
#
# Static dielectric constant tensor:
#      x y z
#    x 5.753570 0.277340 0.103980 
#    y 0.277340 4.158570 0.448490 
#    z 0.103980 0.448490 3.802910 
# 
# 
# High freq. dielectric constant tensor:
#      x y z
#    x 1.859140 0.001760 -0.018400 
#    y 0.001760 1.862450 0.017340 
#    z -0.018400 0.017340 1.796210 
# 
# From -- ./inp_files/285120.got.cif
#   From: 2010.06.25/outbox.cif.g09.slc.cpg/sg2_143_cif.got.tgz:285120.got - 2010.06.27 13:26:56.
