data_PCOD8042943
_publ_section_title
;
Structure prediction by ZEFSAII (Michael W. Deem and Ramdas Pophale) SiO2 
 PCOD8042943
Probable space group: P -1
;
_chemical_formula_sum "Si O2"
_cell_formula_units_Z 16
_cell_length_a 11.979170
_cell_length_b 15.182826
_cell_length_c 8.675913
_cell_angle_alpha 53.574534
_cell_angle_beta 107.979355
_cell_angle_gamma 143.195865
_cell_volume 713.671799
_symmetry_space_group_name_H-M "P -1"
_symmetry_group_IT_number 2
_symmetry_cell_setting 'triclinic'
loop_
_space_group_symop_operation_xyz
x,y,z
-x,-y,-z
loop_
_atom_site_type_symbol
_atom_site_label
_atom_site_fract_x
_atom_site_fract_y
_atom_site_fract_z
Si Si1 0.851825 0.470938 0.633403
Si Si2 0.763726 0.820441 0.084849
Si Si3 0.479040 0.262491 0.211327
Si Si4 0.263628 0.433769 0.744545
Si Si5 0.812032 0.056837 0.043529
Si Si6 0.767089 0.218789 0.663532
Si Si7 0.638588 0.000115 0.345641
Si Si8 0.232085 0.657924 0.945004
O O1 0.733165 0.462622 0.478641
O O2 0.882710 0.368990 0.694156
O O3 0.082946 0.687491 0.515454
O O4 0.731702 0.374109 0.841867
O O5 0.682953 0.635583 0.259897
O O6 0.718167 0.866878 0.161638
O O7 0.666995 0.790914 0.916201
O O8 0.000000 0.000000 0.000000
O O9 0.566402 0.416433 0.210421
O O10 0.673530 0.352284 0.127766
O O11 0.334261 0.062530 0.435735
O O12 0.048708 0.249614 0.922402
O O13 0.765041 0.051127 0.204226
O O14 0.696985 0.050244 0.879912
O O15 0.595713 0.176233 0.600994
O O16 0.676932 0.154867 0.238708
O O17 0.000000 0.500000 0.000000
#
# Coordination Sequence:
#
# PCOD8042943 Si02
#       8
#     2   2   2   2   2   2   2   2
#     4  10  21  39  65  92 128 174 208 257 324 388
#     4  10  24  45  67  91 123 170 226 276 316 371
#     4  12  25  41  65  96 131 170 218 265 326 379
#     4  10  22  45  66  90 127 170 218 271 320 375
#     4  10  21  39  67  93 127 172 215 258 323 386
#     4  10  19  35  66  92 129 163 210 250 325 383
#     4  12  23  38  62  96 133 169 207 263 321 396
#     4  12  26  40  61 102 140 170 206 260 325 398
#
# _framework density 22.419270999999998
#
# number of rings (size 3 to 8) (size 9 to 14) (size 15 to 20)
#    0.000    1.250    2.500    3.375    3.500    3.000 
#    0.000    6.250    0.000    0.000    0.000    0.000 
#    0.000    0.000    0.000    0.000    0.000    0.000 
#
# Total GULP energy -198233.332761 kJ/mol
# GULP energy per Si atom -12389.583298 kJ/mol
# Density = 2.236824 g / cm^3
# Si number density = 22.419271 Si / 1000 Ang^3
#
#
#
# Elastic Constant Matrix: (Units=GPa)
#
#
# Indices 1 2 3 4 5 6 
#
# 1 77.3853 27.1271 24.7524 -8.8060 22.4778 -12.7680
# 2 27.1271 88.9680 19.9474 -3.3075 16.6457 -1.7577
# 3 24.7524 19.9474 87.5979 -12.7636 5.8908 -1.5963
# 4 -8.8060 -3.3075 -12.7636 20.6969 -0.0402 10.3157
# 5 22.4778 16.6457 5.8908 -0.0402 30.5713 -1.8545
# 6 -12.7680 -1.7577 -1.5963 10.3157 -1.8545 40.6884
#
#
#
# Elastic Compliance Matrix: (Units=1/GPa)
#
#
# Indices 1 2 3 4 5 6 
#
# 1 0.019624 -0.002732 -0.003528 0.003485 -0.011986 0.004472
# 2 -0.002732 0.013430 -0.001954 0.000067 -0.004963 -0.000597
# 3 -0.003528 -0.001954 0.013935 0.008110 0.000821 -0.002663
# 4 0.003485 0.000067 0.008110 0.062050 -0.004962 -0.014543
# 5 -0.011986 -0.004963 0.000821 -0.004962 0.044020 -0.000679
# 6 0.004472 -0.000597 -0.002663 -0.014543 -0.000679 0.029506
#
#
# Mechanical properties :
#
#
# Convention : Reuss Voigt Hill
#
# Bulk Modulus (GPa) = 32.71929 44.17832 38.44881
# Shear Modulus (GPa) = 23.90281 30.53296 27.21789
#
# Velocity S-wave (km/s) = 3.26877 3.69441 3.48809
# Velocity P-wave (km/s) = 5.37331 6.16007 5.78009
#
# Compressibility (1/GPa) = 0.03056301
#
# Stress axis : x y z
#
# Youngs Moduli (GPa) = 50.95708 74.45765 71.76000
#
# Poissons Ratio (x) = 0.20344 0.25315
# Poissons Ratio (y) = 0.13923 0.14019
# Poissons Ratio (z) = 0.17976 0.14546
#
# Static dielectric constant tensor:
#      x y z
#    x 4.082160 -0.430530 0.265980 
#    y -0.430530 3.362450 0.358760 
#    z 0.265980 0.358760 3.925630 
# 
# 
# High freq. dielectric constant tensor:
#      x y z
#    x 1.878860 -0.004290 0.008690 
#    y -0.004290 1.886140 -0.010890 
#    z 0.008690 -0.010890 1.878900 
# 
# From -- ./inp_files/271867.got.cif
#   From: 2010.06.25/outbox.cif.g09.slc.cpg/sg2_136_cif.got.tgz:271867.got - 2010.06.27 13:26:56.
