data_PCOD8042168
_publ_section_title
;
Structure prediction by ZEFSAII (Michael W. Deem and Ramdas Pophale) SiO2 
 PCOD8042168
Probable space group: P -1
;
_chemical_formula_sum "Si O2"
_cell_formula_units_Z 16
_cell_length_a 15.248566
_cell_length_b 8.602323
_cell_length_c 12.594107
_cell_angle_alpha 57.825677
_cell_angle_beta 140.507123
_cell_angle_gamma 101.480522
_cell_volume 817.509025
_symmetry_space_group_name_H-M "P -1"
_symmetry_group_IT_number 2
_symmetry_cell_setting 'triclinic'
loop_
_space_group_symop_operation_xyz
x,y,z
-x,-y,-z
loop_
_atom_site_type_symbol
_atom_site_label
_atom_site_fract_x
_atom_site_fract_y
_atom_site_fract_z
Si Si1 0.834862 0.449034 0.917859
Si Si2 0.204027 0.500357 0.613064
Si Si3 0.813699 0.211170 0.678965
Si Si4 0.603697 0.542006 0.495936
Si Si5 0.996421 0.280292 0.468691
Si Si6 0.499366 0.213119 0.896895
Si Si7 0.928803 0.771226 0.939420
Si Si8 0.181616 0.835061 0.829261
O O1 0.735911 0.562476 0.682307
O O2 0.849991 0.617448 0.949669
O O3 0.766997 0.308925 0.967204
O O4 0.996571 0.298390 0.080980
O O5 0.173758 0.709983 0.453949
O O6 0.111760 0.384057 0.512716
O O7 0.381382 0.364972 0.814366
O O8 0.143763 0.562540 0.653167
O O9 0.662289 0.346015 0.548215
O O10 0.806114 0.996376 0.736079
O O11 0.955275 0.221074 0.868168
O O12 0.500000 0.500000 0.500000
O O13 0.537329 0.729160 0.284129
O O14 0.930927 0.235435 0.315387
O O15 0.092876 0.068135 0.694289
O O16 0.666865 0.200170 0.081786
O O17 0.500000 0.000000 0.000000
#
# Coordination Sequence:
#
# PCOD8042168 Si02
#       8
#     2   2   2   2   2   2   2   2
#     4  10  19  34  59  84 114 146 188 240 283 343
#     4  10  20  38  58  81 117 152 197 235 293 343
#     4   9  18  33  56  79 113 147 180 235 282 345
#     4  10  20  37  59  80 109 152 192 231 285 343
#     4  10  22  36  58  88 114 154 196 243 283 348
#     4  11  22  40  61  85 118 157 195 240 297 351
#     4   9  18  33  53  87 111 142 185 230 296 337
#     4  11  21  37  60  87 119 150 198 242 287 343
#
# _framework density 19.571650000000002
#
# number of rings (size 3 to 8) (size 9 to 14) (size 15 to 20)
#    0.000    2.000    2.500    1.500    0.000    1.500 
#    2.250    1.875    0.000    0.000    0.000    0.000 
#    0.000    0.000    0.000    0.000    0.000    0.000 
#
# Total GULP energy -198255.606253 kJ/mol
# GULP energy per Si atom -12390.975391 kJ/mol
# Density = 1.952710 g / cm^3
# Si number density = 19.571650 Si / 1000 Ang^3
#
#
#
# Elastic Constant Matrix: (Units=GPa)
#
#
# Indices 1 2 3 4 5 6 
#
# 1 83.1750 20.6070 23.0744 -15.3844 9.9916 5.5839
# 2 20.6070 87.4043 32.0863 -21.4142 6.9078 1.1647
# 3 23.0744 32.0863 69.9549 -19.3974 -2.2789 3.8360
# 4 -15.3844 -21.4142 -19.3974 30.6177 5.6687 -3.5508
# 5 9.9916 6.9078 -2.2789 5.6687 30.4727 -3.0195
# 6 5.5839 1.1647 3.8360 -3.5508 -3.0195 25.8286
#
#
#
# Elastic Compliance Matrix: (Units=1/GPa)
#
#
# Indices 1 2 3 4 5 6 
#
# 1 0.015105 -0.000309 -0.003169 0.006268 -0.006552 -0.002685
# 2 -0.000309 0.015949 -0.004944 0.008961 -0.005484 0.000673
# 3 -0.003169 -0.004944 0.019632 0.006874 0.002270 -0.000797
# 4 0.006268 0.008961 0.006874 0.049027 -0.012444 0.002505
# 5 -0.006552 -0.005484 0.002270 -0.012444 0.039107 0.004188
# 6 -0.002685 0.000673 -0.000797 0.002505 0.004188 0.040219
#
#
# Mechanical properties :
#
#
# Convention : Reuss Voigt Hill
#
# Bulk Modulus (GPa) = 29.54937 43.56329 36.55633
# Shear Modulus (GPa) = 24.13547 28.36824 26.25186
#
# Velocity S-wave (km/s) = 3.51548 3.81130 3.66638
# Velocity P-wave (km/s) = 5.62219 6.45560 6.05325
#
# Compressibility (1/GPa) = 0.03384167
#
# Stress axis : x y z
#
# Youngs Moduli (GPa) = 66.20264 62.70083 50.93769
#
# Poissons Ratio (x) = 0.01936 0.16142
# Poissons Ratio (y) = 0.02044 0.25185
# Poissons Ratio (z) = 0.20980 0.31001
#
# Static dielectric constant tensor:
#      x y z
#    x 3.511050 0.060400 0.116300 
#    y 0.060400 3.625990 -0.242090 
#    z 0.116300 -0.242090 3.662970 
# 
# 
# High freq. dielectric constant tensor:
#      x y z
#    x 1.759830 0.008330 0.004200 
#    y 0.008330 1.757610 -0.015650 
#    z 0.004200 -0.015650 1.752550 
# 
# From -- ./inp_files/268415.got.cif
#   From: 2010.06.25/outbox.cif.g09.slc.cpg/sg2_135_cif.got.tgz:268415.got - 2010.06.27 13:26:56.
