data_PCOD8042406
_publ_section_title
;
Structure prediction by ZEFSAII (Michael W. Deem and Ramdas Pophale) SiO2 
 PCOD8042406
Probable space group: P -1
;
_chemical_formula_sum "Si O2"
_cell_formula_units_Z 16
_cell_length_a 14.378963
_cell_length_b 5.108765
_cell_length_c 12.368021
_cell_angle_alpha 67.254669
_cell_angle_beta 133.329596
_cell_angle_gamma 117.323434
_cell_volume 583.531454
_symmetry_space_group_name_H-M "P -1"
_symmetry_group_IT_number 2
_symmetry_cell_setting 'triclinic'
loop_
_space_group_symop_operation_xyz
x,y,z
-x,-y,-z
loop_
_atom_site_type_symbol
_atom_site_label
_atom_site_fract_x
_atom_site_fract_y
_atom_site_fract_z
Si Si1 0.436970 0.653758 0.519246
Si Si2 0.847662 0.551767 0.192684
Si Si3 0.121696 0.786334 0.437302
Si Si4 0.613752 0.304979 0.288556
Si Si5 0.152338 0.448234 0.307316
Si Si6 0.613752 0.304979 0.788556
Si Si7 0.878305 0.213668 0.062698
Si Si8 0.563030 0.346242 0.980754
O O1 0.381999 0.550797 0.612713
O O2 0.300192 0.551255 0.354411
O O3 0.553969 0.488565 0.620242
O O4 0.500000 0.000000 0.500000
O O5 0.855580 0.294919 0.155994
O O6 0.967022 0.593717 0.370928
O O7 0.866881 0.867761 0.097667
O O8 0.699808 0.448745 0.145589
O O9 0.237166 0.718588 0.615869
O O10 0.144421 0.705083 0.344006
O O11 0.133119 0.132241 0.402333
O O12 0.553969 0.488566 0.120242
O O13 0.499999 0.000001 0.249999
O O14 0.032978 0.406285 0.129072
O O15 0.618001 0.449202 0.887287
O O16 0.762835 0.281415 0.884131
O O17 0.500000 0.000000 0.000000
#
# Coordination Sequence:
#
# PCOD8042406 Si02
#       8
#     2   2   2   2   2   2   2   2
#     4  10  21  35  54  81 111 141 181 227 273 323
#     4   9  17  32  52  79 104 143 180 221 268 321
#     4   9  17  31  55  76 105 141 185 218 265 326
#     4  10  19  35  55  79 106 145 182 222 272 323
#     4   9  17  32  52  79 104 143 180 221 268 321
#     4  10  19  35  55  79 106 145 182 222 272 323
#     4   9  17  31  55  76 105 141 185 218 265 326
#     4  10  21  35  54  81 111 141 181 227 273 323
#
# _framework density 27.419260000000001
#
# number of rings (size 3 to 8) (size 9 to 14) (size 15 to 20)
#    0.000    2.500    2.500    0.000    0.000    1.000 
#    0.000    1.250    0.000    1.500    0.000    0.000 
#    0.000    0.000    0.000    0.000    0.000    0.000 
#
# Total GULP energy -198213.043177 kJ/mol
# GULP energy per Si atom -12388.315199 kJ/mol
# Density = 2.735685 g / cm^3
# Si number density = 27.419260 Si / 1000 Ang^3
#
#
#
# Elastic Constant Matrix: (Units=GPa)
#
#
# Indices 1 2 3 4 5 6 
#
# 1 94.7549 17.8751 65.2254 15.3729 43.0225 -0.8706
# 2 17.8751 146.2615 70.6876 13.1181 45.8159 9.1508
# 3 65.2254 70.6876 297.8126 13.2435 51.0355 29.3564
# 4 15.3729 13.1181 13.2435 53.7155 13.8608 23.4331
# 5 43.0225 45.8159 51.0355 13.8608 68.2350 19.2634
# 6 -0.8706 9.1508 29.3564 23.4331 19.2634 37.8893
#
#
#
# Elastic Compliance Matrix: (Units=1/GPa)
#
#
# Indices 1 2 3 4 5 6 
#
# 1 0.021676 0.004252 -0.004216 -0.009326 -0.016201 0.016742
# 2 0.004252 0.010090 -0.002265 -0.003493 -0.008754 0.006026
# 3 -0.004216 -0.002265 0.005015 0.002692 0.001543 -0.005885
# 4 -0.009326 -0.003493 0.002692 0.029945 0.006735 -0.023401
# 5 -0.016201 -0.008754 0.001543 0.006735 0.034149 -0.020980
# 6 0.016742 0.006026 -0.005885 -0.023401 -0.020980 0.055020
#
#
# Mechanical properties :
#
#
# Convention : Reuss Voigt Hill
#
# Bulk Modulus (GPa) = 30.93677 94.04502 62.49089
# Shear Modulus (GPa) = 29.21797 57.63736 43.42766
#
# Velocity S-wave (km/s) = 3.26789 4.58981 3.98406
# Velocity P-wave (km/s) = 5.05432 7.90328 6.63355
#
# Compressibility (1/GPa) = 0.03232400
#
# Stress axis : x y z
#
# Youngs Moduli (GPa) = 46.13387 99.10412 199.41149
#
# Poissons Ratio (x) = -0.42142 0.84071
# Poissons Ratio (y) = -0.19617 0.45164
# Poissons Ratio (z) = 0.19450 0.22446
#
# Static dielectric constant tensor:
#      x y z
#    x 6.467430 0.105150 2.044160 
#    y 0.105150 4.712770 1.133420 
#    z 2.044160 1.133420 9.650490 
# 
# 
# High freq. dielectric constant tensor:
#      x y z
#    x 2.128440 -0.009910 0.028470 
#    y -0.009910 2.085000 0.021080 
#    z 0.028470 0.021080 2.155590 
# 
# From -- ./inp_files/11068.got.cif
#   From: 2010.06.25/outbox.cif.g09.slc.cpg/sg2_6_cif.got.tgz:11068.got - 2010.06.27 13:26:56.
