data_PCOD8042934
_publ_section_title
;
Structure prediction by ZEFSAII (Michael W. Deem and Ramdas Pophale) SiO2 
 PCOD8042934
Probable space group: P -1
;
_chemical_formula_sum "Si O2"
_cell_formula_units_Z 14
_cell_length_a 12.852860
_cell_length_b 9.218644
_cell_length_c 29.310545
_cell_angle_alpha 37.975894
_cell_angle_beta 161.655531
_cell_angle_gamma 139.869339
_cell_volume 670.161621
_symmetry_space_group_name_H-M "P -1"
_symmetry_group_IT_number 2
_symmetry_cell_setting 'triclinic'
loop_
_space_group_symop_operation_xyz
x,y,z
-x,-y,-z
loop_
_atom_site_type_symbol
_atom_site_label
_atom_site_fract_x
_atom_site_fract_y
_atom_site_fract_z
Si Si1 0.203292 0.184614 0.674190
Si Si2 0.181783 0.488635 0.126201
Si Si3 0.438838 0.139052 0.381023
Si Si4 0.294281 0.673872 0.842574
Si Si5 0.288711 0.143278 0.611438
Si Si6 0.255028 0.183133 0.085606
Si Si7 0.412069 0.356022 0.411321
O O1 0.446151 0.385899 0.749076
O O2 0.228364 0.172951 0.632810
O O3 0.828609 0.231058 0.519207
O O4 0.313331 0.943120 0.802650
O O5 0.230854 0.223142 0.230151
O O6 0.000000 0.500000 0.000000
O O7 0.946417 0.607229 0.033512
O O8 0.295695 0.260390 0.336437
O O9 0.392315 0.853038 0.432619
O O10 0.444683 0.688490 0.850844
O O11 0.904126 0.585613 0.704085
O O12 0.500000 0.500000 0.000000
O O13 0.353363 0.402156 0.552171
O O14 0.592883 0.977597 0.772184
O O15 0.000000 0.000000 0.500000
O O16 0.000000 0.000000 0.000000
#
# Coordination Sequence:
#
# PCOD8042934 Si02
#       7
#     2   2   2   2   2   2   2
#     4  10  22  40  61  92 125 174 219 263 317 391
#     4  12  24  38  65  98 130 171 218 270 319 384
#     4  10  21  41  65  92 133 170 214 263 335 388
#     4  10  19  35  65  92 124 168 212 263 329 376
#     4  11  23  39  68  95 124 167 225 269 323 382
#     4  11  21  42  65  93 127 168 218 267 317 389
#     4  10  21  38  67  97 126 171 213 271 331 388
#
# _framework density 20.890483
#
# number of rings (size 3 to 8) (size 9 to 14) (size 15 to 20)
#    0.000    1.429    4.286    2.143    2.000    0.000 
#    0.000    9.286    0.000    9.429    0.000    0.000 
#    0.000    0.000    0.000    0.000    0.000    0.000 
#
# Total GULP energy -173471.780081 kJ/mol
# GULP energy per Si atom -12390.841434 kJ/mol
# Density = 2.084294 g / cm^3
# Si number density = 20.890483 Si / 1000 Ang^3
#
#
#
# Elastic Constant Matrix: (Units=GPa)
#
#
# Indices 1 2 3 4 5 6 
#
# 1 82.7273 46.0046 48.2164 -0.4191 3.7561 15.2632
# 2 46.0046 149.4369 80.8137 -13.9191 -15.7110 23.5808
# 3 48.2164 80.8137 151.3888 -26.2629 -17.6510 6.3009
# 4 -0.4191 -13.9191 -26.2629 45.5528 2.9491 -3.0725
# 5 3.7561 -15.7110 -17.6510 2.9491 44.6187 -0.1251
# 6 15.2632 23.5808 6.3009 -3.0725 -0.1251 24.5553
#
#
#
# Elastic Compliance Matrix: (Units=1/GPa)
#
#
# Indices 1 2 3 4 5 6 
#
# 1 0.018178 -0.002119 -0.005483 -0.003934 -0.004209 -0.008371
# 2 -0.002119 0.011570 -0.004883 -0.000023 0.002299 -0.008533
# 3 -0.005483 -0.004883 0.012058 0.005591 0.003159 0.005718
# 4 -0.003934 -0.000023 0.005591 0.025360 0.000870 0.004210
# 5 -0.004209 0.002299 0.003159 0.000870 0.024768 -0.000167
# 6 -0.008371 -0.008533 0.005718 0.004210 -0.000167 0.053180
#
#
# Mechanical properties :
#
#
# Convention : Reuss Voigt Hill
#
# Bulk Modulus (GPa) = 59.39124 81.51362 70.45243
# Shear Modulus (GPa) = 28.45827 36.84657 32.65242
#
# Velocity S-wave (km/s) = 3.69488 4.20431 3.95780
# Velocity P-wave (km/s) = 6.83333 7.91660 7.39483
#
# Compressibility (1/GPa) = 0.01683750
#
# Stress axis : x y z
#
# Youngs Moduli (GPa) = 55.01298 86.42737 82.92906
#
# Poissons Ratio (x) = 0.18312 0.45471
# Poissons Ratio (y) = 0.11656 0.40491
# Poissons Ratio (z) = 0.30164 0.42199
#
# Static dielectric constant tensor:
#      x y z
#    x 3.809980 0.342940 0.193990 
#    y 0.342940 3.892990 -0.364350 
#    z 0.193990 -0.364350 3.998840 
# 
# 
# High freq. dielectric constant tensor:
#      x y z
#    x 1.804360 0.021720 0.020230 
#    y 0.021720 1.815870 -0.032850 
#    z 0.020230 -0.032850 1.824020 
# 
# From -- ./inp_files/279111.got.cif
#   From: 2010.06.25/outbox.cif.g09.slc.cpg/sg2_140_cif.got.tgz:279111.got - 2010.06.27 13:26:56.
