data_PCOD8042946
_publ_section_title
;
Structure prediction by ZEFSAII (Michael W. Deem and Ramdas Pophale) SiO2 
 PCOD8042946
Probable space group: P -1
;
_chemical_formula_sum "Si O2"
_cell_formula_units_Z 14
_cell_length_a 12.707258
_cell_length_b 11.716424
_cell_length_c 8.376450
_cell_angle_alpha 126.596027
_cell_angle_beta 145.962840
_cell_angle_gamma 43.994098
_cell_volume 484.853818
_symmetry_space_group_name_H-M "P -1"
_symmetry_group_IT_number 2
_symmetry_cell_setting 'triclinic'
loop_
_space_group_symop_operation_xyz
x,y,z
-x,-y,-z
loop_
_atom_site_type_symbol
_atom_site_label
_atom_site_fract_x
_atom_site_fract_y
_atom_site_fract_z
Si Si1 0.734660 0.964351 0.697765
Si Si2 0.942429 0.366414 0.676366
Si Si3 0.638577 0.854920 0.833458
Si Si4 0.593588 0.160009 0.193745
Si Si5 0.488166 0.475079 0.151760
Si Si6 0.009694 0.059499 0.314374
Si Si7 0.971229 0.409565 0.237962
O O1 0.532113 0.913026 0.568511
O O2 0.799672 0.041195 0.994227
O O3 0.826034 0.771456 0.679181
O O4 0.835397 0.989934 0.685159
O O5 0.686308 0.485966 0.498495
O O6 0.097287 0.259004 0.929995
O O7 0.943654 0.244116 0.437709
O O8 0.036041 0.481780 0.831915
O O9 0.540741 0.029554 0.942175
O O10 0.546158 0.764146 0.755488
O O11 0.530137 0.294446 0.090042
O O12 0.851652 0.073934 0.484960
O O13 0.500000 0.500000 0.000000
O O14 0.250297 0.601675 0.030848
O O15 0.000000 0.500000 0.500000
#
# Coordination Sequence:
#
# PCOD8042946 Si02
#       7
#     2   2   2   2   2   2   2
#     4  10  19  35  66  94 124 168 214 258 322 384
#     4  11  22  39  66  96 126 165 214 268 315 375
#     4   9  18  35  64  91 121 166 216 258 314 378
#     4   9  18  34  58  90 122 160 213 259 308 372
#     4  12  23  34  63  98 129 164 213 267 317 374
#     4   9  19  36  61  95 126 161 215 265 318 377
#     4  12  21  39  64  94 128 167 216 262 314 380
#
# _framework density 28.874680000000001
#
# number of rings (size 3 to 8) (size 9 to 14) (size 15 to 20)
#    0.000    1.714    4.286    1.714    0.000    2.286 
#    0.000    0.714    3.143   10.286    0.000    0.000 
#    0.000    0.000    0.000    0.000    0.000    0.000 
#
# Total GULP energy -173501.292562 kJ/mol
# GULP energy per Si atom -12392.949469 kJ/mol
# Density = 2.880896 g / cm^3
# Si number density = 28.874680 Si / 1000 Ang^3
#
#
#
# Elastic Constant Matrix: (Units=GPa)
#
#
# Indices 1 2 3 4 5 6 
#
# 1 112.4424 54.5420 41.2988 -29.1313 25.0003 10.0022
# 2 54.5420 142.0977 67.1852 -24.0435 2.0066 18.0641
# 3 41.2988 67.1852 196.1589 -36.6506 20.1077 -3.4632
# 4 -29.1313 -24.0435 -36.6506 55.2471 -8.0919 -5.0761
# 5 25.0003 2.0066 20.1077 -8.0919 44.9101 -17.6586
# 6 10.0022 18.0641 -3.4632 -5.0761 -17.6586 46.6760
#
#
#
# Elastic Compliance Matrix: (Units=1/GPa)
#
#
# Indices 1 2 3 4 5 6 
#
# 1 0.014266 -0.004107 -0.000024 0.004044 -0.008721 -0.004329
# 2 -0.004107 0.010326 -0.002842 0.000550 0.002246 -0.002418
# 3 -0.000024 -0.002842 0.006881 0.003154 -0.001882 0.001247
# 4 0.004044 0.000550 0.003154 0.022949 0.001287 0.002138
# 5 -0.008721 0.002246 -0.001882 0.001287 0.033467 0.013661
# 6 -0.004329 -0.002418 0.001247 0.002138 0.013661 0.028781
#
#
# Mechanical properties :
#
#
# Convention : Reuss Voigt Hill
#
# Bulk Modulus (GPa) = 57.05431 86.30565 71.67998
# Shear Modulus (GPa) = 36.64099 48.54484 42.59292
#
# Velocity S-wave (km/s) = 3.56612 4.10472 3.84486
# Velocity P-wave (km/s) = 6.06288 7.24014 6.67750
#
# Compressibility (1/GPa) = 0.01752716
#
# Stress axis : x y z
#
# Youngs Moduli (GPa) = 70.09627 96.84005 145.33521
#
# Poissons Ratio (x) = 0.39770 0.00346
# Poissons Ratio (y) = 0.28787 0.41309
# Poissons Ratio (z) = 0.00167 0.27525
#
# Static dielectric constant tensor:
#      x y z
#    x 5.882930 -0.035700 0.356300 
#    y -0.035700 5.299440 -0.484030 
#    z 0.356300 -0.484030 5.946300 
# 
# 
# High freq. dielectric constant tensor:
#      x y z
#    x 2.200730 0.012590 0.008590 
#    y 0.012590 2.169460 -0.030120 
#    z 0.008590 -0.030120 2.173920 
# 
# From -- ./inp_files/263250.got.cif
#   From: 2010.06.25/outbox.cif.g09.slc.cpg/sg2_132_cif.got.tgz:263250.got - 2010.06.27 13:26:56.
