data_PCOD8042901
_publ_section_title
;
Structure prediction by ZEFSAII (Michael W. Deem and Ramdas Pophale) SiO2 
 PCOD8042901
Probable space group: P -1
;
_chemical_formula_sum "Si O2"
_cell_formula_units_Z 16
_cell_length_a 8.778424
_cell_length_b 16.673667
_cell_length_c 11.413186
_cell_angle_alpha 30.921434
_cell_angle_beta 124.046496
_cell_angle_gamma 126.868441
_cell_volume 682.595212
_symmetry_space_group_name_H-M "P -1"
_symmetry_group_IT_number 2
_symmetry_cell_setting 'triclinic'
loop_
_space_group_symop_operation_xyz
x,y,z
-x,-y,-z
loop_
_atom_site_type_symbol
_atom_site_label
_atom_site_fract_x
_atom_site_fract_y
_atom_site_fract_z
Si Si1 0.875490 0.714727 0.484846
Si Si2 0.443461 0.865590 0.330122
Si Si3 0.454261 0.652612 0.380097
Si Si4 0.220426 0.573001 0.745360
Si Si5 0.094991 0.930303 0.980639
Si Si6 0.914745 0.629345 0.859450
Si Si7 0.226133 0.833905 0.912344
Si Si8 0.159061 0.405594 0.699270
O O1 0.658541 0.635595 0.442764
O O2 0.013962 0.612709 0.622206
O O3 0.960928 0.901757 0.246315
O O4 0.849616 0.720154 0.609196
O O5 0.495250 0.789187 0.328190
O O6 0.381801 0.735958 0.572772
O O7 0.625610 0.005073 0.280136
O O8 0.275378 0.945400 0.124071
O O9 0.337327 0.480809 0.598448
O O10 0.338640 0.703388 0.159875
O O11 0.213256 0.431402 0.826258
O O12 0.259628 0.483067 0.994234
O O13 0.128264 0.883561 0.921432
O O14 0.918435 0.782505 0.136407
O O15 0.068672 0.759457 0.840180
O O16 0.000000 0.500000 0.000000
O O17 0.000000 0.500000 0.500000
#
# Coordination Sequence:
#
# PCOD8042901 Si02
#       8
#     2   2   2   2   2   2   2   2
#     4  11  23  40  58  93 127 151 197 264 292 342
#     4  10  19  35  64  93 118 155 200 246 302 361
#     4  10  19  36  63  93 120 149 204 252 289 358
#     4  10  21  40  60  83 124 169 191 239 312 361
#     4  11  19  35  65  91 123 146 204 250 300 346
#     4  10  23  42  59  80 126 171 196 234 307 371
#     4  11  18  37  65  88 113 166 203 231 305 365
#     4  11  18  36  63  88 120 163 197 237 306 368
#
# _framework density 23.439954
#
# number of rings (size 3 to 8) (size 9 to 14) (size 15 to 20)
#    0.000    1.500    7.500    0.750    0.000    1.000 
#    0.000   14.375    0.000    0.000    0.000    0.000 
#    0.000    0.000    0.000    0.000    0.000    0.000 
#
# Total GULP energy -198286.790292 kJ/mol
# GULP energy per Si atom -12392.924393 kJ/mol
# Density = 2.338660 g / cm^3
# Si number density = 23.439954 Si / 1000 Ang^3
#
#
#
# Elastic Constant Matrix: (Units=GPa)
#
#
# Indices 1 2 3 4 5 6 
#
# 1 47.4459 30.8585 14.7793 -14.2305 -4.2127 -4.1506
# 2 30.8585 79.8548 21.0900 -5.8838 -15.6657 4.2983
# 3 14.7793 21.0900 83.2707 -15.3820 -16.5528 4.8081
# 4 -14.2305 -5.8838 -15.3820 33.3349 7.5554 -11.7221
# 5 -4.2127 -15.6657 -16.5528 7.5554 33.8264 -2.2238
# 6 -4.1506 4.2983 4.8081 -11.7221 -2.2238 30.8420
#
#
#
# Elastic Compliance Matrix: (Units=1/GPa)
#
#
# Indices 1 2 3 4 5 6 
#
# 1 0.037491 -0.014668 -0.001452 0.019116 -0.006175 0.014136
# 2 -0.014668 0.020031 -0.001970 -0.007813 0.007780 -0.006867
# 3 -0.001452 -0.001970 0.014621 0.004610 0.005026 -0.000086
# 4 0.019116 -0.007813 0.004610 0.048046 -0.008359 0.020601
# 5 -0.006175 0.007780 0.005026 -0.008359 0.036510 -0.003243
# 6 0.014136 -0.006867 -0.000086 0.020601 -0.003243 0.042892
#
#
# Mechanical properties :
#
#
# Convention : Reuss Voigt Hill
#
# Bulk Modulus (GPa) = 27.80575 38.22522 33.01549
# Shear Modulus (GPa) = 20.18090 29.19025 24.68558
#
# Velocity S-wave (km/s) = 2.93740 3.53274 3.24873
# Velocity P-wave (km/s) = 4.83660 5.74312 5.30924
#
# Compressibility (1/GPa) = 0.03596378
#
# Stress axis : x y z
#
# Youngs Moduli (GPa) = 26.67329 49.92157 68.39312
#
# Poissons Ratio (x) = 0.73225 0.09928
# Poissons Ratio (y) = 0.39124 0.13475
# Poissons Ratio (z) = 0.03872 0.09836
#
# Static dielectric constant tensor:
#      x y z
#    x 4.264100 -0.114440 -0.621460 
#    y -0.114440 5.156760 -0.034010 
#    z -0.621460 -0.034010 4.941120 
# 
# 
# High freq. dielectric constant tensor:
#      x y z
#    x 1.928250 -0.007820 -0.024450 
#    y -0.007820 1.919360 -0.022200 
#    z -0.024450 -0.022200 1.920610 
# 
# From -- ./inp_files/347406.got.cif
#   From: 2010.06.25/outbox.cif.g09.slc.cpg/sg2_174_cif.got.tgz:347406.got - 2010.06.27 13:26:56.
