data_PCOD8042634
_publ_section_title
;
Structure prediction by ZEFSAII (Michael W. Deem and Ramdas Pophale) SiO2 
 PCOD8042634
Probable space group: P -1
;
_chemical_formula_sum "Si O2"
_cell_formula_units_Z 12
_cell_length_a 9.357665
_cell_length_b 12.341635
_cell_length_c 10.874383
_cell_angle_alpha 103.909130
_cell_angle_beta 58.717214
_cell_angle_gamma 54.661737
_cell_volume 552.638446
_symmetry_space_group_name_H-M "P -1"
_symmetry_group_IT_number 2
_symmetry_cell_setting 'triclinic'
loop_
_space_group_symop_operation_xyz
x,y,z
-x,-y,-z
loop_
_atom_site_type_symbol
_atom_site_label
_atom_site_fract_x
_atom_site_fract_y
_atom_site_fract_z
Si Si1 0.960719 0.782684 0.447367
Si Si2 0.793664 0.154188 0.749914
Si Si3 0.889239 0.366648 0.194527
Si Si4 0.325447 0.159210 0.733062
Si Si5 0.842016 0.228785 0.393340
Si Si6 0.923596 0.499526 0.819306
O O1 0.168406 0.731950 0.236584
O O2 0.087762 0.727914 0.512621
O O3 0.964864 0.648168 0.378389
O O4 0.605092 0.035209 0.667971
O O5 0.435070 0.323579 0.941296
O O6 0.000000 0.000000 0.500000
O O7 0.951265 0.002409 0.755249
O O8 0.939015 0.233999 0.225732
O O9 0.523994 0.594592 0.391886
O O10 0.030354 0.397082 0.208125
O O11 0.074675 0.232137 0.948357
O O12 0.130980 0.369772 0.815899
O O13 0.500000 0.000000 0.500000
#
# Coordination Sequence:
#
# PCOD8042634 Si02
#       6
#     2   2   2   2   2   2
#     4  10  21  38  60  88 119 154 198 244 293 352
#     4  10  19  35  59  86 116 153 199 241 286 346
#     4  11  22  40  61  86 121 158 197 243 299 352
#     4  10  21  37  61  89 117 152 198 246 290 347
#     4  10  23  40  60  86 121 160 197 242 295 354
#     4  11  22  36  61  88 118 155 196 248 294 349
#
# _framework density 21.714016000000001
#
# number of rings (size 3 to 8) (size 9 to 14) (size 15 to 20)
#    0.000    1.667    0.000    6.000    0.000    4.667 
#    0.000    1.667    0.000   14.000    0.000    0.000 
#    0.000    0.000    0.000    0.000    0.000    0.000 
#
# Total GULP energy -148660.597961 kJ/mol
# GULP energy per Si atom -12388.383163 kJ/mol
# Density = 2.166459 g / cm^3
# Si number density = 21.714016 Si / 1000 Ang^3
#
#
#
# Elastic Constant Matrix: (Units=GPa)
#
#
# Indices 1 2 3 4 5 6 
#
# 1 63.1461 5.7134 21.3003 -7.5763 -2.0253 -1.5020
# 2 5.7134 81.5486 36.0030 -6.1798 -7.7736 -9.9111
# 3 21.3003 36.0030 112.8623 -9.4397 -21.9096 -4.3463
# 4 -7.5763 -6.1798 -9.4397 33.3797 -6.0116 -6.8565
# 5 -2.0253 -7.7736 -21.9096 -6.0116 41.9954 4.9259
# 6 -1.5020 -9.9111 -4.3463 -6.8565 4.9259 24.8581
#
#
#
# Elastic Compliance Matrix: (Units=1/GPa)
#
#
# Indices 1 2 3 4 5 6 
#
# 1 0.017296 0.000632 -0.003195 0.003424 -0.000433 0.001769
# 2 0.000632 0.015161 -0.004424 0.002994 0.000244 0.006087
# 3 -0.003195 -0.004424 0.012252 0.002942 0.005859 -0.000164
# 4 0.003424 0.002994 0.002942 0.035368 0.006090 0.010464
# 5 -0.000433 0.000244 0.005859 0.006090 0.028092 -0.002792
# 6 0.001769 0.006087 -0.000164 0.010464 -0.002792 0.046173
#
#
# Mechanical properties :
#
#
# Convention : Reuss Voigt Hill
#
# Bulk Modulus (GPa) = 32.53610 42.62117 37.57863
# Shear Modulus (GPa) = 28.00163 33.01599 30.50881
#
# Velocity S-wave (km/s) = 3.59495 3.90358 3.75244
# Velocity P-wave (km/s) = 5.67873 6.32363 6.00984
#
# Compressibility (1/GPa) = 0.03073509
#
# Stress axis : x y z
#
# Youngs Moduli (GPa) = 57.81680 65.95776 81.62070
#
# Poissons Ratio (x) = -0.04170 0.26082
# Poissons Ratio (y) = -0.03655 0.36106
# Poissons Ratio (z) = 0.18475 0.29177
#
# Static dielectric constant tensor:
#      x y z
#    x 4.133720 0.119570 -0.424070 
#    y 0.119570 4.316750 0.186950 
#    z -0.424070 0.186950 4.098300 
# 
# 
# High freq. dielectric constant tensor:
#      x y z
#    x 1.845120 -0.001970 -0.020840 
#    y -0.001970 1.851060 0.017020 
#    z -0.020840 0.017020 1.859920 
# 
# From -- ./inp_files/145418.got.cif
#   From: 2010.06.25/outbox.cif.g09.slc.cpg/sg2_73_cif.got.tgz:145418.got - 2010.06.27 13:26:56.
