data_PCOD8042192
_publ_section_title
;
Structure prediction by ZEFSAII (Michael W. Deem and Ramdas Pophale) SiO2 
 PCOD8042192
Probable space group: P -1
;
_chemical_formula_sum "Si O2"
_cell_formula_units_Z 16
_cell_length_a 12.248451
_cell_length_b 9.203772
_cell_length_c 12.376410
_cell_angle_alpha 52.409247
_cell_angle_beta 47.441530
_cell_angle_gamma 73.492008
_cell_volume 794.377335
_symmetry_space_group_name_H-M "P -1"
_symmetry_group_IT_number 2
_symmetry_cell_setting 'triclinic'
loop_
_space_group_symop_operation_xyz
x,y,z
-x,-y,-z
loop_
_atom_site_type_symbol
_atom_site_label
_atom_site_fract_x
_atom_site_fract_y
_atom_site_fract_z
Si Si1 0.926465 0.157837 0.534205
Si Si2 0.882536 0.234431 0.152823
Si Si3 0.610305 0.983390 0.337326
Si Si4 0.098901 0.562166 0.748799
Si Si5 0.619201 0.238427 0.768385
Si Si6 0.379903 0.969041 0.930303
Si Si7 0.249770 0.361879 0.581791
Si Si8 0.971089 0.102541 0.768646
O O1 0.971765 0.344142 0.346908
O O2 0.741794 0.122700 0.689717
O O3 0.994181 0.193422 0.592746
O O4 0.000000 0.000000 0.500000
O O5 0.815697 0.282342 0.292165
O O6 0.763135 0.130947 0.194181
O O7 0.999418 0.105326 0.159694
O O8 0.956843 0.429911 0.959704
O O9 0.553650 0.037579 0.232916
O O10 0.633592 0.770971 0.418080
O O11 0.500000 0.000000 0.500000
O O12 0.220997 0.447152 0.678542
O O13 0.463066 0.169642 0.836498
O O14 0.676668 0.463696 0.623862
O O15 0.585808 0.191155 0.939202
O O16 0.198780 0.936060 0.054095
O O17 0.087464 0.246166 0.699939
#
# Coordination Sequence:
#
# PCOD8042192 Si02
#       8
#     2   2   2   2   2   2   2   2
#     4  10  19  34  59  90 116 153 192 242 293 345
#     4  10  21  38  55  89 119 149 193 244 296 341
#     4  11  25  40  59  85 121 159 194 242 300 354
#     4  10  20  35  60  84 119 146 193 248 284 346
#     4   9  22  39  61  89 120 156 195 248 289 351
#     4  10  21  40  61  87 121 157 200 238 302 347
#     4  10  22  40  61  89 116 153 199 246 291 346
#     4  10  20  37  64  85 117 156 198 240 295 349
#
# _framework density 20.141559999999998
#
# number of rings (size 3 to 8) (size 9 to 14) (size 15 to 20)
#    0.000    2.000    1.250    1.500    3.500    8.000 
#    4.500    0.625    0.000    0.000    0.000    0.000 
#    0.000    0.000    0.000    0.000    0.000    0.000 
#
# Total GULP energy -198259.836123 kJ/mol
# GULP energy per Si atom -12391.239758 kJ/mol
# Density = 2.009572 g / cm^3
# Si number density = 20.141560 Si / 1000 Ang^3
#
#
#
# Elastic Constant Matrix: (Units=GPa)
#
#
# Indices 1 2 3 4 5 6 
#
# 1 84.3628 29.3510 48.0299 1.1337 19.9497 10.4591
# 2 29.3510 106.4862 44.5553 5.2304 14.0568 1.2367
# 3 48.0299 44.5553 118.2105 -0.1366 24.4465 3.7684
# 4 1.1337 5.2304 -0.1366 34.0427 10.2537 1.1162
# 5 19.9497 14.0568 24.4465 10.2537 34.8485 5.0760
# 6 10.4591 1.2367 3.7684 1.1162 5.0760 22.9875
#
#
#
# Elastic Compliance Matrix: (Units=1/GPa)
#
#
# Indices 1 2 3 4 5 6 
#
# 1 0.017348 -0.001995 -0.005040 0.001456 -0.005162 -0.005891
# 2 -0.001995 0.011536 -0.003400 -0.001501 -0.000846 0.001104
# 3 -0.005040 -0.003400 0.012932 0.002424 -0.005748 0.001508
# 4 0.001456 -0.001501 0.002424 0.033079 -0.011660 -0.000011
# 5 -0.005162 -0.000846 -0.005748 -0.011660 0.040179 -0.004970
# 6 -0.005891 0.001104 0.001508 -0.000011 -0.004970 0.046973
#
#
# Mechanical properties :
#
#
# Convention : Reuss Voigt Hill
#
# Bulk Modulus (GPa) = 47.73826 61.43687 54.58757
# Shear Modulus (GPa) = 26.32987 30.85062 28.59025
#
# Velocity S-wave (km/s) = 3.61950 3.91793 3.77167
# Velocity P-wave (km/s) = 6.42032 7.14392 6.79177
#
# Compressibility (1/GPa) = 0.02094756
#
# Stress axis : x y z
#
# Youngs Moduli (GPa) = 57.64262 86.68793 77.32669
#
# Poissons Ratio (x) = 0.17291 0.38973
# Poissons Ratio (y) = 0.11498 0.26288
# Poissons Ratio (z) = 0.29052 0.29470
#
# Static dielectric constant tensor:
#      x y z
#    x 4.131440 0.182010 0.117120 
#    y 0.182010 3.752690 0.038440 
#    z 0.117120 0.038440 3.831860 
# 
# 
# High freq. dielectric constant tensor:
#      x y z
#    x 1.780960 0.010400 0.018620 
#    y 0.010400 1.775690 -0.001240 
#    z 0.018620 -0.001240 1.797360 
# 
# From -- ./inp_files/217131.got.cif
#   From: 2010.06.25/outbox.cif.g09.slc.cpg/sg2_109_cif.got.tgz:217131.got - 2010.06.27 13:26:56.
