data_PCOD8042679
_publ_section_title
;
Structure prediction by ZEFSAII (Michael W. Deem and Ramdas Pophale) SiO2 
 PCOD8042679
Probable space group: P -1
;
_chemical_formula_sum "Si O2"
_cell_formula_units_Z 12
_cell_length_a 21.596866
_cell_length_b 9.658915
_cell_length_c 12.083214
_cell_angle_alpha 35.020138
_cell_angle_beta 34.602911
_cell_angle_gamma 25.218346
_cell_volume 580.416487
_symmetry_space_group_name_H-M "P -1"
_symmetry_group_IT_number 2
_symmetry_cell_setting 'triclinic'
loop_
_space_group_symop_operation_xyz
x,y,z
-x,-y,-z
loop_
_atom_site_type_symbol
_atom_site_label
_atom_site_fract_x
_atom_site_fract_y
_atom_site_fract_z
Si Si1 0.292474 0.387350 0.207297
Si Si2 0.028561 0.926429 0.732981
Si Si3 0.738047 0.666487 0.369105
Si Si4 0.156107 0.126507 0.545829
Si Si5 0.512887 0.759682 0.790083
Si Si6 0.821904 0.009477 0.144343
O O1 0.292828 0.111238 0.340212
O O2 0.439812 0.182911 0.203195
O O3 0.129880 0.681160 0.323354
O O4 0.296849 0.583289 0.975804
O O5 0.094129 0.691844 0.681224
O O6 0.165455 0.886120 0.605212
O O7 0.982231 0.804680 0.976228
O O8 0.642425 0.602765 0.608911
O O9 0.749716 0.869204 0.304612
O O10 0.651568 0.884797 0.241265
O O11 0.148311 0.035117 0.740687
O O12 0.000000 0.500000 0.500000
O O13 0.500000 0.500000 0.000000
#
# Coordination Sequence:
#
# PCOD8042679 Si02
#       6
#     2   2   2   2   2   2
#     4   9  20  35  60  81 110 150 190 218 280 334
#     4   9  21  36  56  90 114 142 182 237 279 320
#     4  11  22  37  58  86 116 141 188 243 268 327
#     4  10  19  37  55  85 116 151 179 223 283 342
#     4  11  21  39  57  81 112 156 187 223 287 331
#     4  10  19  35  60  84 114 144 183 230 282 328
#
# _framework density 20.674807999999999
#
# number of rings (size 3 to 8) (size 9 to 14) (size 15 to 20)
#    1.000    1.000    3.333    1.000    0.000    0.667 
#    6.000    0.833    0.000    2.000    0.000    0.000 
#    0.000    0.000    0.000    0.000    0.000    0.000 
#
# Total GULP energy -148693.818345 kJ/mol
# GULP energy per Si atom -12391.151529 kJ/mol
# Density = 2.062775 g / cm^3
# Si number density = 20.674808 Si / 1000 Ang^3
#
#
#
# Elastic Constant Matrix: (Units=GPa)
#
#
# Indices 1 2 3 4 5 6 
#
# 1 92.2684 -6.8954 13.1011 -13.2579 -11.3236 -10.8144
# 2 -6.8954 22.0023 4.5107 -0.3858 1.4151 -2.0138
# 3 13.1011 4.5107 104.2039 -17.9569 -14.0826 5.5326
# 4 -13.2579 -0.3858 -17.9569 14.6423 -0.8874 2.4229
# 5 -11.3236 1.4151 -14.0826 -0.8874 46.0377 -6.8629
# 6 -10.8144 -2.0138 5.5326 2.4229 -6.8629 22.2650
#
#
#
# Elastic Compliance Matrix: (Units=1/GPa)
#
#
# Indices 1 2 3 4 5 6 
#
# 1 0.014477 0.005043 0.000439 0.012836 0.004905 0.007494
# 2 0.005043 0.048336 -0.002955 0.000983 -0.000021 0.007442
# 3 0.000439 -0.002955 0.013504 0.017804 0.004062 -0.004095
# 4 0.012836 0.000983 0.017804 0.103418 0.009614 -0.006391
# 5 0.004905 -0.000021 0.004062 0.009614 0.025580 0.008209
# 6 0.007494 0.007442 -0.004095 -0.006391 0.008209 0.053470
#
#
# Mechanical properties :
#
#
# Convention : Reuss Voigt Hill
#
# Bulk Modulus (GPa) = 12.28965 26.65637 19.47301
# Shear Modulus (GPa) = 17.80278 30.43955 24.12117
#
# Velocity S-wave (km/s) = 2.93761 3.84122 3.41940
# Velocity P-wave (km/s) = 4.17890 5.70916 5.00288
#
# Compressibility (1/GPa) = 0.08136931
#
# Stress axis : x y z
#
# Youngs Moduli (GPa) = 69.07427 20.68862 74.05339
#
# Poissons Ratio (x) = -0.10433 -0.03247
# Poissons Ratio (y) = -0.34832 0.21882
# Poissons Ratio (z) = -0.03029 0.06113
#
# Static dielectric constant tensor:
#      x y z
#    x 4.750110 0.214910 -0.728720 
#    y 0.214910 3.343180 -0.475890 
#    z -0.728720 -0.475890 4.161570 
# 
# 
# High freq. dielectric constant tensor:
#      x y z
#    x 1.820580 -0.010460 -0.012330 
#    y -0.010460 1.748090 -0.023300 
#    z -0.012330 -0.023300 1.820210 
# 
# From -- ./inp_files/108888.got.cif
#   From: 2010.06.25/outbox.cif.g09.slc.cpg/sg2_55_cif.got.tgz:108888.got - 2010.06.27 13:26:56.
