data_PCOD8042152
_publ_section_title
;
Structure prediction by ZEFSAII (Michael W. Deem and Ramdas Pophale) SiO2 
 PCOD8042152
Probable space group: P -1
;
_chemical_formula_sum "Si O2"
_cell_formula_units_Z 16
_cell_length_a 12.441991
_cell_length_b 26.215075
_cell_length_c 21.207319
_cell_angle_alpha 169.547177
_cell_angle_beta 39.477442
_cell_angle_gamma 141.098242
_cell_volume 786.781521
_symmetry_space_group_name_H-M "P -1"
_symmetry_group_IT_number 2
_symmetry_cell_setting 'triclinic'
loop_
_space_group_symop_operation_xyz
x,y,z
-x,-y,-z
loop_
_atom_site_type_symbol
_atom_site_label
_atom_site_fract_x
_atom_site_fract_y
_atom_site_fract_z
Si Si1 0.348380 0.175983 0.117738
Si Si2 0.609646 0.163444 0.093285
Si Si3 0.989967 0.171879 0.091117
Si Si4 0.027123 0.943458 0.188446
Si Si5 0.476923 0.897571 0.304515
Si Si6 0.239247 0.702010 0.271987
Si Si7 0.254417 0.393249 0.012911
Si Si8 0.335529 0.993441 0.762771
O O1 0.508079 0.140867 0.046503
O O2 0.332912 0.504590 0.511409
O O3 0.383810 0.033469 0.862232
O O4 0.177893 0.015283 0.031586
O O5 0.775994 0.012867 0.825884
O O6 0.500000 0.000000 0.000000
O O7 0.000000 0.500000 0.500000
O O8 0.989200 0.144560 0.983716
O O9 0.147345 0.059741 0.916267
O O10 0.947971 0.234982 0.587711
O O11 0.923800 0.702012 0.986346
O O12 0.354464 0.638574 0.081656
O O13 0.659593 0.998962 0.380076
O O14 0.521745 0.806069 0.102029
O O15 0.380144 0.167740 0.680415
O O16 0.212129 0.448796 0.026461
O O17 0.350101 0.674594 0.346595
#
# Coordination Sequence:
#
# PCOD8042152 Si02
#       8
#     2   2   2   2   2   2   2   2
#     4  11  25  41  59  83 120 164 204 250 286 348
#     4  11  24  43  61  80 114 162 223 247 277 343
#     4  12  22  36  57  90 128 154 188 244 307 364
#     4  11  20  34  58  82 112 155 192 241 294 342
#     4   9  18  32  53  87 121 151 188 236 304 365
#     4   9  17  31  50  81 116 145 188 232 288 354
#     4  10  19  34  58  90 119 152 191 240 305 367
#     4  11  20  36  56  86 124 153 187 241 310 358
#
# _framework density 20.336013999999999
#
# number of rings (size 3 to 8) (size 9 to 14) (size 15 to 20)
#    0.000    1.500    3.750    4.125    0.000    0.000 
#    2.250    0.000    0.000    3.000    0.000    7.875 
#    0.000    0.000    0.000    0.000    0.000    0.000 
#
# Total GULP energy -198330.459459 kJ/mol
# GULP energy per Si atom -12395.653716 kJ/mol
# Density = 2.028973 g / cm^3
# Si number density = 20.336014 Si / 1000 Ang^3
#
#
#
# Elastic Constant Matrix: (Units=GPa)
#
#
# Indices 1 2 3 4 5 6 
#
# 1 102.0307 52.2388 17.8887 -6.4534 -12.0169 -0.7128
# 2 52.2388 168.8574 26.7110 -3.4485 -1.0179 -16.4545
# 3 17.8887 26.7110 34.4544 6.4877 -6.4475 5.5015
# 4 -6.4534 -3.4485 6.4877 30.8417 -2.4027 -8.8393
# 5 -12.0169 -1.0179 -6.4475 -2.4027 21.0359 -3.2606
# 6 -0.7128 -16.4545 5.5015 -8.8393 -3.2606 38.6920
#
#
#
# Elastic Compliance Matrix: (Units=1/GPa)
#
#
# Indices 1 2 3 4 5 6 
#
# 1 0.013222 -0.003247 -0.003987 0.004035 0.006778 0.000923
# 2 -0.003247 0.008520 -0.006715 0.002928 -0.002393 0.004985
# 3 -0.003987 -0.006715 0.041872 -0.013082 0.006988 -0.011282
# 4 0.004035 0.002928 -0.013082 0.040420 0.005044 0.012839
# 5 0.006778 -0.002393 0.006988 0.005044 0.054612 0.003868
# 6 0.000923 0.004985 -0.011282 0.012839 0.003868 0.032845
#
#
# Mechanical properties :
#
#
# Convention : Reuss Voigt Hill
#
# Bulk Modulus (GPa) = 27.99706 55.44663 41.72184
# Shear Modulus (GPa) = 21.61763 32.01419 26.81591
#
# Velocity S-wave (km/s) = 3.26394 3.97200 3.63525
# Velocity P-wave (km/s) = 5.29165 6.95415 6.17906
#
# Compressibility (1/GPa) = 0.03571804
#
# Stress axis : x y z
#
# Youngs Moduli (GPa) = 75.63067 117.37155 23.88233
#
# Poissons Ratio (x) = 0.38107 0.09521
# Poissons Ratio (y) = 0.24555 0.16036
# Poissons Ratio (z) = 0.30151 0.78812
#
# Static dielectric constant tensor:
#      x y z
#    x 3.883000 -0.229230 -0.207510 
#    y -0.229230 4.392410 -0.096850 
#    z -0.207510 -0.096850 3.419370 
# 
# 
# High freq. dielectric constant tensor:
#      x y z
#    x 1.791320 -0.019990 -0.035800 
#    y -0.019990 1.824110 -0.016360 
#    z -0.035800 -0.016360 1.753500 
# 
# From -- ./inp_files/596465.got.cif
#   From: 2010.06.25/outbox.cif.g09.slc.cpg/sg2_299_cif.got.tgz:596465.got - 2010.06.27 13:26:56.
