data_PCOD8042277
_publ_section_title
;
Structure prediction by ZEFSAII (Michael W. Deem and Ramdas Pophale) SiO2 
 PCOD8042277
Probable space group: P -1
;
_chemical_formula_sum "Si O2"
_cell_formula_units_Z 16
_cell_length_a 12.185390
_cell_length_b 9.082622
_cell_length_c 9.842357
_cell_angle_alpha 48.075031
_cell_angle_beta 79.128475
_cell_angle_gamma 95.442268
_cell_volume 758.687547
_symmetry_space_group_name_H-M "P -1"
_symmetry_group_IT_number 2
_symmetry_cell_setting 'triclinic'
loop_
_space_group_symop_operation_xyz
x,y,z
-x,-y,-z
loop_
_atom_site_type_symbol
_atom_site_label
_atom_site_fract_x
_atom_site_fract_y
_atom_site_fract_z
Si Si1 0.838080 0.039796 0.619603
Si Si2 0.613785 0.809073 0.671986
Si Si3 0.226691 0.817104 0.181553
Si Si4 0.382072 0.210765 0.759888
Si Si5 0.867033 0.356661 0.953039
Si Si6 0.004089 0.778887 0.760719
Si Si7 0.609609 0.111121 0.252686
Si Si8 0.382862 0.515697 0.349685
O O1 0.825240 0.189675 0.651778
O O2 0.878436 0.163817 0.393474
O O3 0.714028 0.865115 0.729823
O O4 0.946434 0.959692 0.686850
O O5 0.484294 0.759215 0.799827
O O6 0.627580 0.614385 0.705820
O O7 0.627437 0.014156 0.452143
O O8 0.318657 0.688107 0.240483
O O9 0.123362 0.704230 0.169383
O O10 0.284140 0.057446 0.972956
O O11 0.329362 0.357456 0.585027
O O12 0.480816 0.363031 0.735142
O O13 0.437285 0.073042 0.733212
O O14 0.732806 0.265084 0.084105
O O15 0.959069 0.275555 0.066320
O O16 0.903924 0.601550 0.816071
#
# Coordination Sequence:
#
# PCOD8042277 Si02
#       8
#     2   2   2   2   2   2   2   2
#     4  11  23  41  62  93 121 165 206 257 312 371
#     4  10  19  34  61  94 123 162 203 248 310 372
#     4  11  23  39  63  92 124 161 208 261 312 368
#     4   9  20  38  56  88 130 170 201 250 310 369
#     4  10  21  43  63  92 119 164 207 259 310 366
#     4  10  23  43  65  83 125 162 211 259 306 366
#     4   9  18  35  62  89 125 160 201 252 310 369
#     4  10  20  37  60  89 131 171 203 249 308 376
#
# _framework density 21.08905
#
# number of rings (size 3 to 8) (size 9 to 14) (size 15 to 20)
#    0.000    2.000    1.250    1.875    0.000    4.000 
#    4.500    3.750    0.000    0.000    0.000    0.000 
#    0.000    0.000    0.000    0.000    0.000    0.000 
#
# Total GULP energy -198369.174225 kJ/mol
# GULP energy per Si atom -12398.073389 kJ/mol
# Density = 2.104105 g / cm^3
# Si number density = 21.089050 Si / 1000 Ang^3
#
#
#
# Elastic Constant Matrix: (Units=GPa)
#
#
# Indices 1 2 3 4 5 6 
#
# 1 80.8203 46.1218 13.0844 7.3555 -4.5969 8.8005
# 2 46.1218 114.2500 17.2817 15.2746 1.5186 13.5557
# 3 13.0844 17.2817 37.3520 -7.6273 12.1214 0.1867
# 4 7.3555 15.2746 -7.6273 34.1170 5.5676 0.4540
# 5 -4.5969 1.5186 12.1214 5.5676 19.7810 3.3287
# 6 8.8005 13.5557 0.1867 0.4540 3.3287 31.5100
#
#
#
# Elastic Compliance Matrix: (Units=1/GPa)
#
#
# Indices 1 2 3 4 5 6 
#
# 1 0.018458 -0.004848 -0.009650 -0.006030 0.012995 -0.004298
# 2 -0.004848 0.013407 -0.007837 -0.007557 0.005589 -0.004849
# 3 -0.009650 -0.007837 0.052300 0.024022 -0.042110 0.009859
# 4 -0.006030 -0.007557 0.024022 0.044026 -0.029151 0.007238
# 5 0.012995 0.005589 -0.042110 -0.029151 0.089650 -0.014835
# 6 -0.004298 -0.004849 0.009859 0.007238 -0.014835 0.036427
#
#
# Mechanical properties :
#
#
# Convention : Reuss Voigt Hill
#
# Bulk Modulus (GPa) = 25.31999 42.82200 34.07099
# Shear Modulus (GPa) = 16.02036 27.47723 21.74880
#
# Velocity S-wave (km/s) = 2.75917 3.61351 3.21484
# Velocity P-wave (km/s) = 4.70988 6.14486 5.47459
#
# Compressibility (1/GPa) = 0.03949449
#
# Stress axis : x y z
#
# Youngs Moduli (GPa) = 54.17661 74.58906 19.12041
#
# Poissons Ratio (x) = 0.36164 0.18450
# Poissons Ratio (y) = 0.26267 0.14985
# Poissons Ratio (z) = 0.52278 0.58457
#
# Static dielectric constant tensor:
#      x y z
#    x 3.578900 0.149020 0.061850 
#    y 0.149020 3.931130 0.074930 
#    z 0.061850 0.074930 3.938980 
# 
# 
# High freq. dielectric constant tensor:
#      x y z
#    x 1.812720 0.012900 0.011380 
#    y 0.012900 1.828390 0.001850 
#    z 0.011380 0.001850 1.825580 
# 
# From -- ./inp_files/242125.got.cif
#   From: 2010.06.25/outbox.cif.g09.slc.cpg/sg2_122_cif.got.tgz:242125.got - 2010.06.27 13:26:56.
