data_PCOD8042230
_publ_section_title
;
Structure prediction by ZEFSAII (Michael W. Deem and Ramdas Pophale) SiO2 
 PCOD8042230
Probable space group: P -1
;
_chemical_formula_sum "Si O2"
_cell_formula_units_Z 16
_cell_length_a 11.553210
_cell_length_b 19.574962
_cell_length_c 9.698673
_cell_angle_alpha 129.275245
_cell_angle_beta 91.746139
_cell_angle_gamma 44.724669
_cell_volume 762.747445
_symmetry_space_group_name_H-M "P -1"
_symmetry_group_IT_number 2
_symmetry_cell_setting 'triclinic'
loop_
_space_group_symop_operation_xyz
x,y,z
-x,-y,-z
loop_
_atom_site_type_symbol
_atom_site_label
_atom_site_fract_x
_atom_site_fract_y
_atom_site_fract_z
Si Si1 0.865948 0.484490 0.545088
Si Si2 0.367524 0.423948 0.090261
Si Si3 0.417496 0.545688 0.780402
Si Si4 0.141948 0.323216 0.094942
Si Si5 0.861308 0.198388 0.153269
Si Si6 0.104496 0.635474 0.067782
Si Si7 0.343588 0.950809 0.311260
Si Si8 0.706246 0.109271 0.031677
O O1 0.809763 0.449029 0.614370
O O2 0.954737 0.511715 0.665311
O O3 0.083908 0.307563 0.215496
O O4 0.603240 0.681098 0.698751
O O5 0.558664 0.377516 0.040270
O O6 0.186762 0.548214 0.109917
O O7 0.528047 0.223563 0.839060
O O8 0.689367 0.333946 0.455059
O O9 0.203979 0.693543 0.839038
O O10 0.339376 0.524057 0.858219
O O11 0.441905 0.120201 0.804693
O O12 0.977712 0.395702 0.056733
O O13 0.807674 0.135762 0.021166
O O14 0.158375 0.009598 0.970472
O O15 0.865694 0.866261 0.359922
O O16 0.208020 0.016463 0.246478
#
# Coordination Sequence:
#
# PCOD8042230 Si02
#       8
#     2   2   2   2   2   2   2   2
#     4   9  18  39  67  88 117 154 197 253 299 339
#     4  10  22  41  61  86 125 160 193 243 304 351
#     4  11  22  37  57  88 123 158 196 243 298 352
#     4   9  20  39  65  87 117 154 203 251 292 344
#     4  10  19  34  60  87 117 153 198 247 293 349
#     4  12  24  38  61  91 121 164 198 238 294 367
#     4  10  22  42  60  84 125 159 196 250 295 350
#     4   9  17  35  59  86 116 152 193 246 296 345
#
# _framework density 20.976800000000001
#
# number of rings (size 3 to 8) (size 9 to 14) (size 15 to 20)
#    0.000    2.250    2.500    2.250    1.750    2.500 
#    6.750    0.625    5.500    0.000    0.000    0.000 
#    0.000    0.000    0.000    0.000    0.000    0.000 
#
# Total GULP energy -198331.629970 kJ/mol
# GULP energy per Si atom -12395.726873 kJ/mol
# Density = 2.092906 g / cm^3
# Si number density = 20.976800 Si / 1000 Ang^3
#
#
#
# Elastic Constant Matrix: (Units=GPa)
#
#
# Indices 1 2 3 4 5 6 
#
# 1 99.5128 52.8309 24.0904 -2.9329 -4.2092 -24.8194
# 2 52.8309 122.4142 29.6372 -7.4351 -1.8879 -13.3735
# 3 24.0904 29.6372 66.9799 -7.1617 -4.6878 -9.6866
# 4 -2.9329 -7.4351 -7.1617 19.4075 2.0174 4.9284
# 5 -4.2092 -1.8879 -4.6878 2.0174 21.5306 -6.8814
# 6 -24.8194 -13.3735 -9.6866 4.9284 -6.8814 28.3310
#
#
#
# Elastic Compliance Matrix: (Units=1/GPa)
#
#
# Indices 1 2 3 4 5 6 
#
# 1 0.017235 -0.005633 -0.001561 -0.004619 0.007622 0.014561
# 2 -0.005633 0.011315 -0.002990 0.002915 -0.001509 -0.001489
# 3 -0.001561 -0.002990 0.018066 0.003900 0.004195 0.003738
# 4 -0.004619 0.002915 0.003900 0.057873 -0.009612 -0.013739
# 5 0.007622 -0.001509 0.004195 -0.009612 0.056937 0.022901
# 6 0.014561 -0.001489 0.003738 -0.013739 0.022901 0.056581
#
#
# Mechanical properties :
#
#
# Convention : Reuss Voigt Hill
#
# Bulk Modulus (GPa) = 38.09807 55.78044 46.93926
# Shear Modulus (GPa) = 20.23281 26.01037 23.12159
#
# Velocity S-wave (km/s) = 3.10906 3.52513 3.32361
# Velocity P-wave (km/s) = 5.57582 6.57403 6.09540
#
# Compressibility (1/GPa) = 0.02624805
#
# Stress axis : x y z
#
# Youngs Moduli (GPa) = 58.02092 88.37955 55.35375
#
# Poissons Ratio (x) = 0.49780 0.08642
# Poissons Ratio (y) = 0.32680 0.16551
# Poissons Ratio (z) = 0.09058 0.26426
#
# Static dielectric constant tensor:
#      x y z
#    x 3.900320 -0.149000 -0.031770 
#    y -0.149000 3.699400 -0.151690 
#    z -0.031770 -0.151690 3.671910 
# 
# 
# High freq. dielectric constant tensor:
#      x y z
#    x 1.826830 -0.019100 0.005390 
#    y -0.019100 1.809290 -0.014930 
#    z 0.005390 -0.014930 1.802990 
# 
# From -- ./inp_files/283255.got.cif
#   From: 2010.06.25/outbox.cif.g09.slc.cpg/sg2_142_cif.got.tgz:283255.got - 2010.06.27 13:26:56.
