data_PCOD8042592
_publ_section_title
;
Structure prediction by ZEFSAII (Michael W. Deem and Ramdas Pophale) SiO2 
 PCOD8042592
Probable space group: P -1
;
_chemical_formula_sum "Si O2"
_cell_formula_units_Z 16
_cell_length_a 11.123002
_cell_length_b 13.611584
_cell_length_c 15.541603
_cell_angle_alpha 57.308132
_cell_angle_beta 44.180784
_cell_angle_gamma 29.946457
_cell_volume 795.958425
_symmetry_space_group_name_H-M "P -1"
_symmetry_group_IT_number 2
_symmetry_cell_setting 'triclinic'
loop_
_space_group_symop_operation_xyz
x,y,z
-x,-y,-z
loop_
_atom_site_type_symbol
_atom_site_label
_atom_site_fract_x
_atom_site_fract_y
_atom_site_fract_z
Si Si1 0.838003 0.776266 0.449451
Si Si2 0.238101 0.837417 0.881679
Si Si3 0.592364 0.111657 0.824204
Si Si4 0.263926 0.557865 0.949584
Si Si5 0.914081 0.702034 0.897454
Si Si6 0.844765 0.599188 0.219708
Si Si7 0.118717 0.857468 0.229125
Si Si8 0.105225 0.448114 0.334550
O O1 0.870000 0.685950 0.562991
O O2 0.029486 0.787898 0.355423
O O3 0.974887 0.625979 0.372684
O O4 0.500000 0.000000 0.500000
O O5 0.251134 0.692018 0.933812
O O6 0.568178 0.701102 0.800746
O O7 0.147548 0.947316 0.785995
O O8 0.000000 0.000000 0.000000
O O9 0.495840 0.186022 0.738877
O O10 0.819419 0.083098 0.755463
O O11 0.712309 0.916002 0.862578
O O12 0.285444 0.286257 0.956530
O O13 0.597165 0.321513 0.893668
O O14 0.160033 0.619804 0.874172
O O15 0.050147 0.597940 0.098469
O O16 0.058642 0.568047 0.802801
O O17 0.866833 0.558185 0.328448
#
# Coordination Sequence:
#
# PCOD8042592 Si02
#       8
#     2   2   2   2   2   2   2   2
#     4  11  25  46  68  85 119 177 224 259 308 363
#     4  12  26  37  63 103 133 161 206 263 323 385
#     4  10  20  34  60  94 123 169 206 249 313 387
#     4  11  21  37  61  96 132 168 202 253 318 390
#     4  10  19  35  58  91 132 167 200 243 320 391
#     4  11  22  37  62  92 133 161 198 259 327 375
#     4  12  21  40  66  88 122 167 217 259 306 370
#     4  11  26  44  63  94 125 167 216 263 313 377
#
# _framework density 20.101552000000002
#
# number of rings (size 3 to 8) (size 9 to 14) (size 15 to 20)
#    0.000    1.000    6.250    1.500    1.750    2.000 
#    0.000    0.625    0.000    1.500    0.000    0.000 
#    0.000    0.000    0.000    0.000    0.000    0.000 
#
# Total GULP energy -198441.032009 kJ/mol
# GULP energy per Si atom -12402.564501 kJ/mol
# Density = 2.005580 g / cm^3
# Si number density = 20.101552 Si / 1000 Ang^3
#
#
#
# Elastic Constant Matrix: (Units=GPa)
#
#
# Indices 1 2 3 4 5 6 
#
# 1 106.0303 29.4399 28.3765 -22.7416 6.3626 -13.1354
# 2 29.4399 84.8313 16.5248 -12.6409 7.4073 -14.6710
# 3 28.3765 16.5248 59.0603 -11.6495 2.6568 0.5733
# 4 -22.7416 -12.6409 -11.6495 30.1798 -1.1866 -0.4964
# 5 6.3626 7.4073 2.6568 -1.1866 28.6858 -7.9252
# 6 -13.1354 -14.6710 0.5733 -0.4964 -7.9252 38.1193
#
#
#
# Elastic Compliance Matrix: (Units=1/GPa)
#
#
# Indices 1 2 3 4 5 6 
#
# 1 0.013265 -0.001902 -0.004359 0.007554 -0.000667 0.003864
# 2 -0.001902 0.014403 -0.002357 0.003701 -0.001647 0.004629
# 3 -0.004359 -0.002357 0.020455 0.003539 -0.000966 -0.002871
# 4 0.007554 0.003701 0.003539 0.041818 0.000020 0.004523
# 5 -0.000667 -0.001647 -0.000966 0.000020 0.037440 0.006935
# 6 0.003864 0.004629 -0.002871 0.004523 0.006935 0.030890
#
#
# Mechanical properties :
#
#
# Convention : Reuss Voigt Hill
#
# Bulk Modulus (GPa) = 32.37557 44.28935 38.33246
# Shear Modulus (GPa) = 26.91031 31.10236 29.00633
#
# Velocity S-wave (km/s) = 3.66282 3.93779 3.80279
# Velocity P-wave (km/s) = 5.83346 6.53877 6.19616
#
# Compressibility (1/GPa) = 0.03088748
#
# Stress axis : x y z
#
# Youngs Moduli (GPa) = 75.38782 69.42878 48.88824
#
# Poissons Ratio (x) = 0.13207 0.21308
# Poissons Ratio (y) = 0.14341 0.11522
# Poissons Ratio (z) = 0.32858 0.16363
#
# Static dielectric constant tensor:
#      x y z
#    x 3.688840 -0.140900 -0.099970 
#    y -0.140900 3.918280 -0.045760 
#    z -0.099970 -0.045760 3.402270 
# 
# 
# High freq. dielectric constant tensor:
#      x y z
#    x 1.788610 -0.003140 -0.008570 
#    y -0.003140 1.812460 -0.009020 
#    z -0.008570 -0.009020 1.745750 
# 
# From -- ./inp_files/436076.got.cif
#   From: 2010.06.25/outbox.cif.g09.slc.cpg/sg2_219_cif.got.tgz:436076.got - 2010.06.27 13:26:56.
