data_PCOD8042047
_publ_section_title
;
Structure prediction by ZEFSAII (Michael W. Deem and Ramdas Pophale) SiO2 
 PCOD8042047
Probable space group: P -1
;
_chemical_formula_sum "Si O2"
_cell_formula_units_Z 12
_cell_length_a 14.900164
_cell_length_b 8.858947
_cell_length_c 8.553638
_cell_angle_alpha 92.108324
_cell_angle_beta 71.756018
_cell_angle_gamma 144.109978
_cell_volume 578.993556
_symmetry_space_group_name_H-M "P -1"
_symmetry_group_IT_number 2
_symmetry_cell_setting 'triclinic'
loop_
_space_group_symop_operation_xyz
x,y,z
-x,-y,-z
loop_
_atom_site_type_symbol
_atom_site_label
_atom_site_fract_x
_atom_site_fract_y
_atom_site_fract_z
Si Si1 0.386658 0.068994 0.782776
Si Si2 0.772486 0.286725 0.862369
Si Si3 0.832001 0.953855 0.080963
Si Si4 0.921808 0.516518 0.237021
Si Si5 0.884637 0.751001 0.846161
Si Si6 0.761454 0.466287 0.599652
O O1 0.584655 0.308576 0.630800
O O2 0.343101 0.188473 0.786916
O O3 0.258521 0.794841 0.738542
O O4 0.367437 0.001224 0.976171
O O5 0.791658 0.473194 0.950043
O O6 0.712757 0.246202 0.715063
O O7 0.960551 0.458015 0.753037
O O8 0.914021 0.981199 0.190170
O O9 0.970029 0.262899 0.953373
O O10 0.787258 0.767593 0.967717
O O11 0.880832 0.588804 0.391084
O O12 0.872028 0.729291 0.662487
#
# Coordination Sequence:
#
# PCOD8042047 Si02
#       6
#     2   2   2   2   2   2
#     4  11  18  33  52  76  96 128 163 200 240 285
#     4   9  18  34  51  72  95 130 169 190 235 288
#     4  10  19  34  57  67  95 131 173 195 226 297
#     4  11  18  33  52  76  96 128 163 200 240 285
#     4   9  19  35  51  73  93 134 165 196 237 286
#     4  10  21  30  51  75 107 119 157 205 252 279
#
# _framework density 20.725618999999998
#
# number of rings (size 3 to 8) (size 9 to 14) (size 15 to 20)
#    1.000    1.000    3.333    2.500    0.000    1.333 
#    0.000    0.000    0.000    4.000    0.000    0.000 
#    0.000    0.000    0.000    0.000    0.000    0.000 
#
# Total GULP energy -148683.908762 kJ/mol
# GULP energy per Si atom -12390.325730 kJ/mol
# Density = 2.067845 g / cm^3
# Si number density = 20.725619 Si / 1000 Ang^3
#
#
#
# Elastic Constant Matrix: (Units=GPa)
#
#
# Indices 1 2 3 4 5 6 
#
# 1 115.0500 37.7949 20.0928 10.7727 -27.8349 6.2738
# 2 37.7949 56.1324 16.8942 24.3955 -17.2382 -0.9289
# 3 20.0928 16.8942 44.9452 17.4168 -17.0725 10.9310
# 4 10.7727 24.3955 17.4168 28.1220 -5.5095 -2.6592
# 5 -27.8349 -17.2382 -17.0725 -5.5095 22.5393 4.9667
# 6 6.2738 -0.9289 10.9310 -2.6592 4.9667 27.9014
#
#
#
# Elastic Compliance Matrix: (Units=1/GPa)
#
#
# Indices 1 2 3 4 5 6 
#
# 1 0.015152 -0.004272 0.007177 -0.003151 0.022459 -0.010659
# 2 -0.004272 0.044936 0.020203 -0.044109 0.037201 -0.016285
# 3 0.007177 0.020203 0.075005 -0.056069 0.078356 -0.049618
# 4 -0.003151 -0.044109 -0.056069 0.101081 -0.064722 0.042361
# 5 0.022459 0.037201 0.078356 -0.064722 0.159297 -0.069034
# 6 -0.010659 -0.016285 -0.049618 0.042361 -0.069034 0.073460
#
#
# Mechanical properties :
#
#
# Convention : Reuss Voigt Hill
#
# Bulk Modulus (GPa) = 5.51543 40.63236 23.07390
# Shear Modulus (GPa) = 10.34874 25.13560 17.74217
#
# Velocity S-wave (km/s) = 2.23697 3.48628 2.92901
# Velocity P-wave (km/s) = 3.05598 5.98773 4.75352
#
# Compressibility (1/GPa) = 0.18130956
#
# Stress axis : x y z
#
# Youngs Moduli (GPa) = 65.99863 22.25410 13.33241
#
# Poissons Ratio (x) = 0.09506 -0.09568
# Poissons Ratio (y) = 0.28191 -0.26936
# Poissons Ratio (z) = -0.47366 -0.44960
#
# Static dielectric constant tensor:
#      x y z
#    x 4.016670 -0.000670 -0.043070 
#    y -0.000670 3.327500 0.294530 
#    z -0.043070 0.294530 3.346210 
# 
# 
# High freq. dielectric constant tensor:
#      x y z
#    x 1.828640 0.001520 -0.006480 
#    y 0.001520 1.778880 0.028930 
#    z -0.006480 0.028930 1.772660 
# 
# From -- ./inp_files/145912.got.cif
#   From: 2010.06.25/outbox.cif.g09.slc.cpg/sg2_73_cif.got.tgz:145912.got - 2010.06.27 13:26:56.
