data_PCOD8042967
_publ_section_title
;
Structure prediction by ZEFSAII (Michael W. Deem and Ramdas Pophale) SiO2 
 PCOD8042967
Probable space group: P -1
;
_chemical_formula_sum "Si O2"
_cell_formula_units_Z 16
_cell_length_a 8.962509
_cell_length_b 13.880342
_cell_length_c 9.495162
_cell_angle_alpha 43.966144
_cell_angle_beta 106.340322
_cell_angle_gamma 108.401235
_cell_volume 775.482803
_symmetry_space_group_name_H-M "P -1"
_symmetry_group_IT_number 2
_symmetry_cell_setting 'triclinic'
loop_
_space_group_symop_operation_xyz
x,y,z
-x,-y,-z
loop_
_atom_site_type_symbol
_atom_site_label
_atom_site_fract_x
_atom_site_fract_y
_atom_site_fract_z
Si Si1 0.762494 0.861582 0.520995
Si Si2 0.109068 0.848572 0.665346
Si Si3 0.347923 0.390818 0.034445
Si Si4 0.088489 0.573867 0.813991
Si Si5 0.254734 0.279936 0.840120
Si Si6 0.125439 0.496794 0.417575
Si Si7 0.909741 0.207749 0.955853
Si Si8 0.338753 0.057764 0.883872
O O1 0.683690 0.727066 0.729769
O O2 0.665110 0.861840 0.350531
O O3 0.945570 0.862634 0.529185
O O4 0.762533 0.007502 0.455869
O O5 0.180065 0.727538 0.726755
O O6 0.058897 0.806531 0.855766
O O7 0.500000 0.500000 0.000000
O O8 0.205634 0.477264 0.885750
O O9 0.368127 0.320501 0.962326
O O10 0.958384 0.590806 0.644584
O O11 0.000000 0.500000 0.000000
O O12 0.262749 0.415861 0.595723
O O13 0.324115 0.159721 0.903044
O O14 0.075535 0.227902 0.897464
O O15 0.185578 0.660564 0.222515
O O16 0.000000 0.500000 0.500000
O O17 0.804495 0.071311 0.006551
O O18 0.500000 0.000000 0.000000
#
# Coordination Sequence:
#
# PCOD8042967 Si02
#       8
#     2   2   2   2   2   2   2   2
#     4  10  21  43  63  92 123 166 215 257 316 374
#     4  10  19  35  71  95 120 158 223 267 295 364
#     4  12  26  43  63  93 134 167 207 262 325 380
#     4  12  19  38  66  97 124 164 216 260 304 376
#     4  11  22  44  63  93 126 168 213 262 312 380
#     4  10  19  36  63  95 127 156 212 259 307 363
#     4  10  19  40  67  93 126 163 209 261 309 376
#     4  11  26  42  63  92 130 165 209 260 324 381
#
# _framework density 20.632307999999998
#
# number of rings (size 3 to 8) (size 9 to 14) (size 15 to 20)
#    0.000    1.250    6.250    1.125    0.000    3.000 
#    4.500    2.500    0.000    0.000    0.000    0.000 
#    0.000    0.000    0.000    0.000    0.000    0.000 
#
# Total GULP energy -198368.536818 kJ/mol
# GULP energy per Si atom -12398.033551 kJ/mol
# Density = 2.058535 g / cm^3
# Si number density = 20.632308 Si / 1000 Ang^3
#
#
#
# Elastic Constant Matrix: (Units=GPa)
#
#
# Indices 1 2 3 4 5 6 
#
# 1 55.9073 45.3595 39.3424 3.9848 8.9881 -4.2528
# 2 45.3595 176.7263 61.8360 0.3910 -1.7343 -15.0476
# 3 39.3424 61.8360 125.0233 2.0647 9.3859 3.5995
# 4 3.9848 0.3910 2.0647 43.5704 3.1076 2.6315
# 5 8.9881 -1.7343 9.3859 3.1076 21.3288 -4.8881
# 6 -4.2528 -15.0476 3.5995 2.6315 -4.8881 35.7337
#
#
#
# Elastic Compliance Matrix: (Units=1/GPa)
#
#
# Indices 1 2 3 4 5 6 
#
# 1 0.027571 -0.005250 -0.005364 -0.001580 -0.009352 0.000448
# 2 -0.005250 0.008452 -0.003027 -0.000058 0.005145 0.003947
# 3 -0.005364 -0.003027 0.011581 0.000475 -0.003990 -0.003660
# 4 -0.001580 -0.000058 0.000475 0.023475 -0.003535 -0.002472
# 5 -0.009352 0.005145 -0.003990 -0.003535 0.055653 0.009328
# 6 0.000448 0.003947 -0.003660 -0.002472 0.009328 0.031527
#
#
# Mechanical properties :
#
#
# Convention : Reuss Voigt Hill
#
# Bulk Modulus (GPa) = 49.20923 72.30365 60.75644
# Shear Modulus (GPa) = 25.99896 34.20119 30.10008
#
# Velocity S-wave (km/s) = 3.55365 4.07584 3.82367
# Velocity P-wave (km/s) = 6.38281 7.56769 7.00037
#
# Compressibility (1/GPa) = 0.02032139
#
# Stress axis : x y z
#
# Youngs Moduli (GPa) = 36.26976 118.31821 86.34931
#
# Poissons Ratio (x) = 0.62114 0.46321
# Poissons Ratio (y) = 0.19041 0.26139
# Poissons Ratio (z) = 0.19456 0.35817
#
# Static dielectric constant tensor:
#      x y z
#    x 3.165650 -0.085480 0.138570 
#    y -0.085480 4.169480 -0.372880 
#    z 0.138570 -0.372880 4.383200 
# 
# 
# High freq. dielectric constant tensor:
#      x y z
#    x 1.757210 -0.011150 0.007940 
#    y -0.011150 1.828430 -0.003520 
#    z 0.007940 -0.003520 1.824370 
# 
# From -- ./inp_files/199796.got.cif
#   From: 2010.06.25/outbox.cif.g09.slc.cpg/sg2_100_cif.got.tgz:199796.got - 2010.06.27 13:26:56.
