data_PCOD8042041
_publ_section_title
;
Structure prediction by ZEFSAII (Michael W. Deem and Ramdas Pophale) SiO2 
 PCOD8042041
Probable space group: P -1
;
_chemical_formula_sum "Si O2"
_cell_formula_units_Z 16
_cell_length_a 15.767810
_cell_length_b 15.645991
_cell_length_c 24.886437
_cell_angle_alpha 160.910423
_cell_angle_beta 25.658991
_cell_angle_gamma 154.170385
_cell_volume 817.379275
_symmetry_space_group_name_H-M "P -1"
_symmetry_group_IT_number 2
_symmetry_cell_setting 'triclinic'
loop_
_space_group_symop_operation_xyz
x,y,z
-x,-y,-z
loop_
_atom_site_type_symbol
_atom_site_label
_atom_site_fract_x
_atom_site_fract_y
_atom_site_fract_z
Si Si1 0.859868 0.188192 0.048144
Si Si2 0.159577 0.752616 0.025615
Si Si3 0.386779 0.236421 0.251603
Si Si4 0.752015 0.554279 0.403199
Si Si5 0.416444 0.815913 0.626568
Si Si6 0.795551 0.237926 0.712694
Si Si7 0.410727 0.998109 0.206495
Si Si8 0.141350 0.153889 0.962335
O O1 0.938378 0.229512 0.966412
O O2 0.809334 0.466665 0.259666
O O3 0.631474 0.950236 0.044198
O O4 0.023725 0.118429 0.951164
O O5 0.379235 0.703544 0.866864
O O6 0.000000 0.500000 0.000000
O O7 0.210739 0.060644 0.205601
O O8 0.377955 0.541529 0.449371
O O9 0.325128 0.030439 0.215957
O O10 0.698010 0.278264 0.307014
O O11 0.578388 0.708709 0.594604
O O12 0.970504 0.770122 0.430217
O O13 0.657110 0.987359 0.605248
O O14 0.323818 0.025095 0.773270
O O15 0.734715 0.233743 0.808879
O O16 0.771493 0.525718 0.878439
O O17 0.000000 0.000000 0.000000
#
# Coordination Sequence:
#
# PCOD8042041 Si02
#       8
#     2   2   2   2   2   2   2   2
#     4  10  20  35  60  84 115 161 187 239 297 339
#     4  10  22  41  62  83 116 152 201 243 299 344
#     4   9  23  38  60  88 115 152 193 252 293 338
#     4  10  20  33  54  91 124 143 186 240 299 363
#     4  11  21  39  58  85 126 155 192 242 287 351
#     4  11  21  31  57  87 121 162 186 222 300 357
#     4  10  19  34  56  89 123 145 186 241 304 358
#     4  11  21  39  55  88 127 155 199 232 283 360
#
# _framework density 19.574755
#
# number of rings (size 3 to 8) (size 9 to 14) (size 15 to 20)
#    0.000    1.750    3.750    1.125    7.000    2.000 
#    0.000    0.625    0.000    0.750    0.000    0.000 
#    0.000    0.000    0.000    0.000    0.000    0.000 
#
# Total GULP energy -198209.953313 kJ/mol
# GULP energy per Si atom -12388.122082 kJ/mol
# Density = 1.953020 g / cm^3
# Si number density = 19.574755 Si / 1000 Ang^3
#
#
#
# Elastic Constant Matrix: (Units=GPa)
#
#
# Indices 1 2 3 4 5 6 
#
# 1 119.4649 38.9529 37.1194 3.7724 9.5006 -1.6520
# 2 38.9529 99.8735 25.9842 8.9675 2.8713 -7.8149
# 3 37.1194 25.9842 83.0549 15.4194 7.6496 -1.8815
# 4 3.7724 8.9675 15.4194 27.6907 4.1772 -0.2907
# 5 9.5006 2.8713 7.6496 4.1772 34.4997 1.9391
# 6 -1.6520 -7.8149 -1.8815 -0.2907 1.9391 29.5848
#
#
#
# Elastic Compliance Matrix: (Units=1/GPa)
#
#
# Indices 1 2 3 4 5 6 
#
# 1 0.010788 -0.003331 -0.003997 0.002139 -0.002045 -0.000376
# 2 -0.003331 0.012230 -0.001847 -0.002516 0.000452 0.002873
# 3 -0.003997 -0.001847 0.015935 -0.007518 -0.001387 0.000319
# 4 0.002139 -0.002516 -0.007518 0.041378 -0.003702 -0.000374
# 5 -0.002045 0.000452 -0.001387 -0.003702 0.030386 -0.002111
# 6 -0.000376 0.002873 0.000319 -0.000374 -0.002111 0.034694
#
#
# Mechanical properties :
#
#
# Convention : Reuss Voigt Hill
#
# Bulk Modulus (GPa) = 48.53333 56.27848 52.40590
# Shear Modulus (GPa) = 29.30352 31.71082 30.50717
#
# Velocity S-wave (km/s) = 3.87331 4.02927 3.95206
# Velocity P-wave (km/s) = 6.69709 7.10350 6.90329
#
# Compressibility (1/GPa) = 0.02060440
#
# Stress axis : x y z
#
# Youngs Moduli (GPa) = 92.69183 81.76646 62.75443
#
# Poissons Ratio (x) = 0.27233 0.25082
# Poissons Ratio (y) = 0.30872 0.11591
# Poissons Ratio (z) = 0.37048 0.15103
#
# Static dielectric constant tensor:
#      x y z
#    x 3.686900 0.060690 0.012310 
#    y 0.060690 3.742030 0.012000 
#    z 0.012310 0.012000 3.458460 
# 
# 
# High freq. dielectric constant tensor:
#      x y z
#    x 1.755480 0.011410 0.001150 
#    y 0.011410 1.776110 0.002610 
#    z 0.001150 0.002610 1.732690 
# 
# From -- ./inp_files/612149.got.cif
#   From: 2010.06.25/outbox.cif.g09.slc.cpg/sg2_307_cif.got.tgz:612149.got - 2010.06.27 13:26:56.
