data_PCOD8042559
_publ_section_title
;
Structure prediction by ZEFSAII (Michael W. Deem and Ramdas Pophale) SiO2 
 PCOD8042559
Probable space group: P -1
;
_chemical_formula_sum "Si O2"
_cell_formula_units_Z 14
_cell_length_a 11.617519
_cell_length_b 13.930703
_cell_length_c 11.577881
_cell_angle_alpha 139.335971
_cell_angle_beta 105.354114
_cell_angle_gamma 44.522449
_cell_volume 682.239527
_symmetry_space_group_name_H-M "P -1"
_symmetry_group_IT_number 2
_symmetry_cell_setting 'triclinic'
loop_
_space_group_symop_operation_xyz
x,y,z
-x,-y,-z
loop_
_atom_site_type_symbol
_atom_site_label
_atom_site_fract_x
_atom_site_fract_y
_atom_site_fract_z
Si Si1 0.916062 0.918403 0.907897
Si Si2 0.458462 0.601381 0.211004
Si Si3 0.432931 0.365302 0.147281
Si Si4 0.111796 0.750327 0.028779
Si Si5 0.741572 0.922007 0.474934
Si Si6 0.064348 0.748129 0.551331
Si Si7 0.683195 0.676691 0.137074
O O1 0.034961 0.724771 0.654869
O O2 0.969835 0.804826 0.947393
O O3 0.674164 0.131221 0.022938
O O4 0.000000 0.000000 0.000000
O O5 0.365586 0.571563 0.240703
O O6 0.295417 0.897536 0.449130
O O7 0.500000 0.500000 0.000000
O O8 0.682062 0.428733 0.155607
O O9 0.305910 0.495719 0.352164
O O10 0.355558 0.305718 0.994031
O O11 0.161478 0.600232 0.017162
O O12 0.017928 0.003548 0.270695
O O13 0.780765 0.739682 0.240094
O O14 0.942690 0.749226 0.446233
O O15 0.541358 0.106227 0.668856
#
# Coordination Sequence:
#
# PCOD8042559 Si02
#       7
#     2   2   2   2   2   2   2
#     4  10  20  38  57  81 119 149 183 237 275 335
#     4  11  16  35  59  84 114 144 184 236 281 331
#     4  12  21  35  62  86 115 145 191 231 285 333
#     4  10  19  36  58  82 116 146 189 233 278 330
#     4  10  19  35  58  84 117 144 191 230 282 334
#     4  11  21  35  60  85 114 151 186 230 286 330
#     4  10  20  36  61  85 109 153 189 232 281 336
#
# _framework density 20.520652999999999
#
# number of rings (size 3 to 8) (size 9 to 14) (size 15 to 20)
#    0.000    1.429    8.571    0.000    0.000    5.143 
#    0.000    0.714    0.000    0.857    0.000    0.000 
#    0.000    0.000    0.000    0.000    0.000    0.000 
#
# Total GULP energy -173436.852333 kJ/mol
# GULP energy per Si atom -12388.346595 kJ/mol
# Density = 2.047395 g / cm^3
# Si number density = 20.520653 Si / 1000 Ang^3
#
#
#
# Elastic Constant Matrix: (Units=GPa)
#
#
# Indices 1 2 3 4 5 6 
#
# 1 56.6229 37.7930 37.5480 -10.3070 5.0764 -18.5580
# 2 37.7930 125.4754 40.7744 -12.2590 -3.9570 -31.5911
# 3 37.5480 40.7744 76.3096 -10.4546 -6.9950 -12.5777
# 4 -10.3070 -12.2590 -10.4546 12.5926 -2.0507 9.8642
# 5 5.0764 -3.9570 -6.9950 -2.0507 39.5529 -4.0600
# 6 -18.5580 -31.5911 -12.5777 9.8642 -4.0600 23.0375
#
#
#
# Elastic Compliance Matrix: (Units=1/GPa)
#
#
# Indices 1 2 3 4 5 6 
#
# 1 0.033526 -0.001888 -0.013162 0.001580 -0.005131 0.015652
# 2 -0.001888 0.013976 -0.004019 -0.004990 0.002522 0.018031
# 3 -0.013162 -0.004019 0.022403 0.010653 0.005026 -0.007559
# 4 0.001580 -0.004990 0.010653 0.127228 0.002253 -0.053834
# 5 -0.005131 0.002522 0.005026 0.002253 0.027815 0.006006
# 6 0.015652 0.018031 -0.007559 -0.053834 0.006006 0.100724
#
#
# Mechanical properties :
#
#
# Convention : Reuss Voigt Hill
#
# Bulk Modulus (GPa) = 31.47944 54.51541 42.99743
# Shear Modulus (GPa) = 13.35473 24.52277 18.93875
#
# Velocity S-wave (km/s) = 2.55383 3.46067 3.04124
# Velocity P-wave (km/s) = 4.90610 6.52626 5.77329
#
# Compressibility (1/GPa) = 0.03176676
#
# Stress axis : x y z
#
# Youngs Moduli (GPa) = 29.82759 71.55021 44.63742
#
# Poissons Ratio (x) = 0.13507 0.58751
# Poissons Ratio (y) = 0.05631 0.17942
# Poissons Ratio (z) = 0.39259 0.28760
#
# Static dielectric constant tensor:
#      x y z
#    x 3.770000 -0.234130 0.113250 
#    y -0.234130 4.200800 -0.150790 
#    z 0.113250 -0.150790 3.655240 
# 
# 
# High freq. dielectric constant tensor:
#      x y z
#    x 1.781010 -0.028600 -0.001710 
#    y -0.028600 1.801690 -0.007790 
#    z -0.001710 -0.007790 1.782180 
# 
# From -- ./inp_files/220765.got.cif
#   From: 2010.06.25/outbox.cif.g09.slc.cpg/sg2_111_cif.got.tgz:220765.got - 2010.06.27 13:26:56.
