data_PCOD8042840
_publ_section_title
;
Structure prediction by ZEFSAII (Michael W. Deem and Ramdas Pophale) SiO2 
 PCOD8042840
Probable space group: P -1
;
_chemical_formula_sum "Si O2"
_cell_formula_units_Z 16
_cell_length_a 12.907907
_cell_length_b 12.595275
_cell_length_c 9.474264
_cell_angle_alpha 112.899028
_cell_angle_beta 33.159528
_cell_angle_gamma 99.883499
_cell_volume 738.925411
_symmetry_space_group_name_H-M "P -1"
_symmetry_group_IT_number 2
_symmetry_cell_setting 'triclinic'
loop_
_space_group_symop_operation_xyz
x,y,z
-x,-y,-z
loop_
_atom_site_type_symbol
_atom_site_label
_atom_site_fract_x
_atom_site_fract_y
_atom_site_fract_z
Si Si1 0.563842 0.087677 0.073611
Si Si2 0.880078 0.040546 0.912497
Si Si3 0.862780 0.294533 0.985682
Si Si4 0.270194 0.837279 0.344126
Si Si5 0.529572 0.641630 0.356747
Si Si6 0.271969 0.331779 0.582996
Si Si7 0.581406 0.106769 0.514027
Si Si8 0.597777 0.386652 0.066252
O O1 0.701680 0.021583 0.010924
O O2 0.682882 0.150046 0.866970
O O3 0.375717 0.187224 0.407621
O O4 0.500000 0.000000 0.000000
O O5 0.956119 0.147181 0.813488
O O6 0.800194 0.078717 0.181289
O O7 0.041667 0.909903 0.667991
O O8 0.036606 0.356876 0.841694
O O9 0.694339 0.335774 0.319213
O O10 0.762621 0.333270 0.970422
O O11 0.398977 0.888087 0.335494
O O12 0.324066 0.689695 0.208897
O O13 0.687751 0.605575 0.286399
O O14 0.553414 0.760072 0.312850
O O15 0.580455 0.527302 0.133334
O O16 0.378080 0.379908 0.358142
O O17 0.500000 0.000000 0.500000
#
# Coordination Sequence:
#
# PCOD8042840 Si02
#       8
#     2   2   2   2   2   2   2   2
#     4  11  20  33  59  95 125 155 196 260 313 353
#     4  11  21  39  61  93 124 159 204 254 308 367
#     4  10  19  35  65  94 124 158 201 255 308 362
#     4  11  23  37  60  90 123 163 197 253 311 357
#     4  10  22  41  60  87 125 163 209 250 297 371
#     4  10  19  35  62  93 122 161 199 251 310 361
#     4  11  24  43  62  86 117 166 210 251 305 369
#     4  10  22  39  58  93 128 156 204 252 306 368
#
# _framework density 21.653064000000001
#
# number of rings (size 3 to 8) (size 9 to 14) (size 15 to 20)
#    0.000    1.500    5.000    3.750    3.500    2.500 
#    0.000    0.000    0.000    0.750    0.000    0.000 
#    0.000    0.000    0.000    0.000    0.000    0.000 
#
# Total GULP energy -198253.600855 kJ/mol
# GULP energy per Si atom -12390.850053 kJ/mol
# Density = 2.160378 g / cm^3
# Si number density = 21.653064 Si / 1000 Ang^3
#
#
#
# Elastic Constant Matrix: (Units=GPa)
#
#
# Indices 1 2 3 4 5 6 
#
# 1 94.1556 30.2858 36.6450 5.2470 -3.4789 23.4151
# 2 30.2858 112.9002 35.1194 31.3809 -5.0803 24.3451
# 3 36.6450 35.1194 62.2226 18.2421 -0.3267 12.2175
# 4 5.2470 31.3809 18.2421 40.1699 16.8945 8.2993
# 5 -3.4789 -5.0803 -0.3267 16.8945 28.9653 -2.3495
# 6 23.4151 24.3451 12.2175 8.2993 -2.3495 35.9033
#
#
#
# Elastic Compliance Matrix: (Units=1/GPa)
#
#
# Indices 1 2 3 4 5 6 
#
# 1 0.016094 -0.001618 -0.008722 0.005804 -0.002478 -0.007935
# 2 -0.001618 0.015499 -0.002718 -0.014048 0.010314 -0.004607
# 3 -0.008722 -0.002718 0.025653 -0.010962 0.005295 0.001682
# 4 0.005804 -0.014048 -0.010962 0.056013 -0.035029 -0.005769
# 5 -0.002478 0.010314 0.005295 -0.035029 0.056903 0.004642
# 6 -0.007935 -0.004607 0.001682 -0.005769 0.004642 0.037217
#
#
# Mechanical properties :
#
#
# Convention : Reuss Voigt Hill
#
# Bulk Modulus (GPa) = 32.12186 52.59764 42.35975
# Shear Modulus (GPa) = 20.50272 32.15625 26.32949
#
# Velocity S-wave (km/s) = 3.08047 3.85784 3.49086
# Velocity P-wave (km/s) = 5.24589 6.64738 5.98778
#
# Compressibility (1/GPa) = 0.03113145
#
# Stress axis : x y z
#
# Youngs Moduli (GPa) = 62.13567 64.51989 38.98176
#
# Poissons Ratio (x) = 0.10439 0.33998
# Poissons Ratio (y) = 0.10053 0.10594
# Poissons Ratio (z) = 0.54192 0.17534
#
# Static dielectric constant tensor:
#      x y z
#    x 3.653180 0.436120 0.131370 
#    y 0.436120 3.509310 0.291760 
#    z 0.131370 0.291760 3.863630 
# 
# 
# High freq. dielectric constant tensor:
#      x y z
#    x 1.840850 0.016740 0.005070 
#    y 0.016740 1.843740 0.027000 
#    z 0.005070 0.027000 1.834210 
# 
# From -- ./inp_files/273976.got.cif
#   From: 2010.06.25/outbox.cif.g09.slc.cpg/sg2_137_cif.got.tgz:273976.got - 2010.06.27 13:26:56.
