data_PCOD8042643
_publ_section_title
;
Structure prediction by ZEFSAII (Michael W. Deem and Ramdas Pophale) SiO2 
 PCOD8042643
Probable space group: P -1
;
_chemical_formula_sum "Si O2"
_cell_formula_units_Z 16
_cell_length_a 12.946640
_cell_length_b 9.255371
_cell_length_c 9.559118
_cell_angle_alpha 132.975992
_cell_angle_beta 132.077998
_cell_angle_gamma 56.687702
_cell_volume 612.957853
_symmetry_space_group_name_H-M "P -1"
_symmetry_group_IT_number 2
_symmetry_cell_setting 'triclinic'
loop_
_space_group_symop_operation_xyz
x,y,z
-x,-y,-z
loop_
_atom_site_type_symbol
_atom_site_label
_atom_site_fract_x
_atom_site_fract_y
_atom_site_fract_z
Si Si1 0.188838 0.886889 0.513412
Si Si2 0.591976 0.577662 0.938735
Si Si3 0.821955 0.255086 0.068244
Si Si4 0.263888 0.563087 0.600437
Si Si5 0.704853 0.882229 0.706039
Si Si6 0.417353 0.032026 0.647986
Si Si7 0.988853 0.296954 0.994977
Si Si8 0.818517 0.721014 0.069109
O O1 0.203995 0.706923 0.516554
O O2 0.092964 0.841483 0.267602
O O3 0.341692 0.907309 0.606363
O O4 0.133009 0.097808 0.679520
O O5 0.688309 0.367281 0.928966
O O6 0.433998 0.542131 0.744974
O O7 0.589601 0.734300 0.165966
O O8 0.662205 0.674075 0.931087
O O9 0.966582 0.251496 0.108994
O O10 0.816765 0.023609 0.944531
O O11 0.819346 0.365482 0.286495
O O12 0.221093 0.348255 0.389849
O O13 0.648573 0.971621 0.565510
O O14 0.577635 0.917022 0.724699
O O15 0.154290 0.246507 0.052865
O O16 0.936136 0.533212 0.091020
#
# Coordination Sequence:
#
# PCOD8042643 Si02
#       8
#     2   2   2   2   2   2   2   2
#     4  11  24  40  61  96 130 156 199 264 315 354
#     4  10  19  38  61  89 127 160 205 249 303 373
#     4  11  21  39  63  89 123 170 208 250 298 371
#     4  12  25  37  58  99 136 159 189 254 326 369
#     4  11  21  35  59  87 126 168 205 236 301 382
#     4  10  19  35  59  87 118 167 208 240 293 373
#     4  10  21  43  69  91 113 164 223 254 291 364
#     4   9  22  40  68  91 117 161 217 258 296 356
#
# _framework density 26.102937000000001
#
# number of rings (size 3 to 8) (size 9 to 14) (size 15 to 20)
#    0.000    1.500    3.750    2.250    1.750    3.500 
#    0.000    0.625    0.000    9.000    0.000    0.000 
#    0.000    0.000    0.000    0.000    0.000    0.000 
#
# Total GULP energy -198345.571590 kJ/mol
# GULP energy per Si atom -12396.598224 kJ/mol
# Density = 2.604353 g / cm^3
# Si number density = 26.102937 Si / 1000 Ang^3
#
#
#
# Elastic Constant Matrix: (Units=GPa)
#
#
# Indices 1 2 3 4 5 6 
#
# 1 153.7500 51.2231 73.2990 4.6066 -44.9854 16.2628
# 2 51.2231 93.7933 45.7562 30.2055 -7.9256 22.9737
# 3 73.2990 45.7562 130.5942 35.0478 -15.1766 14.8632
# 4 4.6066 30.2055 35.0478 51.0147 -0.6040 1.6213
# 5 -44.9854 -7.9256 -15.1766 -0.6040 39.4705 -6.7806
# 6 16.2628 22.9737 14.8632 1.6213 -6.7806 37.8458
#
#
#
# Elastic Compliance Matrix: (Units=1/GPa)
#
#
# Indices 1 2 3 4 5 6 
#
# 1 0.016173 -0.007226 -0.007241 0.007885 0.014763 0.002587
# 2 -0.007226 0.019847 0.000539 -0.011229 -0.005886 -0.009728
# 3 -0.007241 0.000539 0.013929 -0.009183 -0.003428 -0.002907
# 4 0.007885 -0.011229 -0.009183 0.031697 0.004809 0.006538
# 5 0.014763 -0.005886 -0.003428 0.004809 0.040707 0.005663
# 6 0.002587 -0.009728 -0.002907 0.006538 0.005663 0.033092
#
#
# Mechanical properties :
#
#
# Convention : Reuss Voigt Hill
#
# Bulk Modulus (GPa) = 45.26194 79.85488 62.55841
# Shear Modulus (GPa) = 26.22405 39.52350 32.87377
#
# Velocity S-wave (km/s) = 3.17304 3.89542 3.55264
# Velocity P-wave (km/s) = 5.54993 7.13380 6.39112
#
# Compressibility (1/GPa) = 0.02209362
#
# Stress axis : x y z
#
# Youngs Moduli (GPa) = 61.83284 50.38615 71.79031
#
# Poissons Ratio (x) = 0.36407 0.51980
# Poissons Ratio (y) = 0.44678 -0.03866
# Poissons Ratio (z) = 0.44770 -0.02714
#
# Static dielectric constant tensor:
#      x y z
#    x 5.336830 0.335290 -0.367860 
#    y 0.335290 4.681850 0.209900 
#    z -0.367860 0.209900 4.791910 
# 
# 
# High freq. dielectric constant tensor:
#      x y z
#    x 2.067930 0.014810 -0.016270 
#    y 0.014810 2.049300 0.019320 
#    z -0.016270 0.019320 2.054200 
# 
# From -- ./inp_files/296901.got.cif
#   From: 2010.06.25/outbox.cif.g09.slc.cpg/sg2_149_cif.got.tgz:296901.got - 2010.06.27 13:26:56.
