data_PCOD8042389
_publ_section_title
;
Structure prediction by ZEFSAII (Michael W. Deem and Ramdas Pophale) SiO2 
 PCOD8042389
Probable space group: P -1
;
_chemical_formula_sum "Si O2"
_cell_formula_units_Z 14
_cell_length_a 27.801507
_cell_length_b 9.263506
_cell_length_c 9.444284
_cell_angle_alpha 68.257473
_cell_angle_beta 142.156018
_cell_angle_gamma 140.956090
_cell_volume 731.143571
_symmetry_space_group_name_H-M "P -1"
_symmetry_group_IT_number 2
_symmetry_cell_setting 'triclinic'
loop_
_space_group_symop_operation_xyz
x,y,z
-x,-y,-z
loop_
_atom_site_type_symbol
_atom_site_label
_atom_site_fract_x
_atom_site_fract_y
_atom_site_fract_z
Si Si1 0.121587 0.088258 0.312345
Si Si2 0.666106 0.146767 0.215130
Si Si3 0.100930 0.719525 0.937614
Si Si4 0.652213 0.294011 0.406796
Si Si5 0.077923 0.299777 0.571640
Si Si6 0.145212 0.499671 0.958721
Si Si7 0.812861 0.091280 0.632560
O O1 0.259112 0.418700 0.573661
O O2 0.202082 0.111955 0.376396
O O3 0.030665 0.836942 0.308179
O O4 0.000000 0.000000 0.000000
O O5 0.649230 0.145344 0.345385
O O6 0.802335 0.482903 0.354773
O O7 0.696965 0.014638 0.316155
O O8 0.514748 0.935441 0.858891
O O9 0.170419 0.723349 0.977217
O O10 0.051487 0.792285 0.717613
O O11 0.975222 0.415189 0.840748
O O12 0.213209 0.951344 0.242295
O O13 0.739374 0.404490 0.713854
O O14 0.173097 0.504522 0.858593
O O15 0.000000 0.000000 0.500000
#
# Coordination Sequence:
#
# PCOD8042389 Si02
#       7
#     2   2   2   2   2   2   2
#     4   9  19  30  55  84 108 130 179 225 267 304
#     4  10  21  37  54  81 107 147 180 214 269 320
#     4   9  18  32  54  78 106 138 177 220 269 315
#     4  10  20  35  57  78 110 142 181 223 260 314
#     4  11  23  33  55  82 110 137 179 224 270 320
#     4  10  19  35  54  81 109 143 173 221 268 320
#     4   9  17  32  55  80 106 137 178 227 260 312
#
# _framework density 19.148084000000001
#
# number of rings (size 3 to 8) (size 9 to 14) (size 15 to 20)
#    0.000    2.286    1.429    1.286   10.000    1.143 
#    0.000    0.000    0.000    0.857    0.000    0.000 
#    0.000    0.000    0.000    0.000    0.000    0.000 
#
# Total GULP energy -173455.157543 kJ/mol
# GULP energy per Si atom -12389.654110 kJ/mol
# Density = 1.910450 g / cm^3
# Si number density = 19.148084 Si / 1000 Ang^3
#
#
#
# Elastic Constant Matrix: (Units=GPa)
#
#
# Indices 1 2 3 4 5 6 
#
# 1 93.3065 20.2098 38.2334 -12.8872 2.6363 -20.9845
# 2 20.2098 63.8470 32.1245 -9.1764 11.4742 -19.3084
# 3 38.2334 32.1245 94.2912 -11.2571 8.3426 -5.1736
# 4 -12.8872 -9.1764 -11.2571 23.1684 4.8973 1.1694
# 5 2.6363 11.4742 8.3426 4.8973 32.1917 -5.4812
# 6 -20.9845 -19.3084 -5.1736 1.1694 -5.4812 29.5008
#
#
#
# Elastic Compliance Matrix: (Units=1/GPa)
#
#
# Indices 1 2 3 4 5 6 
#
# 1 0.016183 0.002273 -0.005978 0.006305 0.000461 0.011786
# 2 0.002273 0.025619 -0.007256 0.008373 -0.006045 0.015657
# 3 -0.005978 -0.007256 0.015616 0.002255 -0.002474 -0.006812
# 4 0.006305 0.008373 0.002255 0.053118 -0.011112 0.006190
# 5 0.000461 -0.006045 -0.002474 -0.011112 0.036036 0.003074
# 6 0.011786 0.015657 -0.006812 0.006190 0.003074 0.051660
#
#
# Mechanical properties :
#
#
# Convention : Reuss Voigt Hill
#
# Bulk Modulus (GPa) = 28.17274 48.06445 38.11859
# Shear Modulus (GPa) = 21.55319 27.69732 24.62525
#
# Velocity S-wave (km/s) = 3.35864 3.80739 3.59003
# Velocity P-wave (km/s) = 5.45763 6.66965 6.09384
#
# Compressibility (1/GPa) = 0.03549530
#
# Stress axis : x y z
#
# Youngs Moduli (GPa) = 61.79306 39.03427 64.03767
#
# Poissons Ratio (x) = -0.08872 0.38280
# Poissons Ratio (y) = -0.14045 0.46467
# Poissons Ratio (z) = 0.36938 0.28324
#
# Static dielectric constant tensor:
#      x y z
#    x 3.667000 -0.237400 -0.018080 
#    y -0.237400 3.458090 0.002950 
#    z -0.018080 0.002950 3.347620 
# 
# 
# High freq. dielectric constant tensor:
#      x y z
#    x 1.745330 -0.024550 -0.001930 
#    y -0.024550 1.720800 -0.015230 
#    z -0.001930 -0.015230 1.725930 
# 
# From -- ./inp_files/171309.got.cif
#   From: 2010.06.25/outbox.cif.g09.slc.cpg/sg2_86_cif.got.tgz:171309.got - 2010.06.27 13:26:56.
