data_PCOD8042517
_publ_section_title
;
Structure prediction by ZEFSAII (Michael W. Deem and Ramdas Pophale) SiO2 
 PCOD8042517
Probable space group: P -1
;
_chemical_formula_sum "Si O2"
_cell_formula_units_Z 16
_cell_length_a 24.218986
_cell_length_b 9.694406
_cell_length_c 10.473448
_cell_angle_alpha 138.380152
_cell_angle_beta 30.351451
_cell_angle_gamma 126.685519
_cell_volume 816.919201
_symmetry_space_group_name_H-M "P -1"
_symmetry_group_IT_number 2
_symmetry_cell_setting 'triclinic'
loop_
_space_group_symop_operation_xyz
x,y,z
-x,-y,-z
loop_
_atom_site_type_symbol
_atom_site_label
_atom_site_fract_x
_atom_site_fract_y
_atom_site_fract_z
Si Si1 0.660722 0.980433 0.179958
Si Si2 0.713675 0.208148 0.989190
Si Si3 0.007625 0.668487 0.791503
Si Si4 0.771743 0.653461 0.153966
Si Si5 0.481558 0.259515 0.873313
Si Si6 0.401369 0.064831 0.144964
Si Si7 0.045837 0.943917 0.669405
Si Si8 0.853993 0.759511 0.797583
O O1 0.603756 0.790676 0.101576
O O2 0.593308 0.097161 0.513718
O O3 0.781242 0.880526 0.916310
O O4 0.667880 0.161343 0.186833
O O5 0.836107 0.079518 0.649316
O O6 0.632081 0.140359 0.997741
O O7 0.708155 0.454472 0.150400
O O8 0.057532 0.791670 0.662936
O O9 0.095702 0.469114 0.513646
O O10 0.895604 0.587955 0.913143
O O11 0.987282 0.814614 0.056745
O O12 0.707356 0.834762 0.493596
O O13 0.776510 0.737962 0.059362
O O14 0.500000 0.500000 0.000000
O O15 0.435924 0.223608 0.080211
O O16 0.500000 0.000000 0.000000
O O17 0.952350 0.891521 0.723483
#
# Coordination Sequence:
#
# PCOD8042517 Si02
#       8
#     2   2   2   2   2   2   2   2
#     4  10  24  39  60  86 116 151 190 238 282 344
#     4  11  21  39  59  82 119 153 183 233 294 331
#     4  10  19  35  57  87 118 153 187 228 286 339
#     4  11  20  36  62  84 115 151 189 234 286 334
#     4  10  22  45  62  78 116 157 189 231 298 339
#     4  11  24  38  60  90 111 141 198 248 279 332
#     4  10  19  35  58  83 121 156 182 230 285 337
#     4  11  21  36  58  91 117 149 196 227 276 346
#
# _framework density 19.585781999999998
#
# number of rings (size 3 to 8) (size 9 to 14) (size 15 to 20)
#    0.000    1.500    3.750    2.250    0.000    3.000 
#    0.000    0.625    0.000    0.000    0.000    0.000 
#    0.000    0.000    0.000    0.000    0.000    0.000 
#
# Total GULP energy -198469.982356 kJ/mol
# GULP energy per Si atom -12404.373897 kJ/mol
# Density = 1.954120 g / cm^3
# Si number density = 19.585782 Si / 1000 Ang^3
#
#
#
# Elastic Constant Matrix: (Units=GPa)
#
#
# Indices 1 2 3 4 5 6 
#
# 1 87.0955 28.5789 9.1585 10.0980 -8.6083 2.3071
# 2 28.5789 82.5431 -1.5398 -0.0477 7.3360 19.0354
# 3 9.1585 -1.5398 65.6109 -1.8540 4.1361 -6.2580
# 4 10.0980 -0.0477 -1.8540 30.7903 3.0019 -1.0793
# 5 -8.6083 7.3360 4.1361 3.0019 26.2590 3.7069
# 6 2.3071 19.0354 -6.2580 -1.0793 3.7069 22.6211
#
#
#
# Elastic Compliance Matrix: (Units=1/GPa)
#
#
# Indices 1 2 3 4 5 6 
#
# 1 0.015266 -0.006368 -0.002789 -0.005882 0.007685 0.001490
# 2 -0.006368 0.017878 0.000456 0.002219 -0.005536 -0.013256
# 3 -0.002789 0.000456 0.016521 0.002556 -0.004693 0.005362
# 4 -0.005882 0.002219 0.002556 0.035359 -0.007321 0.002327
# 5 0.007685 -0.005536 -0.004693 -0.007321 0.044438 -0.005055
# 6 0.001490 -0.013256 0.005362 0.002327 -0.005055 0.057632
#
#
# Mechanical properties :
#
#
# Convention : Reuss Voigt Hill
#
# Bulk Modulus (GPa) = 30.99444 34.18273 32.58859
# Shear Modulus (GPa) = 23.22867 29.20422 26.21644
#
# Velocity S-wave (km/s) = 3.44757 3.86566 3.66258
# Velocity P-wave (km/s) = 5.63089 6.11679 5.87886
#
# Compressibility (1/GPa) = 0.03226385
#
# Stress axis : x y z
#
# Youngs Moduli (GPa) = 65.50339 55.93365 60.52931
#
# Poissons Ratio (x) = 0.35617 0.16882
# Poissons Ratio (y) = 0.41710 -0.02759
# Poissons Ratio (z) = 0.18269 -0.02549
#
# Static dielectric constant tensor:
#      x y z
#    x 3.394540 0.238690 0.093120 
#    y 0.238690 3.458940 -0.075400 
#    z 0.093120 -0.075400 3.719590 
# 
# 
# High freq. dielectric constant tensor:
#      x y z
#    x 1.749870 0.019260 0.003920 
#    y 0.019260 1.759760 -0.003660 
#    z 0.003920 -0.003660 1.777180 
# 
# From -- ./inp_files/245879.got.cif
#   From: 2010.06.25/outbox.cif.g09.slc.cpg/sg2_123_cif.got.tgz:245879.got - 2010.06.27 13:26:56.
