data_PCOD8042044
_publ_section_title
;
Structure prediction by ZEFSAII (Michael W. Deem and Ramdas Pophale) SiO2 
 PCOD8042044
Probable space group: P -1
;
_chemical_formula_sum "Si O2"
_cell_formula_units_Z 16
_cell_length_a 22.389407
_cell_length_b 8.876696
_cell_length_c 13.792600
_cell_angle_alpha 47.143225
_cell_angle_beta 157.342477
_cell_angle_gamma 131.783079
_cell_volume 766.804938
_symmetry_space_group_name_H-M "P -1"
_symmetry_group_IT_number 2
_symmetry_cell_setting 'triclinic'
loop_
_space_group_symop_operation_xyz
x,y,z
-x,-y,-z
loop_
_atom_site_type_symbol
_atom_site_label
_atom_site_fract_x
_atom_site_fract_y
_atom_site_fract_z
Si Si1 0.499109 0.759062 0.187314
Si Si2 0.272823 0.865306 0.646477
Si Si3 0.324950 0.416995 0.207934
Si Si4 0.603485 0.387961 0.405219
Si Si5 0.724341 0.845902 0.054071
Si Si6 0.317879 0.509426 0.722728
Si Si7 0.636508 0.277439 0.712384
Si Si8 0.946840 0.712334 0.288400
O O1 0.420763 0.626882 0.215818
O O2 0.572858 0.619847 0.280265
O O3 0.638592 0.929951 0.363707
O O4 0.362350 0.858888 0.885346
O O5 0.272173 0.665569 0.666136
O O6 0.092225 0.875011 0.397715
O O7 0.446499 0.247346 0.458336
O O8 0.287900 0.501541 0.222741
O O9 0.166630 0.336188 0.951950
O O10 0.723216 0.413470 0.480885
O O11 0.676818 0.288740 0.652543
O O12 0.438797 0.251015 0.195539
O O13 0.761115 0.722100 0.261898
O O14 0.863712 0.827826 0.196356
O O15 0.712428 0.085756 0.955516
O O16 0.500000 0.500000 0.000000
O O17 0.000000 0.500000 0.500000
#
# Coordination Sequence:
#
# PCOD8042044 Si02
#       8
#     2   2   2   2   2   2   2   2
#     4  10  19  35  57  90 117 161 203 250 302 363
#     4  11  21  34  60  88 126 160 198 254 315 366
#     4  10  21  39  64  87 125 161 211 261 300 369
#     4  10  19  37  58  91 121 152 206 264 296 352
#     4  11  20  36  63  97 121 161 206 260 310 362
#     4  10  19  34  56  94 119 155 202 262 298 357
#     4  10  22  38  62  96 119 165 214 255 298 370
#     4  12  20  40  59  93 132 160 199 263 321 362
#
# _framework density 20.865803
#
# number of rings (size 3 to 8) (size 9 to 14) (size 15 to 20)
#    0.000    1.500    7.500    0.375    3.500    0.000 
#    0.000    1.875    0.000   15.750    0.000    0.000 
#    0.000    0.000    0.000    0.000    0.000    0.000 
#
# Total GULP energy -198261.140334 kJ/mol
# GULP energy per Si atom -12391.321271 kJ/mol
# Density = 2.081831 g / cm^3
# Si number density = 20.865803 Si / 1000 Ang^3
#
#
#
# Elastic Constant Matrix: (Units=GPa)
#
#
# Indices 1 2 3 4 5 6 
#
# 1 113.9951 23.4734 27.4641 2.7558 3.2683 4.3460
# 2 23.4734 77.9831 30.0159 -7.4482 11.4513 6.0833
# 3 27.4641 30.0159 72.5599 10.9360 15.1912 -2.9442
# 4 2.7558 -7.4482 10.9360 30.0442 -2.3261 7.3757
# 5 3.2683 11.4513 15.1912 -2.3261 24.5458 2.1469
# 6 4.3460 6.0833 -2.9442 7.3757 2.1469 29.1790
#
#
#
# Elastic Compliance Matrix: (Units=1/GPa)
#
#
# Indices 1 2 3 4 5 6 
#
# 1 0.009999 -0.001693 -0.003648 0.000580 0.001928 -0.001793
# 2 -0.001693 0.018077 -0.008090 0.009036 -0.001778 -0.006486
# 3 -0.003648 -0.008090 0.023453 -0.013338 -0.012295 0.008873
# 4 0.000580 0.009036 -0.013338 0.044835 0.009553 -0.015352
# 5 0.001928 -0.001778 -0.012295 0.009553 0.050465 -0.007285
# 6 -0.001793 -0.006486 0.008873 -0.015352 -0.007285 0.041202
#
#
# Mechanical properties :
#
#
# Convention : Reuss Voigt Hill
#
# Bulk Modulus (GPa) = 40.54048 47.38275 43.96161
# Shear Modulus (GPa) = 22.40992 28.99278 25.70135
#
# Velocity S-wave (km/s) = 3.28075 3.73163 3.51343
# Velocity P-wave (km/s) = 5.81571 6.42840 6.12971
#
# Compressibility (1/GPa) = 0.02466671
#
# Stress axis : x y z
#
# Youngs Moduli (GPa) = 100.01058 55.31943 42.63781
#
# Poissons Ratio (x) = 0.09368 0.15554
# Poissons Ratio (y) = 0.16937 0.34493
# Poissons Ratio (z) = 0.36484 0.44752
#
# Static dielectric constant tensor:
#      x y z
#    x 4.582160 0.126260 -0.039240 
#    y 0.126260 3.801640 -0.133450 
#    z -0.039240 -0.133450 3.648520 
# 
# 
# High freq. dielectric constant tensor:
#      x y z
#    x 1.825410 -0.005430 -0.009370 
#    y -0.005430 1.803900 -0.013640 
#    z -0.009370 -0.013640 1.779920 
# 
# From -- ./inp_files/542518.got.cif
#   From: 2010.06.25/outbox.cif.g09.slc.cpg/sg2_272_cif.got.tgz:542518.got - 2010.06.27 13:26:56.
