data_PCOD8042895
_publ_section_title
;
Structure prediction by ZEFSAII (Michael W. Deem and Ramdas Pophale) SiO2 
 PCOD8042895
Probable space group: P -1
;
_chemical_formula_sum "Si O2"
_cell_formula_units_Z 16
_cell_length_a 22.957629
_cell_length_b 18.384976
_cell_length_c 12.865564
_cell_angle_alpha 29.946404
_cell_angle_beta 26.772289
_cell_angle_gamma 18.628757
_cell_volume 773.403977
_symmetry_space_group_name_H-M "P -1"
_symmetry_group_IT_number 2
_symmetry_cell_setting 'triclinic'
loop_
_space_group_symop_operation_xyz
x,y,z
-x,-y,-z
loop_
_atom_site_type_symbol
_atom_site_label
_atom_site_fract_x
_atom_site_fract_y
_atom_site_fract_z
Si Si1 0.814905 0.055957 0.343265
Si Si2 0.719378 0.907262 0.847148
Si Si3 0.796369 0.592565 0.670702
Si Si4 0.642243 0.077831 0.971043
Si Si5 0.149313 0.215759 0.791635
Si Si6 0.261341 0.390146 0.932415
Si Si7 0.433890 0.536096 0.442022
Si Si8 0.930510 0.897912 0.137299
O O1 0.627934 0.325855 0.325612
O O2 0.832792 0.914488 0.576332
O O3 0.019019 0.976842 0.121226
O O4 0.785643 0.013059 0.327500
O O5 0.477163 0.149775 0.931711
O O6 0.787650 0.682793 0.990811
O O7 0.776279 0.888795 0.899148
O O8 0.593599 0.770789 0.844506
O O9 0.743420 0.723640 0.484982
O O10 0.860777 0.368778 0.832226
O O11 0.000000 0.500000 0.500000
O O12 0.744929 0.944176 0.079879
O O13 0.663544 0.233044 0.734072
O O14 0.174935 0.080228 0.822850
O O15 0.909433 0.458929 0.892615
O O16 0.271587 0.545593 0.679222
O O17 0.500000 0.500000 0.500000
#
# Coordination Sequence:
#
# PCOD8042895 Si02
#       8
#     2   2   2   2   2   2   2   2
#     4  10  19  35  64  89 118 155 215 259 290 348
#     4  10  21  38  64  92 119 158 211 256 303 355
#     4  10  21  38  63  84 114 161 209 248 291 366
#     4  12  23  39  63  92 126 163 194 260 320 367
#     4  11  24  38  59  91 130 158 206 248 320 369
#     4  10  21  38  61  90 121 161 206 253 294 367
#     4  11  20  38  64  90 123 156 208 252 300 368
#     4  10  20  37  62  89 116 162 211 252 298 364
#
# _framework density 20.687764999999999
#
# number of rings (size 3 to 8) (size 9 to 14) (size 15 to 20)
#    0.000    1.500    3.750    3.375    0.000    6.000 
#    0.000    0.625    2.750    0.000    0.000    0.000 
#    0.000    0.000    0.000    0.000    0.000    0.000 
#
# Total GULP energy -198284.236078 kJ/mol
# GULP energy per Si atom -12392.764755 kJ/mol
# Density = 2.064068 g / cm^3
# Si number density = 20.687765 Si / 1000 Ang^3
#
#
#
# Elastic Constant Matrix: (Units=GPa)
#
#
# Indices 1 2 3 4 5 6 
#
# 1 119.0399 42.0396 60.0718 -8.2181 21.3475 31.2668
# 2 42.0396 61.4514 35.8803 5.9710 7.5463 24.4108
# 3 60.0718 35.8803 157.2221 -9.6044 4.3661 17.0943
# 4 -8.2181 5.9710 -9.6044 40.9747 4.8123 7.1092
# 5 21.3475 7.5463 4.3661 4.8123 37.6585 1.5963
# 6 31.2668 24.4108 17.0943 7.1092 1.5963 33.8951
#
#
#
# Elastic Compliance Matrix: (Units=1/GPa)
#
#
# Indices 1 2 3 4 5 6 
#
# 1 0.016623 -0.004397 -0.003515 0.006098 -0.008436 -0.011276
# 2 -0.004397 0.026740 -0.003169 -0.003104 -0.001556 -0.012880
# 3 -0.003515 -0.003169 0.008368 0.001385 0.001440 0.000946
# 4 0.006098 -0.003104 0.001385 0.028849 -0.006265 -0.009844
# 5 -0.008436 -0.001556 0.001440 -0.006265 0.031943 0.007985
# 6 -0.011276 -0.012880 0.000946 -0.009844 0.007985 0.050392
#
#
# Mechanical properties :
#
#
# Convention : Reuss Voigt Hill
#
# Bulk Modulus (GPa) = 33.81754 68.18852 51.00303
# Shear Modulus (GPa) = 25.64994 35.82044 30.73519
#
# Velocity S-wave (km/s) = 3.52498 4.16562 3.85862
# Velocity P-wave (km/s) = 5.74016 7.49459 6.67527
#
# Compressibility (1/GPa) = 0.02957046
#
# Stress axis : x y z
#
# Youngs Moduli (GPa) = 60.15931 37.39732 119.49775
#
# Poissons Ratio (x) = 0.16442 0.42004
# Poissons Ratio (y) = 0.26449 0.37864
# Poissons Ratio (z) = 0.21146 0.11850
#
# Static dielectric constant tensor:
#      x y z
#    x 3.588630 0.412370 -0.095330 
#    y 0.412370 3.756220 -0.107770 
#    z -0.095330 -0.107770 4.435510 
# 
# 
# High freq. dielectric constant tensor:
#      x y z
#    x 1.780510 0.034080 0.002640 
#    y 0.034080 1.795020 0.004490 
#    z 0.002640 0.004490 1.835820 
# 
# From -- ./inp_files/277844.got.cif
#   From: 2010.06.25/outbox.cif.g09.slc.cpg/sg2_139_cif.got.tgz:277844.got - 2010.06.27 13:26:56.
