data_PCOD8042665
_publ_section_title
;
Structure prediction by ZEFSAII (Michael W. Deem and Ramdas Pophale) SiO2 
 PCOD8042665
Probable space group: P -1
;
_chemical_formula_sum "Si O2"
_cell_formula_units_Z 16
_cell_length_a 22.428436
_cell_length_b 9.558326
_cell_length_c 15.613708
_cell_angle_alpha 32.928568
_cell_angle_beta 151.654833
_cell_angle_gamma 146.691987
_cell_volume 800.524533
_symmetry_space_group_name_H-M "P -1"
_symmetry_group_IT_number 2
_symmetry_cell_setting 'triclinic'
loop_
_space_group_symop_operation_xyz
x,y,z
-x,-y,-z
loop_
_atom_site_type_symbol
_atom_site_label
_atom_site_fract_x
_atom_site_fract_y
_atom_site_fract_z
Si Si1 0.213972 0.005762 0.243097
Si Si2 0.434819 0.523068 0.315797
Si Si3 0.311228 0.214713 0.611148
Si Si4 0.041053 0.827770 0.392825
Si Si5 0.815855 0.340642 0.775495
Si Si6 0.093168 0.830364 0.855485
Si Si7 0.976057 0.708066 0.190996
Si Si8 0.233764 0.818640 0.867974
O O1 0.361384 0.199489 0.363252
O O2 0.237170 0.917452 0.223153
O O3 0.117120 0.180204 0.041875
O O4 0.124870 0.739617 0.325286
O O5 0.500000 0.500000 0.500000
O O6 0.543865 0.698943 0.293976
O O7 0.329120 0.677059 0.104467
O O8 0.282570 0.493495 0.441583
O O9 0.200439 0.993390 0.523649
O O10 0.317484 0.086515 0.778777
O O11 0.000000 0.500000 0.500000
O O12 0.999214 0.890964 0.213059
O O13 0.955343 0.921092 0.306364
O O14 0.967544 0.538315 0.839686
O O15 0.806663 0.213596 0.924278
O O16 0.164852 0.912643 0.812217
O O17 0.883496 0.376863 0.246076
#
# Coordination Sequence:
#
# PCOD8042665 Si02
#       8
#     2   2   2   2   2   2   2   2
#     4  10  20  35  64  86 119 155 206 253 292 357
#     4  11  24  42  63  86 119 167 210 247 296 364
#     4  11  24  38  60  91 126 163 200 242 314 364
#     4  11  21  36  61  90 126 155 194 255 307 368
#     4  10  20  36  61  91 125 158 199 256 299 362
#     4  10  21  36  60  93 126 156 201 251 312 348
#     4  10  19  35  59  95 115 151 202 249 310 344
#     4  11  22  40  63  87 125 158 199 256 304 366
#
# _framework density 19.986896000000002
#
# number of rings (size 3 to 8) (size 9 to 14) (size 15 to 20)
#    0.000    1.500    3.750    1.875    0.000    3.500 
#    0.000    0.000    0.000    2.250    0.000    0.000 
#    0.000    0.000    0.000    0.000    0.000    0.000 
#
# Total GULP energy -198277.287522 kJ/mol
# GULP energy per Si atom -12392.330470 kJ/mol
# Density = 1.994140 g / cm^3
# Si number density = 19.986896 Si / 1000 Ang^3
#
#
#
# Elastic Constant Matrix: (Units=GPa)
#
#
# Indices 1 2 3 4 5 6 
#
# 1 132.9749 55.8386 24.5860 13.5216 -2.9159 -2.4208
# 2 55.8386 110.6965 39.7122 9.4834 2.7211 -8.3208
# 3 24.5860 39.7122 72.7503 4.2609 -2.8093 -4.8721
# 4 13.5216 9.4834 4.2609 28.5746 -1.8304 -3.3188
# 5 -2.9159 2.7211 -2.8093 -1.8304 27.2805 -0.1453
# 6 -2.4208 -8.3208 -4.8721 -3.3188 -0.1453 36.8910
#
#
#
# Elastic Compliance Matrix: (Units=1/GPa)
#
#
# Indices 1 2 3 4 5 6 
#
# 1 0.009889 -0.004572 -0.000669 -0.003070 0.001234 -0.000742
# 2 -0.004572 0.013773 -0.005859 -0.001478 -0.002555 0.001890
# 3 -0.000669 -0.005859 0.017325 -0.000068 0.002297 0.000926
# 4 -0.003070 -0.001478 -0.000068 0.037428 0.002339 0.002833
# 5 0.001234 -0.002555 0.002297 0.002339 0.037437 0.000166
# 6 -0.000742 0.001890 0.000926 0.002833 0.000166 0.027862
#
#
# Mechanical properties :
#
#
# Convention : Reuss Voigt Hill
#
# Bulk Modulus (GPa) = 53.22453 61.85504 57.53979
# Shear Modulus (GPa) = 29.04004 31.63488 30.33746
#
# Velocity S-wave (km/s) = 3.81590 3.98273 3.90021
# Velocity P-wave (km/s) = 6.78987 7.22250 7.00952
#
# Compressibility (1/GPa) = 0.01878833
#
# Stress axis : x y z
#
# Youngs Moduli (GPa) = 101.11945 72.60516 57.72164
#
# Poissons Ratio (x) = 0.33192 0.03860
# Poissons Ratio (y) = 0.46228 0.33818
# Poissons Ratio (z) = 0.06763 0.42538
#
# Static dielectric constant tensor:
#      x y z
#    x 3.848620 -0.120250 -0.318680 
#    y -0.120250 3.834930 0.179530 
#    z -0.318680 0.179530 3.692050 
# 
# 
# High freq. dielectric constant tensor:
#      x y z
#    x 1.780350 -0.006520 -0.010710 
#    y -0.006520 1.774980 -0.002040 
#    z -0.010710 -0.002040 1.770970 
# 
# From -- ./inp_files/263030.got.cif
#   From: 2010.06.25/outbox.cif.g09.slc.cpg/sg2_132_cif.got.tgz:263030.got - 2010.06.27 13:26:56.
