data_PCOD8042523
_publ_section_title
;
Structure prediction by ZEFSAII (Michael W. Deem and Ramdas Pophale) SiO2 
 PCOD8042523
Probable space group: P -1
;
_chemical_formula_sum "Si O2"
_cell_formula_units_Z 16
_cell_length_a 12.124402
_cell_length_b 15.585295
_cell_length_c 9.047703
_cell_angle_alpha 100.779659
_cell_angle_beta 127.566300
_cell_angle_gamma 120.588079
_cell_volume 798.838322
_symmetry_space_group_name_H-M "P -1"
_symmetry_group_IT_number 2
_symmetry_cell_setting 'triclinic'
loop_
_space_group_symop_operation_xyz
x,y,z
-x,-y,-z
loop_
_atom_site_type_symbol
_atom_site_label
_atom_site_fract_x
_atom_site_fract_y
_atom_site_fract_z
Si Si1 0.278052 0.872885 0.379762
Si Si2 0.002473 0.803215 0.880258
Si Si3 0.840516 0.639447 0.406844
Si Si4 0.238420 0.155209 0.408057
Si Si5 0.562871 0.869180 0.676722
Si Si6 0.772241 0.910916 0.126163
Si Si7 0.272380 0.923428 0.715501
Si Si8 0.570670 0.673461 0.107683
O O1 0.308012 0.784681 0.419448
O O2 0.288049 0.936857 0.554845
O O3 0.500000 0.000000 0.500000
O O4 0.042530 0.776210 0.063886
O O5 0.892951 0.679194 0.636462
O O6 0.831433 0.801690 0.749018
O O7 0.250583 0.961062 0.071590
O O8 0.703927 0.650329 0.225331
O O9 0.078263 0.754471 0.547000
O O10 0.691044 0.475802 0.211769
O O11 0.342016 0.126796 0.393409
O O12 0.440336 0.286137 0.727885
O O13 0.014805 0.013772 0.274738
O O14 0.564614 0.806896 0.800334
O O15 0.717502 0.805496 0.157434
O O16 0.789551 0.010740 0.259736
O O17 0.500000 0.000000 0.000000
#
# Coordination Sequence:
#
# PCOD8042523 Si02
#       8
#     2   2   2   2   2   2   2   2
#     4  10  21  33  56  90 116 158 195 245 300 347
#     4   9  17  35  55  84 112 155 193 236 300 346
#     4  10  21  41  59  85 126 156 193 253 299 361
#     4  10  20  36  60  89 123 150 197 256 297 349
#     4  10  19  35  57  88 124 149 196 253 297 348
#     4  11  20  36  60  97 111 153 204 253 294 347
#     4  12  21  38  64  86 123 153 207 249 287 360
#     4  10  22  37  61  90 120 155 197 248 312 347
#
# _framework density 20.029081999999999
#
# number of rings (size 3 to 8) (size 9 to 14) (size 15 to 20)
#    0.000    1.750    5.000    2.625    3.500    1.000 
#    0.000    1.875    0.000    8.250    0.000    0.000 
#    0.000    0.000    0.000    0.000    0.000    0.000 
#
# Total GULP energy -198253.215974 kJ/mol
# GULP energy per Si atom -12390.825998 kJ/mol
# Density = 1.998350 g / cm^3
# Si number density = 20.029082 Si / 1000 Ang^3
#
#
#
# Elastic Constant Matrix: (Units=GPa)
#
#
# Indices 1 2 3 4 5 6 
#
# 1 95.0159 39.6865 37.5468 -2.4737 -11.8137 12.0039
# 2 39.6865 62.8592 50.5031 -22.5344 -12.1260 2.3436
# 3 37.5468 50.5031 125.9255 -14.5508 -19.3919 -1.5633
# 4 -2.4737 -22.5344 -14.5508 36.3748 1.6620 -2.1976
# 5 -11.8137 -12.1260 -19.3919 1.6620 19.4667 -1.8892
# 6 12.0039 2.3436 -1.5633 -2.1976 -1.8892 21.0016
#
#
#
# Elastic Compliance Matrix: (Units=1/GPa)
#
#
# Indices 1 2 3 4 5 6 
#
# 1 0.017061 -0.011893 -0.001009 -0.007238 0.001675 -0.009106
# 2 -0.011893 0.038416 -0.008457 0.019560 0.007061 0.004563
# 3 -0.001009 -0.008457 0.012728 -0.000356 0.007128 0.003072
# 4 -0.007238 0.019560 -0.000356 0.039149 0.004721 0.006449
# 5 0.001675 0.007061 0.007128 0.004721 0.063971 0.005034
# 6 -0.009106 0.004563 0.003072 0.006449 0.005034 0.053667
#
#
# Mechanical properties :
#
#
# Convention : Reuss Voigt Hill
#
# Bulk Modulus (GPa) = 39.23399 59.91923 49.57661
# Shear Modulus (GPa) = 18.10256 25.77291 21.93773
#
# Velocity S-wave (km/s) = 3.00961 3.59106 3.31311
# Velocity P-wave (km/s) = 5.63099 6.86843 6.28026
#
# Compressibility (1/GPa) = 0.02548811
#
# Stress axis : x y z
#
# Youngs Moduli (GPa) = 58.61326 26.03094 78.56607
#
# Poissons Ratio (x) = 0.30959 0.07924
# Poissons Ratio (y) = 0.69711 0.66439
# Poissons Ratio (z) = 0.05912 0.22013
#
# Static dielectric constant tensor:
#      x y z
#    x 3.632060 -0.161690 -0.016650 
#    y -0.161690 3.870810 -0.540010 
#    z -0.016650 -0.540010 4.272450 
# 
# 
# High freq. dielectric constant tensor:
#      x y z
#    x 1.774410 0.003220 -0.007920 
#    y 0.003220 1.755200 -0.042970 
#    z -0.007920 -0.042970 1.777060 
# 
# From -- ./inp_files/279538.got.cif
#   From: 2010.06.25/outbox.cif.g09.slc.cpg/sg2_140_cif.got.tgz:279538.got - 2010.06.27 13:26:56.
