data_PCOD8042460
_publ_section_title
;
Structure prediction by ZEFSAII (Michael W. Deem and Ramdas Pophale) SiO2 
 PCOD8042460
Probable space group: P -1
;
_chemical_formula_sum "Si O2"
_cell_formula_units_Z 16
_cell_length_a 13.059851
_cell_length_b 16.217883
_cell_length_c 12.173179
_cell_angle_alpha 157.835270
_cell_angle_beta 136.573094
_cell_angle_gamma 41.158413
_cell_volume 635.811403
_symmetry_space_group_name_H-M "P -1"
_symmetry_group_IT_number 2
_symmetry_cell_setting 'triclinic'
loop_
_space_group_symop_operation_xyz
x,y,z
-x,-y,-z
loop_
_atom_site_type_symbol
_atom_site_label
_atom_site_fract_x
_atom_site_fract_y
_atom_site_fract_z
Si Si1 0.840199 0.442260 0.275958
Si Si2 0.705562 0.088857 0.840870
Si Si3 0.349144 0.258761 0.791198
Si Si4 0.286228 0.107782 0.168299
Si Si5 0.629668 0.913763 0.171259
Si Si6 0.177868 0.775708 0.380312
Si Si7 0.989760 0.674230 0.939189
Si Si8 0.120884 0.539541 0.231120
O O1 0.698440 0.659532 0.474383
O O2 0.000000 0.500000 0.500000
O O3 0.849964 0.408308 0.109572
O O4 0.824567 0.214045 0.039018
O O5 0.525622 0.250886 0.886478
O O6 0.729250 0.845131 0.497069
O O7 0.749445 0.048140 0.954103
O O8 0.359118 0.082669 0.683587
O O9 0.246901 0.512596 0.061741
O O10 0.448480 0.982330 0.078705
O O11 0.151875 0.168658 0.048091
O O12 0.704411 0.089632 0.390320
O O13 0.715697 0.662915 0.881943
O O14 0.157615 0.762929 0.483071
O O15 0.012121 0.847937 0.269231
O O16 0.952990 0.451935 0.693335
O O17 0.000000 0.500000 0.000000
#
# Coordination Sequence:
#
# PCOD8042460 Si02
#       8
#     2   2   2   2   2   2   2   2
#     4  10  21  36  55  82 119 158 194 232 284 352
#     4  10  19  35  56  85 118 154 194 238 295 345
#     4   9  19  33  58  87 115 150 194 244 289 347
#     4  10  22  38  57  85 120 151 190 243 293 349
#     4  10  20  37  62  88 112 148 195 245 296 340
#     4  10  19  37  61  83 111 149 196 245 290 344
#     4  10  21  37  55  80 116 154 190 236 289 342
#     4   9  21  39  58  83 115 149 194 244 290 347
#
# _framework density 25.164695999999999
#
# number of rings (size 3 to 8) (size 9 to 14) (size 15 to 20)
#    0.000    2.250    0.000    2.250    0.000    4.500 
#    0.000   18.125    0.000    0.000    0.000    0.000 
#    0.000    0.000    0.000    0.000    0.000    0.000 
#
# Total GULP energy -198239.494623 kJ/mol
# GULP energy per Si atom -12389.968414 kJ/mol
# Density = 2.510742 g / cm^3
# Si number density = 25.164696 Si / 1000 Ang^3
#
#
#
# Elastic Constant Matrix: (Units=GPa)
#
#
# Indices 1 2 3 4 5 6 
#
# 1 150.4242 46.5967 39.0049 8.9788 42.9882 25.3389
# 2 46.5967 105.4248 25.0881 7.7185 16.6867 7.7470
# 3 39.0049 25.0881 73.6836 4.8761 36.0479 16.0259
# 4 8.9788 7.7185 4.8761 19.2161 4.9212 4.2259
# 5 42.9882 16.6867 36.0479 4.9212 46.6054 11.4003
# 6 25.3389 7.7470 16.0259 4.2259 11.4003 42.4928
#
#
#
# Elastic Compliance Matrix: (Units=1/GPa)
#
#
# Indices 1 2 3 4 5 6 
#
# 1 0.010405 -0.003091 0.000094 -0.000918 -0.007599 -0.003546
# 2 -0.003091 0.011504 -0.002731 -0.002906 0.000953 0.000809
# 3 0.000094 -0.002731 0.023174 0.000169 -0.016072 -0.004003
# 4 -0.000918 -0.002906 0.000169 0.055205 -0.003187 -0.003622
# 5 -0.007599 0.000953 -0.016072 -0.003187 0.040954 -0.000251
# 6 -0.003546 0.000809 -0.004003 -0.003622 -0.000251 0.027438
#
#
# Mechanical properties :
#
#
# Convention : Reuss Voigt Hill
#
# Bulk Modulus (GPa) = 29.73701 61.21245 45.47473
# Shear Modulus (GPa) = 26.13108 36.25240 31.19174
#
# Velocity S-wave (km/s) = 3.22592 3.79965 3.52448
# Velocity P-wave (km/s) = 5.07129 6.60510 5.88835
#
# Compressibility (1/GPa) = 0.03362813
#
# Stress axis : x y z
#
# Youngs Moduli (GPa) = 96.11107 86.92843 43.15226
#
# Poissons Ratio (x) = 0.26866 -0.00407
# Poissons Ratio (y) = 0.29704 0.11783
# Poissons Ratio (z) = -0.00906 0.23737
#
# Static dielectric constant tensor:
#      x y z
#    x 5.519600 0.185000 -0.314890 
#    y 0.185000 4.681520 0.358410 
#    z -0.314890 0.358410 4.493840 
# 
# 
# High freq. dielectric constant tensor:
#      x y z
#    x 2.029700 0.006100 -0.000350 
#    y 0.006100 2.010780 0.022750 
#    z -0.000350 0.022750 1.974200 
# 
# From -- ./inp_files/535125.got.cif
#   From: 2010.06.25/outbox.cif.g09.slc.cpg/sg2_268_cif.got.tgz:535125.got - 2010.06.27 13:26:56.
