data_PCOD8042672
_publ_section_title
;
Structure prediction by ZEFSAII (Michael W. Deem and Ramdas Pophale) SiO2 
 PCOD8042672
Probable space group: P -1
;
_chemical_formula_sum "Si O2"
_cell_formula_units_Z 16
_cell_length_a 22.237195
_cell_length_b 13.969795
_cell_length_c 9.481077
_cell_angle_alpha 90.515270
_cell_angle_beta 79.672609
_cell_angle_gamma 159.599885
_cell_volume 894.836540
_symmetry_space_group_name_H-M "P -1"
_symmetry_group_IT_number 2
_symmetry_cell_setting 'triclinic'
loop_
_space_group_symop_operation_xyz
x,y,z
-x,-y,-z
loop_
_atom_site_type_symbol
_atom_site_label
_atom_site_fract_x
_atom_site_fract_y
_atom_site_fract_z
Si Si1 0.825329 0.887199 0.205706
Si Si2 0.907602 0.356642 0.689849
Si Si3 0.133308 0.327042 0.837891
Si Si4 0.501245 0.746007 0.721198
Si Si5 0.108755 0.510468 0.804765
Si Si6 0.573487 0.876556 0.379011
Si Si7 0.871177 0.811244 0.414880
Si Si8 0.115344 0.803305 0.819055
O O1 0.621229 0.536788 0.227465
O O2 0.868310 0.911145 0.344903
O O3 0.815996 0.986128 0.232857
O O4 0.996072 0.110713 0.028637
O O5 0.000000 0.500000 0.500000
O O6 0.976891 0.360844 0.734059
O O7 0.978074 0.555117 0.749831
O O8 0.666611 0.996328 0.777367
O O9 0.350583 0.611877 0.794243
O O10 0.132696 0.433235 0.780972
O O11 0.050000 0.142672 0.738576
O O12 0.616953 0.925007 0.526880
O O13 0.331554 0.882481 0.708591
O O14 0.008772 0.392437 0.990193
O O15 0.342702 0.537076 0.441275
O O16 0.680488 0.950899 0.249292
O O17 0.000000 0.000000 0.500000
#
# Coordination Sequence:
#
# PCOD8042672 Si02
#       8
#     2   2   2   2   2   2   2   2
#     4   9  20  40  58  76 111 152 178 218 279 331
#     4  11  20  36  55  87 111 138 187 233 268 318
#     4   9  20  40  58  76 111 152 178 218 279 331
#     4  10  19  35  60  82 107 144 187 224 273 322
#     4  10  20  38  57  80 112 147 179 220 280 328
#     4   9  18  36  55  78 111 147 173 222 281 324
#     4  10  21  36  54  84 109 141 186 229 266 315
#     4  10  20  38  57  80 112 147 179 220 280 328
#
# _framework density 17.88036
#
# number of rings (size 3 to 8) (size 9 to 14) (size 15 to 20)
#    0.000    2.500    2.500    3.000    0.000    5.000 
#   13.500    2.500    0.000    0.000    0.000    0.000 
#    0.000    0.000    0.000    0.000    0.000    0.000 
#
# Total GULP energy -198291.502575 kJ/mol
# GULP energy per Si atom -12393.218911 kJ/mol
# Density = 1.783966 g / cm^3
# Si number density = 17.880360 Si / 1000 Ang^3
#
#
#
# Elastic Constant Matrix: (Units=GPa)
#
#
# Indices 1 2 3 4 5 6 
#
# 1 76.1519 46.0075 13.9397 -0.0652 9.9007 -10.4607
# 2 46.0075 103.3960 31.3879 9.7083 5.4236 7.8184
# 3 13.9397 31.3879 73.2093 -7.9143 15.1609 -0.4577
# 4 -0.0652 9.7083 -7.9143 25.1227 -1.9183 7.4700
# 5 9.9007 5.4236 15.1609 -1.9183 24.9869 -2.0719
# 6 -10.4607 7.8184 -0.4577 7.4700 -2.0719 26.4209
#
#
#
# Elastic Compliance Matrix: (Units=1/GPa)
#
#
# Indices 1 2 3 4 5 6 
#
# 1 0.021678 -0.010873 0.002070 0.001143 -0.006485 0.011005
# 2 -0.010873 0.017622 -0.006982 -0.006529 0.003596 -0.007513
# 3 0.002070 -0.006982 0.019265 0.007932 -0.010371 0.000163
# 4 0.001143 -0.006529 0.007932 0.048063 -0.001083 -0.011152
# 5 -0.006485 0.003596 -0.010371 -0.001083 0.048041 0.000262
# 6 0.011005 -0.007513 0.000163 -0.011152 0.000262 0.047605
#
#
# Mechanical properties :
#
#
# Convention : Reuss Voigt Hill
#
# Bulk Modulus (GPa) = 37.04708 48.38082 42.71395
# Shear Modulus (GPa) = 20.58929 26.06756 23.32843
#
# Velocity S-wave (km/s) = 3.39706 3.82237 3.61598
# Velocity P-wave (km/s) = 6.01258 6.82624 6.43229
#
# Compressibility (1/GPa) = 0.02699268
#
# Stress axis : x y z
#
# Youngs Moduli (GPa) = 46.13022 56.74737 51.90666
#
# Poissons Ratio (x) = 0.61703 -0.10742
# Poissons Ratio (y) = 0.50159 0.36243
# Poissons Ratio (z) = -0.09547 0.39623
#
# Static dielectric constant tensor:
#      x y z
#    x 3.354760 -0.073670 0.035680 
#    y -0.073670 3.359460 -0.169790 
#    z 0.035680 -0.169790 3.473950 
# 
# 
# High freq. dielectric constant tensor:
#      x y z
#    x 1.690630 -0.007200 -0.000270 
#    y -0.007200 1.680340 -0.014900 
#    z -0.000270 -0.014900 1.707230 
# 
# From -- ./inp_files/354366.got.cif
#   From: 2010.06.25/outbox.cif.g09.slc.cpg/sg2_178_cif.got.tgz:354366.got - 2010.06.27 13:26:56.
