data_PCOD8042875
_publ_section_title
;
Structure prediction by ZEFSAII (Michael W. Deem and Ramdas Pophale) SiO2 
 PCOD8042875
Probable space group: P -1
;
_chemical_formula_sum "Si O2"
_cell_formula_units_Z 16
_cell_length_a 9.537231
_cell_length_b 11.180702
_cell_length_c 12.960741
_cell_angle_alpha 54.844805
_cell_angle_beta 127.488104
_cell_angle_gamma 91.465913
_cell_volume 776.096463
_symmetry_space_group_name_H-M "P -1"
_symmetry_group_IT_number 2
_symmetry_cell_setting 'triclinic'
loop_
_space_group_symop_operation_xyz
x,y,z
-x,-y,-z
loop_
_atom_site_type_symbol
_atom_site_label
_atom_site_fract_x
_atom_site_fract_y
_atom_site_fract_z
Si Si1 0.001685 0.722216 0.417803
Si Si2 0.230463 0.657591 0.238878
Si Si3 0.116811 0.940872 0.689810
Si Si4 0.668869 0.670901 0.778981
Si Si5 0.968599 0.272855 0.087750
Si Si6 0.470889 0.339321 0.066020
Si Si7 0.943192 0.571974 0.272877
Si Si8 0.611216 0.340934 0.489561
O O1 0.892676 0.714180 0.267357
O O2 0.975959 0.609080 0.548701
O O3 0.239971 0.654842 0.533456
O O4 0.894656 0.909446 0.321364
O O5 0.455068 0.533747 0.355953
O O6 0.260938 0.756968 0.300607
O O7 0.119082 0.556467 0.281732
O O8 0.091515 0.778974 0.023178
O O9 0.021152 0.847714 0.757054
O O10 0.354469 0.811483 0.845616
O O11 0.000000 0.000000 0.500000
O O12 0.518097 0.726068 0.780861
O O13 0.520830 0.737079 0.579059
O O14 0.802705 0.760480 0.798597
O O15 0.808582 0.467762 0.942642
O O16 0.500000 0.500000 0.000000
O O17 0.255172 0.382413 0.902891
#
# Coordination Sequence:
#
# PCOD8042875 Si02
#       8
#     2   2   2   2   2   2   2   2
#     4  10  23  41  62  91 128 165 207 258 316 370
#     4   9  18  36  63  91 117 156 210 254 302 368
#     4  12  26  41  61  90 132 164 206 265 321 365
#     4  10  19  35  63  94 118 156 210 253 303 368
#     4  10  21  37  60  89 124 158 203 260 306 368
#     4  12  22  38  67  93 121 165 215 255 311 374
#     4  10  21  41  67  90 120 165 214 258 305 382
#     4   9  18  34  60  91 120 155 202 252 304 368
#
# _framework density 20.615993
#
# number of rings (size 3 to 8) (size 9 to 14) (size 15 to 20)
#    0.000    1.750    2.500    2.250    1.750    0.500 
#    0.000    6.250    2.750    0.000    0.000    0.000 
#    0.000    0.000    0.000    0.000    0.000    0.000 
#
# Total GULP energy -198328.873892 kJ/mol
# GULP energy per Si atom -12395.554618 kJ/mol
# Density = 2.056907 g / cm^3
# Si number density = 20.615993 Si / 1000 Ang^3
#
#
#
# Elastic Constant Matrix: (Units=GPa)
#
#
# Indices 1 2 3 4 5 6 
#
# 1 124.9479 48.5609 44.5352 0.1465 -4.5530 -4.3317
# 2 48.5609 114.5089 49.1934 14.3273 7.3673 0.4365
# 3 44.5352 49.1934 89.9429 31.0975 -10.5825 10.1383
# 4 0.1465 14.3273 31.0975 44.3316 0.2119 8.5943
# 5 -4.5530 7.3673 -10.5825 0.2119 35.2543 5.3511
# 6 -4.3317 0.4365 10.1383 8.5943 5.3511 25.7707
#
#
#
# Elastic Compliance Matrix: (Units=1/GPa)
#
#
# Indices 1 2 3 4 5 6 
#
# 1 0.011301 -0.002788 -0.005973 0.004504 -0.000209 0.002838
# 2 -0.002788 0.013222 -0.006864 -0.000042 -0.005669 0.003199
# 3 -0.005973 -0.006864 0.024462 -0.013422 0.009296 -0.007965
# 4 0.004504 -0.000042 -0.013422 0.032816 -0.002985 -0.004286
# 5 -0.000209 -0.005669 0.009296 -0.002985 0.033791 -0.009617
# 6 0.002838 0.003199 -0.007965 -0.004286 -0.009617 0.045786
#
#
# Mechanical properties :
#
#
# Convention : Reuss Voigt Hill
#
# Bulk Modulus (GPa) = 56.38464 68.21984 62.30224
# Shear Modulus (GPa) = 25.18386 33.54535 29.36461
#
# Velocity S-wave (km/s) = 3.49889 4.03817 3.77816
# Velocity P-wave (km/s) = 6.61304 7.40979 7.02272
#
# Compressibility (1/GPa) = 0.01773533
#
# Stress axis : x y z
#
# Youngs Moduli (GPa) = 88.48674 75.63252 40.87958
#
# Poissons Ratio (x) = 0.21083 0.24417
# Poissons Ratio (y) = 0.24666 0.28061
# Poissons Ratio (z) = 0.52852 0.51917
#
# Static dielectric constant tensor:
#      x y z
#    x 4.007010 -0.106050 -0.053800 
#    y -0.106050 3.876150 0.503890 
#    z -0.053800 0.503890 3.670390 
# 
# 
# High freq. dielectric constant tensor:
#      x y z
#    x 1.823140 -0.005790 0.000140 
#    y -0.005790 1.797500 0.041890 
#    z 0.000140 0.041890 1.788040 
# 
# From -- ./inp_files/218647.got.cif
#   From: 2010.06.25/outbox.cif.g09.slc.cpg/sg2_110_cif.got.tgz:218647.got - 2010.06.27 13:26:56.
