data_PCOD8042646
_publ_section_title
;
Structure prediction by ZEFSAII (Michael W. Deem and Ramdas Pophale) SiO2 
 PCOD8042646
Probable space group: P -1
;
_chemical_formula_sum "Si O2"
_cell_formula_units_Z 10
_cell_length_a 12.728242
_cell_length_b 15.051173
_cell_length_c 15.849434
_cell_angle_alpha 161.222599
_cell_angle_beta 151.225246
_cell_angle_gamma 23.402176
_cell_volume 387.507176
_symmetry_space_group_name_H-M "P -1"
_symmetry_group_IT_number 2
_symmetry_cell_setting 'triclinic'
loop_
_space_group_symop_operation_xyz
x,y,z
-x,-y,-z
loop_
_atom_site_type_symbol
_atom_site_label
_atom_site_fract_x
_atom_site_fract_y
_atom_site_fract_z
Si Si1 0.336503 0.186485 0.923903
Si Si2 0.743972 0.676825 0.535858
Si Si3 0.102678 0.433740 0.270439
Si Si4 0.403802 0.425001 0.015565
Si Si5 0.789806 0.314238 0.574325
O O1 0.287883 0.404167 0.003649
O O2 0.649822 0.908206 0.903725
O O3 0.167052 0.016164 0.643452
O O4 0.210322 0.425442 0.129496
O O5 0.820072 0.505341 0.528018
O O6 0.000000 0.500000 0.500000
O O7 0.635110 0.064071 0.817406
O O8 0.520209 0.648210 0.308332
O O9 0.030700 0.741628 0.432950
O O10 0.849639 0.407190 0.075214
O O11 0.500000 0.500000 0.500000
#
# Coordination Sequence:
#
# PCOD8042646 Si02
#       5
#     2   2   2   2   2
#     4  10  21  38  58  90 130 162 197 242 294 359
#     4  11  26  46  64  89 123 156 205 266 313 362
#     4  10  23  40  65  92 125 163 206 252 298 361
#     4  11  24  41  66  94 120 161 207 249 308 367
#     4  10  19  35  59  87 127 168 195 237 298 354
#
# _framework density 25.805973999999999
#
# number of rings (size 3 to 8) (size 9 to 14) (size 15 to 20)
#    0.000    1.600    0.000    6.600    0.000   12.800 
#    0.000    0.000    0.000    1.200    0.000    0.000 
#    0.000    0.000    0.000    0.000    0.000    0.000 
#
# Total GULP energy -124009.328380 kJ/mol
# GULP energy per Si atom -12400.932838 kJ/mol
# Density = 2.574724 g / cm^3
# Si number density = 25.805974 Si / 1000 Ang^3
#
#
#
# Elastic Constant Matrix: (Units=GPa)
#
#
# Indices 1 2 3 4 5 6 
#
# 1 98.0764 31.2881 35.8643 8.9835 -11.9084 -22.5532
# 2 31.2881 84.9341 26.5723 -20.3207 -2.1965 -14.0041
# 3 35.8643 26.5723 152.8683 -27.5900 -3.0409 -10.7940
# 4 8.9835 -20.3207 -27.5900 52.8238 -9.9453 9.4635
# 5 -11.9084 -2.1965 -3.0409 -9.9453 35.7935 1.3178
# 6 -22.5532 -14.0041 -10.7940 9.4635 1.3178 30.4671
#
#
#
# Elastic Compliance Matrix: (Units=1/GPa)
#
#
# Indices 1 2 3 4 5 6 
#
# 1 0.016827 -0.005118 -0.003730 -0.008383 0.002222 0.011289
# 2 -0.005118 0.015549 -0.000181 0.006753 0.001070 0.001150
# 3 -0.003730 -0.000181 0.008328 0.005394 0.001014 -0.001613
# 4 -0.008383 0.006753 0.005394 0.028863 0.006488 -0.010436
# 5 0.002222 0.001070 0.001014 0.006488 0.030663 -0.000845
# 6 0.011289 0.001150 -0.001613 -0.010436 -0.000845 0.044415
#
#
# Mechanical properties :
#
#
# Convention : Reuss Voigt Hill
#
# Bulk Modulus (GPa) = 44.15790 58.14758 51.15274
# Shear Modulus (GPa) = 29.36871 39.96051 34.66461
#
# Velocity S-wave (km/s) = 3.37717 3.93937 3.66905
# Velocity P-wave (km/s) = 5.68821 6.57822 6.14934
#
# Compressibility (1/GPa) = 0.02264600
#
# Stress axis : x y z
#
# Youngs Moduli (GPa) = 59.42988 64.31341 120.07965
#
# Poissons Ratio (x) = 0.32918 0.44784
# Poissons Ratio (y) = 0.30419 0.02169
# Poissons Ratio (z) = 0.22164 0.01162
#
# Static dielectric constant tensor:
#      x y z
#    x 4.894590 0.344970 0.353850 
#    y 0.344970 5.698610 -0.340670 
#    z 0.353850 -0.340670 5.112020 
# 
# 
# High freq. dielectric constant tensor:
#      x y z
#    x 2.014790 -0.009610 -0.000230 
#    y -0.009610 2.068040 -0.028930 
#    z -0.000230 -0.028930 2.037890 
# 
# From -- ./inp_files/86919.got.cif
#   From: 2010.06.25/outbox.cif.g09.slc.cpg/sg2_44_cif.got.tgz:86919.got - 2010.06.27 13:26:56.
