data_PCOD8042029
_publ_section_title
;
Structure prediction by ZEFSAII (Michael W. Deem and Ramdas Pophale) SiO2 
 PCOD8042029
Probable space group: P -1
;
_chemical_formula_sum "Si O2"
_cell_formula_units_Z 16
_cell_length_a 13.622809
_cell_length_b 26.216839
_cell_length_c 10.033001
_cell_angle_alpha 51.331979
_cell_angle_beta 65.738908
_cell_angle_gamma 22.162063
_cell_volume 867.476260
_symmetry_space_group_name_H-M "P -1"
_symmetry_group_IT_number 2
_symmetry_cell_setting 'triclinic'
loop_
_space_group_symop_operation_xyz
x,y,z
-x,-y,-z
loop_
_atom_site_type_symbol
_atom_site_label
_atom_site_fract_x
_atom_site_fract_y
_atom_site_fract_z
Si Si1 0.720952 0.203736 0.484886
Si Si2 0.854967 0.466710 0.039818
Si Si3 0.598719 0.940842 0.889891
Si Si4 0.608595 0.170655 0.368860
Si Si5 0.289789 0.403458 0.598889
Si Si6 0.180957 0.287379 0.427584
Si Si7 0.814389 0.679783 0.165377
Si Si8 0.717879 0.438255 0.973558
O O1 0.689467 0.156300 0.490286
O O2 0.629575 0.239044 0.631976
O O3 0.464184 0.403216 0.263572
O O4 0.070792 0.034225 0.551546
O O5 0.787630 0.429671 0.095484
O O6 0.089730 0.332252 0.251666
O O7 0.541826 0.689234 0.877068
O O8 0.993347 0.429599 0.900282
O O9 0.955493 0.763920 0.955307
O O10 0.364000 0.117302 0.643036
O O11 0.574859 0.877866 0.968074
O O12 0.500000 0.000000 0.000000
O O13 0.398914 0.226523 0.424366
O O14 0.371407 0.281874 0.785260
O O15 0.138844 0.524855 0.613228
O O16 0.046230 0.552082 0.370540
O O17 0.500000 0.500000 0.000000
#
# Coordination Sequence:
#
# PCOD8042029 Si02
#       8
#     2   2   2   2   2   2   2   2
#     4  10  19  34  56  86 113 146 199 237 271 339
#     4  10  21  38  57  87 116 149 193 240 281 343
#     4  11  21  35  56  90 113 146 197 237 277 342
#     4  10  19  34  57  87 112 148 195 236 275 340
#     4  11  18  35  59  83 113 153 185 239 285 324
#     4  12  22  34  63  86 116 152 191 235 293 336
#     4  10  19  35  56  82 118 147 194 230 282 331
#     4  10  20  38  57  80 118 153 185 234 290 338
#
# _framework density 18.444306999999998
#
# number of rings (size 3 to 8) (size 9 to 14) (size 15 to 20)
#    0.000    1.500    6.250    1.875    0.000    2.000 
#    0.000    0.625    0.000    3.000    0.000    0.000 
#    0.000    0.000    0.000    0.000    0.000    0.000 
#
# Total GULP energy -198285.191501 kJ/mol
# GULP energy per Si atom -12392.824469 kJ/mol
# Density = 1.840233 g / cm^3
# Si number density = 18.444307 Si / 1000 Ang^3
#
#
#
# Elastic Constant Matrix: (Units=GPa)
#
#
# Indices 1 2 3 4 5 6 
#
# 1 71.5515 31.1499 32.2342 8.2464 -15.1401 -0.4719
# 2 31.1499 101.1481 19.6399 -1.1157 -8.1631 -6.9507
# 3 32.2342 19.6399 83.2254 0.4133 -5.9159 6.4034
# 4 8.2464 -1.1157 0.4133 26.4577 4.3559 -4.8819
# 5 -15.1401 -8.1631 -5.9159 4.3559 29.0042 -0.6319
# 6 -0.4719 -6.9507 6.4034 -4.8819 -0.6319 18.1204
#
#
#
# Elastic Compliance Matrix: (Units=1/GPa)
#
#
# Indices 1 2 3 4 5 6 
#
# 1 0.022283 -0.004921 -0.006621 -0.008918 0.010214 -0.001014
# 2 -0.004921 0.012131 -0.001408 0.003114 0.000219 0.005869
# 3 -0.006621 -0.001408 0.015294 0.000834 -0.000988 -0.005927
# 4 -0.008918 0.003114 0.000834 0.044624 -0.010041 0.012340
# 5 0.010214 0.000219 -0.000988 -0.010041 0.041165 -0.000571
# 6 -0.001014 0.005869 -0.005927 0.012340 -0.000571 0.062810
#
#
# Mechanical properties :
#
#
# Convention : Reuss Voigt Hill
#
# Bulk Modulus (GPa) = 42.00292 46.88589 44.44440
# Shear Modulus (GPa) = 21.53843 26.24319 23.89081
#
# Velocity S-wave (km/s) = 3.42095 3.77614 3.60292
# Velocity P-wave (km/s) = 6.19888 6.66991 6.43871
#
# Compressibility (1/GPa) = 0.02380787
#
# Stress axis : x y z
#
# Youngs Moduli (GPa) = 44.87677 82.43604 65.38500
#
# Poissons Ratio (x) = 0.40563 0.43292
# Poissons Ratio (y) = 0.22082 0.09209
# Poissons Ratio (z) = 0.29713 0.11610
#
# Static dielectric constant tensor:
#      x y z
#    x 3.906830 0.042950 -0.461000 
#    y 0.042950 3.857550 -0.177660 
#    z -0.461000 -0.177660 3.562330 
# 
# 
# High freq. dielectric constant tensor:
#      x y z
#    x 1.688200 0.007010 -0.026760 
#    y 0.007010 1.725570 -0.001300 
#    z -0.026760 -0.001300 1.707390 
# 
# From -- ./inp_files/320682.got.cif
#   From: 2010.06.25/outbox.cif.g09.slc.cpg/sg2_161_cif.got.tgz:320682.got - 2010.06.27 13:26:56.
