data_PCOD8042362
_publ_section_title
;
Structure prediction by ZEFSAII (Michael W. Deem and Ramdas Pophale) SiO2 
 PCOD8042362
Probable space group: P -1
;
_chemical_formula_sum "Si O2"
_cell_formula_units_Z 16
_cell_length_a 24.704202
_cell_length_b 15.208055
_cell_length_c 25.735999
_cell_angle_alpha 26.756566
_cell_angle_beta 11.363349
_cell_angle_gamma 26.503629
_cell_volume 836.735824
_symmetry_space_group_name_H-M "P -1"
_symmetry_group_IT_number 2
_symmetry_cell_setting 'triclinic'
loop_
_space_group_symop_operation_xyz
x,y,z
-x,-y,-z
loop_
_atom_site_type_symbol
_atom_site_label
_atom_site_fract_x
_atom_site_fract_y
_atom_site_fract_z
Si Si1 0.535044 0.640339 0.582131
Si Si2 0.985581 0.897352 0.011794
Si Si3 0.727885 0.490151 0.582174
Si Si4 0.756691 0.317378 0.991693
Si Si5 0.839680 0.276624 0.317945
Si Si6 0.026845 0.816040 0.399143
Si Si7 0.321695 0.505942 0.745743
Si Si8 0.483726 0.381695 0.026214
O O1 0.628064 0.458746 0.633157
O O2 0.436505 0.561217 0.663199
O O3 0.290108 0.812427 0.745621
O O4 0.806822 0.728593 0.267832
O O5 0.829261 0.088189 0.024449
O O6 0.000000 0.000000 0.000000
O O7 0.971484 0.609469 0.283309
O O8 0.828975 0.286066 0.628754
O O9 0.465619 0.644322 0.772592
O O10 0.624499 0.436110 0.004802
O O11 0.556051 0.336817 0.586604
O O12 0.763220 0.302459 0.314546
O O13 0.989533 0.053218 0.311621
O O14 0.047327 0.420462 0.061260
O O15 0.725393 0.768579 0.696690
O O16 0.214943 0.740468 0.211854
O O17 0.500000 0.500000 0.000000
#
# Coordination Sequence:
#
# PCOD8042362 Si02
#       8
#     2   2   2   2   2   2   2   2
#     4  12  22  35  56  83 114 142 190 227 276 325
#     4  12  21  33  54  81 113 153 184 218 264 334
#     4  10  19  35  51  78 110 142 177 217 265 327
#     4  10  20  33  50  74 110 151 179 210 267 315
#     4  10  21  43  61  80 110 140 190 224 293 328
#     4  10  21  36  61  77 105 153 180 216 277 332
#     4  10  23  39  61  84 108 142 176 247 280 322
#     4  10  21  35  53  82 114 141 182 228 263 316
#
# _framework density 19.121925999999998
#
# number of rings (size 3 to 8) (size 9 to 14) (size 15 to 20)
#    0.000    1.500    2.500    3.000    0.000    2.000 
#    0.000    1.250    0.000    0.000    0.000    0.000 
#    0.000    0.000    0.000    0.000    0.000    0.000 
#
# Total GULP energy -198303.733495 kJ/mol
# GULP energy per Si atom -12393.983343 kJ/mol
# Density = 1.907840 g / cm^3
# Si number density = 19.121926 Si / 1000 Ang^3
#
#
#
# Elastic Constant Matrix: (Units=GPa)
#
#
# Indices 1 2 3 4 5 6 
#
# 1 136.4656 31.8275 30.3559 -14.7841 -2.4600 4.7164
# 2 31.8275 98.5019 -2.1690 4.2896 5.2784 -21.3627
# 3 30.3559 -2.1690 116.5729 -17.8685 21.5567 -4.2913
# 4 -14.7841 4.2896 -17.8685 37.3547 -2.5227 -3.5493
# 5 -2.4600 5.2784 21.5567 -2.5227 24.2838 3.9831
# 6 4.7164 -21.3627 -4.2913 -3.5493 3.9831 19.3346
#
#
#
# Elastic Compliance Matrix: (Units=1/GPa)
#
#
# Indices 1 2 3 4 5 6 
#
# 1 0.010903 -0.007049 -0.004830 0.002203 0.009290 -0.013029
# 2 -0.007049 0.019256 0.005789 -0.000634 -0.014559 0.027163
# 3 -0.004830 0.005789 0.014210 0.004536 -0.016339 0.014927
# 4 0.002203 -0.000634 0.004536 0.030323 -0.001439 0.005631
# 5 0.009290 -0.014559 -0.016339 -0.001439 0.065502 -0.035737
# 6 -0.013029 0.027163 0.014927 0.005631 -0.035737 0.096620
#
#
# Mechanical properties :
#
#
# Convention : Reuss Voigt Hill
#
# Bulk Modulus (GPa) = 31.06670 52.39658 41.73164
# Shear Modulus (GPa) = 19.25131 35.62969 27.44050
#
# Velocity S-wave (km/s) = 3.17640 4.32127 3.79229
# Velocity P-wave (km/s) = 5.45294 7.23592 6.40676
#
# Compressibility (1/GPa) = 0.03218880
#
# Stress axis : x y z
#
# Youngs Moduli (GPa) = 91.72062 51.93212 70.37340
#
# Poissons Ratio (x) = 0.36605 0.33991
# Poissons Ratio (y) = 0.64650 -0.40738
# Poissons Ratio (z) = 0.44302 -0.30063
#
# Static dielectric constant tensor:
#      x y z
#    x 3.590580 -0.368710 0.043140 
#    y -0.368710 3.443290 -0.127720 
#    z 0.043140 -0.127720 3.484220 
# 
# 
# High freq. dielectric constant tensor:
#      x y z
#    x 1.742730 -0.025180 0.003970 
#    y -0.025180 1.727700 0.009530 
#    z 0.003970 0.009530 1.767610 
# 
# From -- ./inp_files/370531.got.cif
#   From: 2010.06.25/outbox.cif.g09.slc.cpg/sg2_186_cif.got.tgz:370531.got - 2010.06.27 13:26:56.
