data_PCOD8042084
_publ_section_title
;
Structure prediction by ZEFSAII (Michael W. Deem and Ramdas Pophale) SiO2 
 PCOD8042084
Probable space group: P -1
;
_chemical_formula_sum "Si O2"
_cell_formula_units_Z 16
_cell_length_a 5.186108
_cell_length_b 9.151748
_cell_length_c 15.995832
_cell_angle_alpha 87.924744
_cell_angle_beta 84.025982
_cell_angle_gamma 108.261534
_cell_volume 715.135728
_symmetry_space_group_name_H-M "P -1"
_symmetry_group_IT_number 2
_symmetry_cell_setting 'triclinic'
loop_
_space_group_symop_operation_xyz
x,y,z
-x,-y,-z
loop_
_atom_site_type_symbol
_atom_site_label
_atom_site_fract_x
_atom_site_fract_y
_atom_site_fract_z
Si Si1 0.870913 0.633080 0.519727
Si Si2 0.471551 0.361512 0.805060
Si Si3 0.300267 0.274921 0.185094
Si Si4 0.587017 0.058384 0.587177
Si Si5 0.068992 0.660565 0.099803
Si Si6 0.001138 0.105963 0.360866
Si Si7 0.155122 0.704012 0.910399
Si Si8 0.515254 0.647327 0.388088
O O1 0.037164 0.777759 0.567773
O O2 0.783682 0.702281 0.436657
O O3 0.611356 0.535990 0.587473
O O4 0.000000 0.500000 0.500000
O O5 0.588581 0.543645 0.808164
O O6 0.691433 0.290068 0.839648
O O7 0.412396 0.318854 0.711484
O O8 0.183449 0.285395 0.862932
O O9 0.173542 0.196008 0.276363
O O10 0.552169 0.220545 0.146164
O O11 0.064961 0.225894 0.123703
O O12 0.837351 0.005587 0.609258
O O13 0.308208 0.992985 0.653968
O O14 0.500000 0.000000 0.500000
O O15 0.679117 0.247312 0.582052
O O16 0.956275 0.478237 0.095249
O O17 0.186209 0.743346 0.006924
#
# Coordination Sequence:
#
# PCOD8042084 Si02
#       8
#     2   2   2   2   2   2   2   2
#     4  11  25  40  66  88 124 161 213 253 313 372
#     4  10  20  33  56  85 123 152 199 250 304 360
#     4  10  19  34  57  86 118 156 199 253 295 360
#     4  12  26  44  64  86 126 169 215 256 306 365
#     4   9  18  31  51  87 121 156 186 244 312 371
#     4  12  25  43  63  92 123 168 211 257 305 365
#     4   9  17  31  54  83 123 154 190 241 314 363
#     4  11  25  41  60  94 120 170 204 259 310 363
#
# _framework density 22.373377000000001
#
# number of rings (size 3 to 8) (size 9 to 14) (size 15 to 20)
#    0.000    1.500    2.500    2.625    5.250    4.000 
#    0.000    0.000    0.000    0.000    0.000   17.500 
#    0.000    0.000    0.000    0.000    0.000    0.000 
#
# Total GULP energy -198340.854787 kJ/mol
# GULP energy per Si atom -12396.303424 kJ/mol
# Density = 2.232245 g / cm^3
# Si number density = 22.373377 Si / 1000 Ang^3
#
#
#
# Elastic Constant Matrix: (Units=GPa)
#
#
# Indices 1 2 3 4 5 6 
#
# 1 134.9534 34.3223 41.2288 -6.6723 -2.9790 -9.8872
# 2 34.3223 66.2389 14.9022 -0.3772 4.0584 -4.0371
# 3 41.2288 14.9022 136.3340 5.2015 13.1248 -0.5139
# 4 -6.6723 -0.3772 5.2015 14.1301 -2.0892 -3.9024
# 5 -2.9790 4.0584 13.1248 -2.0892 30.9641 -3.4900
# 6 -9.8872 -4.0371 -0.5139 -3.9024 -3.4900 28.3110
#
#
#
# Elastic Compliance Matrix: (Units=1/GPa)
#
#
# Indices 1 2 3 4 5 6 
#
# 1 0.010390 -0.004567 -0.003314 0.007843 0.004039 0.004496
# 2 -0.004567 0.017689 -0.000212 -0.001927 -0.002762 0.000317
# 3 -0.003314 -0.000212 0.009057 -0.006307 -0.004836 -0.002489
# 4 0.007843 -0.001927 -0.006307 0.082527 0.010948 0.015075
# 5 0.004039 -0.002762 -0.004836 0.010948 0.036618 0.006952
# 6 0.004496 0.000317 -0.002489 0.015075 0.006952 0.039827
#
#
# Mechanical properties :
#
#
# Convention : Reuss Voigt Hill
#
# Bulk Modulus (GPa) = 47.73179 57.60368 52.66773
# Shear Modulus (GPa) = 22.80215 31.15256 26.97736
#
# Velocity S-wave (km/s) = 3.19590 3.73553 3.47620
# Velocity P-wave (km/s) = 5.91598 6.66393 6.30107
#
# Compressibility (1/GPa) = 0.02095040
#
# Stress axis : x y z
#
# Youngs Moduli (GPa) = 96.24365 56.53376 110.41062
#
# Poissons Ratio (x) = 0.25819 0.36591
# Poissons Ratio (y) = 0.43955 0.02338
# Poissons Ratio (z) = 0.31896 0.01197
#
# Static dielectric constant tensor:
#      x y z
#    x 2.522970 0.844140 -0.086070 
#    y 0.844140 3.835790 -0.238060 
#    z -0.086070 -0.238060 4.124190 
# 
# 
# High freq. dielectric constant tensor:
#      x y z
#    x 1.897730 0.005470 -0.007460 
#    y 0.005470 1.848610 -0.012030 
#    z -0.007460 -0.012030 1.884540 
# 
# From -- ./inp_files/50217.got.cif
#   From: 2010.06.25/outbox.cif.g09.slc.cpg/sg2_26_cif.got.tgz:50217.got - 2010.06.27 13:26:56.
