data_PCOD8042513
_publ_section_title
;
Structure prediction by ZEFSAII (Michael W. Deem and Ramdas Pophale) SiO2 
 PCOD8042513
Probable space group: P -1
;
_chemical_formula_sum "Si O2"
_cell_formula_units_Z 16
_cell_length_a 10.784497
_cell_length_b 8.513779
_cell_length_c 20.322109
_cell_angle_alpha 105.940637
_cell_angle_beta 31.256724
_cell_angle_gamma 118.606274
_cell_volume 812.006411
_symmetry_space_group_name_H-M "P -1"
_symmetry_group_IT_number 2
_symmetry_cell_setting 'triclinic'
loop_
_space_group_symop_operation_xyz
x,y,z
-x,-y,-z
loop_
_atom_site_type_symbol
_atom_site_label
_atom_site_fract_x
_atom_site_fract_y
_atom_site_fract_z
Si Si1 0.632425 0.067693 0.723733
Si Si2 0.035563 0.051518 0.354198
Si Si3 0.435040 0.839887 0.601493
Si Si4 0.906626 0.650777 0.546147
Si Si5 0.269737 0.112708 0.650063
Si Si6 0.150202 0.686356 0.837437
Si Si7 0.693447 0.602794 0.234039
Si Si8 0.237822 0.209133 0.915831
O O1 0.512173 0.206242 0.814785
O O2 0.878977 0.176078 0.573913
O O3 0.751370 0.016896 0.728077
O O4 0.393896 0.878786 0.778224
O O5 0.141085 0.265722 0.354101
O O6 0.734838 0.925998 0.509409
O O7 0.995189 0.028605 0.290372
O O8 0.464462 0.773672 0.506519
O O9 0.211532 0.677483 0.730721
O O10 0.346304 0.999955 0.655059
O O11 0.620296 0.548340 0.625819
O O12 0.000000 0.500000 0.500000
O O13 0.198551 0.252044 0.737777
O O14 0.129936 0.504029 0.860859
O O15 0.854738 0.674574 0.980343
O O16 0.720125 0.708255 0.166562
O O17 0.000000 0.000000 0.000000
#
# Coordination Sequence:
#
# PCOD8042513 Si02
#       8
#     2   2   2   2   2   2   2   2
#     4  11  19  37  53  87 119 152 191 233 308 337
#     4  10  19  35  57  86 122 152 181 235 303 347
#     4   9  18  36  58  81 115 156 191 215 300 348
#     4  12  21  32  59  90 122 141 188 259 290 335
#     4   9  20  36  57  85 124 154 188 228 298 362
#     4  11  21  37  62  83 119 154 200 245 274 353
#     4  12  22  37  59  95 113 145 206 240 291 342
#     4  10  23  38  60  82 117 160 195 244 287 339
#
# _framework density 19.704277999999999
#
# number of rings (size 3 to 8) (size 9 to 14) (size 15 to 20)
#    0.750    0.750    3.750    3.750    0.000    0.500 
#    0.000    0.000    0.000    7.500    0.000    0.000 
#    0.000    0.000    0.000    0.000    0.000    0.000 
#
# Total GULP energy -198241.683117 kJ/mol
# GULP energy per Si atom -12390.105195 kJ/mol
# Density = 1.965943 g / cm^3
# Si number density = 19.704278 Si / 1000 Ang^3
#
#
#
# Elastic Constant Matrix: (Units=GPa)
#
#
# Indices 1 2 3 4 5 6 
#
# 1 89.3885 38.1769 36.8731 15.4008 -11.0547 -18.2167
# 2 38.1769 91.0292 32.6565 22.7325 -7.2996 -17.7363
# 3 36.8731 32.6565 69.9629 14.7146 -2.8483 -13.9341
# 4 15.4008 22.7325 14.7146 29.5176 -7.2499 -8.7452
# 5 -11.0547 -7.2996 -2.8483 -7.2499 22.0751 7.7922
# 6 -18.2167 -17.7363 -13.9341 -8.7452 7.7922 33.5760
#
#
#
# Elastic Compliance Matrix: (Units=1/GPa)
#
#
# Indices 1 2 3 4 5 6 
#
# 1 0.016631 -0.003580 -0.006095 -0.000691 0.004978 0.003267
# 2 -0.003580 0.016342 -0.003382 -0.008223 -0.000693 0.003306
# 3 -0.006095 -0.003382 0.020500 -0.004502 -0.004134 0.003201
# 4 -0.000691 -0.008223 -0.004502 0.046290 0.010485 0.003037
# 5 0.004978 -0.000693 -0.004134 0.010485 0.053689 -0.009110
# 6 0.003267 0.003306 0.003201 0.003037 -0.009110 0.037536
#
#
# Mechanical properties :
#
#
# Convention : Reuss Voigt Hill
#
# Bulk Modulus (GPa) = 36.55037 51.75486 44.15262
# Shear Modulus (GPa) = 22.10213 26.54534 24.32373
#
# Velocity S-wave (km/s) = 3.35280 3.67439 3.51727
# Velocity P-wave (km/s) = 5.79466 6.65765 6.24109
#
# Compressibility (1/GPa) = 0.02735950
#
# Stress axis : x y z
#
# Youngs Moduli (GPa) = 60.12889 61.19191 48.77963
#
# Poissons Ratio (x) = 0.21906 0.29734
# Poissons Ratio (y) = 0.21525 0.16495
# Poissons Ratio (z) = 0.36651 0.20693
#
# Static dielectric constant tensor:
#      x y z
#    x 3.521820 -0.353700 -0.166400 
#    y -0.353700 4.260310 0.167000 
#    z -0.166400 0.167000 3.820730 
# 
# 
# High freq. dielectric constant tensor:
#      x y z
#    x 1.752940 -0.025620 -0.003760 
#    y -0.025620 1.756060 0.018480 
#    z -0.003760 0.018480 1.753960 
# 
# From -- ./inp_files/426956.got.cif
#   From: 2010.06.25/outbox.cif.g09.slc.cpg/sg2_214_cif.got.tgz:426956.got - 2010.06.27 13:26:56.
