data_PCOD8042781
_publ_section_title
;
Structure prediction by ZEFSAII (Michael W. Deem and Ramdas Pophale) SiO2 
 PCOD8042781
Probable space group: P -1
;
_chemical_formula_sum "Si O2"
_cell_formula_units_Z 12
_cell_length_a 13.578005
_cell_length_b 7.370694
_cell_length_c 10.709414
_cell_angle_alpha 128.863877
_cell_angle_beta 31.150583
_cell_angle_gamma 125.029302
_cell_volume 429.872348
_symmetry_space_group_name_H-M "P -1"
_symmetry_group_IT_number 2
_symmetry_cell_setting 'triclinic'
loop_
_space_group_symop_operation_xyz
x,y,z
-x,-y,-z
loop_
_atom_site_type_symbol
_atom_site_label
_atom_site_fract_x
_atom_site_fract_y
_atom_site_fract_z
Si Si1 0.215483 0.380794 0.351575
Si Si2 0.350506 0.578844 0.040434
Si Si3 0.563148 0.744349 0.409689
Si Si4 0.795873 0.549951 0.295383
Si Si5 0.881919 0.024573 0.511064
Si Si6 0.147672 0.873334 0.702204
O O1 0.206835 0.469978 0.256443
O O2 0.134454 0.591777 0.614692
O O3 0.090308 0.123765 0.386496
O O4 0.435569 0.350683 0.119547
O O5 0.274044 0.825494 0.191451
O O6 0.333093 0.395970 0.868805
O O7 0.657224 0.666854 0.402379
O O8 0.330996 0.691425 0.633055
O O9 0.633044 0.023018 0.449794
O O10 0.825129 0.738098 0.462599
O O11 0.000000 0.500000 0.000000
O O12 0.894999 0.057969 0.363081
O O13 0.000000 0.000000 0.000000
#
# Coordination Sequence:
#
# PCOD8042781 Si02
#       6
#     2   2   2   2   2   2
#     4  10  21  36  59  89 119 153 186 229 292 353
#     4  10  21  37  58  87 118 151 190 234 291 346
#     4  10  22  40  60  85 118 152 196 243 284 337
#     4  10  24  42  61  83 112 156 201 243 288 338
#     4  10  21  38  57  82 119 151 190 243 284 337
#     4  10  19  35  61  89 119 153 188 238 293 342
#
# _framework density 27.915264000000001
#
# number of rings (size 3 to 8) (size 9 to 14) (size 15 to 20)
#    0.000    2.000    0.000    4.000    0.000   12.000 
#    0.000    1.667    0.000    0.000    0.000    0.000 
#    0.000    0.000    0.000    0.000    0.000    0.000 
#
# Total GULP energy -148813.659242 kJ/mol
# GULP energy per Si atom -12401.138270 kJ/mol
# Density = 2.785173 g / cm^3
# Si number density = 27.915264 Si / 1000 Ang^3
#
#
#
# Elastic Constant Matrix: (Units=GPa)
#
#
# Indices 1 2 3 4 5 6 
#
# 1 91.2788 73.9602 29.9922 2.8377 14.7179 40.3472
# 2 73.9602 278.7134 80.2371 4.9803 -6.9843 22.4928
# 3 29.9922 80.2371 169.4010 0.6561 -0.7640 19.5424
# 4 2.8377 4.9803 0.6561 45.7742 8.9298 -5.7186
# 5 14.7179 -6.9843 -0.7640 8.9298 41.7549 3.0393
# 6 40.3472 22.4928 19.5424 -5.7186 3.0393 55.3275
#
#
#
# Elastic Compliance Matrix: (Units=1/GPa)
#
#
# Indices 1 2 3 4 5 6 
#
# 1 0.022453 -0.004985 -0.000023 -0.001144 -0.007481 -0.014046
# 2 -0.004985 0.005368 -0.001867 -0.000514 0.002591 0.001917
# 3 -0.000023 -0.001867 0.006988 -0.000102 -0.000031 -0.001701
# 4 -0.001144 -0.000514 -0.000102 0.023415 -0.004967 0.003773
# 5 -0.007481 0.002591 -0.000031 -0.004967 0.027909 0.002367
# 6 -0.014046 0.001917 -0.001701 0.003773 0.002367 0.028399
#
#
# Mechanical properties :
#
#
# Convention : Reuss Voigt Hill
#
# Bulk Modulus (GPa) = 47.48785 100.86356 74.17570
# Shear Modulus (GPa) = 36.95459 52.25158 44.60308
#
# Velocity S-wave (km/s) = 3.64237 4.33112 4.00159
# Velocity P-wave (km/s) = 5.89385 7.82444 6.92674
#
# Compressibility (1/GPa) = 0.02105802
#
# Stress axis : x y z
#
# Youngs Moduli (GPa) = 44.53812 186.29895 143.09813
#
# Poissons Ratio (x) = 0.92869 0.00329
# Poissons Ratio (y) = 0.22202 0.26721
# Poissons Ratio (z) = 0.00102 0.34788
#
# Static dielectric constant tensor:
#      x y z
#    x 5.970940 -0.029040 0.344210 
#    y -0.029040 6.649960 0.042810 
#    z 0.344210 0.042810 4.762220 
# 
# 
# High freq. dielectric constant tensor:
#      x y z
#    x 2.197400 -0.004140 0.014780 
#    y -0.004140 2.164820 -0.000920 
#    z 0.014780 -0.000920 2.107180 
# 
# From -- ./inp_files/306688.got.cif
#   From: 2010.06.25/outbox.cif.g09.slc.cpg/sg2_154_cif.got.tgz:306688.got - 2010.06.27 13:26:56.
