data_PCOD8042424
_publ_section_title
;
Structure prediction by ZEFSAII (Michael W. Deem and Ramdas Pophale) SiO2 
 PCOD8042424
Probable space group: P -1
;
_chemical_formula_sum "Si O2"
_cell_formula_units_Z 16
_cell_length_a 5.301902
_cell_length_b 22.362671
_cell_length_c 16.922003
_cell_angle_alpha 157.880132
_cell_angle_beta 53.257406
_cell_angle_gamma 127.038946
_cell_volume 597.628799
_symmetry_space_group_name_H-M "P -1"
_symmetry_group_IT_number 2
_symmetry_cell_setting 'triclinic'
loop_
_space_group_symop_operation_xyz
x,y,z
-x,-y,-z
loop_
_atom_site_type_symbol
_atom_site_label
_atom_site_fract_x
_atom_site_fract_y
_atom_site_fract_z
Si Si1 0.691919 0.629371 0.698089
Si Si2 0.942167 0.036523 0.343332
Si Si3 0.175735 0.396517 0.031761
Si Si4 0.761153 0.177961 0.075968
Si Si5 0.812920 0.366839 0.816290
Si Si6 0.207590 0.914162 0.297421
Si Si7 0.877589 0.389452 0.558087
Si Si8 0.403609 0.286116 0.404620
O O1 0.445053 0.744232 0.855633
O O2 0.933016 0.587978 0.533532
O O3 0.492798 0.460940 0.556719
O O4 0.897041 0.712192 0.834905
O O5 0.004237 0.219372 0.585529
O O6 0.575130 0.983050 0.323461
O O7 0.060964 0.927712 0.254860
O O8 0.164005 0.999814 0.181869
O O9 0.238152 0.561095 0.171848
O O10 0.145254 0.444501 0.188299
O O11 0.476694 0.303876 0.845828
O O12 0.859147 0.280165 0.916904
O O13 0.559943 0.152651 0.164296
O O14 0.000000 0.500000 0.000000
O O15 0.000000 0.000000 0.500000
O O16 0.020463 0.264244 0.437711
O O17 0.518704 0.304459 0.496489
#
# Coordination Sequence:
#
# PCOD8042424 Si02
#       8
#     2   2   2   2   2   2   2   2
#     4  10  19  35  55  91 142 175 213 264 341 405
#     4  12  27  44  73 100 144 176 232 276 362 406
#     4  11  27  44  73  98 138 179 241 280 347 410
#     4  10  20  35  57  93 129 181 207 272 327 411
#     4  11  27  52  71  95 136 193 231 286 343 426
#     4  12  26  45  67 106 137 174 222 307 343 393
#     4  10  21  34  60  94 126 175 221 274 324 397
#     4  10  20  34  56  91 143 171 217 264 342 401
#
# _framework density 26.772469000000001
#
# number of rings (size 3 to 8) (size 9 to 14) (size 15 to 20)
#    0.000    1.250    1.250    5.625   12.250    0.000 
#    0.000    0.000    0.000    6.000    0.000    0.000 
#    0.000    0.000    0.000    0.000    0.000    0.000 
#
# Total GULP energy -198288.735269 kJ/mol
# GULP energy per Si atom -12393.045954 kJ/mol
# Density = 2.671153 g / cm^3
# Si number density = 26.772469 Si / 1000 Ang^3
#
#
#
# Elastic Constant Matrix: (Units=GPa)
#
#
# Indices 1 2 3 4 5 6 
#
# 1 182.8482 13.9279 44.7746 -12.2338 11.0170 -8.9955
# 2 13.9279 51.4795 36.9730 -26.6565 4.5537 4.7983
# 3 44.7746 36.9730 205.6705 -37.5910 4.6732 2.7225
# 4 -12.2338 -26.6565 -37.5910 40.3857 1.3814 5.3401
# 5 11.0170 4.5537 4.6732 1.3814 32.8840 -1.0696
# 6 -8.9955 4.7983 2.7225 5.3401 -1.0696 16.9554
#
#
#
# Elastic Compliance Matrix: (Units=1/GPa)
#
#
# Indices 1 2 3 4 5 6 
#
# 1 0.006113 -0.001332 -0.001224 -0.000632 -0.001536 0.003919
# 2 -0.001332 0.035767 -0.001232 0.024749 -0.005983 -0.018803
# 3 -0.001224 -0.001232 0.006342 0.005135 -0.000633 -0.002976
# 4 -0.000632 0.024749 0.005135 0.049098 -0.006790 -0.024055
# 5 -0.001536 -0.005983 -0.000633 -0.006790 0.032296 0.005156
# 6 0.003919 -0.018803 -0.002976 -0.024055 0.005156 0.074758
#
#
# Mechanical properties :
#
#
# Convention : Reuss Voigt Hill
#
# Bulk Modulus (GPa) = 24.60120 70.14992 47.37556
# Shear Modulus (GPa) = 22.17317 40.99987 31.58652
#
# Velocity S-wave (km/s) = 2.88098 3.91758 3.43857
# Velocity P-wave (km/s) = 4.50285 6.83538 5.78784
#
# Compressibility (1/GPa) = 0.04064843
#
# Stress axis : x y z
#
# Youngs Moduli (GPa) = 163.58054 27.95872 157.67075
#
# Poissons Ratio (x) = 0.03723 0.19298
# Poissons Ratio (y) = 0.21781 0.19419
# Poissons Ratio (z) = 0.20022 0.03443
#
# Static dielectric constant tensor:
#      x y z
#    x 5.349790 0.309550 -0.072580 
#    y 0.309550 4.616240 -0.382070 
#    z -0.072580 -0.382070 4.945250 
# 
# 
# High freq. dielectric constant tensor:
#      x y z
#    x 2.097290 -0.001030 0.001530 
#    y -0.001030 2.051750 -0.025830 
#    z 0.001530 -0.025830 2.083800 
# 
# From -- ./inp_files/551254.got.cif
#   From: 2010.06.25/outbox.cif.g09.slc.cpg/sg2_276_cif.got.tgz:551254.got - 2010.06.27 13:26:56.
