data_PCOD8042283
_publ_section_title
;
Structure prediction by ZEFSAII (Michael W. Deem and Ramdas Pophale) SiO2 
 PCOD8042283
Probable space group: P -1
;
_chemical_formula_sum "Si O2"
_cell_formula_units_Z 12
_cell_length_a 9.076798
_cell_length_b 11.347314
_cell_length_c 14.116556
_cell_angle_alpha 32.856342
_cell_angle_beta 110.450115
_cell_angle_gamma 90.419191
_cell_volume 610.856821
_symmetry_space_group_name_H-M "P -1"
_symmetry_group_IT_number 2
_symmetry_cell_setting 'triclinic'
loop_
_space_group_symop_operation_xyz
x,y,z
-x,-y,-z
loop_
_atom_site_type_symbol
_atom_site_label
_atom_site_fract_x
_atom_site_fract_y
_atom_site_fract_z
Si Si1 0.765209 0.155028 0.166655
Si Si2 0.169129 0.506621 0.919651
Si Si3 0.806929 0.724182 0.581351
Si Si4 0.021557 0.603927 0.532656
Si Si5 0.428177 0.934511 0.436260
Si Si6 0.648875 0.467918 0.244715
O O1 0.819987 0.355678 0.075802
O O2 0.739778 0.025536 0.342488
O O3 0.572478 0.303731 0.962300
O O4 0.927507 0.919767 0.295246
O O5 0.252238 0.583703 0.800072
O O6 0.949870 0.613884 0.777806
O O7 0.286256 0.194357 0.168734
O O8 0.618651 0.729661 0.556339
O O9 0.914759 0.549835 0.628840
O O10 0.244664 0.455730 0.708515
O O11 0.000000 0.500000 0.500000
O O12 0.319315 0.801940 0.530470
O O13 0.500000 0.000000 0.500000
#
# Coordination Sequence:
#
# PCOD8042283 Si02
#       6
#     2   2   2   2   2   2
#     4  10  19  34  62  83 116 153 196 232 293 345
#     4  11  20  38  58  87 129 155 183 240 295 361
#     4   9  22  36  59  85 122 155 191 238 295 343
#     4   9  22  41  62  83 112 161 210 241 285 339
#     4  12  23  34  58  96 126 150 187 233 304 365
#     4  11  22  37  63  89 119 157 192 240 297 354
#
# _framework density 19.644538000000001
#
# number of rings (size 3 to 8) (size 9 to 14) (size 15 to 20)
#    1.000    0.667    3.333    2.000    2.333    2.667 
#    0.000    0.833    0.000    5.000    0.000    0.000 
#    0.000    0.000    0.000    0.000    0.000    0.000 
#
# Total GULP energy -148727.571684 kJ/mol
# GULP energy per Si atom -12393.964307 kJ/mol
# Density = 1.959983 g / cm^3
# Si number density = 19.644538 Si / 1000 Ang^3
#
#
#
# Elastic Constant Matrix: (Units=GPa)
#
#
# Indices 1 2 3 4 5 6 
#
# 1 72.0788 31.6753 57.0842 3.3537 -9.2195 -1.3211
# 2 31.6753 122.0530 43.2668 13.1626 15.7669 10.3189
# 3 57.0842 43.2668 123.9954 14.4394 16.8424 12.2959
# 4 3.3537 13.1626 14.4394 19.1038 2.9646 6.8096
# 5 -9.2195 15.7669 16.8424 2.9646 31.9477 4.6426
# 6 -1.3211 10.3189 12.2959 6.8096 4.6426 15.0311
#
#
#
# Elastic Compliance Matrix: (Units=1/GPa)
#
#
# Indices 1 2 3 4 5 6 
#
# 1 0.033198 -0.006546 -0.017502 0.003911 0.019657 0.013886
# 2 -0.006546 0.011334 0.001021 -0.004586 -0.006870 -0.004992
# 3 -0.017502 0.001021 0.019445 -0.006257 -0.013611 -0.011107
# 4 0.003911 -0.004586 -0.006257 0.067151 0.003799 -0.022985
# 5 0.019657 -0.006870 -0.013611 0.003799 0.046992 0.001343
# 6 0.013886 -0.004992 -0.011107 -0.022985 0.001343 0.090260
#
#
# Mechanical properties :
#
#
# Convention : Reuss Voigt Hill
#
# Bulk Modulus (GPa) = 55.79394 64.68665 60.24029
# Shear Modulus (GPa) = 15.60503 25.62324 20.61414
#
# Velocity S-wave (km/s) = 2.82151 3.61549 3.24289
# Velocity P-wave (km/s) = 6.25124 7.10134 6.68981
#
# Compressibility (1/GPa) = 0.01792309
#
# Stress axis : x y z
#
# Youngs Moduli (GPa) = 30.12208 88.22800 51.42814
#
# Poissons Ratio (x) = 0.57758 0.90008
# Poissons Ratio (y) = 0.19719 -0.05252
# Poissons Ratio (z) = 0.52719 -0.09009
#
# Static dielectric constant tensor:
#      x y z
#    x 3.871110 -0.035990 0.078010 
#    y -0.035990 3.073710 0.188820 
#    z 0.078010 0.188820 3.760440 
# 
# 
# High freq. dielectric constant tensor:
#      x y z
#    x 1.765620 -0.001540 0.015130 
#    y -0.001540 1.714000 0.018800 
#    z 0.015130 0.018800 1.775890 
# 
# From -- ./inp_files/225563.got.cif
#   From: 2010.06.25/outbox.cif.g09.slc.cpg/sg2_113_cif.got.tgz:225563.got - 2010.06.27 13:26:56.
