data_PCOD8042325
_publ_section_title
;
Structure prediction by ZEFSAII (Michael W. Deem and Ramdas Pophale) SiO2 
 PCOD8042325
Probable space group: P -1
;
_chemical_formula_sum "Si O2"
_cell_formula_units_Z 12
_cell_length_a 5.292972
_cell_length_b 16.456835
_cell_length_c 13.245731
_cell_angle_alpha 143.447262
_cell_angle_beta 123.034876
_cell_angle_gamma 58.150990
_cell_volume 566.675942
_symmetry_space_group_name_H-M "P -1"
_symmetry_group_IT_number 2
_symmetry_cell_setting 'triclinic'
loop_
_space_group_symop_operation_xyz
x,y,z
-x,-y,-z
loop_
_atom_site_type_symbol
_atom_site_label
_atom_site_fract_x
_atom_site_fract_y
_atom_site_fract_z
Si Si1 0.946988 0.382870 0.792172
Si Si2 0.157661 0.076406 0.525909
Si Si3 0.650744 0.513272 0.154766
Si Si4 0.119189 0.740785 0.911504
Si Si5 0.549205 0.187205 0.130799
Si Si6 0.151106 0.979363 0.796324
O O1 0.149644 0.234411 0.718319
O O2 0.042925 0.424229 0.740991
O O3 0.581831 0.381476 0.718820
O O4 0.000000 0.500000 0.000000
O O5 0.500000 0.000000 0.500000
O O6 0.000000 0.000000 0.500000
O O7 0.938736 0.088522 0.393052
O O8 0.720289 0.365389 0.076230
O O9 0.500000 0.500000 0.000000
O O10 0.300190 0.721659 0.825951
O O11 0.764544 0.720791 0.800859
O O12 0.126862 0.896715 0.108509
O O13 0.792457 0.140865 0.226676
O O14 0.459458 0.047795 0.920458
#
# Coordination Sequence:
#
# PCOD8042325 Si02
#       6
#     2   2   2   2   2   2
#     4  10  23  39  58  81 127 164 203 240 304 373
#     4  12  28  40  63  96 129 166 205 262 317 367
#     4  10  21  35  59  83 120 161 204 244 297 376
#     4  10  19  34  63  92 114 159 213 251 302 366
#     4   9  20  36  62  94 115 162 205 269 303 358
#     4   9  23  36  63  89 129 151 213 261 312 354
#
# _framework density 21.176124000000002
#
# number of rings (size 3 to 8) (size 9 to 14) (size 15 to 20)
#    1.000    1.000    0.000    2.500   11.667    0.000 
#    0.000    0.000    0.000    6.000    0.000    0.000 
#    0.000    0.000    0.000    0.000    0.000    0.000 
#
# Total GULP energy -148663.717892 kJ/mol
# GULP energy per Si atom -12388.643158 kJ/mol
# Density = 2.112793 g / cm^3
# Si number density = 21.176124 Si / 1000 Ang^3
#
#
#
# Elastic Constant Matrix: (Units=GPa)
#
#
# Indices 1 2 3 4 5 6 
#
# 1 192.9770 74.1556 31.1395 6.6658 -33.6619 25.4755
# 2 74.1556 188.1200 42.9046 4.1598 -10.3155 15.8114
# 3 31.1395 42.9046 66.6826 5.8352 -4.9662 -6.0404
# 4 6.6658 4.1598 5.8352 34.5604 -7.3851 -5.7500
# 5 -33.6619 -10.3155 -4.9662 -7.3851 20.4331 4.2861
# 6 25.4755 15.8114 -6.0404 -5.7500 4.2861 40.5031
#
#
#
# Elastic Compliance Matrix: (Units=1/GPa)
#
#
# Indices 1 2 3 4 5 6 
#
# 1 0.010529 -0.001765 -0.003297 0.001185 0.017789 -0.008139
# 2 -0.001765 0.007113 -0.003933 -0.000205 0.000135 -0.002297
# 3 -0.003297 -0.003933 0.019499 -0.002099 -0.004849 0.006732
# 4 0.001185 -0.000205 -0.002099 0.032128 0.012477 0.002262
# 5 0.017789 0.000135 -0.004849 0.012477 0.085685 -0.019261
# 6 -0.008139 -0.002297 0.006732 0.002262 -0.019261 0.034069
#
#
# Mechanical properties :
#
#
# Convention : Reuss Voigt Hill
#
# Bulk Modulus (GPa) = 52.21632 82.68654 67.45143
# Shear Modulus (GPa) = 23.43056 39.07132 31.25094
#
# Velocity S-wave (km/s) = 3.32996 4.30008 3.84573
# Velocity P-wave (km/s) = 6.28462 7.98662 7.18619
#
# Compressibility (1/GPa) = 0.01915110
#
# Stress axis : x y z
#
# Youngs Moduli (GPa) = 94.97771 140.57922 51.28494
#
# Poissons Ratio (x) = 0.24813 0.16910
# Poissons Ratio (y) = 0.16764 0.20169
# Poissons Ratio (z) = 0.31317 0.55285
#
# Static dielectric constant tensor:
#      x y z
#    x 2.425220 0.103110 0.102370 
#    y 0.103110 3.705160 0.113180 
#    z 0.102370 0.113180 3.276920 
# 
# 
# High freq. dielectric constant tensor:
#      x y z
#    x 1.848200 0.005580 -0.016650 
#    y 0.005580 1.835090 0.011950 
#    z -0.016650 0.011950 1.770880 
# 
# From -- ./inp_files/367274.got.cif
#   From: 2010.06.25/outbox.cif.g09.slc.cpg/sg2_184_cif.got.tgz:367274.got - 2010.06.27 13:26:56.
