data_PCOD8042709
_publ_section_title
;
Structure prediction by ZEFSAII (Michael W. Deem and Ramdas Pophale) SiO2 
 PCOD8042709
Probable space group: P -1
;
_chemical_formula_sum "Si O2"
_cell_formula_units_Z 14
_cell_length_a 15.238287
_cell_length_b 7.942419
_cell_length_c 9.095703
_cell_angle_alpha 130.207741
_cell_angle_beta 128.163882
_cell_angle_gamma 60.007132
_cell_volume 651.599299
_symmetry_space_group_name_H-M "P -1"
_symmetry_group_IT_number 2
_symmetry_cell_setting 'triclinic'
loop_
_space_group_symop_operation_xyz
x,y,z
-x,-y,-z
loop_
_atom_site_type_symbol
_atom_site_label
_atom_site_fract_x
_atom_site_fract_y
_atom_site_fract_z
Si Si1 0.861325 0.424627 0.948717
Si Si2 0.823539 0.126026 0.001621
Si Si3 0.971163 0.853289 0.250689
Si Si4 0.322094 0.151187 0.452254
Si Si5 0.500570 0.823268 0.588223
Si Si6 0.368319 0.503727 0.895419
Si Si7 0.388354 0.414283 0.178719
O O1 0.882608 0.294001 0.054866
O O2 0.905479 0.661382 0.136218
O O3 0.728607 0.477605 0.801544
O O4 0.917281 0.269660 0.786485
O O5 0.702471 0.250689 0.009225
O O6 0.900607 0.022806 0.157112
O O7 0.796824 0.924568 0.754312
O O8 0.000000 0.000000 0.500000
O O9 0.400220 0.106429 0.365751
O O10 0.304610 0.404217 0.637562
O O11 0.387208 0.006102 0.571108
O O12 0.474011 0.591448 0.365920
O O13 0.549167 0.802432 0.792483
O O14 0.500000 0.500000 0.000000
O O15 0.362258 0.352652 0.950064
#
# Coordination Sequence:
#
# PCOD8042709 Si02
#       7
#     2   2   2   2   2   2   2
#     4  10  23  45  66  94 128 160 215 265 319 380
#     4  11  24  44  65  95 130 167 210 262 321 377
#     4  11  26  46  70  93 121 162 216 275 327 376
#     4  11  20  37  63  88 130 175 205 249 311 371
#     4  10  19  35  60  88 130 171 201 243 309 365
#     4  11  21  37  60  95 130 169 214 245 297 379
#     4  10  20  38  59  92 130 164 204 256 300 371
#
# _framework density 21.485598
#
# number of rings (size 3 to 8) (size 9 to 14) (size 15 to 20)
#    0.000    1.429    4.286    2.143    0.000    6.857 
#    0.000    0.000    0.000    0.000    0.000    0.000 
#    0.000    0.000    0.000    0.000    0.000    0.000 
#
# Total GULP energy -173515.355451 kJ/mol
# GULP energy per Si atom -12393.953961 kJ/mol
# Density = 2.143670 g / cm^3
# Si number density = 21.485598 Si / 1000 Ang^3
#
#
#
# Elastic Constant Matrix: (Units=GPa)
#
#
# Indices 1 2 3 4 5 6 
#
# 1 95.8532 43.9064 35.5705 -1.9328 2.1164 4.8507
# 2 43.9064 97.3919 54.4256 -14.8851 1.2752 17.0979
# 3 35.5705 54.4256 128.8284 -1.2878 -7.8424 7.7573
# 4 -1.9328 -14.8851 -1.2878 38.8830 -1.3956 -0.1460
# 5 2.1164 1.2752 -7.8424 -1.3956 23.0896 6.9566
# 6 4.8507 17.0979 7.7573 -0.1460 6.9566 30.2378
#
#
#
# Elastic Compliance Matrix: (Units=1/GPa)
#
#
# Indices 1 2 3 4 5 6 
#
# 1 0.013598 -0.005843 -0.001555 -0.001682 -0.002159 0.002010
# 2 -0.005843 0.018460 -0.005602 0.006577 0.000463 -0.008139
# 3 -0.001555 -0.005602 0.010810 -0.001717 0.004114 -0.000311
# 4 -0.001682 0.006577 -0.001717 0.028152 0.001907 -0.003311
# 5 -0.002159 0.000463 0.004114 0.001907 0.048656 -0.012156
# 6 0.002010 -0.008139 -0.000311 -0.003311 -0.012156 0.040211
#
#
# Mechanical properties :
#
#
# Convention : Reuss Voigt Hill
#
# Bulk Modulus (GPa) = 59.28093 65.54207 62.41150
# Shear Modulus (GPa) = 26.10825 30.98681 28.54753
#
# Velocity S-wave (km/s) = 3.48968 3.80177 3.64906
# Velocity P-wave (km/s) = 6.62481 7.05993 6.84583
#
# Compressibility (1/GPa) = 0.01686883
#
# Stress axis : x y z
#
# Youngs Moduli (GPa) = 73.53886 54.17070 92.50551
#
# Poissons Ratio (x) = 0.31651 0.14389
# Poissons Ratio (y) = 0.42968 0.51817
# Poissons Ratio (z) = 0.11439 0.30344
#
# Static dielectric constant tensor:
#      x y z
#    x 3.946540 0.153690 -0.046530 
#    y 0.153690 4.066390 -0.054000 
#    z -0.046530 -0.054000 3.763070 
# 
# 
# High freq. dielectric constant tensor:
#      x y z
#    x 1.840720 0.011430 0.000040 
#    y 0.011430 1.844290 -0.002880 
#    z 0.000040 -0.002880 1.832160 
# 
# From -- ./inp_files/227680.got.cif
#   From: 2010.06.25/outbox.cif.g09.slc.cpg/sg2_114_cif.got.tgz:227680.got - 2010.06.27 13:26:56.
