data_PCOD8042173
_publ_section_title
;
Structure prediction by ZEFSAII (Michael W. Deem and Ramdas Pophale) SiO2 
 PCOD8042173
Probable space group: P -1
;
_chemical_formula_sum "Si O2"
_cell_formula_units_Z 16
_cell_length_a 8.671245
_cell_length_b 9.234011
_cell_length_c 19.831328
_cell_angle_alpha 116.463929
_cell_angle_beta 40.058810
_cell_angle_gamma 130.177018
_cell_volume 777.058760
_symmetry_space_group_name_H-M "P -1"
_symmetry_group_IT_number 2
_symmetry_cell_setting 'triclinic'
loop_
_space_group_symop_operation_xyz
x,y,z
-x,-y,-z
loop_
_atom_site_type_symbol
_atom_site_label
_atom_site_fract_x
_atom_site_fract_y
_atom_site_fract_z
Si Si1 0.298504 0.959877 0.404366
Si Si2 0.031818 0.105552 0.079291
Si Si3 0.621614 0.250070 0.953548
Si Si4 0.591934 0.859623 0.858840
Si Si5 0.227677 0.284276 0.546767
Si Si6 0.806480 0.916965 0.251771
Si Si7 0.836707 0.624452 0.268927
Si Si8 0.600774 0.224382 0.241557
O O1 0.296306 0.117057 0.485586
O O2 0.373908 0.038220 0.318974
O O3 0.525902 0.924571 0.356225
O O4 0.995867 0.762497 0.450200
O O5 0.894070 0.232459 0.148793
O O6 0.362424 0.256724 0.010620
O O7 0.893146 0.940459 0.148912
O O8 0.000000 0.000000 0.000000
O O9 0.913821 0.399385 0.851147
O O10 0.586515 0.049505 0.905840
O O11 0.615671 0.282091 0.042681
O O12 0.481209 0.764472 0.804697
O O13 0.915591 0.910281 0.768470
O O14 0.500000 0.500000 0.500000
O O15 0.084144 0.260814 0.663540
O O16 0.735325 0.716513 0.265367
O O17 0.606202 0.402056 0.313386
#
# Coordination Sequence:
#
# PCOD8042173 Si02
#       8
#     2   2   2   2   2   2   2   2
#     4  10  22  43  69  91 118 159 205 248 315 363
#     4  10  19  34  59  85 118 164 213 240 294 366
#     4   9  18  34  53  83 118 161 198 246 293 350
#     4   9  17  34  57  81 123 161 198 235 298 362
#     4  11  23  44  69  91 119 156 205 261 307 365
#     4   9  21  39  59  91 120 159 200 246 302 367
#     4  11  23  38  58  90 128 155 206 256 306 361
#     4  11  21  36  61  91 120 166 202 249 306 363
#
# _framework density 20.590464000000001
#
# number of rings (size 3 to 8) (size 9 to 14) (size 15 to 20)
#    0.000    2.000    2.500    2.250    1.750    1.500 
#    2.250    0.625    0.000    0.000    0.000    0.000 
#    0.000    0.000    0.000    0.000    0.000    0.000 
#
# Total GULP energy -198213.267555 kJ/mol
# GULP energy per Si atom -12388.329222 kJ/mol
# Density = 2.054360 g / cm^3
# Si number density = 20.590464 Si / 1000 Ang^3
#
#
#
# Elastic Constant Matrix: (Units=GPa)
#
#
# Indices 1 2 3 4 5 6 
#
# 1 119.0850 38.3970 45.9287 10.4126 -11.0729 6.6748
# 2 38.3970 85.1028 23.9737 7.1205 -3.2554 5.8899
# 3 45.9287 23.9737 77.6723 8.6277 -15.0703 6.1610
# 4 10.4126 7.1205 8.6277 26.5251 6.3183 2.2329
# 5 -11.0729 -3.2554 -15.0703 6.3183 43.2446 0.6078
# 6 6.6748 5.8899 6.1610 2.2329 0.6078 22.8690
#
#
#
# Elastic Compliance Matrix: (Units=1/GPa)
#
#
# Indices 1 2 3 4 5 6 
#
# 1 0.012012 -0.003592 -0.005433 -0.002202 0.001247 -0.000935
# 2 -0.003592 0.014180 -0.001990 -0.001517 -0.000297 -0.001911
# 3 -0.005433 -0.001990 0.018487 -0.004459 0.005590 -0.002595
# 4 -0.002202 -0.001517 -0.004459 0.042573 -0.008428 -0.001698
# 5 0.001247 -0.000297 0.005590 -0.008428 0.026624 -0.001678
# 6 -0.000935 -0.001911 -0.002595 -0.001698 -0.001678 0.045402
#
#
# Mechanical properties :
#
#
# Convention : Reuss Voigt Hill
#
# Bulk Modulus (GPa) = 44.15469 55.38434 49.76952
# Shear Modulus (GPa) = 26.47477 30.09845 28.28661
#
# Velocity S-wave (km/s) = 3.58966 3.82745 3.71046
# Velocity P-wave (km/s) = 6.21866 6.81828 6.52536
#
# Compressibility (1/GPa) = 0.02264765
#
# Stress axis : x y z
#
# Youngs Moduli (GPa) = 83.24911 70.52310 54.09088
#
# Poissons Ratio (x) = 0.25335 0.29390
# Poissons Ratio (y) = 0.29906 0.10764
# Poissons Ratio (z) = 0.45233 0.14034
#
# Static dielectric constant tensor:
#      x y z
#    x 3.862540 0.013770 -0.152790 
#    y 0.013770 3.400030 -0.173250 
#    z -0.152790 -0.173250 4.145570 
# 
# 
# High freq. dielectric constant tensor:
#      x y z
#    x 1.804320 0.002550 -0.000790 
#    y 0.002550 1.776620 -0.005860 
#    z -0.000790 -0.005860 1.817550 
# 
# From -- ./inp_files/215715.got.cif
#   From: 2010.06.25/outbox.cif.g09.slc.cpg/sg2_108_cif.got.tgz:215715.got - 2010.06.27 13:26:56.
