data_PCOD8042065
_publ_section_title
;
Structure prediction by ZEFSAII (Michael W. Deem and Ramdas Pophale) SiO2 
 PCOD8042065
Probable space group: P -1
;
_chemical_formula_sum "Si O2"
_cell_formula_units_Z 14
_cell_length_a 14.410446
_cell_length_b 14.134835
_cell_length_c 13.980582
_cell_angle_alpha 150.782754
_cell_angle_beta 27.044443
_cell_angle_gamma 133.708504
_cell_volume 582.219140
_symmetry_space_group_name_H-M "P -1"
_symmetry_group_IT_number 2
_symmetry_cell_setting 'triclinic'
loop_
_space_group_symop_operation_xyz
x,y,z
-x,-y,-z
loop_
_atom_site_type_symbol
_atom_site_label
_atom_site_fract_x
_atom_site_fract_y
_atom_site_fract_z
Si Si1 0.750142 0.610873 0.903048
Si Si2 0.055936 0.256873 0.603465
Si Si3 0.827723 0.665921 0.078162
Si Si4 0.385950 0.230084 0.125554
Si Si5 0.110944 0.081270 0.597454
Si Si6 0.690910 0.382772 0.589070
Si Si7 0.666955 0.004563 0.202366
O O1 0.847292 0.430313 0.570250
O O2 0.924546 0.592672 0.815316
O O3 0.541719 0.579272 0.113003
O O4 0.664109 0.844003 0.145113
O O5 0.272160 0.273989 0.372404
O O6 0.076113 0.250305 0.693533
O O7 0.047913 0.041011 0.380982
O O8 0.845052 0.461393 0.943271
O O9 0.954488 0.790095 0.128956
O O10 0.576369 0.818812 0.432309
O O11 0.368667 0.451537 0.295551
O O12 0.260079 0.120950 0.075060
O O13 0.638422 0.081393 0.776265
O O14 0.808551 0.142263 0.227932
#
# Coordination Sequence:
#
# PCOD8042065 Si02
#       7
#     2   2   2   2   2   2   2
#     4   9  17  30  56  86 111 148 189 221 272 336
#     4  11  23  38  58  85 111 144 191 234 278 331
#     4  10  19  34  57  82 110 145 186 231 274 325
#     4  10  21  37  58  84 114 147 184 228 280 333
#     4  10  22  40  59  80 112 149 185 232 283 329
#     4   9  16  30  54  83 112 142 183 226 266 325
#     4   9  18  33  56  86 114 149 188 221 274 339
#
# _framework density 24.045929999999998
#
# number of rings (size 3 to 8) (size 9 to 14) (size 15 to 20)
#    0.000    2.286    0.000    4.286    0.000    4.571 
#    0.000    2.857    0.000   19.714    0.000    0.000 
#    0.000    0.000    0.000    0.000    0.000    0.000 
#
# Total GULP energy -173494.987913 kJ/mol
# GULP energy per Si atom -12392.499137 kJ/mol
# Density = 2.399120 g / cm^3
# Si number density = 24.045930 Si / 1000 Ang^3
#
#
#
# Elastic Constant Matrix: (Units=GPa)
#
#
# Indices 1 2 3 4 5 6 
#
# 1 -740.6917 -146.4468 -163.4619 -515.6916 213.2186 18.6961
# 2 -146.4468 57.4484 -5.6522 -78.3146 40.8656 -13.7068
# 3 -163.4619 -5.6522 19.1076 -92.9572 49.8345 -3.6090
# 4 -515.6916 -78.3146 -92.9572 -289.1090 123.4750 20.5262
# 5 213.2186 40.8656 49.8345 123.4750 -12.6981 6.3002
# 6 18.6961 -13.7068 -3.6090 20.5262 6.3002 40.3781
#
#
#
# Elastic Compliance Matrix: (Units=1/GPa)
#
#
# Indices 1 2 3 4 5 6 
#
# 1 0.005950 0.001383 -0.000047 -0.010931 -0.000456 0.003338
# 2 0.001383 0.016499 -0.003601 -0.007422 -0.005384 0.009251
# 3 -0.000047 -0.003601 0.025191 -0.010160 -0.008558 0.007551
# 4 -0.010931 -0.007422 -0.010160 0.028135 0.018552 -0.015563
# 5 -0.000456 -0.005384 -0.008558 0.018552 0.034534 -0.017201
# 6 0.003338 0.009251 0.007551 -0.015563 -0.017201 0.037631
#
#
# Mechanical properties :
#
#
# Convention : Reuss Voigt Hill
#
# Bulk Modulus (GPa) = 23.19575 -143.91751 -60.36088
# Shear Modulus (GPa) = 29.96893 -75.52411 -22.77759
#
# Velocity S-wave (km/s) = 3.53416 -5.61039 -3.08109
# Velocity P-wave (km/s) = 5.13041 10.09701 6.14933
#
# Compressibility (1/GPa) = 0.04311134
#
# Stress axis : x y z
#
# Youngs Moduli (GPa) = 168.05952 60.60958 39.69718
#
# Poissons Ratio (x) = -0.08384 0.00185
# Poissons Ratio (y) = -0.23247 0.14295
# Poissons Ratio (z) = 0.00782 0.21826
#
# Static dielectric constant tensor:
#      x y z
#    x 5.589250 0.317210 0.573210 
#    y 0.317210 4.409490 0.473580 
#    z 0.573210 0.473580 4.223480 
# 
# 
# High freq. dielectric constant tensor:
#      x y z
#    x 1.970190 -0.003130 0.012320 
#    y -0.003130 1.953190 0.022490 
#    z 0.012320 0.022490 1.943000 
# 
# From -- ./inp_files/534486.got.cif
#   From: 2010.06.25/outbox.cif.g09.slc.cpg/sg2_268_cif.got.tgz:534486.got - 2010.06.27 13:26:56.
