data_PCOD8042846
_publ_section_title
;
Structure prediction by ZEFSAII (Michael W. Deem and Ramdas Pophale) SiO2 
 PCOD8042846
Probable space group: P -1
;
_chemical_formula_sum "Si O2"
_cell_formula_units_Z 16
_cell_length_a 14.362295
_cell_length_b 11.420668
_cell_length_c 11.151363
_cell_angle_alpha 119.794226
_cell_angle_beta 139.589043
_cell_angle_gamma 44.243749
_cell_volume 822.533614
_symmetry_space_group_name_H-M "P -1"
_symmetry_group_IT_number 2
_symmetry_cell_setting 'triclinic'
loop_
_space_group_symop_operation_xyz
x,y,z
-x,-y,-z
loop_
_atom_site_type_symbol
_atom_site_label
_atom_site_fract_x
_atom_site_fract_y
_atom_site_fract_z
Si Si1 0.432722 0.044320 0.092619
Si Si2 0.078053 0.189142 0.440976
Si Si3 0.400074 0.820032 0.534343
Si Si4 0.313583 0.300826 0.705496
Si Si5 0.133370 0.081803 0.710645
Si Si6 0.468871 0.380255 0.679067
Si Si7 0.260873 0.747478 0.566825
Si Si8 0.309599 0.585020 0.923962
O O1 0.458881 0.172664 0.246213
O O2 0.525596 0.881600 0.184417
O O3 0.221104 0.132579 0.919977
O O4 0.500000 0.000000 0.000000
O O5 0.134208 0.309839 0.516970
O O6 0.103208 0.171288 0.599287
O O7 0.873691 0.263230 0.244548
O O8 0.215018 0.005247 0.421536
O O9 0.491159 0.730013 0.453926
O O10 0.365389 0.706661 0.523037
O O11 0.370643 0.337254 0.654498
O O12 0.282595 0.439319 0.842356
O O13 0.947452 0.144612 0.619166
O O14 0.270038 0.877056 0.724313
O O15 0.328824 0.579402 0.618316
O O16 0.657970 0.343374 0.888501
O O17 0.500000 0.500000 0.000000
#
# Coordination Sequence:
#
# PCOD8042846 Si02
#       8
#     2   2   2   2   2   2   2   2
#     4  11  19  38  60  87 108 149 195 236 281 337
#     4  10  20  37  57  88 112 150 194 236 288 334
#     4  10  23  39  60  81 117 157 194 233 284 345
#     4  10  21  36  60  86 116 147 191 240 288 333
#     4  10  19  35  63  85 113 146 197 247 274 332
#     4  11  23  39  55  85 123 156 186 235 290 346
#     4  10  20  36  57  84 115 152 191 234 288 331
#     4  10  21  35  57  87 116 148 188 235 290 341
#
# _framework density 19.452092
#
# number of rings (size 3 to 8) (size 9 to 14) (size 15 to 20)
#    0.000    1.750    3.750    3.000    0.000    7.500 
#    0.000    1.875    0.000    0.000    0.000    0.000 
#    0.000    0.000    0.000    0.000    0.000    0.000 
#
# Total GULP energy -198245.899538 kJ/mol
# GULP energy per Si atom -12390.368721 kJ/mol
# Density = 1.940782 g / cm^3
# Si number density = 19.452092 Si / 1000 Ang^3
#
#
#
# Elastic Constant Matrix: (Units=GPa)
#
#
# Indices 1 2 3 4 5 6 
#
# 1 92.9899 44.6817 35.0066 16.0293 -1.5388 16.2019
# 2 44.6817 77.9756 45.0068 2.6137 -5.1953 7.5033
# 3 35.0066 45.0068 129.8657 11.1318 8.4575 -12.1393
# 4 16.0293 2.6137 11.1318 30.9442 -1.9402 -4.5833
# 5 -1.5388 -5.1953 8.4575 -1.9402 27.4947 -1.0580
# 6 16.2019 7.5033 -12.1393 -4.5833 -1.0580 28.0489
#
#
#
# Elastic Compliance Matrix: (Units=1/GPa)
#
#
# Indices 1 2 3 4 5 6 
#
# 1 0.019535 -0.008279 -0.002569 -0.010313 -0.000866 -0.011899
# 2 -0.008279 0.021726 -0.006339 0.004685 0.005815 -0.002788
# 3 -0.002569 -0.006339 0.011762 -0.001502 -0.004764 0.007845
# 4 -0.010313 0.004685 -0.001502 0.039634 0.003978 0.010680
# 5 -0.000866 0.005815 -0.004764 0.003978 0.039129 -0.000991
# 6 -0.011899 -0.002788 0.007845 0.010680 -0.000991 0.048374
#
#
# Mechanical properties :
#
#
# Convention : Reuss Voigt Hill
#
# Bulk Modulus (GPa) = 53.61732 61.13571 57.37651
# Shear Modulus (GPa) = 22.65020 29.03998 25.84509
#
# Velocity S-wave (km/s) = 3.41605 3.86799 3.64902
# Velocity P-wave (km/s) = 6.57136 7.17256 6.87853
#
# Compressibility (1/GPa) = 0.01865069
#
# Stress axis : x y z
#
# Youngs Moduli (GPa) = 51.18940 46.02852 85.02148
#
# Poissons Ratio (x) = 0.38105 0.21840
# Poissons Ratio (y) = 0.42377 0.53893
# Poissons Ratio (z) = 0.13149 0.29176
#
# Static dielectric constant tensor:
#      x y z
#    x 3.521770 0.199650 0.303960 
#    y 0.199650 3.520590 0.122980 
#    z 0.303960 0.122980 4.139020 
# 
# 
# High freq. dielectric constant tensor:
#      x y z
#    x 1.748100 0.023780 0.017570 
#    y 0.023780 1.743370 -0.003070 
#    z 0.017570 -0.003070 1.762470 
# 
# From -- ./inp_files/452591.got.cif
#   From: 2010.06.25/outbox.cif.g09.slc.cpg/sg2_227_cif.got.tgz:452591.got - 2010.06.27 13:26:56.
