data_PCOD8042107
_publ_section_title
;
Structure prediction by ZEFSAII (Michael W. Deem and Ramdas Pophale) SiO2 
 PCOD8042107
Probable space group: P -1
;
_chemical_formula_sum "Si O2"
_cell_formula_units_Z 14
_cell_length_a 11.853680
_cell_length_b 9.286605
_cell_length_c 9.178565
_cell_angle_alpha 117.677060
_cell_angle_beta 103.286592
_cell_angle_gamma 110.901024
_cell_volume 734.173761
_symmetry_space_group_name_H-M "P -1"
_symmetry_group_IT_number 2
_symmetry_cell_setting 'triclinic'
loop_
_space_group_symop_operation_xyz
x,y,z
-x,-y,-z
loop_
_atom_site_type_symbol
_atom_site_label
_atom_site_fract_x
_atom_site_fract_y
_atom_site_fract_z
Si Si1 0.736842 0.103169 0.895000
Si Si2 0.046183 0.892198 0.824292
Si Si3 0.374795 0.782597 0.844877
Si Si4 0.820176 0.698071 0.872179
Si Si5 0.120092 0.688485 0.545454
Si Si6 0.554412 0.674485 0.708899
Si Si7 0.863590 0.377088 0.811185
O O1 0.766024 0.177356 0.772784
O O2 0.610118 0.880032 0.742575
O O3 0.865192 0.115532 0.018850
O O4 0.705719 0.248915 0.042013
O O5 0.093651 0.853651 0.666870
O O6 0.885718 0.731402 0.742615
O O7 0.069249 0.103997 0.917350
O O8 0.272739 0.746183 0.663181
O O9 0.434126 0.644714 0.770471
O O10 0.500000 0.000000 0.000000
O O11 0.676037 0.681065 0.835600
O O12 0.795200 0.503258 0.841094
O O13 0.104265 0.670625 0.359814
O O14 0.000000 0.500000 0.500000
O O15 0.500000 0.500000 0.500000
O O16 0.000000 0.500000 0.000000
#
# Coordination Sequence:
#
# PCOD8042107 Si02
#       7
#     2   2   2   2   2   2   2
#     4   9  19  37  59  82 112 149 189 240 287 333
#     4   9  18  36  58  81 108 150 193 233 279 343
#     4   9  19  39  60  81 111 155 199 232 279 357
#     4  10  19  34  58  80 115 149 190 229 293 339
#     4  11  20  35  61  90 112 152 202 238 282 352
#     4  10  20  35  57  84 111 151 195 233 280 348
#     4  12  21  36  57  91 122 149 187 248 299 337
#
# _framework density 19.069057000000001
#
# number of rings (size 3 to 8) (size 9 to 14) (size 15 to 20)
#    0.000    2.000    2.857    2.571    0.000    0.000 
#    0.000    9.286    0.000    0.000    0.000    0.000 
#    0.000    0.000    0.000    0.000    0.000    0.000 
#
# Total GULP energy -173450.312345 kJ/mol
# GULP energy per Si atom -12389.308025 kJ/mol
# Density = 1.902565 g / cm^3
# Si number density = 19.069057 Si / 1000 Ang^3
#
#
#
# Elastic Constant Matrix: (Units=GPa)
#
#
# Indices 1 2 3 4 5 6 
#
# 1 127.1542 18.3896 46.9467 -1.2258 -23.8892 -10.8682
# 2 18.3896 88.4191 37.9971 -0.9066 -22.4332 -2.0258
# 3 46.9467 37.9971 108.3633 -4.7444 -18.7758 3.8280
# 4 -1.2258 -0.9066 -4.7444 25.6048 4.9141 -7.2591
# 5 -23.8892 -22.4332 -18.7758 4.9141 37.9839 7.6137
# 6 -10.8682 -2.0258 3.8280 -7.2591 7.6137 25.0518
#
#
#
# Elastic Compliance Matrix: (Units=1/GPa)
#
#
# Indices 1 2 3 4 5 6 
#
# 1 0.010424 0.000781 -0.004213 0.000090 0.004120 0.004003
# 2 0.000781 0.014872 -0.004312 -0.001851 0.007506 -0.000617
# 3 -0.004213 -0.004312 0.013130 0.000303 0.002210 -0.004767
# 4 0.000090 -0.001851 0.000303 0.045526 -0.009998 0.016074
# 5 0.004120 0.007506 0.002210 -0.009998 0.038235 -0.012461
# 6 0.004003 -0.000617 -0.004767 0.016074 -0.012461 0.050777
#
#
# Mechanical properties :
#
#
# Convention : Reuss Voigt Hill
#
# Bulk Modulus (GPa) = 43.59708 58.95594 51.27651
# Shear Modulus (GPa) = 25.49738 32.43497 28.96618
#
# Velocity S-wave (km/s) = 3.66061 4.12870 3.90168
# Velocity P-wave (km/s) = 6.38586 7.32887 6.87356
#
# Compressibility (1/GPa) = 0.02293732
#
# Stress axis : x y z
#
# Youngs Moduli (GPa) = 95.92894 67.24269 76.16101
#
# Poissons Ratio (x) = -0.05249 0.32090
# Poissons Ratio (y) = -0.07489 0.32837
# Poissons Ratio (z) = 0.40420 0.28992
#
# Static dielectric constant tensor:
#      x y z
#    x 4.177500 -0.153870 -0.197330 
#    y -0.153870 3.101530 0.368490 
#    z -0.197330 0.368490 3.571680 
# 
# 
# High freq. dielectric constant tensor:
#      x y z
#    x 1.766950 -0.001370 -0.011130 
#    y -0.001370 1.703530 0.030640 
#    z -0.011130 0.030640 1.728990 
# 
# From -- ./inp_files/181756.got.cif
#   From: 2010.06.25/outbox.cif.g09.slc.cpg/sg2_91_cif.got.tgz:181756.got - 2010.06.27 13:26:56.
