data_PCOD8042166
_publ_section_title
;
Structure prediction by ZEFSAII (Michael W. Deem and Ramdas Pophale) SiO2 
 PCOD8042166
Probable space group: P -1
;
_chemical_formula_sum "Si O2"
_cell_formula_units_Z 14
_cell_length_a 12.659545
_cell_length_b 8.758409
_cell_length_c 20.388088
_cell_angle_alpha 101.581964
_cell_angle_beta 155.927509
_cell_angle_gamma 93.990859
_cell_volume 699.349759
_symmetry_space_group_name_H-M "P -1"
_symmetry_group_IT_number 2
_symmetry_cell_setting 'triclinic'
loop_
_space_group_symop_operation_xyz
x,y,z
-x,-y,-z
loop_
_atom_site_type_symbol
_atom_site_label
_atom_site_fract_x
_atom_site_fract_y
_atom_site_fract_z
Si Si1 0.600140 0.603365 0.946253
Si Si2 0.941106 0.756161 0.883505
Si Si3 0.203467 0.375466 0.422815
Si Si4 0.261162 0.053351 0.853143
Si Si5 0.270856 0.683260 0.964070
Si Si6 0.904069 0.423738 0.511800
Si Si7 0.812261 0.826840 0.951228
O O1 0.731122 0.687181 0.954470
O O2 0.196182 0.418714 0.702647
O O3 0.695004 0.786096 0.059747
O O4 0.779012 0.518582 0.067679
O O5 0.596731 0.542766 0.648798
O O6 0.980775 0.780831 0.987198
O O7 0.238017 0.766953 0.020643
O O8 0.951987 0.937342 0.876102
O O9 0.076015 0.416412 0.418199
O O10 0.020087 0.373094 0.254752
O O11 0.113330 0.158709 0.368055
O O12 0.361541 0.146403 0.844529
O O13 0.500000 0.000000 0.000000
O O14 0.520569 0.218528 0.274794
O O15 0.000000 0.500000 0.500000
#
# Coordination Sequence:
#
# PCOD8042166 Si02
#       7
#     2   2   2   2   2   2   2
#     4  11  20  36  57  88 118 140 183 241 288 321
#     4  10  21  39  59  82 110 152 199 221 271 339
#     4  10  20  37  58  84 110 151 191 226 270 343
#     4  10  19  34  59  84 109 147 186 227 276 337
#     4  11  22  33  59  87 121 140 178 242 290 327
#     4   9  18  32  59  80 106 142 192 225 270 324
#     4   9  20  38  62  77 107 157 196 226 263 339
#
# _framework density 20.018595000000001
#
# number of rings (size 3 to 8) (size 9 to 14) (size 15 to 20)
#    0.000    2.000    2.857    2.571    2.000    0.571 
#    0.000    3.571    3.143    0.000    0.000    0.000 
#    0.000    0.000    0.000    0.000    0.000    0.000 
#
# Total GULP energy -173446.089596 kJ/mol
# GULP energy per Si atom -12389.006400 kJ/mol
# Density = 1.997303 g / cm^3
# Si number density = 20.018595 Si / 1000 Ang^3
#
#
#
# Elastic Constant Matrix: (Units=GPa)
#
#
# Indices 1 2 3 4 5 6 
#
# 1 147.8678 57.8348 25.8729 3.6768 -11.4888 -0.2810
# 2 57.8348 124.8328 37.6619 18.4702 -2.2407 4.5085
# 3 25.8729 37.6619 67.3703 24.2456 1.6845 5.8831
# 4 3.6768 18.4702 24.2456 22.9124 1.0697 3.6552
# 5 -11.4888 -2.2407 1.6845 1.0697 12.8814 10.9055
# 6 -0.2810 4.5085 5.8831 3.6552 10.9055 29.0525
#
#
#
# Elastic Compliance Matrix: (Units=1/GPa)
#
#
# Indices 1 2 3 4 5 6 
#
# 1 0.009551 -0.003871 -0.003335 0.005142 0.010618 -0.003264
# 2 -0.003871 0.011511 -0.002934 -0.005470 -0.000226 -0.000457
# 3 -0.003335 -0.002934 0.027070 -0.025514 -0.004897 -0.000010
# 4 0.005142 -0.005470 -0.025514 0.074832 0.005266 -0.005326
# 5 0.010618 -0.000226 -0.004897 0.005266 0.127337 -0.047332
# 6 -0.003264 -0.000457 -0.000010 -0.005326 -0.047332 0.052899
#
#
# Mechanical properties :
#
#
# Convention : Reuss Voigt Hill
#
# Bulk Modulus (GPa) = 35.90466 64.75669 50.33068
# Shear Modulus (GPa) = 15.02557 27.54933 21.28745
#
# Velocity S-wave (km/s) = 2.74264 3.71372 3.26449
# Velocity P-wave (km/s) = 5.29189 7.12794 6.27740
#
# Compressibility (1/GPa) = 0.02785153
#
# Stress axis : x y z
#
# Youngs Moduli (GPa) = 104.69646 86.87074 36.94117
#
# Poissons Ratio (x) = 0.33631 0.12320
# Poissons Ratio (y) = 0.40532 0.10840
# Poissons Ratio (z) = 0.34916 0.25491
#
# Static dielectric constant tensor:
#      x y z
#    x 4.073580 0.106740 0.114810 
#    y 0.106740 3.585630 0.405510 
#    z 0.114810 0.405510 4.047210 
# 
# 
# High freq. dielectric constant tensor:
#      x y z
#    x 1.809640 0.008160 -0.001260 
#    y 0.008160 1.751150 0.030130 
#    z -0.001260 0.030130 1.758040 
# 
# From -- ./inp_files/214008.got.cif
#   From: 2010.06.25/outbox.cif.g09.slc.cpg/sg2_108_cif.got.tgz:214008.got - 2010.06.27 13:26:56.
