data_PCOD8042590
_publ_section_title
;
Structure prediction by ZEFSAII (Michael W. Deem and Ramdas Pophale) SiO2 
 PCOD8042590
Probable space group: P -1
;
_chemical_formula_sum "Si O2"
_cell_formula_units_Z 14
_cell_length_a 11.969120
_cell_length_b 8.789441
_cell_length_c 10.823667
_cell_angle_alpha 129.709062
_cell_angle_beta 79.019050
_cell_angle_gamma 123.629227
_cell_volume 705.258790
_symmetry_space_group_name_H-M "P -1"
_symmetry_group_IT_number 2
_symmetry_cell_setting 'triclinic'
loop_
_space_group_symop_operation_xyz
x,y,z
-x,-y,-z
loop_
_atom_site_type_symbol
_atom_site_label
_atom_site_fract_x
_atom_site_fract_y
_atom_site_fract_z
Si Si1 0.933321 0.154350 0.914357
Si Si2 0.828464 0.341165 0.841071
Si Si3 0.419496 0.458980 0.707226
Si Si4 0.574151 0.126156 0.178070
Si Si5 0.700025 0.859135 0.991984
Si Si6 0.213854 0.295050 0.872036
Si Si7 0.570805 0.968308 0.586003
O O1 0.843445 0.159726 0.826279
O O2 0.044693 0.105510 0.810845
O O3 0.828943 0.939455 0.916348
O O4 0.020502 0.417730 0.102879
O O5 0.734939 0.188962 0.663445
O O6 0.749153 0.434353 0.984363
O O7 0.379827 0.597816 0.693835
O O8 0.554212 0.648987 0.856386
O O9 0.283934 0.282119 0.727423
O O10 0.451371 0.288920 0.540739
O O11 0.484090 0.004271 0.257419
O O12 0.500000 0.000000 0.000000
O O13 0.700929 0.095647 0.144889
O O14 0.718735 0.753834 0.055408
O O15 0.500000 0.000000 0.500000
#
# Coordination Sequence:
#
# PCOD8042590 Si02
#       7
#     2   2   2   2   2   2   2
#     4   9  20  35  63  83 119 157 210 240 285 351
#     4   9  19  37  60  80 120 158 205 228 296 352
#     4  11  22  35  60  87 121 154 197 246 304 354
#     4  10  22  37  61  85 118 158 204 242 286 352
#     4  11  19  35  60  90 117 153 203 253 295 342
#     4  10  19  35  58  91 114 155 203 246 293 348
#     4  12  23  39  60  94 127 154 191 254 309 349
#
# _framework density 19.850868999999999
#
# number of rings (size 3 to 8) (size 9 to 14) (size 15 to 20)
#    0.857    0.857    0.000    7.286    0.000    0.000 
#    0.000    0.714    3.143    1.714    0.000    0.000 
#    0.000    0.000    0.000    0.000    0.000    0.000 
#
# Total GULP energy -173449.439908 kJ/mol
# GULP energy per Si atom -12389.245708 kJ/mol
# Density = 1.980569 g / cm^3
# Si number density = 19.850869 Si / 1000 Ang^3
#
#
#
# Elastic Constant Matrix: (Units=GPa)
#
#
# Indices 1 2 3 4 5 6 
#
# 1 103.8845 31.0828 38.8813 -3.4163 8.1285 8.1601
# 2 31.0828 75.3926 16.9843 -18.7986 1.7025 20.3813
# 3 38.8813 16.9843 63.4088 -6.1702 0.0812 -1.5542
# 4 -3.4163 -18.7986 -6.1702 25.9763 -2.5909 -4.4391
# 5 8.1285 1.7025 0.0812 -2.5909 28.3988 -8.4453
# 6 8.1601 20.3813 -1.5542 -4.4391 -8.4453 20.7094
#
#
#
# Elastic Compliance Matrix: (Units=1/GPa)
#
#
# Indices 1 2 3 4 5 6 
#
# 1 0.014767 -0.003152 -0.008785 -0.004253 -0.006459 -0.006921
# 2 -0.003152 0.025123 -0.004204 0.012022 -0.006607 -0.023915
# 3 -0.008785 -0.004204 0.023003 0.004194 0.006969 0.013067
# 4 -0.004253 0.012022 0.004194 0.048722 0.005814 0.002974
# 5 -0.006459 -0.006607 0.006969 0.005814 0.046868 0.029930
# 6 -0.006921 -0.023915 0.013067 0.002974 0.029930 0.088374
#
#
# Mechanical properties :
#
#
# Convention : Reuss Voigt Hill
#
# Bulk Modulus (GPa) = 32.67059 46.28697 39.47878
# Shear Modulus (GPa) = 17.28047 25.39937 21.33992
#
# Velocity S-wave (km/s) = 2.95365 3.58090 3.28229
# Velocity P-wave (km/s) = 5.30338 6.36122 5.85623
#
# Compressibility (1/GPa) = 0.03060857
#
# Stress axis : x y z
#
# Youngs Moduli (GPa) = 67.72035 39.80475 43.47188
#
# Poissons Ratio (x) = 0.12548 0.38192
# Poissons Ratio (y) = 0.21349 0.18276
# Poissons Ratio (z) = 0.59496 0.16734
#
# Static dielectric constant tensor:
#      x y z
#    x 3.914540 -0.127010 -0.216270 
#    y -0.127010 3.544900 0.077250 
#    z -0.216270 0.077250 3.353110 
# 
# 
# High freq. dielectric constant tensor:
#      x y z
#    x 1.788440 -0.010420 -0.008610 
#    y -0.010420 1.771910 0.002810 
#    z -0.008610 0.002810 1.732640 
# 
# From -- ./inp_files/415796.got.cif
#   From: 2010.06.25/outbox.cif.g09.slc.cpg/sg2_208_cif.got.tgz:415796.got - 2010.06.27 13:26:56.
