data_PCOD8042061
_publ_section_title
;
Structure prediction by ZEFSAII (Michael W. Deem and Ramdas Pophale) SiO2 
 PCOD8042061
Probable space group: P -1
;
_chemical_formula_sum "Si O2"
_cell_formula_units_Z 16
_cell_length_a 27.728274
_cell_length_b 15.353436
_cell_length_c 15.885974
_cell_angle_alpha 26.147774
_cell_angle_beta 162.658534
_cell_angle_gamma 152.113269
_cell_volume 869.359759
_symmetry_space_group_name_H-M "P -1"
_symmetry_group_IT_number 2
_symmetry_cell_setting 'triclinic'
loop_
_space_group_symop_operation_xyz
x,y,z
-x,-y,-z
loop_
_atom_site_type_symbol
_atom_site_label
_atom_site_fract_x
_atom_site_fract_y
_atom_site_fract_z
Si Si1 0.334685 0.888219 0.774956
Si Si2 0.239214 0.032517 0.647736
Si Si3 0.463143 0.120956 0.639614
Si Si4 0.953599 0.861648 0.623952
Si Si5 0.712093 0.196565 0.710851
Si Si6 0.602903 0.580111 0.251252
Si Si7 0.484845 0.428685 0.702289
Si Si8 0.545157 0.085615 0.365828
O O1 0.194885 0.894246 0.608747
O O2 0.314591 0.018995 0.544304
O O3 0.355036 0.663089 0.978696
O O4 0.500000 0.000000 0.000000
O O5 0.314073 0.265648 0.541313
O O6 0.376115 0.966472 0.993377
O O7 0.076632 0.009142 0.455295
O O8 0.505092 0.362622 0.512312
O O9 0.409648 0.050612 0.517036
O O10 0.787417 0.702771 0.467614
O O11 0.098803 0.746616 0.991870
O O12 0.000000 0.000000 0.500000
O O13 0.619444 0.382443 0.399223
O O14 0.697314 0.120750 0.655048
O O15 0.623005 0.021081 0.776306
O O16 0.507767 0.515170 0.235993
O O17 0.487003 0.700217 0.903685
#
# Coordination Sequence:
#
# PCOD8042061 Si02
#       8
#     2   2   2   2   2   2   2   2
#     4   8  16  28  45  74 101 126 162 212 252 295
#     4   9  19  31  48  73 102 129 170 207 248 298
#     4  10  15  30  51  71 102 133 160 208 258 298
#     4  11  20  37  54  72 107 141 168 205 256 302
#     4  11  23  33  52  77 105 135 176 210 251 302
#     4  11  19  35  54  75 102 137 173 210 254 304
#     4   9  16  26  50  76  97 127 166 205 258 297
#     4  11  20  35  51  78 104 133 173 216 250 302
#
# _framework density 18.404347999999999
#
# number of rings (size 3 to 8) (size 9 to 14) (size 15 to 20)
#    0.000    2.250    6.250    0.750    0.000    4.500 
#    0.000    0.000    0.000    0.750    0.000    0.875 
#    0.000    0.000    0.000    0.000    0.000    0.000 
#
# Total GULP energy -198242.740482 kJ/mol
# GULP energy per Si atom -12390.171280 kJ/mol
# Density = 1.836246 g / cm^3
# Si number density = 18.404348 Si / 1000 Ang^3
#
#
#
# Elastic Constant Matrix: (Units=GPa)
#
#
# Indices 1 2 3 4 5 6 
#
# 1 133.5093 20.8738 22.0509 -6.8938 1.7149 -19.8002
# 2 20.8738 52.1142 22.1428 -22.4723 -0.6972 -10.4648
# 3 22.0509 22.1428 47.1011 -10.3284 -5.7788 0.2315
# 4 -6.8938 -22.4723 -10.3284 27.7399 -5.4826 -1.6212
# 5 1.7149 -0.6972 -5.7788 -5.4826 23.8577 -2.0589
# 6 -19.8002 -10.4648 0.2315 -1.6212 -2.0589 22.1153
#
#
#
# Elastic Compliance Matrix: (Units=1/GPa)
#
#
# Indices 1 2 3 4 5 6 
#
# 1 0.009561 0.000515 -0.004512 0.001505 -0.000651 0.008901
# 2 0.000515 0.044256 -0.012624 0.034358 0.008236 0.024820
# 3 -0.004512 -0.012624 0.030283 0.000669 0.006610 -0.009666
# 4 0.001505 0.034358 0.000669 0.069732 0.019197 0.024497
# 5 -0.000651 0.008236 0.006610 0.019197 0.049011 0.009215
# 6 0.008901 0.024820 -0.009666 0.024497 0.009215 0.067686
#
#
# Mechanical properties :
#
#
# Convention : Reuss Voigt Hill
#
# Bulk Modulus (GPa) = 19.66232 40.31774 29.99003
# Shear Modulus (GPa) = 15.58981 25.91973 20.75477
#
# Velocity S-wave (km/s) = 2.91361 3.75687 3.36178
# Velocity P-wave (km/s) = 4.69314 6.38537 5.60350
#
# Compressibility (1/GPa) = 0.05085871
#
# Stress axis : x y z
#
# Youngs Moduli (GPa) = 104.59314 22.59581 33.02182
#
# Poissons Ratio (x) = -0.01164 0.14899
# Poissons Ratio (y) = -0.05386 0.41686
# Poissons Ratio (z) = 0.47190 0.28524
#
# Static dielectric constant tensor:
#      x y z
#    x 4.315940 -0.164550 0.102040 
#    y -0.164550 3.177520 -0.315880 
#    z 0.102040 -0.315880 3.084230 
# 
# 
# High freq. dielectric constant tensor:
#      x y z
#    x 1.737010 -0.012180 -0.009910 
#    y -0.012180 1.685380 -0.037380 
#    z -0.009910 -0.037380 1.673880 
# 
# From -- ./inp_files/538716.got.cif
#   From: 2010.06.25/outbox.cif.g09.slc.cpg/sg2_270_cif.got.tgz:538716.got - 2010.06.27 13:26:56.
