data_PCOD8042849
_publ_section_title
;
Structure prediction by ZEFSAII (Michael W. Deem and Ramdas Pophale) SiO2 
 PCOD8042849
Probable space group: P -1
;
_chemical_formula_sum "Si O2"
_cell_formula_units_Z 16
_cell_length_a 6.971292
_cell_length_b 8.228147
_cell_length_c 14.170793
_cell_angle_alpha 77.106833
_cell_angle_beta 103.732359
_cell_angle_gamma 106.400727
_cell_volume 746.780276
_symmetry_space_group_name_H-M "P -1"
_symmetry_group_IT_number 2
_symmetry_cell_setting 'triclinic'
loop_
_space_group_symop_operation_xyz
x,y,z
-x,-y,-z
loop_
_atom_site_type_symbol
_atom_site_label
_atom_site_fract_x
_atom_site_fract_y
_atom_site_fract_z
Si Si1 0.616487 0.262831 0.067630
Si Si2 0.614030 0.347614 0.700393
Si Si3 0.553704 0.486364 0.868124
Si Si4 0.645925 0.806605 0.482234
Si Si5 0.949782 0.666110 0.646179
Si Si6 0.344895 0.018296 0.195135
Si Si7 0.944642 0.767778 0.842095
Si Si8 0.379901 0.823089 0.620710
O O1 0.608461 0.411615 0.125105
O O2 0.468042 0.081786 0.105064
O O3 0.841314 0.235382 0.086816
O O4 0.542637 0.316869 0.951310
O O5 0.509214 0.433176 0.760678
O O6 0.446846 0.301854 0.605716
O O7 0.821016 0.470929 0.669147
O O8 0.681826 0.182248 0.768499
O O9 0.781311 0.606014 0.886919
O O10 0.854706 0.759587 0.540035
O O11 0.490190 0.750156 0.558107
O O12 0.691818 0.008496 0.441651
O O13 0.956727 0.769815 0.730432
O O14 0.181623 0.673797 0.643023
O O15 0.121899 0.057919 0.159261
O O16 0.466286 0.133177 0.279642
#
# Coordination Sequence:
#
# PCOD8042849 Si02
#       8
#     2   2   2   2   2   2   2   2
#     4  10  19  38  65  86 111 159 201 234 292 354
#     4  10  23  39  56  88 131 149 186 254 299 334
#     4   9  21  38  60  89 117 151 195 249 289 347
#     4  10  21  38  57  85 120 153 192 248 287 341
#     4  11  20  36  60  86 114 158 200 237 286 347
#     4  10  20  38  58  88 123 154 192 243 290 348
#     4  10  19  35  63  86 116 152 202 239 281 351
#     4  10  20  36  61  84 112 158 205 232 282 352
#
# _framework density 21.425314
#
# number of rings (size 3 to 8) (size 9 to 14) (size 15 to 20)
#    0.000    2.000    2.500    1.125    0.000    1.000 
#    0.000    6.875    0.000    0.000    0.000    0.000 
#    0.000    0.000    0.000    0.000    0.000    0.000 
#
# Total GULP energy -198426.486320 kJ/mol
# GULP energy per Si atom -12401.655395 kJ/mol
# Density = 2.137655 g / cm^3
# Si number density = 21.425314 Si / 1000 Ang^3
#
#
#
# Elastic Constant Matrix: (Units=GPa)
#
#
# Indices 1 2 3 4 5 6 
#
# 1 104.4351 9.0051 10.0548 -4.5934 2.8456 1.7139
# 2 9.0051 36.0737 2.1473 -5.2216 2.2451 6.4121
# 3 10.0548 2.1473 62.7432 -13.0550 -8.7794 6.2611
# 4 -4.5934 -5.2216 -13.0550 32.4799 -5.6479 -2.7310
# 5 2.8456 2.2451 -8.7794 -5.6479 29.7907 -6.6734
# 6 1.7139 6.4121 6.2611 -2.7310 -6.6734 21.3076
#
#
#
# Elastic Compliance Matrix: (Units=1/GPa)
#
#
# Indices 1 2 3 4 5 6 
#
# 1 0.009973 -0.002292 -0.001660 0.000160 -0.001237 0.000009
# 2 -0.002292 0.030727 0.000513 0.003379 -0.003519 -0.009882
# 3 -0.001660 0.000513 0.019161 0.008537 0.006845 -0.002413
# 4 0.000160 0.003379 0.008537 0.036935 0.010234 0.004401
# 5 -0.001237 -0.003519 0.006845 0.010234 0.040879 0.013262
# 6 0.000009 -0.009882 -0.002413 0.004401 0.013262 0.055331
#
#
# Mechanical properties :
#
#
# Convention : Reuss Voigt Hill
#
# Bulk Modulus (GPa) = 18.87436 27.29626 23.08531
# Shear Modulus (GPa) = 22.98337 28.85195 25.91766
#
# Velocity S-wave (km/s) = 3.27879 3.67363 3.48181
# Velocity P-wave (km/s) = 4.81274 5.54634 5.19251
#
# Compressibility (1/GPa) = 0.05298194
#
# Stress axis : x y z
#
# Youngs Moduli (GPa) = 100.26623 32.54427 52.18843
#
# Poissons Ratio (x) = 0.07460 0.08666
# Poissons Ratio (y) = 0.22983 -0.02675
# Poissons Ratio (z) = 0.16649 -0.01668
#
# Static dielectric constant tensor:
#      x y z
#    x 3.821510 -0.053730 -0.147090 
#    y -0.053730 3.697320 -0.274170 
#    z -0.147090 -0.274170 3.974760 
# 
# 
# High freq. dielectric constant tensor:
#      x y z
#    x 1.834870 -0.006730 -0.006000 
#    y -0.006730 1.822820 -0.024680 
#    z -0.006000 -0.024680 1.850000 
# 
# From -- ./inp_files/39189.got.cif
#   From: 2010.06.25/outbox.cif.g09.slc.cpg/sg2_20_cif.got.tgz:39189.got - 2010.06.27 13:26:56.
