data_PCOD8042822
_publ_section_title
;
Structure prediction by ZEFSAII (Michael W. Deem and Ramdas Pophale) SiO2 
 PCOD8042822
Probable space group: P -1
;
_chemical_formula_sum "Si O2"
_cell_formula_units_Z 12
_cell_length_a 15.168416
_cell_length_b 10.204850
_cell_length_c 8.964510
_cell_angle_alpha 109.356822
_cell_angle_beta 140.531677
_cell_angle_gamma 47.267843
_cell_volume 590.335188
_symmetry_space_group_name_H-M "P -1"
_symmetry_group_IT_number 2
_symmetry_cell_setting 'triclinic'
loop_
_space_group_symop_operation_xyz
x,y,z
-x,-y,-z
loop_
_atom_site_type_symbol
_atom_site_label
_atom_site_fract_x
_atom_site_fract_y
_atom_site_fract_z
Si Si1 0.602675 0.474910 0.774812
Si Si2 0.763860 0.270161 0.400749
Si Si3 0.214427 0.387463 0.060252
Si Si4 0.428665 0.977093 0.250791
Si Si5 0.200906 0.438203 0.411179
Si Si6 0.169441 0.902433 0.892722
O O1 0.500000 0.500000 0.500000
O O2 0.442203 0.604539 0.741961
O O3 0.713219 0.542090 0.925787
O O4 0.764438 0.247195 0.946068
O O5 0.816533 0.393650 0.488068
O O6 0.746146 0.208675 0.196106
O O7 0.934275 0.078088 0.649586
O O8 0.237478 0.417952 0.273518
O O9 0.341128 0.160194 0.100789
O O10 0.989050 0.515897 0.777341
O O11 0.614039 0.765693 0.342216
O O12 0.500000 0.000000 0.500000
O O13 0.255130 0.994046 0.072039
#
# Coordination Sequence:
#
# PCOD8042822 Si02
#       6
#     2   2   2   2   2   2
#     4  12  23  40  63  99 124 158 210 273 305 352
#     4  11  23  42  66  90 127 171 210 244 316 381
#     4  10  21  36  58  93 125 148 211 260 305 360
#     4  10  19  35  62  89 116 161 208 248 301 367
#     4  10  19  37  63  86 119 171 200 248 310 374
#     4  11  24  41  67  90 126 172 209 249 309 386
#
# _framework density 20.327435999999999
#
# number of rings (size 3 to 8) (size 9 to 14) (size 15 to 20)
#    0.000    1.333    5.000    1.500    0.000    2.000 
#    0.000    1.667    0.000    0.000    0.000    0.000 
#    0.000    0.000    0.000    0.000    0.000    0.000 
#
# Total GULP energy -148820.140388 kJ/mol
# GULP energy per Si atom -12401.678366 kJ/mol
# Density = 2.028117 g / cm^3
# Si number density = 20.327436 Si / 1000 Ang^3
#
#
#
# Elastic Constant Matrix: (Units=GPa)
#
#
# Indices 1 2 3 4 5 6 
#
# 1 69.3278 31.3826 22.8387 1.2816 22.3745 29.2226
# 2 31.3826 113.4234 29.1970 -13.5273 2.1878 27.4726
# 3 22.8387 29.1970 73.4884 -11.0724 6.7772 16.5468
# 4 1.2816 -13.5273 -11.0724 42.2694 5.5517 2.3790
# 5 22.3745 2.1878 6.7772 5.5517 27.8728 1.8494
# 6 29.2226 27.4726 16.5468 2.3790 1.8494 41.0727
#
#
#
# Elastic Compliance Matrix: (Units=1/GPa)
#
#
# Indices 1 2 3 4 5 6 
#
# 1 0.032408 -0.003129 -0.002000 0.001771 -0.024365 -0.019165
# 2 -0.003129 0.011856 -0.002258 0.003346 0.001800 -0.005069
# 3 -0.002000 -0.002258 0.016967 0.004396 -0.002952 -0.004024
# 4 0.001771 0.003346 0.004396 0.027209 -0.007742 -0.006497
# 5 -0.024365 0.001800 -0.002952 -0.007742 0.056544 0.015222
# 6 -0.019165 -0.005069 -0.004024 -0.006497 0.015222 0.042685
#
#
# Mechanical properties :
#
#
# Convention : Reuss Voigt Hill
#
# Bulk Modulus (GPa) = 21.52539 47.00846 34.26693
# Shear Modulus (GPa) = 22.94329 33.76439 28.35384
#
# Velocity S-wave (km/s) = 3.36324 4.07999 3.73883
# Velocity P-wave (km/s) = 5.06894 6.73579 5.96092
#
# Compressibility (1/GPa) = 0.04645676
#
# Stress axis : x y z
#
# Youngs Moduli (GPa) = 30.85632 84.34754 58.93812
#
# Poissons Ratio (x) = 0.26392 0.11786
# Poissons Ratio (y) = 0.09655 0.13310
# Poissons Ratio (z) = 0.06170 0.19049
#
# Static dielectric constant tensor:
#      x y z
#    x 3.434910 0.240550 0.096210 
#    y 0.240550 4.557510 -0.418550 
#    z 0.096210 -0.418550 3.923790 
# 
# 
# High freq. dielectric constant tensor:
#      x y z
#    x 1.753330 0.007100 0.023050 
#    y 0.007100 1.816350 -0.007580 
#    z 0.023050 -0.007580 1.806260 
# 
# From -- ./inp_files/148546.got.cif
#   From: 2010.06.25/outbox.cif.g09.slc.cpg/sg2_75_cif.got.tgz:148546.got - 2010.06.27 13:26:56.
