data_PCOD8042774
_publ_section_title
;
Structure prediction by ZEFSAII (Michael W. Deem and Ramdas Pophale) SiO2 
 PCOD8042774
Probable space group: P -1
;
_chemical_formula_sum "Si O2"
_cell_formula_units_Z 14
_cell_length_a 9.154284
_cell_length_b 12.465372
_cell_length_c 10.126786
_cell_angle_alpha 145.192678
_cell_angle_beta 99.413982
_cell_angle_gamma 79.670189
_cell_volume 648.662350
_symmetry_space_group_name_H-M "P -1"
_symmetry_group_IT_number 2
_symmetry_cell_setting 'triclinic'
loop_
_space_group_symop_operation_xyz
x,y,z
-x,-y,-z
loop_
_atom_site_type_symbol
_atom_site_label
_atom_site_fract_x
_atom_site_fract_y
_atom_site_fract_z
Si Si1 0.177468 0.591951 0.014949
Si Si2 0.874022 0.046213 0.137500
Si Si3 0.080521 0.638997 0.340170
Si Si4 0.667378 0.087869 0.737480
Si Si5 0.420025 0.859492 0.935561
Si Si6 0.356846 0.243923 0.769540
Si Si7 0.719938 0.704831 0.898221
O O1 0.325939 0.456709 0.928301
O O2 0.066248 0.472583 0.795867
O O3 0.118657 0.677388 0.232204
O O4 0.206132 0.765337 0.098456
O O5 0.941974 0.161386 0.384514
O O6 0.735617 0.184699 0.199026
O O7 0.812989 0.848481 0.973462
O O8 0.000000 0.000000 0.000000
O O9 0.204746 0.506820 0.304183
O O10 0.531926 0.190207 0.736922
O O11 0.725166 0.894076 0.479874
O O12 0.621053 0.040401 0.830203
O O13 0.548600 0.688689 0.805411
O O14 0.500000 0.000000 0.000000
O O15 0.284670 0.216096 0.873607
#
# Coordination Sequence:
#
# PCOD8042774 Si02
#       7
#     2   2   2   2   2   2   2
#     4  10  21  37  59  89 120 149 198 245 297 352
#     4  11  24  39  61  87 119 160 201 243 290 352
#     4  10  23  39  59  88 121 158 193 245 301 349
#     4  10  19  35  61  88 117 154 197 242 297 347
#     4   9  21  41  59  85 119 157 200 240 290 352
#     4   9  19  35  61  89 116 152 192 251 296 349
#     4   9  20  42  61  82 121 153 200 245 295 351
#
# _framework density 21.582878000000001
#
# number of rings (size 3 to 8) (size 9 to 14) (size 15 to 20)
#    0.000    2.286    0.000    1.286    4.000    2.286 
#    0.000    4.286    0.000    0.000    0.000    0.000 
#    0.000    0.000    0.000    0.000    0.000    0.000 
#
# Total GULP energy -173496.516926 kJ/mol
# GULP energy per Si atom -12392.608352 kJ/mol
# Density = 2.153375 g / cm^3
# Si number density = 21.582878 Si / 1000 Ang^3
#
#
#
# Elastic Constant Matrix: (Units=GPa)
#
#
# Indices 1 2 3 4 5 6 
#
# 1 84.3312 23.6718 33.6752 -6.5237 1.7533 10.1443
# 2 23.6718 74.5429 17.4004 -9.3355 -1.7791 15.0693
# 3 33.6752 17.4004 99.9024 -6.5989 2.3383 13.8514
# 4 -6.5237 -9.3355 -6.5989 20.5810 -1.3664 6.6841
# 5 1.7533 -1.7791 2.3383 -1.3664 26.3245 -4.5832
# 6 10.1443 15.0693 13.8514 6.6841 -4.5832 35.6921
#
#
#
# Elastic Compliance Matrix: (Units=1/GPa)
#
#
# Indices 1 2 3 4 5 6 
#
# 1 0.014764 -0.003061 -0.003973 0.002592 -0.001048 -0.001982
# 2 -0.003061 0.017258 -0.000252 0.009414 0.000485 -0.008019
# 3 -0.003973 -0.000252 0.012303 0.003924 -0.001417 -0.004456
# 4 0.002592 0.009414 0.003924 0.060657 0.000205 -0.017567
# 5 -0.001048 0.000485 -0.001417 0.000205 0.039208 0.005639
# 6 -0.001982 -0.008019 -0.004456 -0.017567 0.005639 0.037710
#
#
# Mechanical properties :
#
#
# Convention : Reuss Voigt Hill
#
# Bulk Modulus (GPa) = 33.60956 45.36349 39.48653
# Shear Modulus (GPa) = 24.22602 28.78811 26.50707
#
# Velocity S-wave (km/s) = 3.35396 3.65614 3.50830
# Velocity P-wave (km/s) = 5.53216 6.23595 5.89457
#
# Compressibility (1/GPa) = 0.02975344
#
# Stress axis : x y z
#
# Youngs Moduli (GPa) = 67.73016 57.94582 81.28032
#
# Poissons Ratio (x) = 0.17737 0.32294
# Poissons Ratio (y) = 0.20732 0.02046
# Poissons Ratio (z) = 0.26910 0.01459
#
# Static dielectric constant tensor:
#      x y z
#    x 4.171750 -0.400050 -0.009780 
#    y -0.400050 4.067560 -0.118880 
#    z -0.009780 -0.118880 3.641330 
# 
# 
# High freq. dielectric constant tensor:
#      x y z
#    x 1.854790 -0.010630 -0.004750 
#    y -0.010630 1.846660 -0.008700 
#    z -0.004750 -0.008700 1.826370 
# 
# From -- ./inp_files/112965.got.cif
#   From: 2010.06.25/outbox.cif.g09.slc.cpg/sg2_57_cif.got.tgz:112965.got - 2010.06.27 13:26:56.
