data_PCOD8042167
_publ_section_title
;
Structure prediction by ZEFSAII (Michael W. Deem and Ramdas Pophale) SiO2 
 PCOD8042167
Probable space group: P -1
;
_chemical_formula_sum "Si O2"
_cell_formula_units_Z 14
_cell_length_a 25.375927
_cell_length_b 9.519518
_cell_length_c 12.842806
_cell_angle_alpha 45.861408
_cell_angle_beta 155.918699
_cell_angle_gamma 140.124856
_cell_volume 811.467763
_symmetry_space_group_name_H-M "P -1"
_symmetry_group_IT_number 2
_symmetry_cell_setting 'triclinic'
loop_
_space_group_symop_operation_xyz
x,y,z
-x,-y,-z
loop_
_atom_site_type_symbol
_atom_site_label
_atom_site_fract_x
_atom_site_fract_y
_atom_site_fract_z
Si Si1 0.392436 0.056743 0.593114
Si Si2 0.685717 0.108830 0.103243
Si Si3 0.838263 0.031014 0.603973
Si Si4 0.376747 0.115946 0.314278
Si Si5 0.697047 0.176909 0.855876
Si Si6 0.140640 0.342951 0.057014
Si Si7 0.648900 0.511851 0.821028
O O1 0.322108 0.969567 0.397487
O O2 0.480198 0.327004 0.589451
O O3 0.275999 0.970541 0.517152
O O4 0.512327 0.974121 0.881715
O O5 0.774669 0.018991 0.380226
O O6 0.712176 0.078100 0.045154
O O7 0.731706 0.366242 0.078693
O O8 0.868141 0.821436 0.780865
O O9 0.985779 0.252766 0.767435
O O10 0.546721 0.191639 0.566551
O O11 0.345728 0.328057 0.157777
O O12 0.285973 0.971219 0.128037
O O13 0.823543 0.423874 0.947283
O O14 0.263303 0.352328 0.192474
#
# Coordination Sequence:
#
# PCOD8042167 Si02
#       7
#     2   2   2   2   2   2   2
#     4   9  17  30  53  80  91 126 166 210 234 285
#     4   8  19  31  51  76 100 124 164 208 246 282
#     4  11  19  31  53  74 106 123 162 208 253 284
#     4  10  15  30  56  71 100 125 175 204 227 290
#     4   9  19  31  50  77  96 135 166 199 242 287
#     4  10  20  32  51  77  95 135 165 200 243 295
#     4   9  17  31  53  76  91 126 177 200 230 283
#
# _framework density 17.252687000000002
#
# number of rings (size 3 to 8) (size 9 to 14) (size 15 to 20)
#    0.857    1.714    2.857    1.714    0.000    2.286 
#    0.000    0.714    3.143    5.143    0.000    0.000 
#    0.000    0.000    0.000    0.000    0.000    0.000 
#
# Total GULP energy -173463.702515 kJ/mol
# GULP energy per Si atom -12390.264465 kJ/mol
# Density = 1.721342 g / cm^3
# Si number density = 17.252687 Si / 1000 Ang^3
#
#
#
# Elastic Constant Matrix: (Units=GPa)
#
#
# Indices 1 2 3 4 5 6 
#
# 1 86.0814 52.7598 46.5769 11.4312 -23.1281 -17.2505
# 2 52.7598 57.1168 25.4118 15.2100 -3.4096 -5.0128
# 3 46.5769 25.4118 89.7254 6.8175 -17.2158 5.0172
# 4 11.4312 15.2100 6.8175 21.3383 3.5465 1.2722
# 5 -23.1281 -3.4096 -17.2158 3.5465 20.0655 4.1749
# 6 -17.2505 -5.0128 5.0172 1.2722 4.1749 31.1199
#
#
#
# Elastic Compliance Matrix: (Units=1/GPa)
#
#
# Indices 1 2 3 4 5 6 
#
# 1 0.078222 -0.057929 -0.012486 -0.009152 0.065473 0.027633
# 2 -0.057929 0.068000 0.003242 -0.009670 -0.047626 -0.014896
# 3 -0.012486 0.003242 0.018145 -0.001505 0.004033 -0.009804
# 4 -0.009152 -0.009670 -0.001505 0.063390 -0.023474 -0.005831
# 5 0.065473 -0.047626 0.004033 -0.023474 0.122211 0.012536
# 6 0.027633 -0.014896 -0.009804 -0.005831 0.012536 0.045189
#
#
# Mechanical properties :
#
#
# Convention : Reuss Voigt Hill
#
# Bulk Modulus (GPa) = 33.31036 53.60227 43.45631
# Shear Modulus (GPa) = 9.26767 21.71641 15.49204
#
# Velocity S-wave (km/s) = 2.32021 3.55170 2.99983
# Velocity P-wave (km/s) = 5.15045 6.92502 6.10258
#
# Compressibility (1/GPa) = 0.03002069
#
# Stress axis : x y z
#
# Youngs Moduli (GPa) = 12.78416 14.70584 55.11178
#
# Poissons Ratio (x) = 0.85189 0.68814
# Poissons Ratio (y) = 0.74057 -0.17867
# Poissons Ratio (z) = 0.15963 -0.04767
#
# Static dielectric constant tensor:
#      x y z
#    x 3.129800 -0.015730 -0.028860 
#    y -0.015730 3.050010 0.058340 
#    z -0.028860 0.058340 3.045630 
# 
# 
# High freq. dielectric constant tensor:
#      x y z
#    x 1.653690 0.007590 0.001220 
#    y 0.007590 1.639900 -0.001180 
#    z 0.001220 -0.001180 1.652780 
# 
# From -- ./inp_files/284718.got.cif
#   From: 2010.06.25/outbox.cif.g09.slc.cpg/sg2_143_cif.got.tgz:284718.got - 2010.06.27 13:26:56.
