data_PCOD8042393
_publ_section_title
;
Structure prediction by ZEFSAII (Michael W. Deem and Ramdas Pophale) SiO2 
 PCOD8042393
Probable space group: P -1
;
_chemical_formula_sum "Si O2"
_cell_formula_units_Z 14
_cell_length_a 13.097354
_cell_length_b 15.832143
_cell_length_c 11.797592
_cell_angle_alpha 143.386466
_cell_angle_beta 47.471675
_cell_angle_gamma 153.793658
_cell_volume 635.172310
_symmetry_space_group_name_H-M "P -1"
_symmetry_group_IT_number 2
_symmetry_cell_setting 'triclinic'
loop_
_space_group_symop_operation_xyz
x,y,z
-x,-y,-z
loop_
_atom_site_type_symbol
_atom_site_label
_atom_site_fract_x
_atom_site_fract_y
_atom_site_fract_z
Si Si1 0.752193 0.676198 0.949627
Si Si2 0.185626 0.213937 0.220750
Si Si3 0.556902 0.276831 0.025153
Si Si4 0.602865 0.129504 0.180265
Si Si5 0.953824 0.645647 0.949149
Si Si6 0.813642 0.694382 0.433023
Si Si7 0.252330 0.070196 0.362249
O O1 0.735112 0.624667 0.772540
O O2 0.873981 0.649092 0.895715
O O3 0.500000 0.500000 0.000000
O O4 0.910879 0.948080 0.133058
O O5 0.332342 0.189195 0.080004
O O6 0.219099 0.330960 0.435680
O O7 0.702616 0.455569 0.216695
O O8 0.723913 0.410464 0.935083
O O9 0.478428 0.051626 0.860411
O O10 0.887396 0.361574 0.208660
O O11 0.490091 0.189544 0.354693
O O12 0.500000 0.000000 0.000000
O O13 0.116685 0.888310 0.160873
O O14 0.084557 0.933376 0.450555
O O15 0.675045 0.711051 0.494359
#
# Coordination Sequence:
#
# PCOD8042393 Si02
#       7
#     2   2   2   2   2   2   2
#     4  11  21  35  56  83 117 154 195 244 280 329
#     4  11  21  34  56  86 116 150 194 238 290 337
#     4  11  21  35  60  88 118 151 186 238 293 350
#     4  10  20  36  55  84 121 154 188 230 290 345
#     4  10  19  35  54  82 116 147 197 234 281 335
#     4  10  20  35  58  90 121 148 186 238 297 348
#     4   9  19  35  58  84 124 153 182 239 292 343
#
# _framework density 22.041263000000001
#
# number of rings (size 3 to 8) (size 9 to 14) (size 15 to 20)
#    0.000    1.714    4.286    1.286    0.000    5.143 
#    0.000    1.429    0.000    0.857    0.000   13.000 
#    0.000    0.000    0.000    0.000    0.000    0.000 
#
# Total GULP energy -173566.871333 kJ/mol
# GULP energy per Si atom -12397.633667 kJ/mol
# Density = 2.199110 g / cm^3
# Si number density = 22.041263 Si / 1000 Ang^3
#
#
#
# Elastic Constant Matrix: (Units=GPa)
#
#
# Indices 1 2 3 4 5 6 
#
# 1 130.7650 56.7344 32.8670 -39.7536 4.4294 -1.6754
# 2 56.7344 130.8496 37.3560 -28.3879 15.5423 -3.0579
# 3 32.8670 37.3560 47.7354 -23.3323 -3.5864 -5.1113
# 4 -39.7536 -28.3879 -23.3323 32.7592 -1.7731 -0.3694
# 5 4.4294 15.5423 -3.5864 -1.7731 24.5441 -12.0502
# 6 -1.6754 -3.0579 -5.1113 -0.3694 -12.0502 34.4254
#
#
#
# Elastic Compliance Matrix: (Units=1/GPa)
#
#
# Indices 1 2 3 4 5 6 
#
# 1 0.012867 -0.002751 -0.000123 0.013191 0.000728 0.000760
# 2 -0.002751 0.012748 -0.009031 0.000641 -0.010885 -0.004146
# 3 -0.000123 -0.009031 0.042416 0.023454 0.019866 0.012695
# 4 0.013191 0.000641 0.023454 0.064387 0.009279 0.008120
# 5 0.000728 -0.010885 0.019866 0.009279 0.062933 0.024147
# 6 0.000760 -0.004146 0.012695 0.008120 0.024147 0.039141
#
#
# Mechanical properties :
#
#
# Convention : Reuss Voigt Hill
#
# Bulk Modulus (GPa) = 22.61290 62.58499 42.59894
# Shear Modulus (GPa) = 18.31219 30.50525 24.40872
#
# Velocity S-wave (km/s) = 2.88551 3.72426 3.33139
# Velocity P-wave (km/s) = 4.62420 6.85198 5.84520
#
# Compressibility (1/GPa) = 0.04422255
#
# Stress axis : x y z
#
# Youngs Moduli (GPa) = 77.71923 78.44162 23.57584
#
# Poissons Ratio (x) = 0.21577 0.00290
# Poissons Ratio (y) = 0.21378 0.21290
# Poissons Ratio (z) = 0.00957 0.70838
#
# Static dielectric constant tensor:
#      x y z
#    x 4.425830 0.183400 -0.277000 
#    y 0.183400 4.465650 -0.324630 
#    z -0.277000 -0.324630 3.806890 
# 
# 
# High freq. dielectric constant tensor:
#      x y z
#    x 1.865470 -0.001930 -0.002010 
#    y -0.001930 1.898680 -0.016970 
#    z -0.002010 -0.016970 1.810070 
# 
# From -- ./inp_files/332034.got.cif
#   From: 2010.06.25/outbox.cif.g09.slc.cpg/sg2_167_cif.got.tgz:332034.got - 2010.06.27 13:26:56.
