data_PCOD8042200
_publ_section_title
;
Structure prediction by ZEFSAII (Michael W. Deem and Ramdas Pophale) SiO2 
 PCOD8042200
Probable space group: P -1
;
_chemical_formula_sum "Si O2"
_cell_formula_units_Z 16
_cell_length_a 15.779390
_cell_length_b 11.922752
_cell_length_c 10.099426
_cell_angle_alpha 127.472334
_cell_angle_beta 37.146818
_cell_angle_gamma 106.895777
_cell_volume 832.403193
_symmetry_space_group_name_H-M "P -1"
_symmetry_group_IT_number 2
_symmetry_cell_setting 'triclinic'
loop_
_space_group_symop_operation_xyz
x,y,z
-x,-y,-z
loop_
_atom_site_type_symbol
_atom_site_label
_atom_site_fract_x
_atom_site_fract_y
_atom_site_fract_z
Si Si1 0.332151 0.828741 0.769705
Si Si2 0.682452 0.685980 0.613780
Si Si3 0.114668 0.664125 0.898618
Si Si4 0.805139 0.727236 0.217395
Si Si5 0.783776 0.810906 0.821660
Si Si6 0.392358 0.165204 0.697668
Si Si7 0.112029 0.622156 0.177167
Si Si8 0.589555 0.344085 0.193141
O O1 0.228344 0.745231 0.781156
O O2 0.494096 0.755743 0.435656
O O3 0.362266 0.797260 0.865568
O O4 0.246587 0.011790 0.988726
O O5 0.812798 0.516441 0.359274
O O6 0.708955 0.754014 0.491066
O O7 0.688408 0.797217 0.803104
O O8 0.516929 0.676864 0.804682
O O9 0.070065 0.678066 0.118548
O O10 0.961191 0.749879 0.066161
O O11 0.705239 0.848955 0.318433
O O12 0.843858 0.557961 0.989343
O O13 0.966064 0.717077 0.516995
O O14 0.723768 0.744002 0.974490
O O15 0.500000 0.000000 0.500000
O O16 0.258708 0.654410 0.063890
O O17 0.500000 0.500000 0.500000
#
# Coordination Sequence:
#
# PCOD8042200 Si02
#       8
#     2   2   2   2   2   2   2   2
#     4  10  21  39  59  81 120 160 188 231 301 341
#     4  11  19  36  61  93 115 143 198 244 280 340
#     4  10  19  34  63  92 113 147 196 240 285 345
#     4  11  18  37  65  84 112 159 197 224 291 356
#     4  11  23  39  55  87 125 148 188 250 284 338
#     4  10  23  42  57  79 120 165 191 227 292 357
#     4  10  19  34  59  92 120 140 190 244 295 328
#     4  11  18  33  62  90 115 151 191 238 288 347
#
# _framework density 19.221454999999999
#
# number of rings (size 3 to 8) (size 9 to 14) (size 15 to 20)
#    0.000    1.500    7.500    0.750    0.000    3.000 
#    0.000    4.375    0.000    0.000    0.000    0.000 
#    0.000    0.000    0.000    0.000    0.000    0.000 
#
# Total GULP energy -198375.982305 kJ/mol
# GULP energy per Si atom -12398.498894 kJ/mol
# Density = 1.917771 g / cm^3
# Si number density = 19.221455 Si / 1000 Ang^3
#
#
#
# Elastic Constant Matrix: (Units=GPa)
#
#
# Indices 1 2 3 4 5 6 
#
# 1 126.3551 37.3695 39.2129 -16.6052 -26.5289 -5.2076
# 2 37.3695 56.4257 27.1637 -11.8834 -1.7883 5.4744
# 3 39.2129 27.1637 107.0786 -29.8868 -9.4248 5.5735
# 4 -16.6052 -11.8834 -29.8868 22.3162 5.7237 -10.3723
# 5 -26.5289 -1.7883 -9.4248 5.7237 34.2959 -4.1356
# 6 -5.2076 5.4744 5.5735 -10.3723 -4.1356 23.3770
#
#
#
# Elastic Compliance Matrix: (Units=1/GPa)
#
#
# Indices 1 2 3 4 5 6 
#
# 1 0.014081 -0.008120 -0.000653 0.007432 0.010292 0.010312
# 2 -0.008120 0.025507 -0.003357 0.001288 -0.007011 -0.007651
# 3 -0.000653 -0.003357 0.016536 0.022907 0.000887 0.007019
# 4 0.007432 0.001288 0.022907 0.100476 0.000228 0.040514
# 5 0.010292 -0.007011 0.000887 0.000228 0.038237 0.010588
# 6 0.010312 -0.007651 0.007019 0.040514 0.010588 0.065041
#
#
# Mechanical properties :
#
#
# Convention : Reuss Voigt Hill
#
# Bulk Modulus (GPa) = 31.38275 55.26129 43.32202
# Shear Modulus (GPa) = 16.96292 28.40536 22.68414
#
# Velocity S-wave (km/s) = 2.97391 3.84838 3.43905
# Velocity P-wave (km/s) = 5.30609 6.96842 6.19328
#
# Compressibility (1/GPa) = 0.03186464
#
# Stress axis : x y z
#
# Youngs Moduli (GPa) = 71.01688 39.20420 60.47418
#
# Poissons Ratio (x) = 0.31835 0.03950
# Poissons Ratio (y) = 0.57668 0.20298
# Poissons Ratio (z) = 0.04638 0.13159
#
# Static dielectric constant tensor:
#      x y z
#    x 3.561320 0.022390 -0.256810 
#    y 0.022390 3.530410 -0.312640 
#    z -0.256810 -0.312640 3.619640 
# 
# 
# High freq. dielectric constant tensor:
#      x y z
#    x 1.742150 0.005150 -0.030170 
#    y 0.005150 1.734300 -0.011310 
#    z -0.030170 -0.011310 1.736810 
# 
# From -- ./inp_files/271277.got.cif
#   From: 2010.06.25/outbox.cif.g09.slc.cpg/sg2_136_cif.got.tgz:271277.got - 2010.06.27 13:26:56.
