data_PCOD8042891
_publ_section_title
;
Structure prediction by ZEFSAII (Michael W. Deem and Ramdas Pophale) SiO2 
 PCOD8042891
Probable space group: P -1
;
_chemical_formula_sum "Si O2"
_cell_formula_units_Z 16
_cell_length_a 16.072718
_cell_length_b 11.379276
_cell_length_c 10.034194
_cell_angle_alpha 49.046152
_cell_angle_beta 36.470050
_cell_angle_gamma 56.171319
_cell_volume 822.059846
_symmetry_space_group_name_H-M "P -1"
_symmetry_group_IT_number 2
_symmetry_cell_setting 'triclinic'
loop_
_space_group_symop_operation_xyz
x,y,z
-x,-y,-z
loop_
_atom_site_type_symbol
_atom_site_label
_atom_site_fract_x
_atom_site_fract_y
_atom_site_fract_z
Si Si1 0.211334 0.884344 0.760825
Si Si2 0.514032 0.835923 0.437513
Si Si3 0.779232 0.756751 0.569105
Si Si4 0.809037 0.157865 0.866673
Si Si5 0.973819 0.672588 0.139858
Si Si6 0.066267 0.327285 0.312797
Si Si7 0.816971 0.823154 0.985435
Si Si8 0.502776 0.201827 0.222079
O O1 0.365143 0.801074 0.586557
O O2 0.195172 0.060277 0.597462
O O3 0.192632 0.888206 0.941546
O O4 0.093638 0.794004 0.906303
O O5 0.533872 0.743932 0.620130
O O6 0.499839 0.017419 0.353830
O O7 0.651160 0.793319 0.203066
O O8 0.812447 0.682641 0.725060
O O9 0.617248 0.720819 0.776954
O O10 0.878669 0.672694 0.393360
O O11 0.924486 0.278201 0.600628
O O12 0.838862 0.001593 0.859601
O O13 0.660001 0.245967 0.949526
O O14 0.048259 0.501805 0.151630
O O15 0.880853 0.711579 0.101426
O O16 0.107187 0.212238 0.224796
#
# Coordination Sequence:
#
# PCOD8042891 Si02
#       8
#     2   2   2   2   2   2   2   2
#     4  10  19  35  64  87 101 140 193 234 263 319
#     4   8  15  32  58  84 102 135 188 231 265 314
#     4  11  19  37  59  85 106 142 192 228 270 313
#     4  10  19  37  60  86 109 138 187 232 272 319
#     4  12  22  38  56  80 114 150 187 219 269 329
#     4  12  26  35  51  86 122 145 174 228 278 326
#     4  11  21  40  59  78 111 152 183 218 278 334
#     4   8  15  31  59  84 103 133 186 236 265 312
#
# _framework density 19.463304000000001
#
# number of rings (size 3 to 8) (size 9 to 14) (size 15 to 20)
#    0.000    1.750    3.750    3.750    0.000    0.000 
#    0.000    9.375    0.000    0.000    0.000    0.000 
#    0.000    0.000    0.000    0.000    0.000    0.000 
#
# Total GULP energy -198367.136984 kJ/mol
# GULP energy per Si atom -12397.946061 kJ/mol
# Density = 1.941900 g / cm^3
# Si number density = 19.463304 Si / 1000 Ang^3
#
#
#
# Elastic Constant Matrix: (Units=GPa)
#
#
# Indices 1 2 3 4 5 6 
#
# 1 69.4128 15.8395 19.5294 16.2857 -4.0851 -20.8225
# 2 15.8395 47.0689 18.5810 5.1536 -10.4099 -11.3347
# 3 19.5294 18.5810 41.9909 12.4642 -2.7203 -10.5264
# 4 16.2857 5.1536 12.4642 14.3977 -7.1509 -1.1523
# 5 -4.0851 -10.4099 -2.7203 -7.1509 23.7139 8.8759
# 6 -20.8225 -11.3347 -10.5264 -1.1523 8.8759 21.1171
#
#
#
# Elastic Compliance Matrix: (Units=1/GPa)
#
#
# Indices 1 2 3 4 5 6 
#
# 1 0.048413 -0.008701 0.021078 -0.086561 -0.044440 0.067530
# 2 -0.008701 0.030968 -0.016998 0.022709 0.019807 -0.007517
# 3 0.021078 -0.016998 0.057159 -0.084153 -0.042673 0.053497
# 4 -0.086561 0.022709 -0.084153 0.283574 0.128410 -0.153613
# 5 -0.044440 0.019807 -0.042673 0.128410 0.112494 -0.094737
# 6 0.067530 -0.007517 0.053497 -0.153613 -0.094737 0.168012
#
#
# Mechanical properties :
#
#
# Convention : Reuss Voigt Hill
#
# Bulk Modulus (GPa) = 7.85572 29.59693 18.72633
# Shear Modulus (GPa) = 6.64632 18.81392 12.73012
#
# Velocity S-wave (km/s) = 1.84992 3.11245 2.56023
# Velocity P-wave (km/s) = 2.93392 5.30622 4.28742
#
# Compressibility (1/GPa) = 0.12729579
#
# Stress axis : x y z
#
# Youngs Moduli (GPa) = 20.65551 32.29162 17.49511
#
# Poissons Ratio (x) = 0.28098 -0.36876
# Poissons Ratio (y) = 0.17973 0.29739
# Poissons Ratio (z) = -0.43537 0.54890
#
# Static dielectric constant tensor:
#      x y z
#    x 3.797810 -0.295690 -0.357300 
#    y -0.295690 3.382000 0.236390 
#    z -0.357300 0.236390 3.497140 
# 
# 
# High freq. dielectric constant tensor:
#      x y z
#    x 1.758970 -0.021340 -0.018760 
#    y -0.021340 1.739010 0.012210 
#    z -0.018760 0.012210 1.742070 
# 
# From -- ./inp_files/177689.got.cif
#   From: 2010.06.25/outbox.cif.g09.slc.cpg/sg2_89_cif.got.tgz:177689.got - 2010.06.27 13:26:56.
