data_PCOD8042591
_publ_section_title
;
Structure prediction by ZEFSAII (Michael W. Deem and Ramdas Pophale) SiO2 
 PCOD8042591
Probable space group: P -1
;
_chemical_formula_sum "Si O2"
_cell_formula_units_Z 16
_cell_length_a 9.702653
_cell_length_b 7.843058
_cell_length_c 11.156376
_cell_angle_alpha 74.430117
_cell_angle_beta 104.481184
_cell_angle_gamma 99.015198
_cell_volume 788.185787
_symmetry_space_group_name_H-M "P -1"
_symmetry_group_IT_number 2
_symmetry_cell_setting 'triclinic'
loop_
_space_group_symop_operation_xyz
x,y,z
-x,-y,-z
loop_
_atom_site_type_symbol
_atom_site_label
_atom_site_fract_x
_atom_site_fract_y
_atom_site_fract_z
Si Si1 0.098524 0.599249 0.667516
Si Si2 0.051012 0.234457 0.612859
Si Si3 0.531672 0.085300 0.757629
Si Si4 0.608703 0.307964 0.164057
Si Si5 0.290545 0.150875 0.523812
Si Si6 0.182983 0.377047 0.267639
Si Si7 0.592421 0.405629 0.872730
Si Si8 0.198322 0.994671 0.298998
O O1 0.050815 0.718173 0.526487
O O2 0.975372 0.573295 0.746466
O O3 0.129327 0.406252 0.662539
O O4 0.241713 0.698057 0.735151
O O5 0.172765 0.117494 0.610641
O O6 0.954352 0.121419 0.710828
O O7 0.447795 0.153027 0.612105
O O8 0.517678 0.220665 0.838822
O O9 0.470282 0.889060 0.820261
O O10 0.697557 0.086761 0.757242
O O11 0.513225 0.439211 0.190131
O O12 0.638262 0.379545 0.023650
O O13 0.267089 0.339919 0.417977
O O14 0.267225 0.995856 0.448013
O O15 0.265699 0.538507 0.183740
O O16 0.172930 0.197062 0.218650
#
# Coordination Sequence:
#
# PCOD8042591 Si02
#       8
#     2   2   2   2   2   2   2   2
#     4  10  21  36  60  86 119 153 195 237 292 355
#     4  10  19  35  58  91 119 152 189 236 295 355
#     4  12  22  38  64  88 114 159 198 235 297 350
#     4  11  24  42  61  86 115 156 201 245 291 337
#     4   9  20  33  59  91 121 150 187 240 294 351
#     4   9  21  38  56  88 118 158 181 242 300 335
#     4  11  24  43  61  81 121 154 202 249 280 345
#     4  10  20  34  56  86 123 149 187 234 292 347
#
# _framework density 20.299782
#
# number of rings (size 3 to 8) (size 9 to 14) (size 15 to 20)
#    0.750    1.000    1.250    3.375    1.750    2.000 
#    0.000    0.000    0.000    1.500    0.000    0.000 
#    0.000    0.000    0.000    0.000    0.000    0.000 
#
# Total GULP energy -198383.970457 kJ/mol
# GULP energy per Si atom -12398.998154 kJ/mol
# Density = 2.025358 g / cm^3
# Si number density = 20.299782 Si / 1000 Ang^3
#
#
#
# Elastic Constant Matrix: (Units=GPa)
#
#
# Indices 1 2 3 4 5 6 
#
# 1 83.7838 37.3241 19.3126 -8.0780 -17.9592 2.9626
# 2 37.3241 109.6352 22.7941 0.8354 -8.8457 -0.2794
# 3 19.3126 22.7941 36.6218 -3.8460 -8.3243 3.6598
# 4 -8.0780 0.8354 -3.8460 26.2814 2.7772 -9.9659
# 5 -17.9592 -8.8457 -8.3243 2.7772 21.2446 -4.8169
# 6 2.9626 -0.2794 3.6598 -9.9659 -4.8169 33.4943
#
#
#
# Elastic Compliance Matrix: (Units=1/GPa)
#
#
# Indices 1 2 3 4 5 6 
#
# 1 0.017509 -0.004307 -0.003674 0.004452 0.011390 0.001780
# 2 -0.004307 0.011685 -0.005393 -0.002314 -0.000517 0.000305
# 3 -0.003674 -0.005393 0.034763 0.002716 0.007547 -0.001625
# 4 0.004452 -0.002314 0.002716 0.044606 0.000911 0.012693
# 5 0.011390 -0.000517 0.007547 0.000911 0.060954 0.007201
# 6 0.001780 0.000305 -0.001625 0.012693 0.007201 0.034691
#
#
# Mechanical properties :
#
#
# Convention : Reuss Voigt Hill
#
# Bulk Modulus (GPa) = 26.87474 43.21139 35.04307
# Shear Modulus (GPa) = 20.54572 26.24475 23.39523
#
# Velocity S-wave (km/s) = 3.18483 3.59953 3.39851
# Velocity P-wave (km/s) = 5.17608 6.21356 5.71840
#
# Compressibility (1/GPa) = 0.03720966
#
# Stress axis : x y z
#
# Youngs Moduli (GPa) = 57.11388 85.57664 28.76616
#
# Poissons Ratio (x) = 0.36861 0.10568
# Poissons Ratio (y) = 0.24601 0.15513
# Poissons Ratio (z) = 0.20982 0.46150
#
# Static dielectric constant tensor:
#      x y z
#    x 3.625360 -0.117010 -0.146030 
#    y -0.117010 3.569000 0.024970 
#    z -0.146030 0.024970 3.305690 
# 
# 
# High freq. dielectric constant tensor:
#      x y z
#    x 1.797220 -0.005210 -0.017300 
#    y -0.005210 1.794620 -0.001160 
#    z -0.017300 -0.001160 1.756840 
# 
# From -- ./inp_files/378764.got.cif
#   From: 2010.06.25/outbox.cif.g09.slc.cpg/sg2_190_cif.got.tgz:378764.got - 2010.06.27 13:26:56.
