data_PCOD8042740
_publ_section_title
;
Structure prediction by ZEFSAII (Michael W. Deem and Ramdas Pophale) SiO2 
 PCOD8042740
Probable space group: P -1
;
_chemical_formula_sum "Si O2"
_cell_formula_units_Z 16
_cell_length_a 13.671347
_cell_length_b 14.398229
_cell_length_c 10.291010
_cell_angle_alpha 105.894588
_cell_angle_beta 144.573843
_cell_angle_gamma 49.820166
_cell_volume 737.907896
_symmetry_space_group_name_H-M "P -1"
_symmetry_group_IT_number 2
_symmetry_cell_setting 'triclinic'
loop_
_space_group_symop_operation_xyz
x,y,z
-x,-y,-z
loop_
_atom_site_type_symbol
_atom_site_label
_atom_site_fract_x
_atom_site_fract_y
_atom_site_fract_z
Si Si1 0.526119 0.592958 0.782839
Si Si2 0.466681 0.812187 0.421351
Si Si3 0.110240 0.116242 0.241949
Si Si4 0.975286 0.405850 0.994610
Si Si5 0.307605 0.364877 0.775028
Si Si6 0.032559 0.786908 0.176349
Si Si7 0.556070 0.362701 0.802122
Si Si8 0.517351 0.093100 0.779302
O O1 0.283580 0.732920 0.485454
O O2 0.474450 0.507490 0.744747
O O3 0.789516 0.484962 0.946972
O O4 0.554899 0.652915 0.956235
O O5 0.489992 0.684694 0.396556
O O6 0.377123 0.880285 0.206445
O O7 0.737428 0.748154 0.709814
O O8 0.251196 0.949765 0.338359
O O9 0.306436 0.111096 0.503368
O O10 0.010936 0.179497 0.012100
O O11 0.863853 0.223189 0.111489
O O12 0.898752 0.357522 0.787970
O O13 0.000000 0.500000 0.000000
O O14 0.389827 0.394267 0.752946
O O15 0.397342 0.213693 0.806638
O O16 0.000000 0.500000 0.500000
O O17 0.778757 0.923332 0.039796
#
# Coordination Sequence:
#
# PCOD8042740 Si02
#       8
#     2   2   2   2   2   2   2   2
#     4  12  25  42  62  95 136 170 209 266 315 378
#     4  10  19  35  60  95 127 160 210 263 317 378
#     4  11  19  38  65  96 129 160 212 269 323 374
#     4  12  23  39  62  94 134 170 206 256 330 384
#     4  11  25  45  68  91 124 173 224 258 307 384
#     4  11  22  39  64  95 134 166 204 267 334 375
#     4  11  22  38  66  95 123 167 217 263 314 373
#     4  10  20  41  67  90 127 173 214 261 313 380
#
# _framework density 21.682924
#
# number of rings (size 3 to 8) (size 9 to 14) (size 15 to 20)
#    0.000    1.000    3.750    4.875    1.750    0.500 
#    0.000    0.000    0.000    2.250    0.000    0.000 
#    0.000    0.000    0.000    0.000    0.000    0.000 
#
# Total GULP energy -198278.264394 kJ/mol
# GULP energy per Si atom -12392.391525 kJ/mol
# Density = 2.163357 g / cm^3
# Si number density = 21.682924 Si / 1000 Ang^3
#
#
#
# Elastic Constant Matrix: (Units=GPa)
#
#
# Indices 1 2 3 4 5 6 
#
# 1 73.1566 39.6112 34.4606 -4.8067 16.0241 -5.3704
# 2 39.6112 147.7878 47.8489 9.3434 -3.0758 -20.6637
# 3 34.4606 47.8489 138.2044 1.1653 8.2993 -17.3623
# 4 -4.8067 9.3434 1.1653 38.8996 -11.8032 7.0710
# 5 16.0241 -3.0758 8.2993 -11.8032 29.6260 -0.7494
# 6 -5.3704 -20.6637 -17.3623 7.0710 -0.7494 24.9137
#
#
#
# Elastic Compliance Matrix: (Units=1/GPa)
#
#
# Indices 1 2 3 4 5 6 
#
# 1 0.019855 -0.005008 -0.002946 0.001165 -0.010035 -0.002559
# 2 -0.005008 0.009835 -0.001411 -0.003331 0.002979 0.007129
# 3 -0.002946 -0.001411 0.009210 -0.001734 -0.001697 0.005054
# 4 0.001165 -0.003331 -0.001734 0.032709 0.012222 -0.012636
# 5 -0.010035 0.002979 -0.001697 0.012222 0.044760 -0.002997
# 6 -0.002559 0.007129 0.005054 -0.012636 -0.002997 0.052518
#
#
# Mechanical properties :
#
#
# Convention : Reuss Voigt Hill
#
# Bulk Modulus (GPa) = 49.57891 66.99892 58.28891
# Shear Modulus (GPa) = 25.72787 34.50305 30.11546
#
# Velocity S-wave (km/s) = 3.44837 3.99338 3.73084
# Velocity P-wave (km/s) = 6.22656 7.22698 6.74534
#
# Compressibility (1/GPa) = 0.02016987
#
# Stress axis : x y z
#
# Youngs Moduli (GPa) = 50.36423 101.67518 108.57465
#
# Poissons Ratio (x) = 0.50924 0.31981
# Poissons Ratio (y) = 0.25225 0.15325
# Poissons Ratio (z) = 0.14835 0.14351
#
# Static dielectric constant tensor:
#      x y z
#    x 3.430130 -0.130970 0.154420 
#    y -0.130970 4.293330 -0.226720 
#    z 0.154420 -0.226720 4.167930 
# 
# 
# High freq. dielectric constant tensor:
#      x y z
#    x 1.806400 0.005430 0.029580 
#    y 0.005430 1.872910 -0.002250 
#    z 0.029580 -0.002250 1.865820 
# 
# From -- ./inp_files/454885.got.cif
#   From: 2010.06.25/outbox.cif.g09.slc.cpg/sg2_228_cif.got.tgz:454885.got - 2010.06.27 13:26:56.
