data_PCOD8042025
_publ_section_title
;
Structure prediction by ZEFSAII (Michael W. Deem and Ramdas Pophale) SiO2 
 PCOD8042025
Probable space group: P -1
;
_chemical_formula_sum "Si O2"
_cell_formula_units_Z 16
_cell_length_a 18.247492
_cell_length_b 11.539269
_cell_length_c 25.455253
_cell_angle_alpha 39.517753
_cell_angle_beta 160.811455
_cell_angle_gamma 151.204463
_cell_volume 793.256871
_symmetry_space_group_name_H-M "P -1"
_symmetry_group_IT_number 2
_symmetry_cell_setting 'triclinic'
loop_
_space_group_symop_operation_xyz
x,y,z
-x,-y,-z
loop_
_atom_site_type_symbol
_atom_site_label
_atom_site_fract_x
_atom_site_fract_y
_atom_site_fract_z
Si Si1 0.073521 0.343497 0.384874
Si Si2 0.981320 0.991187 0.928291
Si Si3 0.385569 0.553278 0.322600
Si Si4 0.895730 0.017761 0.141319
Si Si5 0.051436 0.426153 0.944390
Si Si6 0.570010 0.185265 0.840857
Si Si7 0.419326 0.160253 0.378497
Si Si8 0.706764 0.467201 0.044745
O O1 0.262671 0.325965 0.476276
O O2 0.317445 0.547151 0.524377
O O3 0.932171 0.440709 0.229067
O O4 0.807469 0.057700 0.328043
O O5 0.208052 0.285971 0.959793
O O6 0.635482 0.835645 0.722652
O O7 0.000000 0.000000 0.000000
O O8 0.073667 0.840641 0.025165
O O9 0.336184 0.622838 0.208433
O O10 0.150470 0.246968 0.273858
O O11 0.265958 0.631340 0.257670
O O12 0.075646 0.993942 0.230127
O O13 0.715196 0.070499 0.968281
O O14 0.654349 0.767442 0.101842
O O15 0.247579 0.512550 0.993857
O O16 0.296531 0.661284 0.067715
O O17 0.500000 0.000000 0.500000
#
# Coordination Sequence:
#
# PCOD8042025 Si02
#       8
#     2   2   2   2   2   2   2   2
#     4  10  21  35  57  87 119 142 189 249 284 339
#     4  10  21  38  61  83 115 155 197 232 276 353
#     4  10  19  34  56  85 114 148 187 246 290 341
#     4   9  20  34  57  85 112 146 198 243 273 347
#     4  10  20  36  60  78 116 159 190 232 295 338
#     4  10  19  36  58  86 115 148 197 237 281 355
#     4  11  20  38  61  87 116 151 185 241 300 329
#     4  10  21  38  55  86 113 154 202 234 278 349
#
# _framework density 20.170010999999999
#
# number of rings (size 3 to 8) (size 9 to 14) (size 15 to 20)
#    0.000    2.000    1.250    4.125    0.000    5.500 
#    2.250    1.250    0.000    1.500    0.000    0.000 
#    0.000    0.000    0.000    0.000    0.000    0.000 
#
# Total GULP energy -198220.363156 kJ/mol
# GULP energy per Si atom -12388.772697 kJ/mol
# Density = 2.012410 g / cm^3
# Si number density = 20.170011 Si / 1000 Ang^3
#
#
#
# Elastic Constant Matrix: (Units=GPa)
#
#
# Indices 1 2 3 4 5 6 
#
# 1 79.5436 45.2187 47.2585 8.3655 4.7829 -4.7134
# 2 45.2187 124.6092 41.6026 5.9281 15.3066 -6.5137
# 3 47.2585 41.6026 92.9778 1.0352 19.9386 -4.0149
# 4 8.3655 5.9281 1.0352 35.1692 2.6961 6.2344
# 5 4.7829 15.3066 19.9386 2.6961 36.6590 -2.0234
# 6 -4.7134 -6.5137 -4.0149 6.2344 -2.0234 27.3016
#
#
#
# Elastic Compliance Matrix: (Units=1/GPa)
#
#
# Indices 1 2 3 4 5 6 
#
# 1 0.021369 -0.004786 -0.009613 -0.004833 0.004938 0.002603
# 2 -0.004786 0.010789 -0.001722 -0.000669 -0.002815 0.001439
# 3 -0.009613 -0.001722 0.018091 0.002780 -0.008107 -0.000646
# 4 -0.004833 -0.000669 0.002780 0.031285 -0.003343 -0.007977
# 5 0.004938 -0.002815 -0.008107 -0.003343 0.032584 0.002167
# 6 0.002603 0.001439 -0.000646 -0.007977 0.002167 0.039308
#
#
# Mechanical properties :
#
#
# Convention : Reuss Voigt Hill
#
# Bulk Modulus (GPa) = 55.52710 62.81002 59.16856
# Shear Modulus (GPa) = 26.08644 30.69603 28.39124
#
# Velocity S-wave (km/s) = 3.60019 3.90534 3.75587
# Velocity P-wave (km/s) = 6.69859 7.17938 6.94315
#
# Compressibility (1/GPa) = 0.01800922
#
# Stress axis : x y z
#
# Youngs Moduli (GPa) = 46.79677 92.68276 55.27539
#
# Poissons Ratio (x) = 0.44354 0.53134
# Poissons Ratio (y) = 0.22395 0.09518
# Poissons Ratio (z) = 0.44984 0.15960
#
# Static dielectric constant tensor:
#      x y z
#    x 3.606990 -0.207460 0.237270 
#    y -0.207460 4.062340 -0.134450 
#    z 0.237270 -0.134450 3.818330 
# 
# 
# High freq. dielectric constant tensor:
#      x y z
#    x 1.769980 -0.011100 0.009410 
#    y -0.011100 1.801040 -0.010700 
#    z 0.009410 -0.010700 1.781540 
# 
# From -- ./inp_files/461518.got.cif
#   From: 2010.06.25/outbox.cif.g09.slc.cpg/sg2_231_cif.got.tgz:461518.got - 2010.06.27 13:26:56.
