data_PCOD8042668
_publ_section_title
;
Structure prediction by ZEFSAII (Michael W. Deem and Ramdas Pophale) SiO2 
 PCOD8042668
Probable space group: P -1
;
_chemical_formula_sum "Si O2"
_cell_formula_units_Z 16
_cell_length_a 12.513722
_cell_length_b 9.478552
_cell_length_c 11.709115
_cell_angle_alpha 48.602292
_cell_angle_beta 112.650858
_cell_angle_gamma 79.875899
_cell_volume 753.005707
_symmetry_space_group_name_H-M "P -1"
_symmetry_group_IT_number 2
_symmetry_cell_setting 'triclinic'
loop_
_space_group_symop_operation_xyz
x,y,z
-x,-y,-z
loop_
_atom_site_type_symbol
_atom_site_label
_atom_site_fract_x
_atom_site_fract_y
_atom_site_fract_z
Si Si1 0.158565 0.654988 0.083848
Si Si2 0.759298 0.777598 0.047146
Si Si3 0.659978 0.887253 0.576967
Si Si4 0.763352 0.411861 0.589480
Si Si5 0.744600 0.058032 0.107222
Si Si6 0.956093 0.354372 0.500866
Si Si7 0.422738 0.038276 0.752033
Si Si8 0.180309 0.027646 0.233010
O O1 0.227259 0.396651 0.199006
O O2 0.157532 0.647026 0.225201
O O3 0.269280 0.708344 0.055824
O O4 0.988908 0.856735 0.866430
O O5 0.853930 0.497696 0.272047
O O6 0.763782 0.927581 0.067318
O O7 0.831268 0.786226 0.958061
O O8 0.596510 0.872868 0.899773
O O9 0.650095 0.937298 0.411615
O O10 0.728703 0.003432 0.600779
O O11 0.500000 0.000000 0.500000
O O12 0.877357 0.310671 0.587087
O O13 0.635182 0.698142 0.368344
O O14 0.719310 0.237226 0.645435
O O15 0.610430 0.097903 0.100095
O O16 0.889294 0.898276 0.334483
O O17 0.000000 0.500000 0.500000
#
# Coordination Sequence:
#
# PCOD8042668 Si02
#       8
#     2   2   2   2   2   2   2   2
#     4  11  23  41  69  98 122 165 214 263 315 369
#     4  11  22  37  64  95 133 164 206 255 321 371
#     4  11  26  48  61  89 132 173 212 255 312 380
#     4  11  21  36  68 100 128 157 210 266 313 367
#     4  11  21  39  65 101 126 156 208 271 315 370
#     4  10  19  35  59  98 132 159 195 266 322 364
#     4  11  24  42  65  92 132 173 205 255 319 377
#     4  12  23  41  68  95 127 165 215 260 313 373
#
# _framework density 21.248180999999999
#
# number of rings (size 3 to 8) (size 9 to 14) (size 15 to 20)
#    0.000    1.000    6.250    2.625    1.750    1.500 
#    0.000    2.500    0.000    0.000    0.000    0.000 
#    0.000    0.000    0.000    0.000    0.000    0.000 
#
# Total GULP energy -198307.562274 kJ/mol
# GULP energy per Si atom -12394.222642 kJ/mol
# Density = 2.119982 g / cm^3
# Si number density = 21.248181 Si / 1000 Ang^3
#
#
#
# Elastic Constant Matrix: (Units=GPa)
#
#
# Indices 1 2 3 4 5 6 
#
# 1 78.1746 9.5749 22.5142 -2.6120 -10.2862 4.8044
# 2 9.5749 80.5978 23.7610 11.6279 5.7458 4.8729
# 3 22.5142 23.7610 79.2718 8.7751 0.8947 10.7279
# 4 -2.6120 11.6279 8.7751 17.9604 1.1971 4.3641
# 5 -10.2862 5.7458 0.8947 1.1971 33.3953 2.7447
# 6 4.8044 4.8729 10.7279 4.3641 2.7447 23.0023
#
#
#
# Elastic Compliance Matrix: (Units=1/GPa)
#
#
# Indices 1 2 3 4 5 6 
#
# 1 0.015197 -0.001586 -0.004167 0.005555 0.005076 -0.002554
# 2 -0.001586 0.014875 -0.003134 -0.008279 -0.002711 0.000536
# 3 -0.004167 -0.003134 0.015974 -0.005160 -0.000587 -0.004867
# 4 0.005555 -0.008279 -0.005160 0.066647 0.001694 -0.009846
# 5 0.005076 -0.002711 -0.000587 0.001694 0.032290 -0.004386
# 6 -0.002554 0.000536 -0.004867 -0.009846 -0.004386 0.048555
#
#
# Mechanical properties :
#
#
# Convention : Reuss Voigt Hill
#
# Bulk Modulus (GPa) = 35.37018 38.86050 37.11534
# Shear Modulus (GPa) = 22.65157 27.01787 24.83472
#
# Velocity S-wave (km/s) = 3.26858 3.56973 3.42247
# Velocity P-wave (km/s) = 5.56122 5.94300 5.75528
#
# Compressibility (1/GPa) = 0.02827240
#
# Stress axis : x y z
#
# Youngs Moduli (GPa) = 65.80342 67.22767 62.60110
#
# Poissons Ratio (x) = 0.10660 0.26088
# Poissons Ratio (y) = 0.10434 0.19617
# Poissons Ratio (z) = 0.27423 0.21067
#
# Static dielectric constant tensor:
#      x y z
#    x 3.792410 0.088750 -0.202590 
#    y 0.088750 3.658060 -0.211850 
#    z -0.202590 -0.211850 4.681250 
# 
# 
# High freq. dielectric constant tensor:
#      x y z
#    x 1.836500 0.006590 -0.006310 
#    y 0.006590 1.803610 -0.000840 
#    z -0.006310 -0.000840 1.839520 
# 
# From -- ./inp_files/184163.got.cif
#   From: 2010.06.25/outbox.cif.g09.slc.cpg/sg2_93_cif.got.tgz:184163.got - 2010.06.27 13:26:56.
