data_PCOD8042484
_publ_section_title
;
Structure prediction by ZEFSAII (Michael W. Deem and Ramdas Pophale) SiO2 
 PCOD8042484
Probable space group: P -1
;
_chemical_formula_sum "Si O2"
_cell_formula_units_Z 14
_cell_length_a 12.408492
_cell_length_b 12.316300
_cell_length_c 8.485451
_cell_angle_alpha 124.684876
_cell_angle_beta 32.027721
_cell_angle_gamma 131.436930
_cell_volume 515.478692
_symmetry_space_group_name_H-M "P -1"
_symmetry_group_IT_number 2
_symmetry_cell_setting 'triclinic'
loop_
_space_group_symop_operation_xyz
x,y,z
-x,-y,-z
loop_
_atom_site_type_symbol
_atom_site_label
_atom_site_fract_x
_atom_site_fract_y
_atom_site_fract_z
Si Si1 0.196561 0.413229 0.697270
Si Si2 0.110638 0.855375 0.833960
Si Si3 0.249884 0.347835 0.102442
Si Si4 0.354632 0.582424 0.939817
Si Si5 0.105138 0.766213 0.312374
Si Si6 0.612999 0.278864 0.432854
Si Si7 0.752942 0.945337 0.458732
O O1 0.196705 0.447424 0.911666
O O2 0.392019 0.357595 0.385747
O O3 0.228986 0.557919 0.678876
O O4 0.950803 0.286613 0.845808
O O5 0.272404 0.810254 0.696841
O O6 0.243457 0.992313 0.670651
O O7 0.975660 0.727296 0.777957
O O8 0.949618 0.890305 0.185054
O O9 0.155084 0.313742 0.369421
O O10 0.348153 0.519118 0.074140
O O11 0.424420 0.280697 0.789428
O O12 0.267293 0.707721 0.152576
O O13 0.213361 0.939400 0.346970
O O14 0.491617 0.190633 0.348413
#
# Coordination Sequence:
#
# PCOD8042484 Si02
#       7
#     2   2   2   2   2   2   2
#     4  10  23  38  58  82 108 150 190 216 272 338
#     4   9  17  33  54  78 114 150 177 219 278 330
#     4   9  20  34  56  88 111 138 186 230 272 323
#     4  10  21  39  57  78 115 149 180 226 273 329
#     4  11  21  35  57  87 112 137 182 237 276 314
#     4  10  19  35  57  79 111 150 183 220 272 331
#     4   9  20  33  51  83 114 142 182 224 273 328
#
# _framework density 27.159220999999999
#
# number of rings (size 3 to 8) (size 9 to 14) (size 15 to 20)
#    0.000    2.286    0.000    3.000    0.000    6.857 
#    0.000    0.714    0.000   18.000    0.000    0.000 
#    0.000    0.000    0.000    0.000    0.000    0.000 
#
# Total GULP energy -173557.571815 kJ/mol
# GULP energy per Si atom -12396.969415 kJ/mol
# Density = 2.709740 g / cm^3
# Si number density = 27.159221 Si / 1000 Ang^3
#
#
#
# Elastic Constant Matrix: (Units=GPa)
#
#
# Indices 1 2 3 4 5 6 
#
# 1 94.1201 13.1733 28.2268 11.3978 -36.9599 4.6106
# 2 13.1733 88.1012 12.5451 14.5803 -19.9652 37.6304
# 3 28.2268 12.5451 55.1862 27.9276 -29.7668 -0.5469
# 4 11.3978 14.5803 27.9276 39.0145 -8.1628 10.1777
# 5 -36.9599 -19.9652 -29.7668 -8.1628 45.7865 8.0690
# 6 4.6106 37.6304 -0.5469 10.1777 8.0690 40.8707
#
#
#
# Elastic Compliance Matrix: (Units=1/GPa)
#
#
# Indices 1 2 3 4 5 6 
#
# 1 0.018079 0.007186 -0.000057 -0.000546 0.019783 -0.012426
# 2 0.007186 0.031060 0.005927 -0.003013 0.028695 -0.034244
# 3 -0.000057 0.005927 0.046580 -0.028784 0.028260 -0.003239
# 4 -0.000546 -0.003013 -0.028784 0.047126 -0.010805 -0.007152
# 5 0.019783 0.028695 0.028260 -0.010805 0.073847 -0.040163
# 6 -0.012426 -0.034244 -0.003239 -0.007152 -0.040163 0.067065
#
#
# Mechanical properties :
#
#
# Convention : Reuss Voigt Hill
#
# Bulk Modulus (GPa) = 8.20811 38.36645 23.28728
# Shear Modulus (GPa) = 16.76416 37.36516 27.06466
#
# Velocity S-wave (km/s) = 2.48716 3.71318 3.16019
# Velocity P-wave (km/s) = 3.35808 5.70445 4.68068
#
# Compressibility (1/GPa) = 0.12183066
#
# Stress axis : x y z
#
# Youngs Moduli (GPa) = 55.31135 32.19567 21.46863
#
# Poissons Ratio (x) = -0.23135 0.00123
# Poissons Ratio (y) = -0.39746 -0.12725
# Poissons Ratio (z) = 0.00316 -0.19083
#
# Static dielectric constant tensor:
#      x y z
#    x 4.892880 -0.071370 0.223780 
#    y -0.071370 5.019130 -0.272600 
#    z 0.223780 -0.272600 5.376850 
# 
# 
# High freq. dielectric constant tensor:
#      x y z
#    x 2.089330 0.003360 -0.011490 
#    y 0.003360 2.086260 -0.002460 
#    z -0.011490 -0.002460 2.105500 
# 
# From -- ./inp_files/274231.got.cif
#   From: 2010.06.25/outbox.cif.g09.slc.cpg/sg2_138_cif.got.tgz:274231.got - 2010.06.27 13:26:56.
