data_PCOD8042818
_publ_section_title
;
Structure prediction by ZEFSAII (Michael W. Deem and Ramdas Pophale) SiO2 
 PCOD8042818
Probable space group: P -1
;
_chemical_formula_sum "Si O2"
_cell_formula_units_Z 16
_cell_length_a 8.565165
_cell_length_b 13.475424
_cell_length_c 26.522267
_cell_angle_alpha 23.594928
_cell_angle_beta 136.772930
_cell_angle_gamma 137.005278
_cell_volume 816.231747
_symmetry_space_group_name_H-M "P -1"
_symmetry_group_IT_number 2
_symmetry_cell_setting 'triclinic'
loop_
_space_group_symop_operation_xyz
x,y,z
-x,-y,-z
loop_
_atom_site_type_symbol
_atom_site_label
_atom_site_fract_x
_atom_site_fract_y
_atom_site_fract_z
Si Si1 0.951231 0.459333 0.074049
Si Si2 0.490322 0.724283 0.077185
Si Si3 0.854856 0.870867 0.796297
Si Si4 0.983059 0.306942 0.258752
Si Si5 0.110385 0.417942 0.615045
Si Si6 0.647859 0.271419 0.287848
Si Si7 0.552094 0.293051 0.809688
Si Si8 0.766897 0.130818 0.488614
O O1 0.866682 0.403651 0.137204
O O2 0.212535 0.634621 0.049142
O O3 0.954355 0.197552 0.166448
O O4 0.787597 0.631839 0.930929
O O5 0.632966 0.564151 0.152131
O O6 0.550337 0.685235 0.168169
O O7 0.575436 0.004761 0.943726
O O8 0.618509 0.899257 0.698796
O O9 0.956996 0.137352 0.724763
O O10 0.789156 0.225400 0.293468
O O11 0.196033 0.527352 0.226310
O O12 0.076050 0.068376 0.372222
O O13 0.375079 0.379795 0.688162
O O14 0.115735 0.624885 0.563713
O O15 0.000000 0.500000 0.500000
O O16 0.779913 0.196858 0.401973
O O17 0.500000 0.000000 0.500000
#
# Coordination Sequence:
#
# PCOD8042818 Si02
#       8
#     2   2   2   2   2   2   2   2
#     4   9  18  37  62  86 118 152 202 247 287 345
#     4   9  17  36  61  88 112 152 201 246 285 340
#     4  10  21  37  62  90 115 155 198 248 293 343
#     4  11  23  37  60  88 121 161 194 240 301 358
#     4  12  22  36  64  92 114 144 203 256 290 335
#     4  11  23  39  60  88 124 158 191 238 306 363
#     4  10  19  35  62  88 115 148 201 249 285 341
#     4  12  22  42  63  85 114 157 209 244 281 349
#
# _framework density 19.602276
#
# number of rings (size 3 to 8) (size 9 to 14) (size 15 to 20)
#    0.000    1.500    3.750    3.375    0.000    1.000 
#    0.000    0.625    2.750    0.000    0.000    0.000 
#    0.000    0.000    0.000    0.000    0.000    0.000 
#
# Total GULP energy -198327.945339 kJ/mol
# GULP energy per Si atom -12395.496584 kJ/mol
# Density = 1.955766 g / cm^3
# Si number density = 19.602276 Si / 1000 Ang^3
#
#
#
# Elastic Constant Matrix: (Units=GPa)
#
#
# Indices 1 2 3 4 5 6 
#
# 1 72.7330 9.2297 17.3320 -4.0145 -5.2778 -14.5352
# 2 9.2297 79.7871 30.7036 -9.7269 -0.7951 -20.0407
# 3 17.3320 30.7036 72.6479 -3.7815 -2.5697 -8.9129
# 4 -4.0145 -9.7269 -3.7815 48.8784 -12.4171 -2.4781
# 5 -5.2778 -0.7951 -2.5697 -12.4171 26.1697 5.3543
# 6 -14.5352 -20.0407 -8.9129 -2.4781 5.3543 20.5227
#
#
#
# Elastic Compliance Matrix: (Units=1/GPa)
#
#
# Indices 1 2 3 4 5 6 
#
# 1 0.017210 0.003175 -0.003560 0.002922 0.001817 0.013622
# 2 0.003175 0.020316 -0.006698 0.004448 -0.001398 0.020080
# 3 -0.003560 -0.006698 0.017249 -0.000105 0.001105 -0.001872
# 4 0.002922 0.004448 -0.000105 0.024730 0.011128 0.006451
# 5 0.001817 -0.001398 0.001105 0.011128 0.046024 -0.010262
# 6 0.013622 0.020080 -0.001872 0.006451 -0.010262 0.080626
#
#
# Mechanical properties :
#
#
# Convention : Reuss Voigt Hill
#
# Bulk Modulus (GPa) = 24.62535 37.74430 31.18483
# Shear Modulus (GPa) = 21.38054 30.30768 25.84411
#
# Velocity S-wave (km/s) = 3.30618 3.93635 3.63495
# Velocity P-wave (km/s) = 5.21193 6.32113 5.79314
#
# Compressibility (1/GPa) = 0.04060856
#
# Stress axis : x y z
#
# Youngs Moduli (GPa) = 58.10651 49.22314 57.97384
#
# Poissons Ratio (x) = -0.15629 0.20639
# Poissons Ratio (y) = -0.18449 0.38831
# Poissons Ratio (z) = 0.20687 0.32969
#
# Static dielectric constant tensor:
#      x y z
#    x 3.083440 -0.268580 0.015280 
#    y -0.268580 3.818020 0.063450 
#    z 0.015280 0.063450 3.847750 
# 
# 
# High freq. dielectric constant tensor:
#      x y z
#    x 1.711520 -0.020490 0.002480 
#    y -0.020490 1.770700 0.005930 
#    z 0.002480 0.005930 1.785930 
# 
# From -- ./inp_files/503928.got.cif
#   From: 2010.06.25/outbox.cif.g09.slc.cpg/sg2_252_cif.got.tgz:503928.got - 2010.06.27 13:26:56.
