data_PCOD8042270
_publ_section_title
;
Structure prediction by ZEFSAII (Michael W. Deem and Ramdas Pophale) SiO2 
 PCOD8042270
Probable space group: P -1
;
_chemical_formula_sum "Si O2"
_cell_formula_units_Z 16
_cell_length_a 8.921804
_cell_length_b 14.577820
_cell_length_c 9.274112
_cell_angle_alpha 137.943005
_cell_angle_beta 108.923004
_cell_angle_gamma 79.246271
_cell_volume 761.524957
_symmetry_space_group_name_H-M "P -1"
_symmetry_group_IT_number 2
_symmetry_cell_setting 'triclinic'
loop_
_space_group_symop_operation_xyz
x,y,z
-x,-y,-z
loop_
_atom_site_type_symbol
_atom_site_label
_atom_site_fract_x
_atom_site_fract_y
_atom_site_fract_z
Si Si1 0.500876 0.336686 0.951803
Si Si2 0.748211 0.454162 0.956941
Si Si3 0.914516 0.062769 0.908217
Si Si4 0.778991 0.872979 0.389923
Si Si5 0.012492 0.676093 0.320160
Si Si6 0.772881 0.890405 0.083630
Si Si7 0.241587 0.837950 0.774190
Si Si8 0.497850 0.659721 0.721400
O O1 0.391211 0.463858 0.058030
O O2 0.395392 0.199017 0.711980
O O3 0.660903 0.350227 0.922703
O O4 0.564054 0.328974 0.123413
O O5 0.890755 0.549866 0.190759
O O6 0.830381 0.370875 0.761565
O O7 0.053222 0.146166 0.957458
O O8 0.819642 0.965632 0.649326
O O9 0.782907 0.148536 0.044088
O O10 0.000000 0.000000 0.000000
O O11 0.776818 0.943825 0.314023
O O12 0.910209 0.762911 0.281795
O O13 0.072415 0.773115 0.584026
O O14 0.709821 0.015494 0.117118
O O15 0.668343 0.746372 0.860935
O O16 0.376681 0.734103 0.667848
O O17 0.500000 0.500000 0.500000
#
# Coordination Sequence:
#
# PCOD8042270 Si02
#       8
#     2   2   2   2   2   2   2   2
#     4   9  20  39  58  87 121 165 208 251 303 364
#     4   9  19  37  59  89 121 162 206 248 308 364
#     4  10  20  38  60  94 125 157 203 259 311 360
#     4  10  19  38  63  88 123 156 207 257 302 363
#     4  10  19  34  61  90 122 157 203 255 301 368
#     4  10  22  41  65  92 121 169 206 250 307 368
#     4  11  23  41  62  93 125 161 208 251 314 363
#     4  11  24  43  61  88 130 164 206 254 308 369
#
# _framework density 21.010473999999999
#
# number of rings (size 3 to 8) (size 9 to 14) (size 15 to 20)
#    0.000    2.000    2.500    1.500    0.000    3.000 
#   13.500    2.500    0.000    0.000    0.000    0.000 
#    0.000    0.000    0.000    0.000    0.000    0.000 
#
# Total GULP energy -198239.794108 kJ/mol
# GULP energy per Si atom -12389.987132 kJ/mol
# Density = 2.096265 g / cm^3
# Si number density = 21.010474 Si / 1000 Ang^3
#
#
#
# Elastic Constant Matrix: (Units=GPa)
#
#
# Indices 1 2 3 4 5 6 
#
# 1 126.8709 52.3023 53.3473 1.0971 0.0094 26.5915
# 2 52.3023 85.8217 53.3794 3.1828 2.4553 18.2074
# 3 53.3473 53.3794 139.6483 2.6095 10.0640 16.8725
# 4 1.0971 3.1828 2.6095 25.9106 -1.4908 -1.8725
# 5 0.0094 2.4553 10.0640 -1.4908 27.0107 2.9876
# 6 26.5915 18.2074 16.8725 -1.8725 2.9876 36.5124
#
#
#
# Elastic Compliance Matrix: (Units=1/GPa)
#
#
# Indices 1 2 3 4 5 6 
#
# 1 0.011922 -0.004802 -0.002197 0.000021 0.001852 -0.005423
# 2 -0.004802 0.018342 -0.004738 -0.001809 0.000396 -0.003585
# 3 -0.002197 -0.004738 0.010118 -0.000569 -0.003318 -0.000470
# 4 0.000021 -0.001809 -0.000569 0.039215 0.002211 0.002980
# 5 0.001852 0.000396 -0.003318 0.002211 0.038683 -0.003065
# 6 -0.005423 -0.003585 -0.000470 0.002980 -0.003065 0.033746
#
#
# Mechanical properties :
#
#
# Convention : Reuss Voigt Hill
#
# Bulk Modulus (GPa) = 59.14934 74.48876 66.81905
# Shear Modulus (GPa) = 27.60338 30.77421 29.18880
#
# Velocity S-wave (km/s) = 3.62856 3.83130 3.73131
# Velocity P-wave (km/s) = 6.76526 7.42307 7.10178
#
# Compressibility (1/GPa) = 0.01690636
#
# Stress axis : x y z
#
# Youngs Moduli (GPa) = 83.87856 54.51977 98.83400
#
# Poissons Ratio (x) = 0.26181 0.21718
# Poissons Ratio (y) = 0.40279 0.46830
# Poissons Ratio (z) = 0.18432 0.25833
#
# Static dielectric constant tensor:
#      x y z
#    x 3.953900 0.070530 -0.019120 
#    y 0.070530 3.795790 0.012350 
#    z -0.019120 0.012350 3.862150 
# 
# 
# High freq. dielectric constant tensor:
#      x y z
#    x 1.828180 0.002090 0.010500 
#    y 0.002090 1.811920 -0.004490 
#    z 0.010500 -0.004490 1.821970 
# 
# From -- ./inp_files/209101.got.cif
#   From: 2010.06.25/outbox.cif.g09.slc.cpg/sg2_105_cif.got.tgz:209101.got - 2010.06.27 13:26:56.
