data_PCOD8042750
_publ_section_title
;
Structure prediction by ZEFSAII (Michael W. Deem and Ramdas Pophale) SiO2 
 PCOD8042750
Probable space group: P -1
;
_chemical_formula_sum "Si O2"
_cell_formula_units_Z 16
_cell_length_a 17.302267
_cell_length_b 14.287657
_cell_length_c 7.627627
_cell_angle_alpha 57.470754
_cell_angle_beta 88.183864
_cell_angle_gamma 42.886330
_cell_volume 838.958229
_symmetry_space_group_name_H-M "P -1"
_symmetry_group_IT_number 2
_symmetry_cell_setting 'triclinic'
loop_
_space_group_symop_operation_xyz
x,y,z
-x,-y,-z
loop_
_atom_site_type_symbol
_atom_site_label
_atom_site_fract_x
_atom_site_fract_y
_atom_site_fract_z
Si Si1 0.329454 0.702513 0.479927
Si Si2 0.764714 0.024990 0.498970
Si Si3 0.230157 0.576575 0.561238
Si Si4 0.464660 0.877846 0.497480
Si Si5 0.624767 0.781327 0.897547
Si Si6 0.664943 0.283322 0.927991
Si Si7 0.763660 0.400958 0.851562
Si Si8 0.910537 0.348250 0.193709
O O1 0.231292 0.879816 0.456587
O O2 0.305273 0.600506 0.583005
O O3 0.495473 0.523717 0.703752
O O4 0.293415 0.798010 0.194264
O O5 0.674312 0.033409 0.575243
O O6 0.697169 0.142869 0.197909
O O7 0.933238 0.782734 0.703220
O O8 0.174204 0.643468 0.299584
O O9 0.093471 0.720704 0.556880
O O10 0.351303 0.330340 0.826498
O O11 0.498759 0.880285 0.687322
O O12 0.601808 0.649012 0.633300
O O13 0.420282 0.039806 0.220332
O O14 0.778874 0.599234 0.959216
O O15 0.756064 0.277822 0.995990
O O16 0.880609 0.302869 0.079335
#
# Coordination Sequence:
#
# PCOD8042750 Si02
#       8
#     2   2   2   2   2   2   2   2
#     4  10  20  34  54  85 112 136 179 228 263 320
#     4  12  22  34  58  82 112 147 174 217 274 325
#     4   9  19  36  57  75 112 144 174 223 270 311
#     4  10  19  35  61  84 101 141 187 224 269 313
#     4   8  19  39  56  81 107 137 187 225 264 318
#     4  10  21  33  53  85 114 139 174 223 276 313
#     4  10  19  36  58  78 110 143 181 223 265 320
#     4   9  22  37  51  81 112 144 182 214 268 325
#
# _framework density 19.071270999999999
#
# number of rings (size 3 to 8) (size 9 to 14) (size 15 to 20)
#    0.750    1.500    1.250    1.875    0.000    4.000 
#    0.000    2.500    0.000    0.750    0.000    0.000 
#    0.000    0.000    0.000    0.000    0.000    0.000 
#
# Total GULP energy -198311.463445 kJ/mol
# GULP energy per Si atom -12394.466465 kJ/mol
# Density = 1.902786 g / cm^3
# Si number density = 19.071271 Si / 1000 Ang^3
#
#
#
# Elastic Constant Matrix: (Units=GPa)
#
#
# Indices 1 2 3 4 5 6 
#
# 1 76.3778 27.6979 26.1669 1.6113 -1.3779 -5.1896
# 2 27.6979 65.9411 26.2571 12.2943 7.2484 -9.3913
# 3 26.1669 26.2571 34.5600 1.5699 2.0886 2.3716
# 4 1.6113 12.2943 1.5699 23.1136 -5.2289 1.8439
# 5 -1.3779 7.2484 2.0886 -5.2289 30.5822 -3.2796
# 6 -5.1896 -9.3913 2.3716 1.8439 -3.2796 20.0080
#
#
#
# Elastic Compliance Matrix: (Units=1/GPa)
#
#
# Indices 1 2 3 4 5 6 
#
# 1 0.018880 -0.002490 -0.013035 0.001150 0.003137 0.005681
# 2 -0.002490 0.031689 -0.022106 -0.018230 -0.007373 0.017320
# 3 -0.013035 -0.022106 0.056567 0.010601 0.000308 -0.021388
# 4 0.001150 -0.018230 0.010601 0.055853 0.011834 -0.012723
# 5 0.003137 -0.007373 0.000308 0.011834 0.036833 0.002263
# 6 0.005681 0.017320 -0.021388 -0.012723 0.002263 0.063662
#
#
# Mechanical properties :
#
#
# Convention : Reuss Voigt Hill
#
# Bulk Modulus (GPa) = 31.37231 37.45808 34.41519
# Shear Modulus (GPa) = 14.31150 21.19123 17.75137
#
# Velocity S-wave (km/s) = 2.74236 3.33702 3.05420
# Velocity P-wave (km/s) = 5.14909 5.87634 5.52469
#
# Compressibility (1/GPa) = 0.03187524
#
# Stress axis : x y z
#
# Youngs Moduli (GPa) = 52.96663 31.55639 17.67826
#
# Poissons Ratio (x) = 0.07858 0.23043
# Poissons Ratio (y) = 0.13189 0.39079
# Poissons Ratio (z) = 0.69040 0.69757
#
# Static dielectric constant tensor:
#      x y z
#    x 3.310330 -0.007310 -0.065280 
#    y -0.007310 3.454480 0.107480 
#    z -0.065280 0.107480 3.309750 
# 
# 
# High freq. dielectric constant tensor:
#      x y z
#    x 1.729010 -0.002840 0.002440 
#    y -0.002840 1.731690 0.008430 
#    z 0.002440 0.008430 1.730230 
# 
# From -- ./inp_files/312518.got.cif
#   From: 2010.06.25/outbox.cif.g09.slc.cpg/sg2_157_cif.got.tgz:312518.got - 2010.06.27 13:26:56.
