data_PCOD8042861
_publ_section_title
;
Structure prediction by ZEFSAII (Michael W. Deem and Ramdas Pophale) SiO2 
 PCOD8042861
Probable space group: P -1
;
_chemical_formula_sum "Si O2"
_cell_formula_units_Z 16
_cell_length_a 16.829214
_cell_length_b 9.197174
_cell_length_c 9.382023
_cell_angle_alpha 97.818403
_cell_angle_beta 84.456348
_cell_angle_gamma 149.067345
_cell_volume 738.940449
_symmetry_space_group_name_H-M "P -1"
_symmetry_group_IT_number 2
_symmetry_cell_setting 'triclinic'
loop_
_space_group_symop_operation_xyz
x,y,z
-x,-y,-z
loop_
_atom_site_type_symbol
_atom_site_label
_atom_site_fract_x
_atom_site_fract_y
_atom_site_fract_z
Si Si1 0.788549 0.628835 0.698292
Si Si2 0.884353 0.776467 0.161882
Si Si3 0.333717 0.097196 0.060201
Si Si4 0.805476 0.335916 0.756819
Si Si5 0.064797 0.857347 0.948616
Si Si6 0.331360 0.641161 0.607924
Si Si7 0.505784 0.380693 0.785570
Si Si8 0.363355 0.995616 0.515742
O O1 0.746320 0.407291 0.747553
O O2 0.775170 0.598900 0.526789
O O3 0.667207 0.550293 0.774898
O O4 0.960714 0.953946 0.739099
O O5 0.739171 0.505236 0.246237
O O6 0.839266 0.855773 0.097737
O O7 0.918361 0.696155 0.037388
O O8 0.456610 0.388756 0.166668
O O9 0.295410 0.893756 0.130639
O O10 0.405018 0.161432 0.905546
O O11 0.175318 0.937951 0.040760
O O12 0.782991 0.209358 0.593540
O O13 0.986964 0.629379 0.810595
O O14 0.336988 0.825449 0.612643
O O15 0.500854 0.837571 0.594593
O O16 0.407997 0.208092 0.631626
#
# Coordination Sequence:
#
# PCOD8042861 Si02
#       8
#     2   2   2   2   2   2   2   2
#     4   9  18  39  60  91 119 147 201 249 287 357
#     4  10  19  35  63  89 115 159 195 248 297 344
#     4  11  23  40  60  87 120 164 195 242 302 348
#     4  10  22  39  62  85 122 157 193 251 293 347
#     4  10  22  39  57  89 124 150 205 246 286 357
#     4   9  18  33  63  90 119 150 193 251 301 340
#     4  10  22  39  62  84 123 158 198 247 290 353
#     4   9  20  40  56  91 123 150 199 245 289 359
#
# _framework density 21.652623999999999
#
# number of rings (size 3 to 8) (size 9 to 14) (size 15 to 20)
#    0.000    2.250    1.250    1.500    1.750    3.000 
#    0.000    1.875    2.750    0.000    0.000    0.000 
#    0.000    0.000    0.000    0.000    0.000    0.000 
#
# Total GULP energy -198346.069503 kJ/mol
# GULP energy per Si atom -12396.629344 kJ/mol
# Density = 2.160334 g / cm^3
# Si number density = 21.652624 Si / 1000 Ang^3
#
#
#
# Elastic Constant Matrix: (Units=GPa)
#
#
# Indices 1 2 3 4 5 6 
#
# 1 25.0168 12.2256 17.9276 -4.8185 -1.8185 -2.8428
# 2 12.2256 85.9375 51.1735 -6.1541 -5.5174 -5.0302
# 3 17.9276 51.1735 106.5503 -1.6215 -2.7494 -2.2173
# 4 -4.8185 -6.1541 -1.6215 64.0630 1.9183 4.2213
# 5 -1.8185 -5.5174 -2.7494 1.9183 22.9209 -1.3719
# 6 -2.8428 -5.0302 -2.2173 4.2213 -1.3719 10.5414
#
#
#
# Elastic Compliance Matrix: (Units=1/GPa)
#
#
# Indices 1 2 3 4 5 6 
#
# 1 0.047550 -0.001742 -0.006844 0.002494 0.002918 0.009933
# 2 -0.001742 0.017100 -0.007692 0.000809 0.003358 0.006185
# 3 -0.006844 -0.007692 0.014151 -0.000717 -0.000778 -0.002354
# 4 0.002494 0.000809 -0.000717 0.016281 -0.001403 -0.005794
# 5 0.002918 0.003358 -0.000778 -0.001403 0.045211 0.008671
# 6 0.009933 0.006185 -0.002354 -0.005794 0.008671 0.103448
#
#
# Mechanical properties :
#
#
# Convention : Reuss Voigt Hill
#
# Bulk Modulus (GPa) = 21.62356 42.23977 31.93167
# Shear Modulus (GPa) = 17.14018 28.58358 22.86188
#
# Velocity S-wave (km/s) = 2.81659 3.63726 3.25291
# Velocity P-wave (km/s) = 4.53716 6.09834 5.37474
#
# Compressibility (1/GPa) = 0.04624585
#
# Stress axis : x y z
#
# Youngs Moduli (GPa) = 21.03035 58.47919 70.66569
#
# Poissons Ratio (x) = 0.10185 0.48365
# Poissons Ratio (y) = 0.03663 0.54356
# Poissons Ratio (z) = 0.14393 0.44982
#
# Static dielectric constant tensor:
#      x y z
#    x 3.510580 -0.049210 0.061630 
#    y -0.049210 4.037640 0.406550 
#    z 0.061630 0.406550 4.072460 
# 
# 
# High freq. dielectric constant tensor:
#      x y z
#    x 1.814470 -0.004880 0.007130 
#    y -0.004880 1.857530 0.020290 
#    z 0.007130 0.020290 1.856330 
# 
# From -- ./inp_files/203718.got.cif
#   From: 2010.06.25/outbox.cif.g09.slc.cpg/sg2_102_cif.got.tgz:203718.got - 2010.06.27 13:26:56.
