data_PCOD8042298
_publ_section_title
;
Structure prediction by ZEFSAII (Michael W. Deem and Ramdas Pophale) SiO2 
 PCOD8042298
Probable space group: P -1
;
_chemical_formula_sum "Si O2"
_cell_formula_units_Z 14
_cell_length_a 9.135855
_cell_length_b 30.227887
_cell_length_c 30.853327
_cell_angle_alpha 9.574816
_cell_angle_beta 32.278982
_cell_angle_gamma 31.990288
_cell_volume 746.773966
_symmetry_space_group_name_H-M "P -1"
_symmetry_group_IT_number 2
_symmetry_cell_setting 'triclinic'
loop_
_space_group_symop_operation_xyz
x,y,z
-x,-y,-z
loop_
_atom_site_type_symbol
_atom_site_label
_atom_site_fract_x
_atom_site_fract_y
_atom_site_fract_z
Si Si1 0.154816 0.412951 0.001338
Si Si2 0.454150 0.018243 0.942975
Si Si3 0.284197 0.490813 0.255012
Si Si4 0.512860 0.256835 0.550461
Si Si5 0.226359 0.835897 0.512056
Si Si6 0.289303 0.575351 0.570607
Si Si7 0.827026 0.223189 0.905951
O O1 0.077516 0.132243 0.275663
O O2 0.489233 0.387394 0.948949
O O3 0.055954 0.629034 0.779052
O O4 0.000000 0.500000 0.000000
O O5 0.553962 0.730092 0.174649
O O6 0.500000 0.000000 0.000000
O O7 0.619638 0.247420 0.662527
O O8 0.132682 0.102947 0.929155
O O9 0.449747 0.222691 0.496289
O O10 0.160468 0.707225 0.113482
O O11 0.040538 0.418266 0.356300
O O12 0.763306 0.214303 0.493603
O O13 0.654393 0.290132 0.528458
O O14 0.280650 0.512448 0.350744
O O15 0.376780 0.989472 0.845176
#
# Coordination Sequence:
#
# PCOD8042298 Si02
#       7
#     2   2   2   2   2   2   2
#     4  10  19  34  62  92 108 140 193 235 277 340
#     4  12  26  38  59  85 116 155 201 253 282 325
#     4   9  22  35  62  83 114 152 191 230 287 340
#     4  11  22  40  59  85 115 158 194 236 288 350
#     4   9  19  35  59  83 112 151 179 235 282 339
#     4  12  26  38  59  88 116 154 200 241 289 335
#     4  11  22  40  61  77 118 159 198 233 293 337
#
# _framework density 18.747305999999998
#
# number of rings (size 3 to 8) (size 9 to 14) (size 15 to 20)
#    0.857    0.571    2.857    2.571    6.000    3.429 
#    0.000    0.000    0.000    1.714    0.000    0.000 
#    0.000    0.000    0.000    0.000    0.000    0.000 
#
# Total GULP energy -173562.476904 kJ/mol
# GULP energy per Si atom -12397.319779 kJ/mol
# Density = 1.870464 g / cm^3
# Si number density = 18.747306 Si / 1000 Ang^3
#
#
#
# Elastic Constant Matrix: (Units=GPa)
#
#
# Indices 1 2 3 4 5 6 
#
# 1 81.8855 17.8296 8.1476 0.2432 -6.3712 12.9438
# 2 17.8296 80.6185 23.2230 4.6656 3.1301 10.4780
# 3 8.1476 23.2230 108.0468 -8.8249 -1.6841 2.7966
# 4 0.2432 4.6656 -8.8249 26.7441 2.1321 -2.9246
# 5 -6.3712 3.1301 -1.6841 2.1321 22.1772 -0.0298
# 6 12.9438 10.4780 2.7966 -2.9246 -0.0298 17.1832
#
#
#
# Elastic Compliance Matrix: (Units=1/GPa)
#
#
# Indices 1 2 3 4 5 6 
#
# 1 0.014612 -0.001886 -0.000483 -0.001421 0.004550 -0.010012
# 2 -0.001886 0.015173 -0.003309 -0.004401 -0.002522 -0.008047
# 3 -0.000483 -0.003309 0.010311 0.004080 0.000721 0.001399
# 4 -0.001421 -0.004401 0.004080 0.040887 -0.003395 0.010043
# 5 0.004550 -0.002522 0.000721 -0.003395 0.047132 -0.002503
# 6 -0.010012 -0.008047 0.001399 0.010043 -0.002503 0.072123
#
#
# Mechanical properties :
#
#
# Convention : Reuss Voigt Hill
#
# Bulk Modulus (GPa) = 34.79410 40.99456 37.89433
# Shear Modulus (GPa) = 22.60670 27.97760 25.29215
#
# Velocity S-wave (km/s) = 3.47632 3.86729 3.67701
# Velocity P-wave (km/s) = 5.89177 6.46959 6.18743
#
# Compressibility (1/GPa) = 0.02874050
#
# Stress axis : x y z
#
# Youngs Moduli (GPa) = 68.43826 65.90706 96.98197
#
# Poissons Ratio (x) = 0.12428 0.04680
# Poissons Ratio (y) = 0.12905 0.32096
# Poissons Ratio (z) = 0.03302 0.21812
#
# Static dielectric constant tensor:
#      x y z
#    x 3.160420 0.116960 0.032540 
#    y 0.116960 3.365440 -0.046790 
#    z 0.032540 -0.046790 3.603410 
# 
# 
# High freq. dielectric constant tensor:
#      x y z
#    x 1.697330 0.015580 0.001770 
#    y 0.015580 1.720570 -0.004410 
#    z 0.001770 -0.004410 1.746410 
# 
# From -- ./inp_files/44431.got.cif
#   From: 2010.06.25/outbox.cif.g09.slc.cpg/sg2_23_cif.got.tgz:44431.got - 2010.06.27 13:26:56.
