data_PCOD8042673
_publ_section_title
;
Structure prediction by ZEFSAII (Michael W. Deem and Ramdas Pophale) SiO2 
 PCOD8042673
Probable space group: P -1
;
_chemical_formula_sum "Si O2"
_cell_formula_units_Z 16
_cell_length_a 19.621475
_cell_length_b 16.571538
_cell_length_c 8.379225
_cell_angle_alpha 106.152141
_cell_angle_beta 71.665241
_cell_angle_gamma 163.327928
_cell_volume 739.294036
_symmetry_space_group_name_H-M "P -1"
_symmetry_group_IT_number 2
_symmetry_cell_setting 'triclinic'
loop_
_space_group_symop_operation_xyz
x,y,z
-x,-y,-z
loop_
_atom_site_type_symbol
_atom_site_label
_atom_site_fract_x
_atom_site_fract_y
_atom_site_fract_z
Si Si1 0.658451 0.729213 0.390580
Si Si2 0.481003 0.633920 0.189172
Si Si3 0.687183 0.142076 0.380482
Si Si4 0.009765 0.800471 0.024316
Si Si5 0.074034 0.699479 0.449185
Si Si6 0.298442 0.607865 0.239831
Si Si7 0.236761 0.027356 0.308115
Si Si8 0.722479 0.638107 0.128843
O O1 0.500000 0.500000 0.500000
O O2 0.479600 0.584538 0.331811
O O3 0.834407 0.986113 0.505216
O O4 0.802336 0.819820 0.231744
O O5 0.336236 0.559342 0.267435
O O6 0.359692 0.440580 0.036384
O O7 0.757890 0.961171 0.120449
O O8 0.736054 0.129221 0.476387
O O9 0.932118 0.465405 0.331550
O O10 0.500000 0.000000 0.500000
O O11 0.556453 0.945134 0.224534
O O12 0.955561 0.839456 0.081101
O O13 0.792853 0.506078 0.937858
O O14 0.041785 0.811016 0.190797
O O15 0.888730 0.550928 0.600576
O O16 0.227119 0.923352 0.331491
O O17 0.504276 0.349071 0.227189
#
# Coordination Sequence:
#
# PCOD8042673 Si02
#       8
#     2   2   2   2   2   2   2   2
#     4  10  20  35  55  80 111 144 183 232 278 318
#     4  10  20  37  57  79 109 147 187 225 270 325
#     4   9  19  34  57  86 113 140 176 222 268 325
#     4  10  21  36  55  79 109 148 188 222 269 327
#     4  10  20  36  59  86 111 139 180 224 274 326
#     4  10  19  35  60  82 107 146 184 221 268 327
#     4  10  21  36  54  81 113 143 180 229 275 323
#     4   9  21  37  55  77 109 149 186 229 273 321
#
# _framework density 21.64227
#
# number of rings (size 3 to 8) (size 9 to 14) (size 15 to 20)
#    0.000    2.250    0.000    2.625    0.000    5.000 
#    0.000    5.625    0.000   19.500    0.000    0.000 
#    0.000    0.000    0.000    0.000    0.000    0.000 
#
# Total GULP energy -198289.332025 kJ/mol
# GULP energy per Si atom -12393.083252 kJ/mol
# Density = 2.159301 g / cm^3
# Si number density = 21.642270 Si / 1000 Ang^3
#
#
#
# Elastic Constant Matrix: (Units=GPa)
#
#
# Indices 1 2 3 4 5 6 
#
# 1 140.3896 43.7656 63.7328 12.2952 16.3959 4.2679
# 2 43.7656 66.7158 40.4675 16.3624 15.8508 -4.0701
# 3 63.7328 40.4675 107.5132 25.9748 17.7148 -6.1602
# 4 12.2952 16.3624 25.9748 23.6013 2.7864 -1.5697
# 5 16.3959 15.8508 17.7148 2.7864 33.5174 -5.3086
# 6 4.2679 -4.0701 -6.1602 -1.5697 -5.3086 35.7483
#
#
#
# Elastic Compliance Matrix: (Units=1/GPa)
#
#
# Indices 1 2 3 4 5 6 
#
# 1 0.011017 -0.004623 -0.005673 0.003635 -0.000951 -0.002801
# 2 -0.004623 0.023747 -0.002523 -0.010412 -0.006549 0.001391
# 3 -0.005673 -0.002523 0.017850 -0.014328 -0.003917 0.002255
# 4 0.003635 -0.010412 -0.014328 0.062790 0.005415 -0.000527
# 5 -0.000951 -0.006549 -0.003917 0.005415 0.035688 0.004230
# 6 -0.002801 0.001391 0.002255 -0.000527 0.004230 0.029460
#
#
# Mechanical properties :
#
#
# Convention : Reuss Voigt Hill
#
# Bulk Modulus (GPa) = 37.07064 67.83896 52.45480
# Shear Modulus (GPa) = 23.23616 29.68359 26.45987
#
# Velocity S-wave (km/s) = 3.28021 3.70747 3.50037
# Velocity P-wave (km/s) = 5.61359 7.05271 6.37390
#
# Compressibility (1/GPa) = 0.02697553
#
# Stress axis : x y z
#
# Youngs Moduli (GPa) = 90.76560 42.11131 56.02190
#
# Poissons Ratio (x) = 0.19467 0.31781
# Poissons Ratio (y) = 0.41959 0.14137
# Poissons Ratio (z) = 0.51491 0.10627
#
# Static dielectric constant tensor:
#      x y z
#    x 4.209880 -0.131630 -0.283910 
#    y -0.131630 4.115240 0.578030 
#    z -0.283910 0.578030 4.248780 
# 
# 
# High freq. dielectric constant tensor:
#      x y z
#    x 1.859660 0.001790 -0.006910 
#    y 0.001790 1.840570 0.028210 
#    z -0.006910 0.028210 1.836860 
# 
# From -- ./inp_files/105237.got.cif
#   From: 2010.06.25/outbox.cif.g09.slc.cpg/sg2_53_cif.got.tgz:105237.got - 2010.06.27 13:26:56.
