data_PCOD8042544
_publ_section_title
;
Structure prediction by ZEFSAII (Michael W. Deem and Ramdas Pophale) SiO2 
 PCOD8042544
Probable space group: P -1
;
_chemical_formula_sum "Si O2"
_cell_formula_units_Z 16
_cell_length_a 12.420328
_cell_length_b 15.619873
_cell_length_c 8.723149
_cell_angle_alpha 35.081710
_cell_angle_beta 95.130630
_cell_angle_gamma 113.255082
_cell_volume 801.372538
_symmetry_space_group_name_H-M "P -1"
_symmetry_group_IT_number 2
_symmetry_cell_setting 'triclinic'
loop_
_space_group_symop_operation_xyz
x,y,z
-x,-y,-z
loop_
_atom_site_type_symbol
_atom_site_label
_atom_site_fract_x
_atom_site_fract_y
_atom_site_fract_z
Si Si1 0.010448 0.507698 0.673501
Si Si2 0.385987 0.961076 0.152832
Si Si3 0.135201 0.908324 0.123428
Si Si4 0.481934 0.709087 0.102846
Si Si5 0.110671 0.182130 0.895787
Si Si6 0.237998 0.546737 0.806299
Si Si7 0.345044 0.418486 0.776678
Si Si8 0.782118 0.483219 0.802017
O O1 0.073711 0.705029 0.464997
O O2 0.103156 0.446765 0.834763
O O3 0.000000 0.500000 0.500000
O O4 0.863826 0.398923 0.883086
O O5 0.289216 0.994197 0.990369
O O6 0.311484 0.760524 0.500712
O O7 0.500000 0.000000 0.000000
O O8 0.438354 0.087527 0.123698
O O9 0.044367 0.895584 0.986857
O O10 0.121818 0.017595 0.096688
O O11 0.420627 0.581489 0.429045
O O12 0.577353 0.676399 0.064076
O O13 0.367601 0.671637 0.029482
O O14 0.194424 0.273439 0.923571
O O15 0.170785 0.329867 0.550386
O O16 0.334757 0.495469 0.824475
O O17 0.201906 0.473325 0.080396
#
# Coordination Sequence:
#
# PCOD8042544 Si02
#       8
#     2   2   2   2   2   2   2   2
#     4  10  20  37  62  84 108 143 193 228 267 331
#     4  11  21  34  55  83 113 144 191 233 269 326
#     4   9  18  31  57  85 101 139 185 238 267 306
#     4  10  20  36  55  79 110 150 192 227 269 328
#     4   9  17  35  58  80 107 138 189 231 271 325
#     4  11  22  36  57  84 114 148 179 231 287 328
#     4  10  19  35  58  80 106 146 194 232 265 323
#     4  10  22  35  56  83 116 146 177 228 289 334
#
# _framework density 19.965744000000001
#
# number of rings (size 3 to 8) (size 9 to 14) (size 15 to 20)
#    0.000    2.000    2.500    2.625    1.750    1.000 
#    0.000    0.000    2.750    7.500    0.000    0.000 
#    0.000    0.000    0.000    0.000    0.000    0.000 
#
# Total GULP energy -198231.685058 kJ/mol
# GULP energy per Si atom -12389.480316 kJ/mol
# Density = 1.992030 g / cm^3
# Si number density = 19.965744 Si / 1000 Ang^3
#
#
#
# Elastic Constant Matrix: (Units=GPa)
#
#
# Indices 1 2 3 4 5 6 
#
# 1 179.3482 69.9566 20.7789 -0.7804 -12.7666 -1.0991
# 2 69.9566 117.3696 31.5386 -1.8993 -7.3139 -1.7340
# 3 20.7789 31.5386 29.1941 -2.4096 0.4796 -1.6591
# 4 -0.7804 -1.8993 -2.4096 34.7209 -5.0519 -2.8003
# 5 -12.7666 -7.3139 0.4796 -5.0519 15.8115 -5.3660
# 6 -1.0991 -1.7340 -1.6591 -2.8003 -5.3660 41.8758
#
#
#
# Elastic Compliance Matrix: (Units=1/GPa)
#
#
# Indices 1 2 3 4 5 6 
#
# 1 0.007572 -0.003876 -0.001193 0.000622 0.004775 0.000644
# 2 -0.003876 0.014623 -0.013037 0.000493 0.004386 0.000582
# 3 -0.001193 -0.013037 0.049475 0.001596 -0.007817 0.000494
# 4 0.000622 0.000493 0.001596 0.030971 0.011829 0.003687
# 5 0.004775 0.004386 -0.007817 0.011829 0.076751 0.010623
# 6 0.000644 0.000582 0.000494 0.003687 0.010623 0.025549
#
#
# Mechanical properties :
#
#
# Convention : Reuss Voigt Hill
#
# Bulk Modulus (GPa) = 28.20201 63.38449 45.79325
# Shear Modulus (GPa) = 19.76490 32.05749 25.91119
#
# Velocity S-wave (km/s) = 3.14975 4.01137 3.60638
# Velocity P-wave (km/s) = 5.23295 7.29865 6.35036
#
# Compressibility (1/GPa) = 0.03545846
#
# Stress axis : x y z
#
# Youngs Moduli (GPa) = 132.06119 68.38415 20.21207
#
# Poissons Ratio (x) = 0.26503 0.02412
# Poissons Ratio (y) = 0.51181 0.26351
# Poissons Ratio (z) = 0.15758 0.89156
#
# Static dielectric constant tensor:
#      x y z
#    x 4.329990 0.189060 -0.044060 
#    y 0.189060 3.617260 -0.381890 
#    z -0.044060 -0.381890 3.212870 
# 
# 
# High freq. dielectric constant tensor:
#      x y z
#    x 1.809370 0.004660 -0.001570 
#    y 0.004660 1.776610 -0.032380 
#    z -0.001570 -0.032380 1.721250 
# 
# From -- ./inp_files/252020.got.cif
#   From: 2010.06.25/outbox.cif.g09.slc.cpg/sg2_127_cif.got.tgz:252020.got - 2010.06.27 13:26:56.
