data_PCOD8042950
_publ_section_title
;
Structure prediction by ZEFSAII (Michael W. Deem and Ramdas Pophale) SiO2 
 PCOD8042950
Probable space group: P -1
;
_chemical_formula_sum "Si O2"
_cell_formula_units_Z 16
_cell_length_a 11.500953
_cell_length_b 11.814329
_cell_length_c 8.456951
_cell_angle_alpha 126.393707
_cell_angle_beta 125.308256
_cell_angle_gamma 78.052990
_cell_volume 738.494574
_symmetry_space_group_name_H-M "P -1"
_symmetry_group_IT_number 2
_symmetry_cell_setting 'triclinic'
loop_
_space_group_symop_operation_xyz
x,y,z
-x,-y,-z
loop_
_atom_site_type_symbol
_atom_site_label
_atom_site_fract_x
_atom_site_fract_y
_atom_site_fract_z
Si Si1 0.225681 0.331033 0.423499
Si Si2 0.937528 0.313429 0.025122
Si Si3 0.082303 0.959721 0.376966
Si Si4 0.206286 0.065742 0.017935
Si Si5 0.545102 0.421632 0.123680
Si Si6 0.264080 0.211108 0.852411
Si Si7 0.925662 0.624870 0.329437
Si Si8 0.787777 0.240322 0.163879
O O1 0.254030 0.168470 0.293665
O O2 0.372056 0.447597 0.593388
O O3 0.172835 0.364990 0.584875
O O4 0.111506 0.348155 0.211233
O O5 0.886327 0.463483 0.094292
O O6 0.868587 0.226643 0.052746
O O7 0.891297 0.204510 0.749687
O O8 0.238118 0.072982 0.595906
O O9 0.000000 0.000000 0.500000
O O10 0.971829 0.979929 0.164325
O O11 0.271155 0.158375 0.992637
O O12 0.272087 0.922552 0.958050
O O13 0.653861 0.315259 0.086939
O O14 0.500000 0.500000 0.000000
O O15 0.406633 0.329041 0.025077
O O16 0.120472 0.279275 0.767097
O O17 0.096590 0.670422 0.545783
#
# Coordination Sequence:
#
# PCOD8042950 Si02
#       8
#     2   2   2   2   2   2   2   2
#     4  10  20  38  62  93 123 161 208 256 316 362
#     4  10  19  35  66  96 115 158 219 253 301 365
#     4   9  20  39  60  90 129 161 199 258 310 358
#     4  10  23  39  62  91 124 170 208 250 311 375
#     4  12  23  40  64  91 129 163 203 265 319 361
#     4  11  23  40  62  91 130 167 202 255 318 369
#     4  11  19  38  68  96 119 161 215 261 302 365
#     4  11  21  37  64  95 125 161 210 260 308 374
#
# _framework density 21.665699
#
# number of rings (size 3 to 8) (size 9 to 14) (size 15 to 20)
#    0.000    1.500    5.000    0.750    1.750    2.500 
#    0.000   11.875    0.000    0.000    0.000    0.000 
#    0.000    0.000    0.000    0.000    0.000    0.000 
#
# Total GULP energy -198221.328727 kJ/mol
# GULP energy per Si atom -12388.833045 kJ/mol
# Density = 2.161639 g / cm^3
# Si number density = 21.665699 Si / 1000 Ang^3
#
#
#
# Elastic Constant Matrix: (Units=GPa)
#
#
# Indices 1 2 3 4 5 6 
#
# 1 58.7255 44.6451 33.6280 3.8376 9.9391 -0.7958
# 2 44.6451 157.3696 61.7350 27.7707 -7.8314 -11.8000
# 3 33.6280 61.7350 110.3079 33.2170 -4.4132 -10.5212
# 4 3.8376 27.7707 33.2170 39.3023 -10.1177 -1.2329
# 5 9.9391 -7.8314 -4.4132 -10.1177 38.1692 8.8395
# 6 -0.7958 -11.8000 -10.5212 -1.2329 8.8395 30.2528
#
#
#
# Elastic Compliance Matrix: (Units=1/GPa)
#
#
# Indices 1 2 3 4 5 6 
#
# 1 0.026509 -0.006396 -0.006674 0.005699 -0.007054 -0.001825
# 2 -0.006396 0.009984 -0.002113 -0.004095 0.001856 0.002282
# 3 -0.006674 -0.002113 0.016166 -0.011619 -0.000930 0.004421
# 4 0.005699 -0.004095 -0.011619 0.039533 0.008269 -0.006293
# 5 -0.007054 0.001856 -0.000930 0.008269 0.032578 -0.008967
# 6 -0.001825 0.002282 0.004421 -0.006293 -0.008967 0.037798
#
#
# Mechanical properties :
#
#
# Convention : Reuss Voigt Hill
#
# Bulk Modulus (GPa) = 44.85630 67.37991 56.11811
# Shear Modulus (GPa) = 24.95459 33.97118 29.46289
#
# Velocity S-wave (km/s) = 3.39750 3.96406 3.69166
# Velocity P-wave (km/s) = 6.01161 7.21935 6.64298
#
# Compressibility (1/GPa) = 0.02229341
#
# Stress axis : x y z
#
# Youngs Moduli (GPa) = 37.72262 100.16172 61.85824
#
# Poissons Ratio (x) = 0.64061 0.41287
# Poissons Ratio (y) = 0.24127 0.13069
# Poissons Ratio (z) = 0.25178 0.21161
#
# Static dielectric constant tensor:
#      x y z
#    x 3.638400 -0.029410 0.158850 
#    y -0.029410 4.000410 0.432670 
#    z 0.158850 0.432670 4.562450 
# 
# 
# High freq. dielectric constant tensor:
#      x y z
#    x 1.813380 0.005550 -0.001910 
#    y 0.005550 1.852490 0.029730 
#    z -0.001910 0.029730 1.855300 
# 
# From -- ./inp_files/207329.got.cif
#   From: 2010.06.25/outbox.cif.g09.slc.cpg/sg2_104_cif.got.tgz:207329.got - 2010.06.27 13:26:56.
