data_PCOD8042444
_publ_section_title
;
Structure prediction by ZEFSAII (Michael W. Deem and Ramdas Pophale) SiO2 
 PCOD8042444
Probable space group: P -1
;
_chemical_formula_sum "Si O2"
_cell_formula_units_Z 14
_cell_length_a 8.696047
_cell_length_b 12.740121
_cell_length_c 10.240531
_cell_angle_alpha 109.498011
_cell_angle_beta 113.551621
_cell_angle_gamma 120.582266
_cell_volume 656.045907
_symmetry_space_group_name_H-M "P -1"
_symmetry_group_IT_number 2
_symmetry_cell_setting 'triclinic'
loop_
_space_group_symop_operation_xyz
x,y,z
-x,-y,-z
loop_
_atom_site_type_symbol
_atom_site_label
_atom_site_fract_x
_atom_site_fract_y
_atom_site_fract_z
Si Si1 0.264291 0.934528 0.250305
Si Si2 0.527962 0.360462 0.057197
Si Si3 0.459766 0.284473 0.472640
Si Si4 0.036504 0.541708 0.379236
Si Si5 0.840146 0.816860 0.909048
Si Si6 0.703870 0.698113 0.305611
Si Si7 0.793812 0.135936 0.504456
O O1 0.164403 0.839873 0.315061
O O2 0.357419 0.107922 0.367970
O O3 0.498494 0.970312 0.301714
O O4 0.032798 0.813655 0.018742
O O5 0.335320 0.232216 0.051669
O O6 0.622497 0.531819 0.184894
O O7 0.767762 0.396242 0.156190
O O8 0.395550 0.277511 0.838566
O O9 0.757020 0.436962 0.607112
O O10 0.324362 0.294694 0.320535
O O11 0.419537 0.319616 0.612649
O O12 0.137038 0.715182 0.476049
O O13 0.000000 0.500000 0.500000
O O14 0.000000 0.000000 0.000000
O O15 0.009846 0.858525 0.483323
#
# Coordination Sequence:
#
# PCOD8042444 Si02
#       7
#     2   2   2   2   2   2   2
#     4   9  18  35  59  78 107 151 183 215 268 333
#     4  10  20  37  59  76 111 148 181 219 280 328
#     4  10  21  35  57  85 111 138 187 231 267 312
#     4  10  19  35  57  80 108 146 183 222 274 328
#     4  10  19  35  56  82 108 147 181 218 270 333
#     4  10  21  36  57  85 107 141 186 233 267 319
#     4   9  18  34  56  80 107 146 184 216 271 327
#
# _framework density 21.339971999999999
#
# number of rings (size 3 to 8) (size 9 to 14) (size 15 to 20)
#    0.000    2.286    2.857    0.000    0.000    1.714 
#    0.000    0.714    0.000    0.000    0.000    0.000 
#    0.000    0.000    0.000    0.000    0.000    0.000 
#
# Total GULP energy -173481.256560 kJ/mol
# GULP energy per Si atom -12391.518326 kJ/mol
# Density = 2.129140 g / cm^3
# Si number density = 21.339972 Si / 1000 Ang^3
#
#
#
# Elastic Constant Matrix: (Units=GPa)
#
#
# Indices 1 2 3 4 5 6 
#
# 1 119.7726 34.7386 82.1073 -8.4153 29.3875 48.1461
# 2 34.7386 106.0232 42.4368 -28.1995 13.9422 32.3592
# 3 82.1073 42.4368 138.7488 -29.4447 30.4479 24.8370
# 4 -8.4153 -28.1995 -29.4447 34.8655 7.1174 1.3923
# 5 29.3875 13.9422 30.4479 7.1174 37.1588 1.4454
# 6 48.1461 32.3592 24.8370 1.3923 1.4454 43.3261
#
#
#
# Elastic Compliance Matrix: (Units=1/GPa)
#
#
# Indices 1 2 3 4 5 6 
#
# 1 0.040759 0.020082 -0.003887 0.033421 -0.040739 -0.057779
# 2 0.020082 0.034431 0.006089 0.048277 -0.041026 -0.051705
# 3 -0.003887 0.006089 0.019008 0.024371 -0.019015 -0.011274
# 4 0.033421 0.048277 0.024371 0.116939 -0.083485 -0.088140
# 5 -0.040739 -0.041026 -0.019015 -0.083485 0.102747 0.086067
# 6 -0.057779 -0.051705 -0.011274 -0.088140 0.086067 0.132328
#
#
# Mechanical properties :
#
#
# Convention : Reuss Voigt Hill
#
# Bulk Modulus (GPa) = 7.20640 75.90110 41.55375
# Shear Modulus (GPa) = 11.16327 36.75422 23.95874
#
# Velocity S-wave (km/s) = 2.28965 4.15458 3.35433
# Velocity P-wave (km/s) = 3.22091 7.65891 5.87508
#
# Compressibility (1/GPa) = 0.13876557
#
# Stress axis : x y z
#
# Youngs Moduli (GPa) = 24.53464 29.04359 52.61031
#
# Poissons Ratio (x) = -0.58325 0.20448
# Poissons Ratio (y) = -0.49270 -0.32033
# Poissons Ratio (z) = 0.09536 -0.17684
#
# Static dielectric constant tensor:
#      x y z
#    x 4.081520 0.367180 0.894550 
#    y 0.367180 4.041240 -0.179120 
#    z 0.894550 -0.179120 4.273250 
# 
# 
# High freq. dielectric constant tensor:
#      x y z
#    x 1.813560 0.026680 0.051640 
#    y 0.026680 1.852970 -0.019170 
#    z 0.051640 -0.019170 1.827010 
# 
# From -- ./inp_files/157957.got.cif
#   From: 2010.06.25/outbox.cif.g09.slc.cpg/sg2_79_cif.got.tgz:157957.got - 2010.06.27 13:26:56.
