data_PCOD8042109
_publ_section_title
;
Structure prediction by ZEFSAII (Michael W. Deem and Ramdas Pophale) SiO2 
 PCOD8042109
Probable space group: P -1
;
_chemical_formula_sum "Si O2"
_cell_formula_units_Z 10
_cell_length_a 8.857234
_cell_length_b 14.985275
_cell_length_c 14.071168
_cell_angle_alpha 147.258537
_cell_angle_beta 136.725621
_cell_angle_gamma 31.102690
_cell_volume 521.589237
_symmetry_space_group_name_H-M "P -1"
_symmetry_group_IT_number 2
_symmetry_cell_setting 'triclinic'
loop_
_space_group_symop_operation_xyz
x,y,z
-x,-y,-z
loop_
_atom_site_type_symbol
_atom_site_label
_atom_site_fract_x
_atom_site_fract_y
_atom_site_fract_z
Si Si1 0.545852 0.747718 0.227827
Si Si2 0.977809 0.782746 0.535790
Si Si3 0.377118 0.580762 0.162235
Si Si4 0.283689 0.439514 0.529014
Si Si5 0.156685 0.967129 0.638747
O O1 0.838158 0.710510 0.340583
O O2 0.522644 0.639447 0.210272
O O3 0.270503 0.005115 0.325001
O O4 0.567833 0.632898 0.037762
O O5 0.207388 0.591337 0.541418
O O6 0.141722 0.829071 0.584982
O O7 0.536221 0.531153 0.290882
O O8 0.022044 0.784375 0.183510
O O9 0.497218 0.184007 0.361765
O O10 0.000000 0.500000 0.500000
O O11 0.000000 0.000000 0.500000
#
# Coordination Sequence:
#
# PCOD8042109 Si02
#       5
#     2   2   2   2   2
#     4   9  18  33  58  80 106 142 178 214 264 321
#     4  10  19  34  58  81 106 140 180 217 265 316
#     4   9  18  36  55  80 109 140 175 219 264 315
#     4  11  20  34  57  81 107 140 179 221 266 311
#     4   9  20  36  56  77 108 144 177 217 265 318
#
# _framework density 19.172174999999999
#
# number of rings (size 3 to 8) (size 9 to 14) (size 15 to 20)
#    0.000    2.400    2.000    0.600    2.800    0.800 
#    0.000    5.000    4.400    0.000    0.000    0.000 
#    0.000    0.000    0.000    0.000    0.000    0.000 
#
# Total GULP energy -123931.552302 kJ/mol
# GULP energy per Si atom -12393.155230 kJ/mol
# Density = 1.912854 g / cm^3
# Si number density = 19.172175 Si / 1000 Ang^3
#
#
#
# Elastic Constant Matrix: (Units=GPa)
#
#
# Indices 1 2 3 4 5 6 
#
# 1 69.2069 40.9048 11.6911 1.8820 -11.9052 -13.8359
# 2 40.9048 125.4841 34.9818 4.4736 -9.9556 -9.1464
# 3 11.6911 34.9818 100.0347 5.6000 -11.9980 -18.7080
# 4 1.8820 4.4736 5.6000 18.6194 -0.6140 -4.7905
# 5 -11.9052 -9.9556 -11.9980 -0.6140 18.1225 1.8783
# 6 -13.8359 -9.1464 -18.7080 -4.7905 1.8783 38.5070
#
#
#
# Elastic Compliance Matrix: (Units=1/GPa)
#
#
# Indices 1 2 3 4 5 6 
#
# 1 0.020921 -0.006094 0.002242 0.000771 0.011211 0.006708
# 2 -0.006094 0.010803 -0.003262 -0.001356 -0.000132 -0.001371
# 3 0.002242 -0.003262 0.012953 -0.001608 0.007606 0.005753
# 4 0.000771 -0.001356 -0.001608 0.056018 -0.000042 0.006145
# 5 0.011211 -0.000132 0.007606 -0.000042 0.067049 0.004417
# 6 0.006708 -0.001371 0.005753 0.006145 0.004417 0.031398
#
#
# Mechanical properties :
#
#
# Convention : Reuss Voigt Hill
#
# Bulk Modulus (GPa) = 32.84082 52.20903 42.52492
# Shear Modulus (GPa) = 22.36935 28.85965 25.61450
#
# Velocity S-wave (km/s) = 3.41949 3.88401 3.65913
# Velocity P-wave (km/s) = 5.72339 6.88512 6.33096
#
# Compressibility (1/GPa) = 0.03044991
#
# Stress axis : x y z
#
# Youngs Moduli (GPa) = 47.79838 92.56813 77.20048
#
# Poissons Ratio (x) = 0.56410 -0.17308
# Poissons Ratio (y) = 0.29128 0.25181
# Poissons Ratio (z) = -0.10716 0.30194
#
# Static dielectric constant tensor:
#      x y z
#    x 3.354690 -0.178020 -0.366850 
#    y -0.178020 3.756900 0.332820 
#    z -0.366850 0.332820 3.495640 
# 
# 
# High freq. dielectric constant tensor:
#      x y z
#    x 1.745230 -0.000940 -0.018780 
#    y -0.000940 1.754860 0.016450 
#    z -0.018780 0.016450 1.719090 
# 
# From -- ./inp_files/143972.got.cif
#   From: 2010.06.25/outbox.cif.g09.slc.cpg/sg2_72_cif.got.tgz:143972.got - 2010.06.27 13:26:56.
