data_PCOD8042702
_publ_section_title
;
Structure prediction by ZEFSAII (Michael W. Deem and Ramdas Pophale) SiO2 
 PCOD8042702
Probable space group: P -1
;
_chemical_formula_sum "Si O2"
_cell_formula_units_Z 14
_cell_length_a 11.601267
_cell_length_b 10.692428
_cell_length_c 8.969336
_cell_angle_alpha 59.596801
_cell_angle_beta 133.222839
_cell_angle_gamma 126.363771
_cell_volume 643.316742
_symmetry_space_group_name_H-M "P -1"
_symmetry_group_IT_number 2
_symmetry_cell_setting 'triclinic'
loop_
_space_group_symop_operation_xyz
x,y,z
-x,-y,-z
loop_
_atom_site_type_symbol
_atom_site_label
_atom_site_fract_x
_atom_site_fract_y
_atom_site_fract_z
Si Si1 0.484164 0.209580 0.767745
Si Si2 0.251000 0.854131 0.461745
Si Si3 0.077123 0.394253 0.223922
Si Si4 0.546640 0.797417 0.599420
Si Si5 0.999913 0.439140 0.699333
Si Si6 0.231720 0.881520 0.772273
Si Si7 0.672769 0.536891 0.847152
O O1 0.524731 0.235508 0.612343
O O2 0.508513 0.373733 0.770651
O O3 0.293459 0.073237 0.712210
O O4 0.626606 0.155570 0.991322
O O5 0.407805 0.803583 0.590349
O O6 0.213132 0.817433 0.625426
O O7 0.090262 0.751074 0.276884
O O8 0.291737 0.035080 0.351775
O O9 0.242155 0.393438 0.281545
O O10 0.118955 0.486818 0.361968
O O11 0.947903 0.211178 0.245083
O O12 0.000000 0.500000 0.000000
O O13 0.608152 0.661276 0.790031
O O14 0.000000 0.500000 0.500000
O O15 0.189066 0.492110 0.906191
#
# Coordination Sequence:
#
# PCOD8042702 Si02
#       7
#     2   2   2   2   2   2   2
#     4  10  19  36  61  85 118 155 198 244 292 351
#     4  10  21  40  61  86 116 162 203 238 303 362
#     4  10  19  35  60  88 116 151 198 243 296 351
#     4  10  23  39  61  86 121 159 199 249 296 356
#     4  11  20  36  64  86 119 156 199 240 296 361
#     4  10  19  36  62  89 113 154 206 244 286 359
#     4  11  22  38  61  92 122 154 201 251 296 349
#
# _framework density 21.762219999999999
#
# number of rings (size 3 to 8) (size 9 to 14) (size 15 to 20)
#    0.000    1.714    4.286    1.286    2.000    0.571 
#    0.000    7.143    3.143    0.000    0.000    0.000 
#    0.000    0.000    0.000    0.000    0.000    0.000 
#
# Total GULP energy -173492.689311 kJ/mol
# GULP energy per Si atom -12392.334951 kJ/mol
# Density = 2.171269 g / cm^3
# Si number density = 21.762220 Si / 1000 Ang^3
#
#
#
# Elastic Constant Matrix: (Units=GPa)
#
#
# Indices 1 2 3 4 5 6 
#
# 1 63.1734 47.1045 14.1334 -8.7164 -14.0378 1.1002
# 2 47.1045 175.5931 31.5534 12.1570 2.8867 10.6340
# 3 14.1334 31.5534 51.2470 10.6140 -17.4518 3.0498
# 4 -8.7164 12.1570 10.6140 35.0447 -1.2499 1.8768
# 5 -14.0378 2.8867 -17.4518 -1.2499 20.9714 -4.8455
# 6 1.1002 10.6340 3.0498 1.8768 -4.8455 34.0353
#
#
#
# Elastic Compliance Matrix: (Units=1/GPa)
#
#
# Indices 1 2 3 4 5 6 
#
# 1 0.029861 -0.010398 0.005102 0.010191 0.027469 0.005175
# 2 -0.010398 0.010814 -0.008336 -0.004169 -0.016659 -0.004437
# 3 0.005102 -0.008336 0.036229 -0.005793 0.035419 0.004555
# 4 0.010191 -0.004169 -0.005793 0.034424 0.004688 0.000261
# 5 0.027469 -0.016659 0.035419 0.004688 0.101667 0.015359
# 6 0.005175 -0.004437 0.004555 0.000261 0.015359 0.032364
#
#
# Mechanical properties :
#
#
# Convention : Reuss Voigt Hill
#
# Bulk Modulus (GPa) = 20.14492 52.84403 36.49447
# Shear Modulus (GPa) = 17.29092 31.15843 24.22468
#
# Velocity S-wave (km/s) = 2.82181 3.78797 3.34001
# Velocity P-wave (km/s) = 4.46024 6.59294 5.62853
#
# Compressibility (1/GPa) = 0.04964030
#
# Stress axis : x y z
#
# Youngs Moduli (GPa) = 33.48855 92.47661 27.60204
#
# Poissons Ratio (x) = 0.96156 -0.14083
# Poissons Ratio (y) = 0.34821 0.23009
# Poissons Ratio (z) = -0.17087 0.77089
#
# Static dielectric constant tensor:
#      x y z
#    x -0.454060 7.054130 3.285000 
#    y 7.054130 -5.407600 -5.194140 
#    z 3.285000 -5.194140 0.837280 
# 
# 
# High freq. dielectric constant tensor:
#      x y z
#    x 1.827540 0.014470 -0.024060 
#    y 0.014470 1.881740 0.010610 
#    z -0.024060 0.010610 1.837070 
# 
# From -- ./inp_files/237990.got.cif
#   From: 2010.06.25/outbox.cif.g09.slc.cpg/sg2_119_cif.got.tgz:237990.got - 2010.06.27 13:26:56.
