data_PCOD8042383
_publ_section_title
;
Structure prediction by ZEFSAII (Michael W. Deem and Ramdas Pophale) SiO2 
 PCOD8042383
Probable space group: P -1
;
_chemical_formula_sum "Si O2"
_cell_formula_units_Z 16
_cell_length_a 12.114019
_cell_length_b 9.446582
_cell_length_c 16.893948
_cell_angle_alpha 124.178652
_cell_angle_beta 34.072321
_cell_angle_gamma 111.729272
_cell_volume 876.964325
_symmetry_space_group_name_H-M "P -1"
_symmetry_group_IT_number 2
_symmetry_cell_setting 'triclinic'
loop_
_space_group_symop_operation_xyz
x,y,z
-x,-y,-z
loop_
_atom_site_type_symbol
_atom_site_label
_atom_site_fract_x
_atom_site_fract_y
_atom_site_fract_z
Si Si1 0.006895 0.183064 0.798959
Si Si2 0.916712 0.717441 0.968236
Si Si3 0.214784 0.573556 0.122784
Si Si4 0.624923 0.323769 0.787978
Si Si5 0.685242 0.654010 0.241357
Si Si6 0.557898 0.985204 0.217022
Si Si7 0.677987 0.115937 0.543495
Si Si8 0.271997 0.731404 0.864396
O O1 0.173114 0.297108 0.758120
O O2 0.873558 0.262960 0.829041
O O3 0.118000 0.985586 0.649506
O O4 0.866246 0.167736 0.952290
O O5 0.804493 0.640992 0.083735
O O6 0.791196 0.906228 0.076189
O O7 0.919116 0.574882 0.852243
O O8 0.140398 0.731693 0.862969
O O9 0.205920 0.640953 0.240184
O O10 0.448248 0.495833 0.936976
O O11 0.720946 0.267010 0.626370
O O12 0.527014 0.162586 0.828909
O O13 0.476484 0.795301 0.405168
O O14 0.631552 0.466226 0.231100
O O15 0.551827 0.163020 0.227111
O O16 0.425684 0.021393 0.387770
#
# Coordination Sequence:
#
# PCOD8042383 Si02
#       8
#     2   2   2   2   2   2   2   2
#     4  11  19  28  53  77  97 124 169 206 240 282
#     4   9  15  29  49  75  94 124 168 205 231 278
#     4  10  15  31  53  78  87 129 176 206 218 286
#     4   8  18  32  52  69  99 130 167 198 238 284
#     4  10  17  31  49  73  99 131 163 197 241 296
#     4   8  18  32  47  70 105 129 155 199 250 289
#     4   9  19  35  47  70 105 131 160 198 249 288
#     4  11  17  29  53  76  97 124 166 204 240 289
#
# _framework density 18.244755999999999
#
# number of rings (size 3 to 8) (size 9 to 14) (size 15 to 20)
#    0.750    1.750    3.750    1.500    0.000    0.500 
#    0.000    1.250    5.500    0.000    0.000    5.250 
#    0.000    0.000    0.000    0.000    0.000    0.000 
#
# Total GULP energy -198262.089779 kJ/mol
# GULP energy per Si atom -12391.380611 kJ/mol
# Density = 1.820323 g / cm^3
# Si number density = 18.244756 Si / 1000 Ang^3
#
#
#
# Elastic Constant Matrix: (Units=GPa)
#
#
# Indices 1 2 3 4 5 6 
#
# 1 103.7540 16.7816 26.9821 10.5296 -5.9139 2.9331
# 2 16.7816 72.9061 20.7916 9.0345 -0.9457 -9.7183
# 3 26.9821 20.7916 63.2847 17.2265 2.8583 -2.0824
# 4 10.5296 9.0345 17.2265 16.8668 -0.4675 0.1705
# 5 -5.9139 -0.9457 2.8583 -0.4675 16.7074 4.5098
# 6 2.9331 -9.7183 -2.0824 0.1705 4.5098 18.2005
#
#
#
# Elastic Compliance Matrix: (Units=1/GPa)
#
#
# Indices 1 2 3 4 5 6 
#
# 1 0.011721 -0.001809 -0.004387 -0.001651 0.006058 -0.004843
# 2 -0.001809 0.016843 -0.003018 -0.004957 -0.001859 0.009447
# 3 -0.004387 -0.003018 0.024970 -0.021402 -0.007690 0.004058
# 4 -0.001651 -0.004957 -0.021402 0.085106 0.007176 -0.007405
# 5 0.006058 -0.001859 -0.007690 0.007176 0.068798 -0.019963
# 6 -0.004843 0.009447 0.004058 -0.007405 -0.019963 0.066248
#
#
# Mechanical properties :
#
#
# Convention : Reuss Voigt Hill
#
# Bulk Modulus (GPa) = 28.48494 41.00614 34.74554
# Shear Modulus (GPa) = 16.45736 22.04758 19.25247
#
# Velocity S-wave (km/s) = 3.00664 3.48003 3.25196
# Velocity P-wave (km/s) = 5.26306 6.21867 5.76071
#
# Compressibility (1/GPa) = 0.03510627
#
# Stress axis : x y z
#
# Youngs Moduli (GPa) = 85.31420 59.37248 40.04825
#
# Poissons Ratio (x) = 0.10743 0.17567
# Poissons Ratio (y) = 0.15437 0.12087
# Poissons Ratio (z) = 0.37423 0.17919
#
# Static dielectric constant tensor:
#      x y z
#    x 3.500740 0.024340 -0.005840 
#    y 0.024340 3.046330 0.256360 
#    z -0.005840 0.256360 3.010990 
# 
# 
# High freq. dielectric constant tensor:
#      x y z
#    x 1.706900 0.000000 -0.001600 
#    y 0.000000 1.678310 0.033550 
#    z -0.001600 0.033550 1.669460 
# 
# From -- ./inp_files/384865.got.cif
#   From: 2010.06.25/outbox.cif.g09.slc.cpg/sg2_193_cif.got.tgz:384865.got - 2010.06.27 13:26:56.
