data_PCOD8042102
_publ_section_title
;
Structure prediction by ZEFSAII (Michael W. Deem and Ramdas Pophale) SiO2 
 PCOD8042102
Probable space group: P -1
;
_chemical_formula_sum "Si O2"
_cell_formula_units_Z 16
_cell_length_a 11.654194
_cell_length_b 13.916569
_cell_length_c 19.974409
_cell_angle_alpha 147.521281
_cell_angle_beta 28.599765
_cell_angle_gamma 138.779382
_cell_volume 831.893914
_symmetry_space_group_name_H-M "P -1"
_symmetry_group_IT_number 2
_symmetry_cell_setting 'triclinic'
loop_
_space_group_symop_operation_xyz
x,y,z
-x,-y,-z
loop_
_atom_site_type_symbol
_atom_site_label
_atom_site_fract_x
_atom_site_fract_y
_atom_site_fract_z
Si Si1 0.064470 0.920678 0.847302
Si Si2 0.330745 0.746466 0.139935
Si Si3 0.910556 0.207521 0.572583
Si Si4 0.048453 0.435980 0.863818
Si Si5 0.091722 0.722027 0.896523
Si Si6 0.592936 0.859395 0.679790
Si Si7 0.622028 0.858371 0.513996
Si Si8 0.806356 0.592330 0.837109
O O1 0.339386 0.883770 0.670017
O O2 0.924224 0.727882 0.800732
O O3 0.000000 0.000000 0.000000
O O4 0.986822 0.075403 0.926764
O O5 0.140197 0.779792 0.314932
O O6 0.189083 0.673278 0.104691
O O7 0.473525 0.932769 0.156735
O O8 0.520639 0.612469 0.994264
O O9 0.848865 0.389857 0.673398
O O10 0.193873 0.181800 0.402312
O O11 0.756677 0.038754 0.521798
O O12 0.093292 0.610297 0.897592
O O13 0.281342 0.313095 0.675329
O O14 0.000000 0.500000 0.000000
O O15 0.361875 0.729488 0.734330
O O16 0.915041 0.627961 0.876663
O O17 0.692333 0.823376 0.533867
#
# Coordination Sequence:
#
# PCOD8042102 Si02
#       8
#     2   2   2   2   2   2   2   2
#     4  10  19  34  57  94 127 144 177 248 322 362
#     4  11  20  37  58  87 126 154 193 246 301 360
#     4  11  20  30  57  96 121 147 183 249 319 352
#     4  12  27  43  59  82 120 173 211 234 276 359
#     4  11  21  38  59  94 125 152 192 245 312 360
#     4  11  18  34  61  93 123 148 182 259 325 341
#     4  11  20  37  59  89 127 149 196 250 304 357
#     4  11  20  32  58  96 123 146 183 248 320 363
#
# _framework density 19.233222000000001
#
# number of rings (size 3 to 8) (size 9 to 14) (size 15 to 20)
#    0.000    1.000    7.500    3.375    3.500    1.000 
#    0.000    1.250    0.000    0.750    0.000    0.000 
#    0.000    0.000    0.000    0.000    0.000    0.000 
#
# Total GULP energy -198336.233939 kJ/mol
# GULP energy per Si atom -12396.014621 kJ/mol
# Density = 1.918945 g / cm^3
# Si number density = 19.233222 Si / 1000 Ang^3
#
#
#
# Elastic Constant Matrix: (Units=GPa)
#
#
# Indices 1 2 3 4 5 6 
#
# 1 40.6927 29.4264 45.7518 4.4836 -9.5342 1.5591
# 2 29.4264 99.4851 49.4139 12.8296 -4.1847 -11.5158
# 3 45.7518 49.4139 132.1397 7.5232 -24.3086 -7.8506
# 4 4.4836 12.8296 7.5232 30.9748 6.6838 -20.2116
# 5 -9.5342 -4.1847 -24.3086 6.6838 31.4397 3.1010
# 6 1.5591 -11.5158 -7.8506 -20.2116 3.1010 23.2296
#
#
#
# Elastic Compliance Matrix: (Units=1/GPa)
#
#
# Indices 1 2 3 4 5 6 
#
# 1 0.056325 -0.010187 -0.013312 -0.033665 0.017017 -0.044893
# 2 -0.010187 0.014898 -0.002610 0.005296 -0.005486 0.012527
# 3 -0.013312 -0.002610 0.014475 0.001379 0.006032 0.004886
# 4 -0.033665 0.005296 0.001379 0.119977 -0.045365 0.115796
# 5 0.017017 -0.005486 0.006032 -0.045365 0.055347 -0.048683
# 6 -0.044893 0.012527 0.004886 0.115796 -0.048683 0.161174
#
#
# Mechanical properties :
#
#
# Convention : Reuss Voigt Hill
#
# Bulk Modulus (GPa) = 29.87085 57.94462 43.90774
# Shear Modulus (GPa) = 10.29711 26.97719 18.63715
#
# Velocity S-wave (km/s) = 2.31634 3.74924 3.11627
# Velocity P-wave (km/s) = 4.76639 6.99537 5.98555
#
# Compressibility (1/GPa) = 0.03347745
#
# Stress axis : x y z
#
# Youngs Moduli (GPa) = 17.75417 67.12343 69.08696
#
# Poissons Ratio (x) = 0.68380 0.91970
# Poissons Ratio (y) = 0.18087 0.18035
# Poissons Ratio (z) = 0.23635 0.17522
#
# Static dielectric constant tensor:
#      x y z
#    x 3.027170 -0.008750 -0.428970 
#    y -0.008750 3.947730 0.306900 
#    z -0.428970 0.306900 3.499050 
# 
# 
# High freq. dielectric constant tensor:
#      x y z
#    x 1.687680 0.008330 -0.055220 
#    y 0.008330 1.769950 0.010780 
#    z -0.055220 0.010780 1.741370 
# 
# From -- ./inp_files/252218.got.cif
#   From: 2010.06.25/outbox.cif.g09.slc.cpg/sg2_127_cif.got.tgz:252218.got - 2010.06.27 13:26:56.
