data_PCOD8042511
_publ_section_title
;
Structure prediction by ZEFSAII (Michael W. Deem and Ramdas Pophale) SiO2 
 PCOD8042511
Probable space group: P -1
;
_chemical_formula_sum "Si O2"
_cell_formula_units_Z 16
_cell_length_a 8.851721
_cell_length_b 8.699393
_cell_length_c 17.670911
_cell_angle_alpha 102.966787
_cell_angle_beta 129.312493
_cell_angle_gamma 109.316794
_cell_volume 799.014456
_symmetry_space_group_name_H-M "P -1"
_symmetry_group_IT_number 2
_symmetry_cell_setting 'triclinic'
loop_
_space_group_symop_operation_xyz
x,y,z
-x,-y,-z
loop_
_atom_site_type_symbol
_atom_site_label
_atom_site_fract_x
_atom_site_fract_y
_atom_site_fract_z
Si Si1 0.360871 0.402951 0.212017
Si Si2 0.441502 0.309242 0.556924
Si Si3 0.127668 0.372123 0.368522
Si Si4 0.427258 0.387872 0.848086
Si Si5 0.139255 0.515506 0.619763
Si Si6 0.578615 0.295824 0.035265
Si Si7 0.109779 0.857858 0.875780
Si Si8 0.972923 0.100200 0.573829
O O1 0.436740 0.582396 0.312479
O O2 0.364796 0.472183 0.135446
O O3 0.564088 0.364748 0.281800
O O4 0.082678 0.200864 0.123101
O O5 0.230950 0.332601 0.470091
O O6 0.649801 0.403434 0.568344
O O7 0.298299 0.069959 0.493218
O O8 0.892292 0.361865 0.314924
O O9 0.039872 0.204786 0.257856
O O10 0.337476 0.510249 0.868025
O O11 0.191066 0.178832 0.713202
O O12 0.539628 0.329563 0.940104
O O13 0.000000 0.500000 0.500000
O O14 0.989274 0.287281 0.574308
O O15 0.791706 0.271179 0.098663
O O16 0.326955 0.097866 0.971593
O O17 0.000000 0.000000 0.500000
#
# Coordination Sequence:
#
# PCOD8042511 Si02
#       8
#     2   2   2   2   2   2   2   2
#     4  10  20  36  61  84 118 151 191 242 289 342
#     4  10  19  35  57  86 117 153 188 230 297 359
#     4  10  20  35  58  84 118 152 188 240 290 351
#     4  10  21  38  61  84 119 153 189 246 289 342
#     4  11  20  34  54  82 121 154 188 233 289 348
#     4  10  22  40  60  85 113 157 199 239 291 334
#     4  10  21  38  62  84 111 155 202 238 285 347
#     4  11  19  34  60  85 115 152 186 235 292 351
#
# _framework density 20.024668999999999
#
# number of rings (size 3 to 8) (size 9 to 14) (size 15 to 20)
#    0.000    1.750    3.750    2.250    0.000    1.500 
#    0.000    0.000    5.500    0.000    0.000    0.000 
#    0.000    0.000    0.000    0.000    0.000    0.000 
#
# Total GULP energy -198368.972094 kJ/mol
# GULP energy per Si atom -12398.060756 kJ/mol
# Density = 1.997909 g / cm^3
# Si number density = 20.024669 Si / 1000 Ang^3
#
#
#
# Elastic Constant Matrix: (Units=GPa)
#
#
# Indices 1 2 3 4 5 6 
#
# 1 94.3503 26.8295 26.0336 -0.0983 14.4793 11.5589
# 2 26.8295 66.9535 25.2772 -10.8378 6.6487 12.1423
# 3 26.0336 25.2772 77.4210 -1.8493 -2.6691 8.4016
# 4 -0.0983 -10.8378 -1.8493 34.7062 6.1590 -0.6096
# 5 14.4793 6.6487 -2.6691 6.1590 38.5021 3.8474
# 6 11.5589 12.1423 8.4016 -0.6096 3.8474 29.5323
#
#
#
# Elastic Compliance Matrix: (Units=1/GPa)
#
#
# Indices 1 2 3 4 5 6 
#
# 1 0.013431 -0.003326 -0.003335 -0.000439 -0.004400 -0.002376
# 2 -0.003326 0.020452 -0.004952 0.006584 -0.003163 -0.005150
# 3 -0.003335 -0.004952 0.015929 -0.001376 0.003602 -0.001688
# 4 -0.000439 0.006584 -0.001376 0.031864 -0.006095 -0.000692
# 5 -0.004400 -0.003163 0.003602 -0.006095 0.029596 -0.001984
# 6 -0.002376 -0.005150 -0.001688 -0.000692 -0.001984 0.037633
#
#
# Mechanical properties :
#
#
# Convention : Reuss Voigt Hill
#
# Bulk Modulus (GPa) = 37.61307 43.88948 40.75127
# Shear Modulus (GPa) = 27.62546 31.25376 29.43961
#
# Velocity S-wave (km/s) = 3.71829 3.95494 3.83844
# Velocity P-wave (km/s) = 6.10396 6.54375 6.32768
#
# Compressibility (1/GPa) = 0.02658651
#
# Stress axis : x y z
#
# Youngs Moduli (GPa) = 74.45678 48.89511 62.77907
#
# Poissons Ratio (x) = 0.16264 0.20934
# Poissons Ratio (y) = 0.24766 0.31087
# Poissons Ratio (z) = 0.24828 0.24212
#
# Static dielectric constant tensor:
#      x y z
#    x 3.692130 0.235260 -0.041570 
#    y 0.235260 3.753270 0.011900 
#    z -0.041570 0.011900 3.832630 
# 
# 
# High freq. dielectric constant tensor:
#      x y z
#    x 1.773470 0.017040 -0.009230 
#    y 0.017040 1.776140 -0.006070 
#    z -0.009230 -0.006070 1.782450 
# 
# From -- ./inp_files/298269.got.cif
#   From: 2010.06.25/outbox.cif.g09.slc.cpg/sg2_150_cif.got.tgz:298269.got - 2010.06.27 13:26:56.
