data_PCOD8042477
_publ_section_title
;
Structure prediction by ZEFSAII (Michael W. Deem and Ramdas Pophale) SiO2 
 PCOD8042477
Probable space group: P -1
;
_chemical_formula_sum "Si O2"
_cell_formula_units_Z 16
_cell_length_a 8.101618
_cell_length_b 14.649595
_cell_length_c 9.267736
_cell_angle_alpha 134.804405
_cell_angle_beta 99.790378
_cell_angle_gamma 61.666082
_cell_volume 662.700142
_symmetry_space_group_name_H-M "P -1"
_symmetry_group_IT_number 2
_symmetry_cell_setting 'triclinic'
loop_
_space_group_symop_operation_xyz
x,y,z
-x,-y,-z
loop_
_atom_site_type_symbol
_atom_site_label
_atom_site_fract_x
_atom_site_fract_y
_atom_site_fract_z
Si Si1 0.488908 0.499868 0.261986
Si Si2 0.127493 0.330106 0.863901
Si Si3 0.453056 0.871866 0.328470
Si Si4 0.900166 0.258137 0.951352
Si Si5 0.876345 0.894842 0.623203
Si Si6 0.227489 0.798457 0.409985
Si Si7 0.293051 0.426624 0.392838
Si Si8 0.082439 0.259820 0.253113
O O1 0.336215 0.621291 0.262163
O O2 0.389663 0.420864 0.246360
O O3 0.558595 0.587095 0.475496
O O4 0.670520 0.374822 0.060689
O O5 0.355005 0.280475 0.862951
O O6 0.117979 0.228023 0.622144
O O7 0.034375 0.325196 0.996298
O O8 0.000000 0.500000 0.000000
O O9 0.381919 0.849207 0.450346
O O10 0.500000 0.000000 0.500000
O O11 0.287344 0.933496 0.247377
O O12 0.908655 0.155580 0.704964
O O13 0.001649 0.188462 0.042368
O O14 0.838746 0.859542 0.738939
O O15 0.085302 0.885853 0.621516
O O16 0.251972 0.289901 0.254785
O O17 0.095178 0.584480 0.545933
#
# Coordination Sequence:
#
# PCOD8042477 Si02
#       8
#     2   2   2   2   2   2   2   2
#     4  10  19  35  56  94 126 161 201 254 319 359
#     4  10  22  38  61  94 124 158 205 263 312 356
#     4  10  23  41  64  91 121 162 216 255 305 374
#     4  10  23  35  55  89 129 161 198 259 317 366
#     4  10  22  40  63  90 122 169 209 248 307 374
#     4  11  21  38  61  89 123 161 205 263 312 364
#     4   9  20  32  57  87 130 158 209 255 299 364
#     4  10  20  37  58  88 126 170 207 249 305 376
#
# _framework density 24.143649
#
# number of rings (size 3 to 8) (size 9 to 14) (size 15 to 20)
#    0.000    2.000    1.250    1.500    8.750    2.000 
#    0.000    1.250    0.000    0.000    0.000    0.000 
#    0.000    0.000    0.000    0.000    0.000    0.000 
#
# Total GULP energy -198239.433253 kJ/mol
# GULP energy per Si atom -12389.964578 kJ/mol
# Density = 2.408870 g / cm^3
# Si number density = 24.143649 Si / 1000 Ang^3
#
#
#
# Elastic Constant Matrix: (Units=GPa)
#
#
# Indices 1 2 3 4 5 6 
#
# 1 152.9187 51.7819 24.9174 -4.2594 -52.4477 16.4239
# 2 51.7819 137.6995 28.9439 -8.2530 -28.1071 5.0872
# 3 24.9174 28.9439 57.3781 -9.1338 -11.3640 0.2177
# 4 -4.2594 -8.2530 -9.1338 37.6839 -4.8154 -10.4113
# 5 -52.4477 -28.1071 -11.3640 -4.8154 36.0058 -5.3228
# 6 16.4239 5.0872 0.2177 -10.4113 -5.3228 38.8533
#
#
#
# Elastic Compliance Matrix: (Units=1/GPa)
#
#
# Indices 1 2 3 4 5 6 
#
# 1 0.014025 -0.000751 -0.001388 0.002911 0.019442 -0.002379
# 2 -0.000751 0.009440 -0.002976 0.002110 0.005683 0.000442
# 3 -0.001388 -0.002976 0.021087 0.005522 0.003464 0.002813
# 4 0.002911 0.002110 0.005522 0.032892 0.013376 0.009108
# 5 0.019442 0.005683 0.003464 0.013376 0.063909 0.003358
# 6 -0.002379 0.000442 0.002813 0.009108 0.003358 0.029570
#
#
# Mechanical properties :
#
#
# Convention : Reuss Voigt Hill
#
# Bulk Modulus (GPa) = 29.13709 62.14253 45.63981
# Shear Modulus (GPa) = 25.96113 38.66546 32.31329
#
# Velocity S-wave (km/s) = 3.28270 4.00619 3.66235
# Velocity P-wave (km/s) = 5.14418 6.86978 6.06863
#
# Compressibility (1/GPa) = 0.03432052
#
# Stress axis : x y z
#
# Youngs Moduli (GPa) = 71.30148 105.92705 47.42270
#
# Poissons Ratio (x) = 0.07958 0.06584
# Poissons Ratio (y) = 0.05357 0.14114
# Poissons Ratio (z) = 0.09900 0.31526
#
# Static dielectric constant tensor:
#      x y z
#    x 5.227730 -0.196740 0.082190 
#    y -0.196740 4.430940 -0.211130 
#    z 0.082190 -0.211130 3.006940 
# 
# 
# High freq. dielectric constant tensor:
#      x y z
#    x 1.983810 0.005240 -0.016180 
#    y 0.005240 1.952690 -0.013380 
#    z -0.016180 -0.013380 1.927220 
# 
# From -- ./inp_files/208710.got.cif
#   From: 2010.06.25/outbox.cif.g09.slc.cpg/sg2_105_cif.got.tgz:208710.got - 2010.06.27 13:26:56.
