data_PCOD8042005
_publ_section_title
;
Structure prediction by ZEFSAII (Michael W. Deem and Ramdas Pophale) SiO2 
 PCOD8042005
Probable space group: P -1
;
_chemical_formula_sum "Si O2"
_cell_formula_units_Z 16
_cell_length_a 13.141809
_cell_length_b 13.011061
_cell_length_c 11.216815
_cell_angle_alpha 61.390869
_cell_angle_beta 100.159184
_cell_angle_gamma 147.821824
_cell_volume 781.885665
_symmetry_space_group_name_H-M "P -1"
_symmetry_group_IT_number 2
_symmetry_cell_setting 'triclinic'
loop_
_space_group_symop_operation_xyz
x,y,z
-x,-y,-z
loop_
_atom_site_type_symbol
_atom_site_label
_atom_site_fract_x
_atom_site_fract_y
_atom_site_fract_z
Si Si1 0.229753 0.584370 0.525942
Si Si2 0.371168 0.554051 0.387814
Si Si3 0.885072 0.939240 0.123427
Si Si4 0.571500 0.627399 0.589289
Si Si5 0.570160 0.815534 0.056754
Si Si6 0.742781 0.138894 0.710766
Si Si7 0.329631 0.431360 0.031611
Si Si8 0.521367 0.761391 0.685975
O O1 0.200817 0.453046 0.492823
O O2 0.324082 0.794562 0.364904
O O3 0.403004 0.722020 0.585146
O O4 0.000647 0.383610 0.652796
O O5 0.576113 0.713482 0.423746
O O6 0.286169 0.349307 0.416910
O O7 0.456951 0.732139 0.206773
O O8 0.687193 0.661493 0.283669
O O9 0.798307 0.979297 0.041764
O O10 0.000000 0.000000 0.000000
O O11 0.075884 0.138612 0.152840
O O12 0.649277 0.780588 0.635293
O O13 0.402620 0.559792 0.099526
O O14 0.613328 0.971060 0.896532
O O15 0.694606 0.011232 0.656090
O O16 0.341520 0.535088 0.867296
O O17 0.500000 0.500000 0.000000
#
# Coordination Sequence:
#
# PCOD8042005 Si02
#       8
#     2   2   2   2   2   2   2   2
#     4  10  21  39  58  79 107 140 186 229 272 315
#     4   9  19  36  53  76 114 147 173 217 269 330
#     4  11  18  31  52  79 112 145 175 219 269 313
#     4   9  18  33  54  79 109 147 179 209 271 334
#     4  10  21  35  51  79 111 140 184 220 268 325
#     4  10  22  36  59  84 101 138 190 234 266 312
#     4  11  19  29  50  82 112 141 180 219 265 319
#     4  10  19  34  56  80 112 140 174 230 273 315
#
# _framework density 20.463349000000001
#
# number of rings (size 3 to 8) (size 9 to 14) (size 15 to 20)
#    0.000    2.000    2.500    1.875    1.750    0.500 
#    0.000    7.500    0.000    0.000    0.000   20.125 
#    0.000    0.000    0.000    0.000    0.000    0.000 
#
# Total GULP energy -198243.600620 kJ/mol
# GULP energy per Si atom -12390.225039 kJ/mol
# Density = 2.041677 g / cm^3
# Si number density = 20.463349 Si / 1000 Ang^3
#
#
#
# Elastic Constant Matrix: (Units=GPa)
#
#
# Indices 1 2 3 4 5 6 
#
# 1 69.0287 11.4192 16.1146 5.8462 14.1448 -4.4637
# 2 11.4192 72.6613 18.5568 1.3058 8.8353 3.0313
# 3 16.1146 18.5568 85.3956 21.7740 16.1759 -0.1861
# 4 5.8462 1.3058 21.7740 28.2500 -3.9663 -0.8210
# 5 14.1448 8.8353 16.1759 -3.9663 25.4968 2.1867
# 6 -4.4637 3.0313 -0.1861 -0.8210 2.1867 29.6687
#
#
#
# Elastic Compliance Matrix: (Units=1/GPa)
#
#
# Indices 1 2 3 4 5 6 
#
# 1 0.017475 -0.001617 0.000370 -0.005197 -0.010471 0.003425
# 2 -0.001617 0.015068 -0.003001 0.001619 -0.002031 -0.001607
# 3 0.000370 -0.003001 0.019207 -0.016682 -0.014037 0.001056
# 4 -0.005197 0.001619 -0.016682 0.052189 0.021124 -0.001165
# 5 -0.010471 -0.002031 -0.014037 0.021124 0.058369 -0.005173
# 6 0.003425 -0.001607 0.001056 -0.001165 -0.005173 0.034741
#
#
# Mechanical properties :
#
#
# Convention : Reuss Voigt Hill
#
# Bulk Modulus (GPa) = 23.11903 35.47409 29.29656
# Shear Modulus (GPa) = 22.73113 28.74942 25.74027
#
# Velocity S-wave (km/s) = 3.33651 3.75230 3.55050
# Velocity P-wave (km/s) = 5.11521 6.01216 5.58173
#
# Compressibility (1/GPa) = 0.04325441
#
# Stress axis : x y z
#
# Youngs Moduli (GPa) = 57.22388 66.36641 52.06375
#
# Poissons Ratio (x) = 0.10732 -0.01926
# Poissons Ratio (y) = 0.09253 0.15624
# Poissons Ratio (z) = -0.02117 0.19916
#
# Static dielectric constant tensor:
#      x y z
#    x 3.680520 -0.063580 0.083840 
#    y -0.063580 3.658490 0.258720 
#    z 0.083840 0.258720 3.836020 
# 
# 
# High freq. dielectric constant tensor:
#      x y z
#    x 1.780570 -0.003860 0.009930 
#    y -0.003860 1.782740 0.028130 
#    z 0.009930 0.028130 1.802380 
# 
# From -- ./inp_files/453721.got.cif
#   From: 2010.06.25/outbox.cif.g09.slc.cpg/sg2_227_cif.got.tgz:453721.got - 2010.06.27 13:26:56.
