data_PCOD8042039
_publ_section_title
;
Structure prediction by ZEFSAII (Michael W. Deem and Ramdas Pophale) SiO2 
 PCOD8042039
Probable space group: P -1
;
_chemical_formula_sum "Si O2"
_cell_formula_units_Z 14
_cell_length_a 16.868406
_cell_length_b 7.143845
_cell_length_c 25.418214
_cell_angle_alpha 52.518368
_cell_angle_beta 18.715326
_cell_angle_gamma 45.182506
_cell_volume 673.279710
_symmetry_space_group_name_H-M "P -1"
_symmetry_group_IT_number 2
_symmetry_cell_setting 'triclinic'
loop_
_space_group_symop_operation_xyz
x,y,z
-x,-y,-z
loop_
_atom_site_type_symbol
_atom_site_label
_atom_site_fract_x
_atom_site_fract_y
_atom_site_fract_z
Si Si1 0.773221 0.379702 0.312329
Si Si2 0.549979 0.118567 0.636276
Si Si3 0.005860 0.000217 0.141550
Si Si4 0.699376 0.701929 0.128818
Si Si5 0.114107 0.087542 0.242857
Si Si6 0.276703 0.811450 0.823843
Si Si7 0.394412 0.409857 0.031220
O O1 0.500000 0.500000 0.500000
O O2 0.731172 0.624416 0.258222
O O3 0.043155 0.253388 0.203505
O O4 0.808702 0.133277 0.294490
O O5 0.532102 0.140156 0.706840
O O6 0.841192 0.104117 0.439069
O O7 0.539142 0.852133 0.669747
O O8 0.159831 0.675075 0.102085
O O9 0.797494 0.108672 0.204089
O O10 0.254433 0.084371 0.971220
O O11 0.612696 0.511796 0.181970
O O12 0.000000 0.500000 0.000000
O O13 0.249886 0.228587 0.169685
O O14 0.340138 0.770445 0.143714
O O15 0.000000 0.000000 0.000000
O O16 0.500000 0.500000 0.000000
#
# Coordination Sequence:
#
# PCOD8042039 Si02
#       7
#     2   2   2   2   2   2   2
#     4  10  19  36  58  91 127 153 189 254 305 357
#     4  11  20  38  59  92 127 151 194 254 308 360
#     4  11  20  38  63  90 123 161 207 241 299 373
#     4  10  19  34  56  88 121 153 194 239 300 361
#     4  10  24  41  60  86 121 159 206 256 296 351
#     4  11  19  34  62  94 121 159 189 242 316 361
#     4  11  23  43  62  84 115 170 212 243 295 357
#
# _framework density 20.793737
#
# number of rings (size 3 to 8) (size 9 to 14) (size 15 to 20)
#    0.000    1.429    7.143    0.857    0.000    1.143 
#    0.000    3.571    0.000    1.714    0.000    0.000 
#    0.000    0.000    0.000    0.000    0.000    0.000 
#
# Total GULP energy -173514.300617 kJ/mol
# GULP energy per Si atom -12393.878615 kJ/mol
# Density = 2.074641 g / cm^3
# Si number density = 20.793737 Si / 1000 Ang^3
#
#
#
# Elastic Constant Matrix: (Units=GPa)
#
#
# Indices 1 2 3 4 5 6 
#
# 1 56.0942 23.7612 32.3627 3.3018 16.7754 29.2675
# 2 23.7612 138.3541 52.8988 2.2921 6.5901 35.7334
# 3 32.3627 52.8988 115.7391 -2.1407 14.5898 18.7812
# 4 3.3018 2.2921 -2.1407 34.0049 6.0166 -6.1306
# 5 16.7754 6.5901 14.5898 6.0166 28.2795 0.9414
# 6 29.2675 35.7334 18.7812 -6.1306 0.9414 38.8099
#
#
#
# Elastic Compliance Matrix: (Units=1/GPa)
#
#
# Indices 1 2 3 4 5 6 
#
# 1 0.045704 0.005415 -0.006626 -0.007989 -0.022025 -0.036974
# 2 0.005415 0.011537 -0.004426 -0.003505 -0.002437 -0.013059
# 3 -0.006626 -0.004426 0.012236 0.002730 -0.002052 0.003632
# 4 -0.007989 -0.003505 0.002730 0.033603 -0.003445 0.013323
# 5 -0.022025 -0.002437 -0.002052 -0.003445 0.050184 0.018085
# 6 -0.036974 -0.013059 0.003632 0.013323 0.018085 0.065581
#
#
# Mechanical properties :
#
#
# Convention : Reuss Voigt Hill
#
# Bulk Modulus (GPa) = 17.18126 58.69254 37.93690
# Shear Modulus (GPa) = 20.03851 33.62985 26.83418
#
# Velocity S-wave (km/s) = 3.10769 4.02594 3.59624
# Velocity P-wave (km/s) = 4.59974 7.06387 5.96053
#
# Compressibility (1/GPa) = 0.05820294
#
# Stress axis : x y z
#
# Youngs Moduli (GPa) = 21.87972 86.67864 81.72915
#
# Poissons Ratio (x) = -0.46936 0.54156
# Poissons Ratio (y) = -0.11848 0.36170
# Poissons Ratio (z) = 0.14498 0.38361
#
# Static dielectric constant tensor:
#      x y z
#    x 3.960900 0.278650 0.144220 
#    y 0.278650 4.829370 -0.039470 
#    z 0.144220 -0.039470 3.580440 
# 
# 
# High freq. dielectric constant tensor:
#      x y z
#    x 1.793130 0.019380 0.020310 
#    y 0.019380 1.824060 0.003430 
#    z 0.020310 0.003430 1.796040 
# 
# From -- ./inp_files/424675.got.cif
#   From: 2010.06.25/outbox.cif.g09.slc.cpg/sg2_213_cif.got.tgz:424675.got - 2010.06.27 13:26:56.
