data_PCOD8042180
_publ_section_title
;
Structure prediction by ZEFSAII (Michael W. Deem and Ramdas Pophale) SiO2 
 PCOD8042180
Probable space group: P -1
;
_chemical_formula_sum "Si O2"
_cell_formula_units_Z 14
_cell_length_a 13.627636
_cell_length_b 14.977649
_cell_length_c 10.559519
_cell_angle_alpha 139.124409
_cell_angle_beta 148.466164
_cell_angle_gamma 41.080606
_cell_volume 699.045194
_symmetry_space_group_name_H-M "P -1"
_symmetry_group_IT_number 2
_symmetry_cell_setting 'triclinic'
loop_
_space_group_symop_operation_xyz
x,y,z
-x,-y,-z
loop_
_atom_site_type_symbol
_atom_site_label
_atom_site_fract_x
_atom_site_fract_y
_atom_site_fract_z
Si Si1 0.078193 0.428959 0.876155
Si Si2 0.000478 0.112160 0.793718
Si Si3 0.433391 0.361721 0.809497
Si Si4 0.902627 0.201623 0.497992
Si Si5 0.329000 0.696383 0.216012
Si Si6 0.940465 0.645762 0.741297
Si Si7 0.511507 0.595957 0.808424
O O1 0.048271 0.273253 0.664974
O O2 0.948778 0.527982 0.730496
O O3 0.308962 0.409233 0.092916
O O4 0.000000 0.500000 0.000000
O O5 0.986906 0.158631 0.683653
O O6 0.777058 0.165708 0.664874
O O7 0.096256 0.940847 0.730920
O O8 0.132403 0.194330 0.101659
O O9 0.566392 0.250689 0.730772
O O10 0.204806 0.371815 0.547234
O O11 0.500000 0.500000 0.000000
O O12 0.482542 0.316585 0.960505
O O13 0.685420 0.318273 0.391250
O O14 0.484336 0.567590 0.329783
O O15 0.162507 0.622673 0.905093
#
# Coordination Sequence:
#
# PCOD8042180 Si02
#       7
#     2   2   2   2   2   2   2
#     4  11  20  36  60  91 111 147 189 237 290 323
#     4   9  21  41  57  82 114 162 178 229 298 335
#     4  10  19  34  59  87 113 148 191 239 279 323
#     4  11  21  40  58  82 126 140 190 239 280 344
#     4   8  18  37  57  86 108 155 189 227 286 329
#     4   9  19  37  57  84 115 145 195 228 274 348
#     4  10  22  34  58  91 108 147 195 236 277 332
#
# _framework density 20.027315999999999
#
# number of rings (size 3 to 8) (size 9 to 14) (size 15 to 20)
#    0.857    1.429    1.429    1.714    0.000    9.714 
#    2.571    2.857    0.000    0.000    0.000    0.000 
#    0.000    0.000    0.000    0.000    0.000    0.000 
#
# Total GULP energy -173450.971898 kJ/mol
# GULP energy per Si atom -12389.355136 kJ/mol
# Density = 1.998173 g / cm^3
# Si number density = 20.027316 Si / 1000 Ang^3
#
#
#
# Elastic Constant Matrix: (Units=GPa)
#
#
# Indices 1 2 3 4 5 6 
#
# 1 67.9202 26.4330 -19.2442 -4.2303 12.0546 5.6780
# 2 26.4330 65.8567 26.0436 10.3729 3.0849 -13.3188
# 3 -19.2442 26.0436 51.9233 -2.2337 0.0120 8.7270
# 4 -4.2303 10.3729 -2.2337 23.7266 -6.7697 -0.2174
# 5 12.0546 3.0849 0.0120 -6.7697 25.2626 -1.4896
# 6 5.6780 -13.3188 8.7270 -0.2174 -1.4896 21.1172
#
#
#
# Elastic Compliance Matrix: (Units=1/GPa)
#
#
# Indices 1 2 3 4 5 6 
#
# 1 -0.067347 0.099101 -0.097619 -0.060253 0.011076 0.121115
# 2 0.099101 -0.112520 0.121172 0.070184 -0.023562 -0.148629
# 3 -0.097619 0.121172 -0.105554 -0.072994 0.020943 0.147019
# 4 -0.060253 0.070184 -0.072994 0.002188 0.026256 0.092506
# 5 0.011076 -0.023562 0.020943 0.026256 0.042834 -0.023202
# 6 0.121115 -0.148629 0.147019 0.092506 -0.023202 -0.140394
#
#
# Mechanical properties :
#
#
# Convention : Reuss Voigt Hill
#
# Bulk Modulus (GPa) = -24.93085 28.01836 1.54375
# Shear Modulus (GPa) = -7.81895 24.18581 8.18343
#
# Velocity S-wave (km/s) = -1.97803 3.47888 2.02361
# Velocity P-wave (km/s) = 4.20622 5.49156 2.49650
#
# Compressibility (1/GPa) = -0.04011094
#
# Stress axis : x y z
#
# Youngs Moduli (GPa) = -14.84845 -8.88733 -9.47385
#
# Poissons Ratio (x) = 0.88074 -0.92482
# Poissons Ratio (y) = 1.47149 1.14797
# Poissons Ratio (z) = -1.44948 1.07690
#
# Static dielectric constant tensor:
#      x y z
#    x 4.009870 -0.182710 -0.014470 
#    y -0.182710 3.496920 0.154180 
#    z -0.014470 0.154180 3.500740 
# 
# 
# High freq. dielectric constant tensor:
#      x y z
#    x 1.793190 -0.011710 -0.002960 
#    y -0.011710 1.747040 -0.000050 
#    z -0.002960 -0.000050 1.767510 
# 
# From -- ./inp_files/453366.got.cif
#   From: 2010.06.25/outbox.cif.g09.slc.cpg/sg2_227_cif.got.tgz:453366.got - 2010.06.27 13:26:56.
