data_PCOD8042195
_publ_section_title
;
Structure prediction by ZEFSAII (Michael W. Deem and Ramdas Pophale) SiO2 
 PCOD8042195
Probable space group: P -1
;
_chemical_formula_sum "Si O2"
_cell_formula_units_Z 16
_cell_length_a 12.172806
_cell_length_b 8.700117
_cell_length_c 12.253497
_cell_angle_alpha 127.003302
_cell_angle_beta 132.874441
_cell_angle_gamma 69.571900
_cell_volume 755.418961
_symmetry_space_group_name_H-M "P -1"
_symmetry_group_IT_number 2
_symmetry_cell_setting 'triclinic'
loop_
_space_group_symop_operation_xyz
x,y,z
-x,-y,-z
loop_
_atom_site_type_symbol
_atom_site_label
_atom_site_fract_x
_atom_site_fract_y
_atom_site_fract_z
Si Si1 0.648672 0.281256 0.698933
Si Si2 0.672113 0.727003 0.573479
Si Si3 0.895418 0.005565 0.742463
Si Si4 0.022233 0.831175 0.363089
Si Si5 0.761175 0.917979 0.943515
Si Si6 0.705211 0.671729 0.017304
Si Si7 0.492035 0.060488 0.896814
Si Si8 0.315545 0.684287 0.514593
O O1 0.474734 0.185229 0.539040
O O2 0.773203 0.143775 0.766542
O O3 0.680142 0.359138 0.630311
O O4 0.654134 0.449845 0.864262
O O5 0.708524 0.805639 0.751938
O O6 0.634037 0.494178 0.457058
O O7 0.815782 0.788909 0.618684
O O8 0.913227 0.052479 0.649118
O O9 0.059216 0.026743 0.919988
O O10 0.142304 0.698120 0.435436
O O11 0.874247 0.687629 0.183178
O O12 0.000000 0.000000 0.500000
O O13 0.660525 0.100910 0.973431
O O14 0.709623 0.785507 0.955047
O O15 0.599757 0.750535 0.075862
O O16 0.409127 0.886176 0.694640
O O17 0.500000 0.000000 0.000000
#
# Coordination Sequence:
#
# PCOD8042195 Si02
#       8
#     2   2   2   2   2   2   2   2
#     4  11  22  39  62  91 120 156 203 252 292 350
#     4  12  21  38  60  91 123 156 199 246 300 356
#     4  10  25  38  59  89 125 160 193 244 311 353
#     4  10  21  40  63  86 121 158 201 246 300 355
#     4  10  20  36  59  87 121 155 197 245 299 350
#     4  10  20  36  63  91 117 152 206 248 296 348
#     4  10  19  34  59  91 118 151 203 251 291 346
#     4  11  21  35  65  92 115 159 204 248 292 352
#
# _framework density 21.180299000000002
#
# number of rings (size 3 to 8) (size 9 to 14) (size 15 to 20)
#    0.000    1.500    3.750    2.625    1.750    1.500 
#    0.000    0.625    0.000    1.500    0.000    0.000 
#    0.000    0.000    0.000    0.000    0.000    0.000 
#
# Total GULP energy -198221.257289 kJ/mol
# GULP energy per Si atom -12388.828581 kJ/mol
# Density = 2.113209 g / cm^3
# Si number density = 21.180299 Si / 1000 Ang^3
#
#
#
# Elastic Constant Matrix: (Units=GPa)
#
#
# Indices 1 2 3 4 5 6 
#
# 1 107.1271 34.6186 55.8726 1.4172 22.7249 -40.9043
# 2 34.6186 54.1793 33.4520 2.6096 8.9437 -25.6231
# 3 55.8726 33.4520 117.9373 -1.4818 17.3915 -26.7452
# 4 1.4172 2.6096 -1.4818 25.7399 -12.3707 6.3655
# 5 22.7249 8.9437 17.3915 -12.3707 33.3777 -4.0153
# 6 -40.9043 -25.6231 -26.7452 6.3655 -4.0153 32.0574
#
#
#
# Elastic Compliance Matrix: (Units=1/GPa)
#
#
# Indices 1 2 3 4 5 6 
#
# 1 0.033637 0.011057 -0.003625 -0.029652 -0.028829 0.051010
# 2 0.011057 0.039702 -0.003480 -0.025940 -0.020491 0.045522
# 3 -0.003625 -0.003480 0.012184 -0.000785 -0.002932 0.002545
# 4 -0.029652 -0.025940 -0.000785 0.084578 0.050511 -0.069691
# 5 -0.028829 -0.020491 -0.002932 0.050511 0.068462 -0.057064
# 6 0.051010 0.045522 0.002545 -0.069691 -0.057064 0.141482
#
#
# Mechanical properties :
#
#
# Convention : Reuss Voigt Hill
#
# Bulk Modulus (GPa) = 10.70372 58.57002 34.63687
# Shear Modulus (GPa) = 12.39819 28.58837 20.49328
#
# Velocity S-wave (km/s) = 2.42205 3.67790 3.11394
# Velocity P-wave (km/s) = 3.58976 6.76380 5.41458
#
# Compressibility (1/GPa) = 0.09342545
#
# Stress axis : x y z
#
# Youngs Moduli (GPa) = 29.72878 25.18755 82.07796
#
# Poissons Ratio (x) = -0.27850 0.29757
# Poissons Ratio (y) = -0.32871 0.28566
# Poissons Ratio (z) = 0.10778 0.08766
#
# Static dielectric constant tensor:
#      x y z
#    x 3.628440 -0.277120 -0.323580 
#    y -0.277120 3.612950 0.056250 
#    z -0.323580 0.056250 3.747230 
# 
# 
# High freq. dielectric constant tensor:
#      x y z
#    x 1.835290 -0.031350 0.007570 
#    y -0.031350 1.805770 -0.017580 
#    z 0.007570 -0.017580 1.833860 
# 
# From -- ./inp_files/278690.got.cif
#   From: 2010.06.25/outbox.cif.g09.slc.cpg/sg2_140_cif.got.tgz:278690.got - 2010.06.27 13:26:56.
