data_PCOD8042971
_publ_section_title
;
Structure prediction by ZEFSAII (Michael W. Deem and Ramdas Pophale) SiO2 
 PCOD8042971
Probable space group: P -1
;
_chemical_formula_sum "Si O2"
_cell_formula_units_Z 16
_cell_length_a 21.200151
_cell_length_b 12.067587
_cell_length_c 13.275281
_cell_angle_alpha 54.116574
_cell_angle_beta 33.181022
_cell_angle_gamma 31.608354
_cell_volume 874.081939
_symmetry_space_group_name_H-M "P -1"
_symmetry_group_IT_number 2
_symmetry_cell_setting 'triclinic'
loop_
_space_group_symop_operation_xyz
x,y,z
-x,-y,-z
loop_
_atom_site_type_symbol
_atom_site_label
_atom_site_fract_x
_atom_site_fract_y
_atom_site_fract_z
Si Si1 0.382077 0.314617 0.839516
Si Si2 0.156068 0.847421 0.282154
Si Si3 0.492199 0.330317 0.055025
Si Si4 0.953574 0.405118 0.723104
Si Si5 0.976263 0.082499 0.797702
Si Si6 0.545868 0.518358 0.196131
Si Si7 0.681033 0.781874 0.713992
Si Si8 0.353853 0.557233 0.595914
O O1 0.482805 0.325042 0.775419
O O2 0.371461 0.382695 0.702338
O O3 0.508866 0.056046 0.817108
O O4 0.152273 0.511566 0.072497
O O5 0.285372 0.864478 0.092306
O O6 0.032949 0.936350 0.299081
O O7 0.325074 0.567159 0.219695
O O8 0.000000 0.000000 0.500000
O O9 0.512639 0.380052 0.891145
O O10 0.426925 0.236505 0.190314
O O11 0.032653 0.187323 0.684415
O O12 0.778481 0.636331 0.764513
O O13 0.139834 0.325461 0.533213
O O14 0.771478 0.247243 0.039777
O O15 0.135400 0.826067 0.768259
O O16 0.411501 0.524263 0.418296
O O17 0.500000 0.500000 0.500000
#
# Coordination Sequence:
#
# PCOD8042971 Si02
#       8
#     2   2   2   2   2   2   2   2
#     4  10  20  32  48  79 106 146 172 203 253 316
#     4  10  20  34  55  77 102 136 174 224 268 302
#     4  10  20  35  52  81 108 132 177 214 267 312
#     4  10  20  32  51  78 111 144 168 204 266 312
#     4  10  19  36  51  77 108 134 176 220 259 305
#     4   9  18  33  50  77 107 140 169 217 258 303
#     4  11  20  33  51  76 114 142 168 206 259 325
#     4  10  20  31  51  76 106 141 178 210 254 306
#
# _framework density 18.304921
#
# number of rings (size 3 to 8) (size 9 to 14) (size 15 to 20)
#    0.000    2.000    3.750    2.625    0.000    6.500 
#    0.000    0.000    0.000    0.750    0.000   13.125 
#    0.000    0.000    0.000    0.000    0.000    0.000 
#
# Total GULP energy -198269.588134 kJ/mol
# GULP energy per Si atom -12391.849258 kJ/mol
# Density = 1.826326 g / cm^3
# Si number density = 18.304921 Si / 1000 Ang^3
#
#
#
# Elastic Constant Matrix: (Units=GPa)
#
#
# Indices 1 2 3 4 5 6 
#
# 1 47.9591 26.4106 28.9903 -0.7607 -5.7910 17.5295
# 2 26.4106 80.5026 23.3903 10.3854 1.9754 9.9289
# 3 28.9903 23.3903 95.6197 -2.8257 3.6826 20.7998
# 4 -0.7607 10.3854 -2.8257 30.4274 -1.0215 -2.1118
# 5 -5.7910 1.9754 3.6826 -1.0215 29.8946 -0.1583
# 6 17.5295 9.9289 20.7998 -2.1118 -0.1583 20.4322
#
#
#
# Elastic Compliance Matrix: (Units=1/GPa)
#
#
# Indices 1 2 3 4 5 6 
#
# 1 0.038062 -0.008757 -0.004553 0.002173 0.008463 -0.023474
# 2 -0.008757 0.016549 -0.001552 -0.006078 -0.002804 0.000401
# 3 -0.004553 -0.001552 0.014534 0.000981 -0.002590 -0.010053
# 4 0.002173 -0.006078 0.000981 0.035411 0.001932 0.003766
# 5 0.008463 -0.002804 -0.002590 0.001932 0.035646 -0.002786
# 6 -0.023474 0.000401 -0.010053 0.003766 -0.002786 0.079489
#
#
# Mechanical properties :
#
#
# Convention : Reuss Voigt Hill
#
# Bulk Modulus (GPa) = 25.36728 42.40709 33.88718
# Shear Modulus (GPa) = 19.04359 25.83685 22.44022
#
# Velocity S-wave (km/s) = 3.22895 3.76103 3.50510
# Velocity P-wave (km/s) = 5.27160 6.48674 5.91048
#
# Compressibility (1/GPa) = 0.03942086
#
# Stress axis : x y z
#
# Youngs Moduli (GPa) = 26.27290 60.42557 68.80509
#
# Poissons Ratio (x) = 0.52914 0.31328
# Poissons Ratio (y) = 0.23007 0.10680
# Poissons Ratio (z) = 0.11962 0.09379
#
# Static dielectric constant tensor:
#      x y z
#    x 3.277670 -0.058540 0.005790 
#    y -0.058540 2.984650 -0.364820 
#    z 0.005790 -0.364820 3.795850 
# 
# 
# High freq. dielectric constant tensor:
#      x y z
#    x 1.674730 -0.001800 -0.003930 
#    y -0.001800 1.693380 0.011180 
#    z -0.003930 0.011180 1.728580 
# 
# From -- ./inp_files/436979.got.cif
#   From: 2010.06.25/outbox.cif.g09.slc.cpg/sg2_219_cif.got.tgz:436979.got - 2010.06.27 13:26:56.
