data_PCOD8042900
_publ_section_title
;
Structure prediction by ZEFSAII (Michael W. Deem and Ramdas Pophale) SiO2 
 PCOD8042900
Probable space group: P -1
;
_chemical_formula_sum "Si O2"
_cell_formula_units_Z 16
_cell_length_a 8.974298
_cell_length_b 8.146214
_cell_length_c 17.909051
_cell_angle_alpha 50.939499
_cell_angle_beta 79.698410
_cell_angle_gamma 113.223212
_cell_volume 748.222024
_symmetry_space_group_name_H-M "P -1"
_symmetry_group_IT_number 2
_symmetry_cell_setting 'triclinic'
loop_
_space_group_symop_operation_xyz
x,y,z
-x,-y,-z
loop_
_atom_site_type_symbol
_atom_site_label
_atom_site_fract_x
_atom_site_fract_y
_atom_site_fract_z
Si Si1 0.878850 0.406959 0.349146
Si Si2 0.726929 0.770645 0.888818
Si Si3 0.273171 0.939554 0.875296
Si Si4 0.730973 0.946542 0.396723
Si Si5 0.975219 0.605551 0.867637
Si Si6 0.723773 0.229847 0.713832
Si Si7 0.952919 0.874397 0.122176
Si Si8 0.284580 0.545730 0.497865
O O1 0.874915 0.563440 0.232662
O O2 0.813234 0.483413 0.405991
O O3 0.105204 0.533513 0.310880
O O4 0.732423 0.064393 0.444894
O O5 0.846597 0.698217 0.858366
O O6 0.727032 0.980160 0.778620
O O7 0.500000 0.500000 0.000000
O O8 0.832144 0.905339 0.919891
O O9 0.153198 0.730768 0.876009
O O10 0.511680 0.124877 0.793104
O O11 0.226858 0.145436 0.822816
O O12 0.180887 0.736979 0.015753
O O13 0.525487 0.783816 0.416504
O O14 0.785376 0.749511 0.442425
O O15 0.910953 0.261294 0.258459
O O16 0.778538 0.352663 0.590302
O O17 0.000000 0.000000 0.000000
#
# Coordination Sequence:
#
# PCOD8042900 Si02
#       8
#     2   2   2   2   2   2   2   2
#     4  11  25  43  65  99 136 164 219 276 321 384
#     4  10  20  37  60  93 129 167 212 260 323 386
#     4  10  19  35  64  91 126 170 214 260 322 391
#     4  11  23  42  68  96 124 174 224 267 318 384
#     4  10  19  36  62  92 125 167 218 261 317 390
#     4  11  22  40  64  96 132 172 212 269 332 381
#     4  10  22  39  60  88 129 170 209 266 322 380
#     4  11  24  43  70  92 130 175 222 264 323 385
#
# _framework density 21.384029000000002
#
# number of rings (size 3 to 8) (size 9 to 14) (size 15 to 20)
#    0.000    1.500    2.500    3.750    1.750    1.500 
#    2.250    1.875    0.000    0.000    0.000    0.000 
#    0.000    0.000    0.000    0.000    0.000    0.000 
#
# Total GULP energy -198238.449940 kJ/mol
# GULP energy per Si atom -12389.903121 kJ/mol
# Density = 2.133536 g / cm^3
# Si number density = 21.384029 Si / 1000 Ang^3
#
#
#
# Elastic Constant Matrix: (Units=GPa)
#
#
# Indices 1 2 3 4 5 6 
#
# 1 122.2730 47.0469 45.6830 -12.0291 13.3147 3.3842
# 2 47.0469 103.0374 36.7603 -20.7930 19.0445 -19.9259
# 3 45.6830 36.7603 113.5339 0.9763 17.1969 0.5630
# 4 -12.0291 -20.7930 0.9763 29.8509 3.6902 5.6987
# 5 13.3147 19.0445 17.1969 3.6902 37.0626 -0.6370
# 6 3.3842 -19.9259 0.5630 5.6987 -0.6370 24.3920
#
#
#
# Elastic Compliance Matrix: (Units=1/GPa)
#
#
# Indices 1 2 3 4 5 6 
#
# 1 0.011647 -0.004713 -0.003044 0.002757 -0.000729 -0.006059
# 2 -0.004713 0.019011 -0.003310 0.009716 -0.007270 0.013801
# 3 -0.003044 -0.003310 0.011481 -0.003280 -0.002238 -0.001839
# 4 0.002757 0.009716 -0.003280 0.043082 -0.008796 -0.002665
# 5 -0.000729 -0.007270 -0.002238 -0.008796 0.032844 -0.002873
# 6 -0.006059 0.013801 -0.001839 -0.002665 -0.002873 0.053702
#
#
# Mechanical properties :
#
#
# Convention : Reuss Voigt Hill
#
# Bulk Modulus (GPa) = 49.98529 66.42496 58.20513
# Shear Modulus (GPa) = 24.92918 32.21805 28.57362
#
# Velocity S-wave (km/s) = 3.41806 3.88576 3.65939
# Velocity P-wave (km/s) = 6.24527 7.15978 6.71810
#
# Compressibility (1/GPa) = 0.02000588
#
# Stress axis : x y z
#
# Youngs Moduli (GPa) = 85.85680 52.60064 87.10263
#
# Poissons Ratio (x) = 0.24789 0.26513
# Poissons Ratio (y) = 0.40462 0.28831
# Poissons Ratio (z) = 0.26134 0.17411
#
# Static dielectric constant tensor:
#      x y z
#    x 4.108730 0.001610 0.066840 
#    y 0.001610 3.817660 -0.113310 
#    z 0.066840 -0.113310 3.984490 
# 
# 
# High freq. dielectric constant tensor:
#      x y z
#    x 1.853140 -0.005760 0.002410 
#    y -0.005760 1.822160 -0.007690 
#    z 0.002410 -0.007690 1.842470 
# 
# From -- ./inp_files/206474.got.cif
#   From: 2010.06.25/outbox.cif.g09.slc.cpg/sg2_104_cif.got.tgz:206474.got - 2010.06.27 13:26:56.
