data_PCOD8042799
_publ_section_title
;
Structure prediction by ZEFSAII (Michael W. Deem and Ramdas Pophale) SiO2 
 PCOD8042799
Probable space group: P -1
;
_chemical_formula_sum "Si O2"
_cell_formula_units_Z 16
_cell_length_a 7.598573
_cell_length_b 11.486944
_cell_length_c 11.296672
_cell_angle_alpha 124.698830
_cell_angle_beta 91.707206
_cell_angle_gamma 89.265043
_cell_volume 810.294348
_symmetry_space_group_name_H-M "P -1"
_symmetry_group_IT_number 2
_symmetry_cell_setting 'triclinic'
loop_
_space_group_symop_operation_xyz
x,y,z
-x,-y,-z
loop_
_atom_site_type_symbol
_atom_site_label
_atom_site_fract_x
_atom_site_fract_y
_atom_site_fract_z
Si Si1 0.921311 0.701935 0.706640
Si Si2 0.547096 0.401851 0.626653
Si Si3 0.155738 0.009135 0.247764
Si Si4 0.798239 0.850287 0.194310
Si Si5 0.305292 0.353916 0.104794
Si Si6 0.358131 0.118419 0.539208
Si Si7 0.257222 0.551288 0.569250
Si Si8 0.508486 0.093932 0.938435
O O1 0.910302 0.863539 0.760833
O O2 0.837314 0.689543 0.825674
O O3 0.825779 0.601956 0.550987
O O4 0.123935 0.655180 0.692903
O O5 0.645701 0.479804 0.784567
O O6 0.460531 0.259451 0.586294
O O7 0.415953 0.521402 0.643922
O O8 0.682139 0.368402 0.503381
O O9 0.225978 0.069131 0.407209
O O10 0.306861 0.922717 0.133817
O O11 0.994531 0.904630 0.208209
O O12 0.760927 0.847818 0.330839
O O13 0.653293 0.947611 0.178728
O O14 0.780505 0.688173 0.048651
O O15 0.481138 0.257738 0.070865
O O16 0.500000 0.000000 0.500000
O O17 0.500000 0.000000 0.000000
#
# Coordination Sequence:
#
# PCOD8042799 Si02
#       8
#     2   2   2   2   2   2   2   2
#     4  10  19  35  61  95 130 155 209 264 322 383
#     4  10  21  39  67  88 127 169 207 266 322 372
#     4  12  22  40  67  93 132 172 206 268 318 372
#     4  10  25  41  58  92 129 169 217 257 304 384
#     4   9  21  40  58  93 124 165 208 258 318 380
#     4  12  24  43  65  92 126 172 220 262 313 379
#     4   9  20  36  60  99 124 161 207 263 325 378
#     4  10  21  40  65  95 132 168 208 260 325 376
#
# _framework density 19.745911
#
# number of rings (size 3 to 8) (size 9 to 14) (size 15 to 20)
#    0.750    1.000    3.750    0.375    1.750    4.500 
#    0.000    0.000    0.000    2.250    0.000    0.000 
#    0.000    0.000    0.000    0.000    0.000    0.000 
#
# Total GULP energy -198315.692055 kJ/mol
# GULP energy per Si atom -12394.730753 kJ/mol
# Density = 1.970097 g / cm^3
# Si number density = 19.745911 Si / 1000 Ang^3
#
#
#
# Elastic Constant Matrix: (Units=GPa)
#
#
# Indices 1 2 3 4 5 6 
#
# 1 109.2308 43.9425 56.9644 5.1080 -18.3735 22.0224
# 2 43.9425 70.8513 35.0785 -0.6600 -1.5674 18.8164
# 3 56.9644 35.0785 112.5590 -5.5863 -15.4982 13.6336
# 4 5.1080 -0.6600 -5.5863 23.7518 4.8568 -0.7872
# 5 -18.3735 -1.5674 -15.4982 4.8568 40.5788 3.2565
# 6 22.0224 18.8164 13.6336 -0.7872 3.2565 26.9060
#
#
#
# Elastic Compliance Matrix: (Units=1/GPa)
#
#
# Indices 1 2 3 4 5 6 
#
# 1 0.017610 -0.005858 -0.005389 -0.006981 0.007220 -0.008664
# 2 -0.005858 0.021381 -0.002960 0.001384 -0.002455 -0.008320
# 3 -0.005389 -0.002960 0.013024 0.003724 0.001994 -0.000250
# 4 -0.006981 0.001384 0.003724 0.046249 -0.007633 0.005136
# 5 0.007220 -0.002455 0.001994 -0.007633 0.030222 -0.009084
# 6 -0.008664 -0.008320 -0.000250 0.005136 -0.009084 0.051453
#
#
# Mechanical properties :
#
#
# Convention : Reuss Voigt Hill
#
# Bulk Modulus (GPa) = 42.37341 62.73466 52.55403
# Shear Modulus (GPa) = 23.12466 28.69104 25.90785
#
# Velocity S-wave (km/s) = 3.42586 3.81597 3.62617
# Velocity P-wave (km/s) = 6.09546 7.15929 6.64869
#
# Compressibility (1/GPa) = 0.02359971
#
# Stress axis : x y z
#
# Youngs Moduli (GPa) = 56.78714 46.77056 76.78133
#
# Poissons Ratio (x) = 0.27397 0.41381
# Poissons Ratio (y) = 0.33264 0.22730
# Poissons Ratio (z) = 0.30605 0.13846
#
# Static dielectric constant tensor:
#      x y z
#    x 3.635320 0.056450 -0.074340 
#    y 0.056450 3.329520 -0.034420 
#    z -0.074340 -0.034420 3.763030 
# 
# 
# High freq. dielectric constant tensor:
#      x y z
#    x 1.773810 0.011110 -0.007450 
#    y 0.011110 1.743760 -0.002250 
#    z -0.007450 -0.002250 1.782110 
# 
# From -- ./inp_files/391337.got.cif
#   From: 2010.06.25/outbox.cif.g09.slc.cpg/sg2_196_cif.got.tgz:391337.got - 2010.06.27 13:26:56.
