data_PCOD8042476
_publ_section_title
;
Structure prediction by ZEFSAII (Michael W. Deem and Ramdas Pophale) SiO2 
 PCOD8042476
Probable space group: P -1
;
_chemical_formula_sum "Si O2"
_cell_formula_units_Z 16
_cell_length_a 8.149104
_cell_length_b 8.850349
_cell_length_c 18.206362
_cell_angle_alpha 136.354652
_cell_angle_beta 124.623576
_cell_angle_gamma 64.529347
_cell_volume 745.369460
_symmetry_space_group_name_H-M "P -1"
_symmetry_group_IT_number 2
_symmetry_cell_setting 'triclinic'
loop_
_space_group_symop_operation_xyz
x,y,z
-x,-y,-z
loop_
_atom_site_type_symbol
_atom_site_label
_atom_site_fract_x
_atom_site_fract_y
_atom_site_fract_z
Si Si1 0.107397 0.506930 0.226233
Si Si2 0.202404 0.061892 0.036150
Si Si3 0.154600 0.649825 0.633815
Si Si4 0.552055 0.600907 0.624899
Si Si5 0.392595 0.475504 0.043006
Si Si6 0.432655 0.927806 0.184290
Si Si7 0.760213 0.335742 0.175847
Si Si8 0.853169 0.854013 0.210871
O O1 0.273886 0.546444 0.344462
O O2 0.906574 0.424541 0.182785
O O3 0.051360 0.736548 0.254318
O O4 0.200296 0.327857 0.127534
O O5 0.225832 0.934045 0.919120
O O6 0.383161 0.959055 0.095845
O O7 0.000000 0.000000 0.000000
O O8 0.364709 0.622231 0.637935
O O9 0.182973 0.572012 0.697740
O O10 0.000000 0.500000 0.500000
O O11 0.080200 0.903640 0.708581
O O12 0.500000 0.500000 0.500000
O O13 0.632173 0.843396 0.712791
O O14 0.314252 0.730718 0.124496
O O15 0.535145 0.411676 0.124850
O O16 0.500000 0.500000 0.000000
O O17 0.217118 0.301405 0.929562
O O18 0.672089 0.878774 0.232690
#
# Coordination Sequence:
#
# PCOD8042476 Si02
#       8
#     2   2   2   2   2   2   2   2
#     4  10  19  36  65  93 122 154 210 255 302 365
#     4   9  16  28  54  91 123 152 187 237 306 361
#     4  11  26  45  61  84 124 168 216 253 307 365
#     4  10  22  42  64  87 121 167 213 257 307 367
#     4  10  15  31  61  98 124 147 205 249 296 364
#     4   9  16  32  57  91 120 151 200 253 289 366
#     4  11  19  35  66  93 125 166 197 254 307 366
#     4  10  19  37  61  88 126 160 205 250 295 380
#
# _framework density 21.465865000000001
#
# number of rings (size 3 to 8) (size 9 to 14) (size 15 to 20)
#    0.000    2.000    5.000    1.500    0.000    0.500 
#    2.250    3.125    8.250    0.000    0.000    0.000 
#    0.000    0.000    0.000    0.000    0.000    0.000 
#
# Total GULP energy -198222.344944 kJ/mol
# GULP energy per Si atom -12388.896559 kJ/mol
# Density = 2.141701 g / cm^3
# Si number density = 21.465865 Si / 1000 Ang^3
#
#
#
# Elastic Constant Matrix: (Units=GPa)
#
#
# Indices 1 2 3 4 5 6 
#
# 1 26.9067 21.5050 17.4502 0.0281 2.0809 -7.9469
# 2 21.5050 137.0990 62.7392 -2.1701 13.1628 -18.9930
# 3 17.4502 62.7392 166.7023 -5.0270 3.9915 -3.2480
# 4 0.0281 -2.1701 -5.0270 33.6905 1.6140 13.4712
# 5 2.0809 13.1628 3.9915 1.6140 32.2190 -2.8581
# 6 -7.9469 -18.9930 -3.2480 13.4712 -2.8581 23.6852
#
#
#
# Elastic Compliance Matrix: (Units=1/GPa)
#
#
# Indices 1 2 3 4 5 6 
#
# 1 0.047287 -0.003686 -0.003481 -0.007559 0.000754 0.016823
# 2 -0.003686 0.010900 -0.003576 -0.003050 -0.002874 0.008402
# 3 -0.003481 -0.003576 0.007698 0.002710 0.000197 -0.004497
# 4 -0.007559 -0.003050 0.002710 0.041483 -0.003216 -0.028592
# 5 0.000754 -0.002874 0.000197 -0.003216 0.032632 0.003742
# 6 0.016823 0.008402 -0.004497 -0.028592 0.003742 0.070699
#
#
# Mechanical properties :
#
#
# Convention : Reuss Voigt Hill
#
# Bulk Modulus (GPa) = 22.52244 59.34407 40.93326
# Shear Modulus (GPa) = 20.24412 33.18650 26.71531
#
# Velocity S-wave (km/s) = 3.07430 3.93620 3.53164
# Velocity P-wave (km/s) = 4.80799 6.95443 5.97833
#
# Compressibility (1/GPa) = 0.04440016
#
# Stress axis : x y z
#
# Youngs Moduli (GPa) = 21.14733 91.74176 129.89860
#
# Poissons Ratio (x) = 0.33814 0.45218
# Poissons Ratio (y) = 0.07794 0.46451
# Poissons Ratio (z) = 0.07361 0.32807
#
# Static dielectric constant tensor:
#      x y z
#    x 3.466220 -0.414080 0.200840 
#    y -0.414080 4.979000 0.330090 
#    z 0.200840 0.330090 3.701520 
# 
# 
# High freq. dielectric constant tensor:
#      x y z
#    x 1.802340 -0.023040 0.011370 
#    y -0.023040 1.846240 0.005730 
#    z 0.011370 0.005730 1.835040 
# 
# From -- ./inp_files/187353.got.cif
#   From: 2010.06.25/outbox.cif.g09.slc.cpg/sg2_94_cif.got.tgz:187353.got - 2010.06.27 13:26:56.
