data_PCOD8042821
_publ_section_title
;
Structure prediction by ZEFSAII (Michael W. Deem and Ramdas Pophale) SiO2 
 PCOD8042821
Probable space group: P -1
;
_chemical_formula_sum "Si O2"
_cell_formula_units_Z 16
_cell_length_a 15.517826
_cell_length_b 11.538119
_cell_length_c 16.632015
_cell_angle_alpha 22.635768
_cell_angle_beta 134.051203
_cell_angle_gamma 137.812458
_cell_volume 768.929180
_symmetry_space_group_name_H-M "P -1"
_symmetry_group_IT_number 2
_symmetry_cell_setting 'triclinic'
loop_
_space_group_symop_operation_xyz
x,y,z
-x,-y,-z
loop_
_atom_site_type_symbol
_atom_site_label
_atom_site_fract_x
_atom_site_fract_y
_atom_site_fract_z
Si Si1 0.223129 0.088032 0.011498
Si Si2 0.874726 0.750480 0.791919
Si Si3 0.498447 0.524662 0.076916
Si Si4 0.383507 0.271735 0.760499
Si Si5 0.374053 0.750632 0.976344
Si Si6 0.869035 0.389848 0.438576
Si Si7 0.856736 0.255409 0.972985
Si Si8 0.682827 0.139218 0.624325
O O1 0.355138 0.294385 0.917862
O O2 0.139031 0.318673 0.808582
O O3 0.156745 0.769008 0.117293
O O4 0.239202 0.989129 0.176614
O O5 0.768873 0.499341 0.940799
O O6 0.862537 0.604155 0.786922
O O7 0.853834 0.090579 0.560748
O O8 0.015128 0.807860 0.880233
O O9 0.410355 0.725629 0.922437
O O10 0.436136 0.154693 0.302700
O O11 0.500000 0.500000 0.000000
O O12 0.520085 0.349510 0.842352
O O13 0.365617 0.610634 0.519680
O O14 0.387354 0.113467 0.776582
O O15 0.264806 0.020419 0.891301
O O16 0.764471 0.304010 0.495534
O O17 0.000000 0.500000 0.500000
#
# Coordination Sequence:
#
# PCOD8042821 Si02
#       8
#     2   2   2   2   2   2   2   2
#     4  11  23  39  60  87 122 159 202 246 300 364
#     4  10  21  34  63  90 117 157 202 247 301 354
#     4  10  21  37  55  86 125 155 195 249 301 357
#     4  10  20  36  62  87 116 160 203 246 298 358
#     4  10  19  35  62  89 114 157 208 245 296 360
#     4  12  22  39  62  90 117 159 203 248 300 362
#     4  10  19  40  60  85 121 160 198 245 301 363
#     4  11  23  39  60  89 123 160 196 252 307 350
#
# _framework density 20.808157999999999
#
# number of rings (size 3 to 8) (size 9 to 14) (size 15 to 20)
#    0.000    1.500    5.000    0.000    1.750    1.500 
#    0.000    5.000    0.000    4.500    0.000    0.000 
#    0.000    0.000    0.000    0.000    0.000    0.000 
#
# Total GULP energy -198258.987947 kJ/mol
# GULP energy per Si atom -12391.186747 kJ/mol
# Density = 2.076080 g / cm^3
# Si number density = 20.808158 Si / 1000 Ang^3
#
#
#
# Elastic Constant Matrix: (Units=GPa)
#
#
# Indices 1 2 3 4 5 6 
#
# 1 67.7570 18.4626 23.1401 -8.6526 23.9625 -20.9115
# 2 18.4626 93.4808 26.2584 -15.5559 14.4481 -17.3954
# 3 23.1401 26.2584 99.4780 -8.7609 28.5599 -22.1865
# 4 -8.6526 -15.5559 -8.7609 31.6451 -10.4600 10.3771
# 5 23.9625 14.4481 28.5599 -10.4600 32.7725 -10.1619
# 6 -20.9115 -17.3954 -22.1865 10.3771 -10.1619 38.8300
#
#
#
# Elastic Compliance Matrix: (Units=1/GPa)
#
#
# Indices 1 2 3 4 5 6 
#
# 1 0.022367 -0.001130 0.001118 -0.001884 -0.014692 0.008837
# 2 -0.001130 0.012804 -0.001856 0.004263 -0.001015 0.002662
# 3 0.001118 -0.001856 0.014747 -0.002305 -0.011812 0.005721
# 4 -0.001884 0.004263 -0.002305 0.038905 0.011503 -0.007809
# 5 -0.014692 -0.001015 -0.011812 0.011503 0.054446 -0.003941
# 6 0.008837 0.002662 0.005721 -0.007809 -0.003941 0.036029
#
#
# Mechanical properties :
#
#
# Convention : Reuss Voigt Hill
#
# Bulk Modulus (GPa) = 21.65384 44.04866 32.85125
# Shear Modulus (GPa) = 25.19804 33.50650 29.35227
#
# Velocity S-wave (km/s) = 3.48367 4.01716 3.75989
# Velocity P-wave (km/s) = 5.15852 6.53694 5.88821
#
# Compressibility (1/GPa) = 0.04618119
#
# Stress axis : x y z
#
# Youngs Moduli (GPa) = 44.70817 78.10350 67.81250
#
# Poissons Ratio (x) = 0.08826 -0.07584
# Poissons Ratio (y) = 0.05052 0.12589
# Poissons Ratio (z) = -0.05000 0.14499
#
# Static dielectric constant tensor:
#      x y z
#    x 4.299060 0.129760 0.469060 
#    y 0.129760 4.256010 -0.345070 
#    z 0.469060 -0.345070 3.488100 
# 
# 
# High freq. dielectric constant tensor:
#      x y z
#    x 1.818870 0.002590 0.030940 
#    y 0.002590 1.837700 -0.025650 
#    z 0.030940 -0.025650 1.777990 
# 
# From -- ./inp_files/575889.got.cif
#   From: 2010.06.25/outbox.cif.g09.slc.cpg/sg2_288_cif.got.tgz:575889.got - 2010.06.27 13:26:56.
