data_PCOD8042927
_publ_section_title
;
Structure prediction by ZEFSAII (Michael W. Deem and Ramdas Pophale) SiO2 
 PCOD8042927
Probable space group: P -1
;
_chemical_formula_sum "Si O2"
_cell_formula_units_Z 16
_cell_length_a 20.394814
_cell_length_b 12.225153
_cell_length_c 11.001892
_cell_angle_alpha 140.101439
_cell_angle_beta 32.744584
_cell_angle_gamma 148.014197
_cell_volume 771.971814
_symmetry_space_group_name_H-M "P -1"
_symmetry_group_IT_number 2
_symmetry_cell_setting 'triclinic'
loop_
_space_group_symop_operation_xyz
x,y,z
-x,-y,-z
loop_
_atom_site_type_symbol
_atom_site_label
_atom_site_fract_x
_atom_site_fract_y
_atom_site_fract_z
Si Si1 0.826677 0.604982 0.970761
Si Si2 0.513987 0.206804 0.124752
Si Si3 0.226197 0.061370 0.584806
Si Si4 0.666032 0.140281 0.312723
Si Si5 0.864092 0.127588 0.188037
Si Si6 0.083209 0.213428 0.264885
Si Si7 0.567794 0.765760 0.993397
Si Si8 0.303034 0.473878 0.345695
O O1 0.679760 0.391297 0.066978
O O2 0.817791 0.796016 0.171012
O O3 0.849252 0.607254 0.792224
O O4 0.970788 0.656846 0.864336
O O5 0.388668 0.203135 0.392822
O O6 0.499125 0.241796 0.037831
O O7 0.500000 0.000000 0.000000
O O8 0.223077 0.935637 0.600243
O O9 0.097099 0.907608 0.556904
O O10 0.779229 0.181845 0.276953
O O11 0.707250 0.372260 0.414130
O O12 0.500000 0.000000 0.500000
O O13 0.673436 0.011708 0.080279
O O14 0.868818 0.942742 0.965823
O O15 0.147168 0.323276 0.388783
O O16 0.433710 0.620123 0.170623
O O17 0.664384 0.671049 0.752211
#
# Coordination Sequence:
#
# PCOD8042927 Si02
#       8
#     2   2   2   2   2   2   2   2
#     4   9  19  38  61  86 118 161 202 249 298 356
#     4  12  25  39  56  85 131 164 193 245 304 369
#     4   9  21  35  61  91 119 162 196 245 309 369
#     4  10  21  33  60  94 117 150 202 260 298 347
#     4   9  18  36  64  92 120 147 203 267 297 343
#     4   9  16  36  63  90 119 152 205 256 303 345
#     4  10  22  40  55  90 124 155 202 253 293 358
#     4  10  19  35  65  86 115 160 203 252 302 347
#
# _framework density 20.726144000000001
#
# number of rings (size 3 to 8) (size 9 to 14) (size 15 to 20)
#    0.000    2.250    2.500    1.875    3.500    1.000 
#    2.250    3.125    0.000    1.500    0.000    0.000 
#    0.000    0.000    0.000    0.000    0.000    0.000 
#
# Total GULP energy -198294.435926 kJ/mol
# GULP energy per Si atom -12393.402245 kJ/mol
# Density = 2.067897 g / cm^3
# Si number density = 20.726144 Si / 1000 Ang^3
#
#
#
# Elastic Constant Matrix: (Units=GPa)
#
#
# Indices 1 2 3 4 5 6 
#
# 1 81.9131 33.5535 26.8014 3.3707 -15.2861 18.1082
# 2 33.5535 108.6260 34.5133 0.6619 -7.1385 22.2338
# 3 26.8014 34.5133 55.6769 -0.9637 -12.2187 1.7222
# 4 3.3707 0.6619 -0.9637 43.8062 3.5353 -4.9581
# 5 -15.2861 -7.1385 -12.2187 3.5353 24.3797 -2.2865
# 6 18.1082 22.2338 1.7222 -4.9581 -2.2865 29.1505
#
#
#
# Elastic Compliance Matrix: (Units=1/GPa)
#
#
# Indices 1 2 3 4 5 6 
#
# 1 0.018567 -0.001100 -0.006311 -0.003335 0.007675 -0.010287
# 2 -0.001100 0.014113 -0.008249 -0.001319 -0.001432 -0.009931
# 3 -0.006311 -0.008249 0.027631 0.001637 0.008129 0.009496
# 4 -0.003335 -0.001319 0.001637 0.024271 -0.004543 0.006752
# 5 0.007675 -0.001432 0.008129 -0.004543 0.050050 -0.001003
# 6 -0.010287 -0.009931 0.009496 0.006752 -0.001003 0.048778
#
#
# Mechanical properties :
#
#
# Convention : Reuss Voigt Hill
#
# Bulk Modulus (GPa) = 34.49289 48.43913 41.46601
# Shear Modulus (GPa) = 22.28225 29.55713 25.91969
#
# Velocity S-wave (km/s) = 3.28240 3.78044 3.54019
# Velocity P-wave (km/s) = 5.57170 6.51747 6.06306
#
# Compressibility (1/GPa) = 0.02899148
#
# Stress axis : x y z
#
# Youngs Moduli (GPa) = 53.85835 70.85653 36.19147
#
# Poissons Ratio (x) = 0.07791 0.22841
# Poissons Ratio (y) = 0.05922 0.29854
# Poissons Ratio (z) = 0.33991 0.58449
#
# Static dielectric constant tensor:
#      x y z
#    x 3.635100 0.097470 -0.026800 
#    y 0.097470 3.000520 0.978720 
#    z -0.026800 0.978720 3.098930 
# 
# 
# High freq. dielectric constant tensor:
#      x y z
#    x 1.804630 0.021440 -0.023830 
#    y 0.021440 1.806830 0.015490 
#    z -0.023830 0.015490 1.789940 
# 
# From -- ./inp_files/181587.got.cif
#   From: 2010.06.25/outbox.cif.g09.slc.cpg/sg2_91_cif.got.tgz:181587.got - 2010.06.27 13:26:56.
