data_PCOD8042864
_publ_section_title
;
Structure prediction by ZEFSAII (Michael W. Deem and Ramdas Pophale) SiO2 
 PCOD8042864
Probable space group: P -1
;
_chemical_formula_sum "Si O2"
_cell_formula_units_Z 16
_cell_length_a 11.637688
_cell_length_b 22.775662
_cell_length_c 5.217762
_cell_angle_alpha 100.584335
_cell_angle_beta 101.786167
_cell_angle_gamma 33.687122
_cell_volume 750.678228
_symmetry_space_group_name_H-M "P -1"
_symmetry_group_IT_number 2
_symmetry_cell_setting 'triclinic'
loop_
_space_group_symop_operation_xyz
x,y,z
-x,-y,-z
loop_
_atom_site_type_symbol
_atom_site_label
_atom_site_fract_x
_atom_site_fract_y
_atom_site_fract_z
Si Si1 0.674326 0.666315 0.886742
Si Si2 0.631860 0.513815 0.118687
Si Si3 0.615267 0.825020 0.931960
Si Si4 0.889147 0.511866 0.241108
Si Si5 0.992831 0.193272 0.460232
Si Si6 0.573224 0.036864 0.544348
Si Si7 0.972452 0.279990 0.027256
Si Si8 0.537227 0.360842 0.378154
O O1 0.583147 0.652475 0.644298
O O2 0.921174 0.576656 0.939431
O O3 0.563185 0.775844 0.876642
O O4 0.673994 0.635665 0.145046
O O5 0.825022 0.473038 0.268929
O O6 0.471825 0.590412 0.342069
O O7 0.731351 0.405544 0.046806
O O8 0.548330 0.568292 0.849116
O O9 0.509284 0.894594 0.191957
O O10 0.861110 0.737152 0.966942
O O11 0.507343 0.897578 0.693555
O O12 0.000000 0.500000 0.500000
O O13 0.988182 0.226870 0.761017
O O14 0.781170 0.245463 0.354194
O O15 0.032269 0.224844 0.279229
O O16 0.176303 0.067486 0.435422
O O17 0.500000 0.000000 0.500000
#
# Coordination Sequence:
#
# PCOD8042864 Si02
#       8
#     2   2   2   2   2   2   2   2
#     4  10  23  38  61  96 127 165 206 256 310 368
#     4  11  23  38  63  96 128 167 206 248 309 370
#     4  12  24  40  69 100 122 154 211 277 316 359
#     4  10  19  35  63  89 130 167 204 248 306 370
#     4  12  26  43  64  87 126 171 211 256 317 370
#     4  12  24  44  67  93 124 159 214 269 324 362
#     4  12  23  39  66  96 124 159 211 262 307 377
#     4  11  25  43  60  89 134 175 201 243 308 389
#
# _framework density 21.314056000000001
#
# number of rings (size 3 to 8) (size 9 to 14) (size 15 to 20)
#    0.000    0.750    5.000    2.625    1.750    4.000 
#    0.000    1.250    0.000    0.000    0.000    0.000 
#    0.000    0.000    0.000    0.000    0.000    0.000 
#
# Total GULP energy -198215.949099 kJ/mol
# GULP energy per Si atom -12388.496819 kJ/mol
# Density = 2.126554 g / cm^3
# Si number density = 21.314056 Si / 1000 Ang^3
#
#
#
# Elastic Constant Matrix: (Units=GPa)
#
#
# Indices 1 2 3 4 5 6 
#
# 1 64.0318 17.1612 11.1366 2.3642 4.4136 9.5958
# 2 17.1612 123.9032 38.9327 3.0367 -12.1791 12.6171
# 3 11.1366 38.9327 125.8177 7.8775 -19.6706 24.8711
# 4 2.3642 3.0367 7.8775 34.0122 -0.1335 -2.0321
# 5 4.4136 -12.1791 -19.6706 -0.1335 23.0778 3.7584
# 6 9.5958 12.6171 24.8711 -2.0321 3.7584 39.9349
#
#
#
# Elastic Compliance Matrix: (Units=1/GPa)
#
#
# Indices 1 2 3 4 5 6 
#
# 1 0.017140 -0.002271 -0.001094 -0.000892 -0.005041 -0.002291
# 2 -0.002271 0.009538 -0.001683 -0.000397 0.004332 -0.001848
# 3 -0.001094 -0.001683 0.011991 -0.002977 0.010801 -0.007841
# 4 -0.000892 -0.000397 -0.002977 0.030417 -0.003057 0.004029
# 5 -0.005041 0.004332 0.010801 -0.003057 0.057803 -0.012480
# 6 -0.002291 -0.001848 -0.007841 0.004029 -0.012480 0.032438
#
#
# Mechanical properties :
#
#
# Convention : Reuss Voigt Hill
#
# Bulk Modulus (GPa) = 34.99786 49.80152 42.39969
# Shear Modulus (GPa) = 27.94149 35.83979 31.89064
#
# Velocity S-wave (km/s) = 3.62462 4.10507 3.87230
# Velocity P-wave (km/s) = 5.82863 6.77385 6.31894
#
# Compressibility (1/GPa) = 0.02857318
#
# Stress axis : x y z
#
# Youngs Moduli (GPa) = 58.34405 104.84588 83.39793
#
# Poissons Ratio (x) = 0.23806 0.09123
# Poissons Ratio (y) = 0.13247 0.14036
# Poissons Ratio (z) = 0.06382 0.17646
#
# Static dielectric constant tensor:
#      x y z
#    x 3.883140 0.162900 -0.012680 
#    y 0.162900 4.143760 0.132800 
#    z -0.012680 0.132800 3.908270 
# 
# 
# High freq. dielectric constant tensor:
#      x y z
#    x 1.838040 -0.007240 -0.003470 
#    y -0.007240 1.824920 -0.005840 
#    z -0.003470 -0.005840 1.850560 
# 
# From -- ./inp_files/83309.got.cif
#   From: 2010.06.25/outbox.cif.g09.slc.cpg/sg2_42_cif.got.tgz:83309.got - 2010.06.27 13:26:56.
