data_PCOD8042182
_publ_section_title
;
Structure prediction by ZEFSAII (Michael W. Deem and Ramdas Pophale) SiO2 
 PCOD8042182
Probable space group: P -1
;
_chemical_formula_sum "Si O2"
_cell_formula_units_Z 16
_cell_length_a 12.068787
_cell_length_b 17.540419
_cell_length_c 9.292063
_cell_angle_alpha 103.413287
_cell_angle_beta 129.834910
_cell_angle_gamma 37.435197
_cell_volume 739.494266
_symmetry_space_group_name_H-M "P -1"
_symmetry_group_IT_number 2
_symmetry_cell_setting 'triclinic'
loop_
_space_group_symop_operation_xyz
x,y,z
-x,-y,-z
loop_
_atom_site_type_symbol
_atom_site_label
_atom_site_fract_x
_atom_site_fract_y
_atom_site_fract_z
Si Si1 0.934091 0.093660 0.659848
Si Si2 0.202464 0.130540 0.224154
Si Si3 0.046898 0.584052 0.889290
Si Si4 0.039547 0.364396 0.831477
Si Si5 0.453972 0.763829 0.854756
Si Si6 0.837318 0.156312 0.924278
Si Si7 0.782878 0.885490 0.101768
Si Si8 0.220433 0.411913 0.517286
O O1 0.074035 0.104651 0.706860
O O2 0.674855 0.185426 0.388780
O O3 0.797175 0.188592 0.734744
O O4 0.184909 0.908410 0.802486
O O5 0.998253 0.303430 0.136746
O O6 0.500000 0.000000 0.500000
O O7 0.291517 0.068915 0.108567
O O8 0.011168 0.147905 0.135236
O O9 0.788566 0.660386 0.625259
O O10 0.353105 0.402695 0.011232
O O11 0.036504 0.568586 0.043120
O O12 0.007578 0.286096 0.774657
O O13 0.834397 0.487934 0.586682
O O14 0.353119 0.248713 0.997340
O O15 0.524988 0.287537 0.791045
O O16 0.000000 0.000000 0.000000
O O17 0.500000 0.000000 0.000000
O O18 0.000000 0.500000 0.500000
#
# Coordination Sequence:
#
# PCOD8042182 Si02
#       8
#     2   2   2   2   2   2   2   2
#     4  10  21  36  59  90 122 157 203 260 311 366
#     4  10  23  42  62  89 126 171 205 258 323 380
#     4  10  21  39  63  87 125 160 210 254 316 375
#     4  10  20  37  63  86 122 161 209 249 316 365
#     4  10  19  34  59  87 122 153 201 254 307 362
#     4  11  24  40  64  86 125 165 214 249 318 380
#     4  10  20  37  60  89 121 157 207 259 304 367
#     4  11  24  40  64  93 125 167 210 264 313 371
#
# _framework density 21.636407999999999
#
# number of rings (size 3 to 8) (size 9 to 14) (size 15 to 20)
#    0.000    1.750    1.250    3.750    3.500    3.000 
#    0.000    4.375    0.000    0.000    0.000    0.000 
#    0.000    0.000    0.000    0.000    0.000    0.000 
#
# Total GULP energy -198258.913660 kJ/mol
# GULP energy per Si atom -12391.182104 kJ/mol
# Density = 2.158716 g / cm^3
# Si number density = 21.636408 Si / 1000 Ang^3
#
#
#
# Elastic Constant Matrix: (Units=GPa)
#
#
# Indices 1 2 3 4 5 6 
#
# 1 82.4460 36.2146 31.8920 -16.4080 8.9997 12.4327
# 2 36.2146 94.9481 34.5564 -13.6926 9.3006 14.7851
# 3 31.8920 34.5564 115.4461 -18.7405 17.4298 12.3957
# 4 -16.4080 -13.6926 -18.7405 28.5370 -6.4766 -2.4430
# 5 8.9997 9.3006 17.4298 -6.4766 34.0603 -1.5837
# 6 12.4327 14.7851 12.3957 -2.4430 -1.5837 43.3151
#
#
#
# Elastic Compliance Matrix: (Units=1/GPa)
#
#
# Indices 1 2 3 4 5 6 
#
# 1 0.016342 -0.004234 -0.001883 0.005638 -0.001239 -0.002434
# 2 -0.004234 0.013802 -0.002097 0.002281 -0.001274 -0.002814
# 3 -0.001883 -0.002097 0.011308 0.004270 -0.003992 -0.001885
# 4 0.005638 0.002281 0.004270 0.042959 0.003822 -0.001056
# 5 -0.001239 -0.001274 -0.003992 0.003822 0.032961 0.003354
# 6 -0.002434 -0.002814 -0.001885 -0.001056 0.003354 0.025348
#
#
# Mechanical properties :
#
#
# Convention : Reuss Voigt Hill
#
# Bulk Modulus (GPa) = 39.96291 55.35179 47.65735
# Shear Modulus (GPa) = 29.85242 33.86096 31.85669
#
# Velocity S-wave (km/s) = 3.71850 3.96030 3.84130
# Velocity P-wave (km/s) = 6.07838 6.82277 6.46130
#
# Compressibility (1/GPa) = 0.02502320
#
# Stress axis : x y z
#
# Youngs Moduli (GPa) = 61.19251 72.45271 88.43082
#
# Poissons Ratio (x) = 0.30678 0.16655
# Poissons Ratio (y) = 0.25910 0.18544
# Poissons Ratio (z) = 0.11525 0.15193
#
# Static dielectric constant tensor:
#      x y z
#    x 17.133370 -6.135940 2.317510 
#    y -6.135940 8.159680 -1.159920 
#    z 2.317510 -1.159920 4.386470 
# 
# 
# High freq. dielectric constant tensor:
#      x y z
#    x 1.841100 0.005130 0.000980 
#    y 0.005130 1.853240 0.000820 
#    z 0.000980 0.000820 1.847760 
# 
# From -- ./inp_files/279560.got.cif
#   From: 2010.06.25/outbox.cif.g09.slc.cpg/sg2_140_cif.got.tgz:279560.got - 2010.06.27 13:26:56.
