data_PCOD8042052
_publ_section_title
;
Structure prediction by ZEFSAII (Michael W. Deem and Ramdas Pophale) SiO2 
 PCOD8042052
Probable space group: P -1
;
_chemical_formula_sum "Si O2"
_cell_formula_units_Z 16
_cell_length_a 13.677465
_cell_length_b 11.234886
_cell_length_c 14.902842
_cell_angle_alpha 123.562442
_cell_angle_beta 44.267773
_cell_angle_gamma 148.686666
_cell_volume 819.721960
_symmetry_space_group_name_H-M "P -1"
_symmetry_group_IT_number 2
_symmetry_cell_setting 'triclinic'
loop_
_space_group_symop_operation_xyz
x,y,z
-x,-y,-z
loop_
_atom_site_type_symbol
_atom_site_label
_atom_site_fract_x
_atom_site_fract_y
_atom_site_fract_z
Si Si1 0.319388 0.634739 0.680038
Si Si2 0.715500 0.630097 0.274436
Si Si3 0.826306 0.997890 0.458746
Si Si4 0.265076 0.414354 0.449102
Si Si5 0.518727 0.310554 0.752315
Si Si6 0.130909 0.761594 0.785284
Si Si7 0.982799 0.614868 0.628640
Si Si8 0.833473 0.751858 0.048563
O O1 0.241455 0.491286 0.762063
O O2 0.230693 0.475249 0.586971
O O3 0.201768 0.695370 0.780671
O O4 0.592210 0.871097 0.599791
O O5 0.443798 0.429158 0.353514
O O6 0.858901 0.762397 0.144076
O O7 0.797684 0.813320 0.368214
O O8 0.021645 0.156474 0.471851
O O9 0.889014 0.143625 0.392373
O O10 0.366526 0.602296 0.385304
O O11 0.716972 0.438996 0.747344
O O12 0.418410 0.390131 0.868894
O O13 0.327815 0.037216 0.768827
O O14 0.094926 0.663873 0.670077
O O15 0.893696 0.644928 0.924034
O O16 0.000000 0.500000 0.500000
O O17 0.000000 0.000000 0.000000
#
# Coordination Sequence:
#
# PCOD8042052 Si02
#       8
#     2   2   2   2   2   2   2   2
#     4  11  22  32  50  80 112 143 174 209 260 323
#     4  10  21  36  53  79 106 137 183 217 252 317
#     4  10  19  34  57  79 108 142 170 219 270 304
#     4   9  18  34  56  82 106 135 177 218 263 315
#     4   9  19  35  56  82 106 134 180 222 256 311
#     4  11  21  35  53  76 112 145 170 218 266 301
#     4  11  21  33  56  87 110 134 172 217 271 319
#     4   9  19  38  59  75  98 137 183 223 261 305
#
# _framework density 19.518813999999999
#
# number of rings (size 3 to 8) (size 9 to 14) (size 15 to 20)
#    0.000    2.000    0.000    6.750    0.000    4.500 
#    0.000    3.750    0.000    0.000    0.000   15.750 
#    0.000    0.000    0.000    0.000    0.000    0.000 
#
# Total GULP energy -198345.763079 kJ/mol
# GULP energy per Si atom -12396.610192 kJ/mol
# Density = 1.947439 g / cm^3
# Si number density = 19.518814 Si / 1000 Ang^3
#
#
#
# Elastic Constant Matrix: (Units=GPa)
#
#
# Indices 1 2 3 4 5 6 
#
# 1 129.5439 61.0158 42.5552 -2.5067 -14.5435 -12.3720
# 2 61.0158 83.2366 33.8735 -2.4155 -9.3955 11.5047
# 3 42.5552 33.8735 90.6839 -2.1153 -14.9666 -6.1673
# 4 -2.5067 -2.4155 -2.1153 19.8188 -4.4386 -3.0169
# 5 -14.5435 -9.3955 -14.9666 -4.4386 27.4682 3.5951
# 6 -12.3720 11.5047 -6.1673 -3.0169 3.5951 29.8126
#
#
#
# Elastic Compliance Matrix: (Units=1/GPa)
#
#
# Indices 1 2 3 4 5 6 
#
# 1 0.014839 -0.011304 -0.001641 0.002351 0.002146 0.010160
# 2 -0.011304 0.024478 -0.004619 -0.000893 0.001741 -0.015393
# 3 -0.001641 -0.004619 0.014750 0.002611 0.005519 0.003751
# 4 0.002351 -0.000893 0.002611 0.054163 0.010316 0.006097
# 5 0.002146 0.001741 0.005519 0.010316 0.043179 -0.002803
# 6 0.010160 -0.015393 0.003751 0.006097 -0.002803 0.045430
#
#
# Mechanical properties :
#
#
# Convention : Reuss Voigt Hill
#
# Bulk Modulus (GPa) = 52.80148 64.26148 58.53148
# Shear Modulus (GPa) = 20.98364 26.48791 23.73577
#
# Velocity S-wave (km/s) = 3.28235 3.68781 3.49097
# Velocity P-wave (km/s) = 6.44014 7.15035 6.80452
#
# Compressibility (1/GPa) = 0.01893886
#
# Stress axis : x y z
#
# Youngs Moduli (GPa) = 67.38780 40.85283 67.79767
#
# Poissons Ratio (x) = 0.46179 0.11128
# Poissons Ratio (y) = 0.76174 0.31317
# Poissons Ratio (z) = 0.11060 0.18871
#
# Static dielectric constant tensor:
#      x y z
#    x 3.904660 0.060000 -0.242220 
#    y 0.060000 3.431410 -0.170170 
#    z -0.242220 -0.170170 3.639250 
# 
# 
# High freq. dielectric constant tensor:
#      x y z
#    x 1.773780 -0.000380 -0.009000 
#    y -0.000380 1.744150 -0.008000 
#    z -0.009000 -0.008000 1.739210 
# 
# From -- ./inp_files/457636.got.cif
#   From: 2010.06.25/outbox.cif.g09.slc.cpg/sg2_229_cif.got.tgz:457636.got - 2010.06.27 13:26:56.
