data_PCOD8042870
_publ_section_title
;
Structure prediction by ZEFSAII (Michael W. Deem and Ramdas Pophale) SiO2 
 PCOD8042870
Probable space group: P -1
;
_chemical_formula_sum "Si O2"
_cell_formula_units_Z 12
_cell_length_a 14.860169
_cell_length_b 7.356033
_cell_length_c 5.634027
_cell_angle_alpha 57.659333
_cell_angle_beta 68.856812
_cell_angle_gamma 60.918433
_cell_volume 450.487617
_symmetry_space_group_name_H-M "P -1"
_symmetry_group_IT_number 2
_symmetry_cell_setting 'triclinic'
loop_
_space_group_symop_operation_xyz
x,y,z
-x,-y,-z
loop_
_atom_site_type_symbol
_atom_site_label
_atom_site_fract_x
_atom_site_fract_y
_atom_site_fract_z
Si Si1 0.903955 0.880180 0.942425
Si Si2 0.257371 0.876598 0.448450
Si Si3 0.479607 0.760866 0.186749
Si Si4 0.556383 0.724338 0.641665
Si Si5 0.226286 0.287985 0.502778
Si Si6 0.869214 0.306403 0.027208
O O1 0.850782 0.972618 0.679382
O O2 0.886410 0.090513 0.990487
O O3 0.848895 0.709182 0.210839
O O4 0.026499 0.737080 0.888433
O O5 0.358056 0.798523 0.237981
O O6 0.280800 0.030757 0.523357
O O7 0.231160 0.664151 0.732640
O O8 0.519111 0.629512 0.500066
O O9 0.533172 0.625489 0.987949
O O10 0.500000 0.000000 0.000000
O O11 0.680567 0.636036 0.553229
O O12 0.500000 0.000000 0.500000
O O13 0.154804 0.459069 0.255590
#
# Coordination Sequence:
#
# PCOD8042870 Si02
#       6
#     2   2   2   2   2   2
#     4  10  22  42  64  86 129 166 204 267 327 381
#     4  11  22  38  66  88 124 169 208 264 321 379
#     4  10  19  35  63  91 124 169 214 256 323 383
#     4  10  19  36  62  93 126 167 215 260 318 387
#     4  11  22  38  66  91 123 166 214 261 318 386
#     4  10  24  41  59  96 124 160 215 266 320 383
#
# _framework density 26.637805
#
# number of rings (size 3 to 8) (size 9 to 14) (size 15 to 20)
#    0.000    1.667    3.333    3.000    2.333    2.000 
#    0.000    1.667    0.000    0.000    0.000    0.000 
#    0.000    0.000    0.000    0.000    0.000    0.000 
#
# Total GULP energy -148799.556879 kJ/mol
# GULP energy per Si atom -12399.963073 kJ/mol
# Density = 2.657718 g / cm^3
# Si number density = 26.637805 Si / 1000 Ang^3
#
#
#
# Elastic Constant Matrix: (Units=GPa)
#
#
# Indices 1 2 3 4 5 6 
#
# 1 147.9218 27.4381 28.7584 20.7834 -3.9604 -3.4697
# 2 27.4381 34.7170 13.8900 8.6575 -9.7982 -2.2221
# 3 28.7584 13.8900 157.0934 18.6972 -3.9392 2.8574
# 4 20.7834 8.6575 18.6972 31.0429 -13.8551 9.2629
# 5 -3.9604 -9.7982 -3.9392 -13.8551 54.1156 9.8153
# 6 -3.4697 -2.2221 2.8574 9.2629 9.8153 34.6562
#
#
#
# Elastic Compliance Matrix: (Units=1/GPa)
#
#
# Indices 1 2 3 4 5 6 
#
# 1 0.008755 -0.005762 -0.000505 -0.005888 -0.002458 0.002819
# 2 -0.005762 0.036371 -0.001642 -0.003562 0.004867 0.001464
# 3 -0.000505 -0.001642 0.007052 -0.004076 -0.000979 0.000629
# 4 -0.005888 -0.003562 -0.004076 0.052049 0.015353 -0.018742
# 5 -0.002458 0.004867 -0.000979 0.015353 0.025044 -0.011050
# 6 0.002819 0.001464 0.000629 -0.018742 -0.011050 0.037318
#
#
# Mechanical properties :
#
#
# Convention : Reuss Voigt Hill
#
# Bulk Modulus (GPa) = 27.50299 53.32279 40.41289
# Shear Modulus (GPa) = 25.70341 41.93931 33.82136
#
# Velocity S-wave (km/s) = 3.10969 3.97221 3.56712
# Velocity P-wave (km/s) = 4.82087 6.41086 5.67186
#
# Compressibility (1/GPa) = 0.03635968
#
# Stress axis : x y z
#
# Youngs Moduli (GPa) = 114.21988 27.49475 141.79462
#
# Poissons Ratio (x) = 0.15843 0.07165
# Poissons Ratio (y) = 0.65816 0.23278
# Poissons Ratio (z) = 0.05772 0.04514
#
# Static dielectric constant tensor:
#      x y z
#    x 5.119850 0.152420 0.016900 
#    y 0.152420 4.553130 0.155390 
#    z 0.016900 0.155390 5.324600 
# 
# 
# High freq. dielectric constant tensor:
#      x y z
#    x 2.087260 0.011820 -0.010620 
#    y 0.011820 2.058260 -0.004830 
#    z -0.010620 -0.004830 2.083850 
# 
# From -- ./inp_files/31034.got.cif
#   From: 2010.06.25/outbox.cif.g09.slc.cpg/sg2_16_cif.got.tgz:31034.got - 2010.06.27 13:26:56.
