data_PCOD8042392
_publ_section_title
;
Structure prediction by ZEFSAII (Michael W. Deem and Ramdas Pophale) SiO2 
 PCOD8042392
Probable space group: P -1
;
_chemical_formula_sum "Si O2"
_cell_formula_units_Z 16
_cell_length_a 11.729798
_cell_length_b 16.644271
_cell_length_c 11.240017
_cell_angle_alpha 149.555589
_cell_angle_beta 131.161083
_cell_angle_gamma 51.764471
_cell_volume 829.471889
_symmetry_space_group_name_H-M "P -1"
_symmetry_group_IT_number 2
_symmetry_cell_setting 'triclinic'
loop_
_space_group_symop_operation_xyz
x,y,z
-x,-y,-z
loop_
_atom_site_type_symbol
_atom_site_label
_atom_site_fract_x
_atom_site_fract_y
_atom_site_fract_z
Si Si1 0.203463 0.866778 0.255858
Si Si2 0.480350 0.638995 0.260267
Si Si3 0.183051 0.223611 0.656720
Si Si4 0.944293 0.379907 0.047882
Si Si5 0.920800 0.173572 0.129042
Si Si6 0.793411 0.680197 0.457645
Si Si7 0.713024 0.469028 0.810568
Si Si8 0.144731 0.618730 0.434899
O O1 0.359081 0.783277 0.313882
O O2 0.196420 0.054549 0.516922
O O3 0.055863 0.798399 0.126581
O O4 0.196942 0.835796 0.070619
O O5 0.645276 0.701320 0.467939
O O6 0.434386 0.577145 0.279389
O O7 0.500000 0.500000 0.000000
O O8 0.238903 0.204496 0.533174
O O9 0.007158 0.301719 0.635063
O O10 0.286047 0.338709 0.943732
O O11 0.826794 0.497343 0.200322
O O12 0.108974 0.444070 0.236874
O O13 0.868211 0.384443 0.871065
O O14 0.821313 0.265554 0.285635
O O15 0.057929 0.274072 0.312656
O O16 0.000000 0.000000 0.000000
O O17 0.715450 0.406639 0.595435
#
# Coordination Sequence:
#
# PCOD8042392 Si02
#       8
#     2   2   2   2   2   2   2   2
#     4  11  19  30  56  88 104 135 178 224 269 301
#     4  11  19  36  52  81 106 139 184 221 260 309
#     4   9  16  29  50  81 104 133 172 225 265 301
#     4   8  16  29  49  78 102 129 179 213 263 296
#     4  10  19  35  54  82 108 136 175 219 269 316
#     4   9  17  33  51  74 107 140 170 213 265 309
#     4   9  17  32  53  73 106 146 175 213 265 319
#     4   9  17  32  53  72 109 147 170 210 270 319
#
# _framework density 19.289383000000001
#
# number of rings (size 3 to 8) (size 9 to 14) (size 15 to 20)
#    0.000    3.000    6.250    1.500    0.000    2.500 
#    0.000    5.625    0.000    1.500    0.000    0.000 
#    0.000    0.000    0.000    0.000    0.000    0.000 
#
# Total GULP energy -198212.496755 kJ/mol
# GULP energy per Si atom -12388.281047 kJ/mol
# Density = 1.924548 g / cm^3
# Si number density = 19.289383 Si / 1000 Ang^3
#
#
#
# Elastic Constant Matrix: (Units=GPa)
#
#
# Indices 1 2 3 4 5 6 
#
# 1 130.6019 22.4078 42.7967 4.3422 -5.8060 20.1655
# 2 22.4078 46.6882 30.1909 20.6095 7.3447 13.1118
# 3 42.7967 30.1909 79.6847 11.9100 -0.0531 18.3465
# 4 4.3422 20.6095 11.9100 30.9295 10.1239 10.9832
# 5 -5.8060 7.3447 -0.0531 10.1239 18.8533 -1.1215
# 6 20.1655 13.1118 18.3465 10.9832 -1.1215 21.1906
#
#
#
# Elastic Compliance Matrix: (Units=1/GPa)
#
#
# Indices 1 2 3 4 5 6 
#
# 1 0.010263 -0.002564 -0.003474 0.003407 0.001913 -0.006836
# 2 -0.002564 0.039338 -0.009809 -0.018475 -0.006470 -0.004175
# 3 -0.003474 -0.009809 0.019853 0.002166 0.001116 -0.008876
# 4 0.003407 -0.018475 0.002166 0.061558 -0.026408 -0.026989
# 5 0.001913 -0.006470 0.001116 -0.026408 0.071446 0.018685
# 6 -0.006836 -0.004175 -0.008876 -0.026989 0.018685 0.078941
#
#
# Mechanical properties :
#
#
# Convention : Reuss Voigt Hill
#
# Bulk Modulus (GPa) = 26.48404 49.75171 38.11787
# Shear Modulus (GPa) = 15.35254 24.96663 20.15959
#
# Velocity S-wave (km/s) = 2.82424 3.60157 3.23633
# Velocity P-wave (km/s) = 4.93911 6.56836 5.81111
#
# Compressibility (1/GPa) = 0.03775859
#
# Stress axis : x y z
#
# Youngs Moduli (GPa) = 97.44152 25.42077 50.37144
#
# Poissons Ratio (x) = 0.06517 0.17501
# Poissons Ratio (y) = 0.24981 0.49410
# Poissons Ratio (z) = 0.33855 0.24936
#
# Static dielectric constant tensor:
#      x y z
#    x 3.543460 0.246710 0.205820 
#    y 0.246710 3.195050 0.138960 
#    z 0.205820 0.138960 3.513820 
# 
# 
# High freq. dielectric constant tensor:
#      x y z
#    x 1.733290 0.025340 0.011300 
#    y 0.025340 1.709140 0.013740 
#    z 0.011300 0.013740 1.736330 
# 
# From -- ./inp_files/436224.got.cif
#   From: 2010.06.25/outbox.cif.g09.slc.cpg/sg2_219_cif.got.tgz:436224.got - 2010.06.27 13:26:56.
