data_PCOD8042502
_publ_section_title
;
Structure prediction by ZEFSAII (Michael W. Deem and Ramdas Pophale) SiO2 
 PCOD8042502
Probable space group: P -1
;
_chemical_formula_sum "Si O2"
_cell_formula_units_Z 14
_cell_length_a 8.435575
_cell_length_b 6.582121
_cell_length_c 17.943719
_cell_angle_alpha 50.460448
_cell_angle_beta 69.082107
_cell_angle_gamma 76.199748
_cell_volume 717.610740
_symmetry_space_group_name_H-M "P -1"
_symmetry_group_IT_number 2
_symmetry_cell_setting 'triclinic'
loop_
_space_group_symop_operation_xyz
x,y,z
-x,-y,-z
loop_
_atom_site_type_symbol
_atom_site_label
_atom_site_fract_x
_atom_site_fract_y
_atom_site_fract_z
Si Si1 0.372658 0.178116 0.527940
Si Si2 0.312157 0.921012 0.031044
Si Si3 0.046111 0.233878 0.094331
Si Si4 0.795479 0.867384 0.154343
Si Si5 0.084525 0.458162 0.189720
Si Si6 0.098375 0.847677 0.583556
Si Si7 0.618421 0.598903 0.371559
O O1 0.428900 0.476705 0.428979
O O2 0.382184 0.172108 0.618393
O O3 0.500000 0.000000 0.500000
O O4 0.185485 0.084745 0.559765
O O5 0.260021 0.620868 0.131277
O O6 0.205110 0.121612 0.050415
O O7 0.500000 0.000000 0.000000
O O8 0.280690 0.956724 0.939917
O O9 0.100126 0.257256 0.165666
O O10 0.885703 0.044207 0.160132
O O11 0.000000 0.500000 0.000000
O O12 0.645860 0.720154 0.257042
O O13 0.932124 0.660647 0.146219
O O14 0.042560 0.298415 0.308851
O O15 0.236359 0.628701 0.582789
O O16 0.000000 0.000000 0.500000
#
# Coordination Sequence:
#
# PCOD8042502 Si02
#       7
#     2   2   2   2   2   2   2
#     4   9  18  36  54  79 107 142 186 227 270 324
#     4  11  23  36  53  85 120 140 175 233 285 323
#     4  11  18  36  62  79 105 152 191 220 264 334
#     4  10  19  35  57  83 106 145 187 223 271 333
#     4  10  20  38  57  79 108 148 190 224 264 337
#     4  10  21  35  56  83 110 144 186 228 274 323
#     4   9  19  35  58  79 110 143 185 230 269 323
#
# _framework density 19.509184000000001
#
# number of rings (size 3 to 8) (size 9 to 14) (size 15 to 20)
#    0.000    2.000    2.857    1.714    0.000    2.286 
#    0.000    4.286    0.000    0.000    0.000    0.000 
#    0.000    0.000    0.000    0.000    0.000    0.000 
#
# Total GULP energy -173474.543472 kJ/mol
# GULP energy per Si atom -12391.038819 kJ/mol
# Density = 1.946478 g / cm^3
# Si number density = 19.509184 Si / 1000 Ang^3
#
#
#
# Elastic Constant Matrix: (Units=GPa)
#
#
# Indices 1 2 3 4 5 6 
#
# 1 91.0657 32.5883 62.7470 -6.1612 -19.6952 28.0588
# 2 32.5883 113.3952 35.2262 9.5434 -2.6111 23.4868
# 3 62.7470 35.2262 137.3740 2.6102 -14.8940 12.4621
# 4 -6.1612 9.5434 2.6102 25.9318 1.5367 -2.6657
# 5 -19.6952 -2.6111 -14.8940 1.5367 31.6222 -7.9339
# 6 28.0588 23.4868 12.4621 -2.6657 -7.9339 26.1268
#
#
#
# Elastic Compliance Matrix: (Units=1/GPa)
#
#
# Indices 1 2 3 4 5 6 
#
# 1 0.025112 -0.000585 -0.008941 0.004677 0.006180 -0.019825
# 2 -0.000585 0.012262 -0.002098 -0.005385 -0.002785 -0.010790
# 3 -0.008941 -0.002098 0.011521 -0.001954 0.001335 0.006199
# 4 0.004677 -0.005385 -0.001954 0.042350 0.000825 0.005321
# 5 0.006180 -0.002785 0.001335 0.000825 0.037513 0.006706
# 6 -0.019825 -0.010790 0.006199 0.005321 0.006706 0.068888
#
#
# Mechanical properties :
#
#
# Convention : Reuss Voigt Hill
#
# Bulk Modulus (GPa) = 38.98909 66.99534 52.99221
# Shear Modulus (GPa) = 21.79181 30.82104 26.30643
#
# Velocity S-wave (km/s) = 3.34579 3.97901 3.67606
# Velocity P-wave (km/s) = 5.91220 7.45151 6.72603
#
# Compressibility (1/GPa) = 0.02564820
#
# Stress axis : x y z
#
# Youngs Moduli (GPa) = 39.82135 81.55005 86.80035
#
# Poissons Ratio (x) = 0.04767 0.77606
# Poissons Ratio (y) = 0.02328 0.18213
# Poissons Ratio (z) = 0.35603 0.17111
#
# Static dielectric constant tensor:
#      x y z
#    x 3.420590 0.173270 -0.340960 
#    y 0.173270 4.171240 -0.105670 
#    z -0.340960 -0.105670 3.701290 
# 
# 
# High freq. dielectric constant tensor:
#      x y z
#    x 1.726000 0.019990 -0.031840 
#    y 0.019990 1.770320 0.007530 
#    z -0.031840 0.007530 1.767890 
# 
# From -- ./inp_files/34984.got.cif
#   From: 2010.06.25/outbox.cif.g09.slc.cpg/sg2_18_cif.got.tgz:34984.got - 2010.06.27 13:26:56.
