data_PCOD8042397
_publ_section_title
;
Structure prediction by ZEFSAII (Michael W. Deem and Ramdas Pophale) SiO2 
 PCOD8042397
Probable space group: P -1
;
_chemical_formula_sum "Si O2"
_cell_formula_units_Z 16
_cell_length_a 25.640318
_cell_length_b 27.802526
_cell_length_c 12.647323
_cell_angle_alpha 153.812289
_cell_angle_beta 152.041927
_cell_angle_gamma 9.593344
_cell_volume 662.945358
_symmetry_space_group_name_H-M "P -1"
_symmetry_group_IT_number 2
_symmetry_cell_setting 'triclinic'
loop_
_space_group_symop_operation_xyz
x,y,z
-x,-y,-z
loop_
_atom_site_type_symbol
_atom_site_label
_atom_site_fract_x
_atom_site_fract_y
_atom_site_fract_z
Si Si1 0.760258 0.505309 0.039329
Si Si2 0.306734 0.899729 0.567945
Si Si3 0.426031 0.531089 0.269210
Si Si4 0.618952 0.591292 0.732989
Si Si5 0.774441 0.495445 0.431344
Si Si6 0.112653 0.839490 0.106317
Si Si7 0.475749 0.888048 0.478892
Si Si8 0.699347 0.849124 0.661237
O O1 0.528744 0.772191 0.236253
O O2 0.134790 0.183426 0.096035
O O3 0.711140 0.419667 0.786360
O O4 0.654667 0.639247 0.994353
O O5 0.407027 0.834699 0.740250
O O6 0.541885 0.742021 0.595763
O O7 0.309965 0.767045 0.288856
O O8 0.961978 0.261882 0.646512
O O9 0.483446 0.600300 0.550134
O O10 0.151513 0.780737 0.183988
O O11 0.744522 0.191202 0.116800
O O12 0.708730 0.628416 0.472399
O O13 0.743287 0.394429 0.159403
O O14 0.127934 0.195886 0.507910
O O15 0.532370 0.963766 0.698271
O O16 0.000000 0.500000 0.500000
O O17 0.500000 0.000000 0.500000
#
# Coordination Sequence:
#
# PCOD8042397 Si02
#       8
#     2   2   2   2   2   2   2   2
#     4  11  21  40  63  84 124 152 190 240 302 353
#     4  10  23  38  56  84 119 160 202 233 281 341
#     4  10  20  34  56  88 120 150 195 232 287 352
#     4  10  23  38  57  87 121 161 195 230 279 359
#     4  12  20  38  61  82 119 153 196 248 291 342
#     4  10  19  35  54  85 117 152 196 242 284 342
#     4  11  23  36  61  92 112 146 196 249 305 335
#     4  10  23  39  59  90 120 147 190 247 299 353
#
# _framework density 24.134720000000002
#
# number of rings (size 3 to 8) (size 9 to 14) (size 15 to 20)
#    0.000    1.500    2.500    3.000    0.000    4.000 
#    0.000    8.750    0.000    4.500    0.000    0.000 
#    0.000    0.000    0.000    0.000    0.000    0.000 
#
# Total GULP energy -198307.673117 kJ/mol
# GULP energy per Si atom -12394.229570 kJ/mol
# Density = 2.407979 g / cm^3
# Si number density = 24.134720 Si / 1000 Ang^3
#
#
#
# Elastic Constant Matrix: (Units=GPa)
#
#
# Indices 1 2 3 4 5 6 
#
# 1 91.2000 15.0746 21.3488 -10.4828 -0.7622 -13.6448
# 2 15.0746 85.1615 16.9550 -29.0436 3.6589 2.3540
# 3 21.3488 16.9550 63.9075 -13.4463 -6.5118 -16.3442
# 4 -10.4828 -29.0436 -13.4463 22.0071 -1.5581 2.8883
# 5 -0.7622 3.6589 -6.5118 -1.5581 17.3620 -5.0041
# 6 -13.6448 2.3540 -16.3442 2.8883 -5.0041 41.1955
#
#
#
# Elastic Compliance Matrix: (Units=1/GPa)
#
#
# Indices 1 2 3 4 5 6 
#
# 1 0.012493 -0.000818 -0.002410 0.003058 0.000995 0.003135
# 2 -0.000818 0.022072 -0.001147 0.028349 -0.003854 -0.004443
# 3 -0.002410 -0.001147 0.022551 0.010804 0.012138 0.008931
# 4 0.003058 0.028349 0.010804 0.091592 0.005846 -0.002032
# 5 0.000995 -0.003854 0.012138 0.005846 0.067315 0.013132
# 6 0.003135 -0.004443 0.008931 -0.002032 0.013132 0.030848
#
#
# Mechanical properties :
#
#
# Convention : Reuss Voigt Hill
#
# Bulk Modulus (GPa) = 20.67542 38.55843 29.61692
# Shear Modulus (GPa) = 18.39972 28.57231 23.48602
#
# Velocity S-wave (km/s) = 2.76411 3.44447 3.12287
# Velocity P-wave (km/s) = 4.33271 5.64182 5.03004
#
# Compressibility (1/GPa) = 0.04836662
#
# Stress axis : x y z
#
# Youngs Moduli (GPa) = 80.04422 45.30561 44.34386
#
# Poissons Ratio (x) = 0.03707 0.10686
# Poissons Ratio (y) = 0.06550 0.05085
# Poissons Ratio (z) = 0.19289 0.05196
#
# Static dielectric constant tensor:
#      x y z
#    x 5.634320 -0.800480 2.373240 
#    y -0.800480 4.880870 -1.615380 
#    z 2.373240 -1.615380 7.471180 
# 
# 
# High freq. dielectric constant tensor:
#      x y z
#    x 1.951340 0.006340 0.007860 
#    y 0.006340 1.974000 -0.014120 
#    z 0.007860 -0.014120 1.932760 
# 
# From -- ./inp_files/369038.got.cif
#   From: 2010.06.25/outbox.cif.g09.slc.cpg/sg2_185_cif.got.tgz:369038.got - 2010.06.27 13:26:56.
