data_PCOD8042997
_publ_section_title
;
Structure prediction by ZEFSAII (Michael W. Deem and Ramdas Pophale) SiO2 
 PCOD8042997
Probable space group: P -1
;
_chemical_formula_sum "Si O2"
_cell_formula_units_Z 14
_cell_length_a 6.935863
_cell_length_b 9.444513
_cell_length_c 21.847343
_cell_angle_alpha 141.608351
_cell_angle_beta 119.697940
_cell_angle_gamma 52.456777
_cell_volume 704.245727
_symmetry_space_group_name_H-M "P -1"
_symmetry_group_IT_number 2
_symmetry_cell_setting 'triclinic'
loop_
_space_group_symop_operation_xyz
x,y,z
-x,-y,-z
loop_
_atom_site_type_symbol
_atom_site_label
_atom_site_fract_x
_atom_site_fract_y
_atom_site_fract_z
Si Si1 0.434669 0.362021 0.825914
Si Si2 0.634013 0.173711 0.096233
Si Si3 0.148536 0.469516 0.597610
Si Si4 0.739237 0.364435 0.453565
Si Si5 0.442580 0.660054 0.292567
Si Si6 0.964990 0.012728 0.809802
Si Si7 0.096453 0.144079 0.748791
O O1 0.365757 0.661093 0.908207
O O2 0.475969 0.241875 0.723396
O O3 0.207551 0.343983 0.818783
O O4 0.687298 0.200786 0.846181
O O5 0.489559 0.367443 0.193160
O O6 0.899134 0.010230 0.111516
O O7 0.500000 0.000000 0.000000
O O8 0.243688 0.471095 0.544818
O O9 0.394487 0.303125 0.615971
O O10 0.999396 0.741772 0.697367
O O11 0.970694 0.324973 0.520146
O O12 0.500000 0.500000 0.500000
O O13 0.723699 0.117451 0.340142
O O14 0.156655 0.802428 0.307749
O O15 0.065508 0.141534 0.816498
#
# Coordination Sequence:
#
# PCOD8042997 Si02
#       7
#     2   2   2   2   2   2   2
#     4   9  19  35  56  81 108 140 183 218 269 322
#     4   9  19  38  60  81 108 142 180 223 271 325
#     4   9  18  35  51  76 107 148 182 216 271 315
#     4  10  20  31  52  79 107 141 189 225 258 315
#     4   8  19  36  55  72 110 143 174 221 272 322
#     4   9  18  37  58  75 110 152 171 219 276 321
#     4  10  19  36  55  80 109 145 182 220 271 322
#
# _framework density 19.879424
#
# number of rings (size 3 to 8) (size 9 to 14) (size 15 to 20)
#    0.857    2.000    0.000    0.857    0.000    3.429 
#    7.714    2.857    0.000    0.000    0.000    0.000 
#    0.000    0.000    0.000    0.000    0.000    0.000 
#
# Total GULP energy -173437.328591 kJ/mol
# GULP energy per Si atom -12388.380614 kJ/mol
# Density = 1.983418 g / cm^3
# Si number density = 19.879424 Si / 1000 Ang^3
#
#
#
# Elastic Constant Matrix: (Units=GPa)
#
#
# Indices 1 2 3 4 5 6 
#
# 1 87.5992 28.1068 9.1804 -1.1154 16.5603 -1.8925
# 2 28.1068 95.8989 11.2826 -18.6575 14.0783 -12.7893
# 3 9.1804 11.2826 50.9496 -10.0954 14.7806 1.3670
# 4 -1.1154 -18.6575 -10.0954 26.5157 -0.8024 14.4590
# 5 16.5603 14.0783 14.7806 -0.8024 19.5927 5.4577
# 6 -1.8925 -12.7893 1.3670 14.4590 5.4577 24.7695
#
#
#
# Elastic Compliance Matrix: (Units=1/GPa)
#
#
# Indices 1 2 3 4 5 6 
#
# 1 0.014602 -0.002679 0.000635 -0.004001 -0.012386 0.004762
# 2 -0.002679 0.014805 0.001755 0.007838 -0.010811 0.005150
# 3 0.000635 0.001755 0.028065 0.013275 -0.021417 -0.003624
# 4 -0.004001 0.007838 0.013275 0.068366 0.000866 -0.037091
# 5 -0.012386 -0.010811 -0.021417 0.000866 0.092795 -0.026299
# 6 0.004762 0.005150 -0.003624 -0.037091 -0.026299 0.071041
#
#
# Mechanical properties :
#
#
# Convention : Reuss Voigt Hill
#
# Bulk Modulus (GPa) = 17.57640 36.84304 27.20972
# Shear Modulus (GPa) = 16.16987 26.56746 21.36866
#
# Velocity S-wave (km/s) = 2.85511 3.65969 3.28214
# Velocity P-wave (km/s) = 4.44179 6.03583 5.29909
#
# Compressibility (1/GPa) = 0.05689449
#
# Stress axis : x y z
#
# Youngs Moduli (GPa) = 68.48224 67.54374 35.63185
#
# Poissons Ratio (x) = 0.18098 -0.02263
# Poissons Ratio (y) = 0.18349 -0.06255
# Poissons Ratio (z) = -0.04349 -0.11857
#
# Static dielectric constant tensor:
#      x y z
#    x 3.308170 -0.064060 0.114090 
#    y -0.064060 3.752170 -0.107850 
#    z 0.114090 -0.107850 3.289990 
# 
# 
# High freq. dielectric constant tensor:
#      x y z
#    x 1.755290 -0.010700 0.011010 
#    y -0.010700 1.777230 -0.006950 
#    z 0.011010 -0.006950 1.751780 
# 
# From -- ./inp_files/55138.got.cif
#   From: 2010.06.25/outbox.cif.g09.slc.cpg/sg2_28_cif.got.tgz:55138.got - 2010.06.27 13:26:56.
