data_PCOD8042285
_publ_section_title
;
Structure prediction by ZEFSAII (Michael W. Deem and Ramdas Pophale) SiO2 
 PCOD8042285
Probable space group: P -1
;
_chemical_formula_sum "Si O2"
_cell_formula_units_Z 16
_cell_length_a 11.440512
_cell_length_b 8.709315
_cell_length_c 15.300323
_cell_angle_alpha 45.426532
_cell_angle_beta 120.979458
_cell_angle_gamma 128.900666
_cell_volume 837.588832
_symmetry_space_group_name_H-M "P -1"
_symmetry_group_IT_number 2
_symmetry_cell_setting 'triclinic'
loop_
_space_group_symop_operation_xyz
x,y,z
-x,-y,-z
loop_
_atom_site_type_symbol
_atom_site_label
_atom_site_fract_x
_atom_site_fract_y
_atom_site_fract_z
Si Si1 0.319228 0.139627 0.577362
Si Si2 0.057284 0.057672 0.631613
Si Si3 0.555150 0.437721 0.680374
Si Si4 0.294391 0.401546 0.708417
Si Si5 0.871044 0.707949 0.150386
Si Si6 0.057174 0.263042 0.023631
Si Si7 0.848331 0.306058 0.407627
Si Si8 0.140122 0.454074 0.165537
O O1 0.153749 0.108455 0.558956
O O2 0.441955 0.202620 0.677248
O O3 0.378468 0.339220 0.446947
O O4 0.291178 0.889633 0.623561
O O5 0.177167 0.153947 0.717920
O O6 0.953037 0.197904 0.534177
O O7 0.956774 0.775736 0.720080
O O8 0.462871 0.490415 0.701680
O O9 0.690935 0.398602 0.791155
O O10 0.284688 0.353685 0.829457
O O11 0.233186 0.604042 0.584452
O O12 0.940912 0.532577 0.287792
O O13 0.838164 0.650755 0.057664
O O14 0.988591 0.977793 0.109093
O O15 0.153564 0.368489 0.106350
O O16 0.927145 0.353908 0.933984
#
# Coordination Sequence:
#
# PCOD8042285 Si02
#       8
#     2   2   2   2   2   2   2   2
#     4  10  21  35  57  84 122 146 182 231 283 348
#     4  11  19  35  60  91 111 143 191 235 288 327
#     4  10  22  38  52  85 121 152 180 227 288 342
#     4   9  21  36  55  81 122 148 176 231 284 345
#     4   9  20  38  58  82 115 143 187 238 284 321
#     4  10  21  38  61  85 108 149 196 243 265 322
#     4  10  19  34  62  84 111 152 183 234 285 337
#     4  11  21  37  63  85 112 145 197 234 277 328
#
# _framework density 19.102453000000001
#
# number of rings (size 3 to 8) (size 9 to 14) (size 15 to 20)
#    0.750    1.250    2.500    1.500    1.750    0.500 
#    0.000    3.750    0.000    0.000    0.000    0.000 
#    0.000    0.000    0.000    0.000    0.000    0.000 
#
# Total GULP energy -198214.672013 kJ/mol
# GULP energy per Si atom -12388.417001 kJ/mol
# Density = 1.905897 g / cm^3
# Si number density = 19.102453 Si / 1000 Ang^3
#
#
#
# Elastic Constant Matrix: (Units=GPa)
#
#
# Indices 1 2 3 4 5 6 
#
# 1 69.2710 19.3545 18.0451 19.3442 -15.4595 13.5177
# 2 19.3545 81.8131 23.6324 8.7741 12.6721 4.5578
# 3 18.0451 23.6324 77.9979 4.1242 -5.6754 10.0309
# 4 19.3442 8.7741 4.1242 26.7949 -9.0499 1.9284
# 5 -15.4595 12.6721 -5.6754 -9.0499 35.3521 6.0527
# 6 13.5177 4.5578 10.0309 1.9284 6.0527 24.4090
#
#
#
# Elastic Compliance Matrix: (Units=1/GPa)
#
#
# Indices 1 2 3 4 5 6 
#
# 1 0.024852 -0.005673 -0.000659 -0.010674 0.012582 -0.014709
# 2 -0.005673 0.017091 -0.005133 -0.005024 -0.011632 0.005341
# 3 -0.000659 -0.005133 0.015700 0.002178 0.005783 -0.006735
# 4 -0.010674 -0.005024 0.002178 0.049869 0.010343 -0.000550
# 5 0.012582 -0.011632 0.005783 0.010343 0.044804 -0.019099
# 6 -0.014709 0.005341 -0.006735 -0.000550 -0.019099 0.055664
#
#
# Mechanical properties :
#
#
# Convention : Reuss Voigt Hill
#
# Bulk Modulus (GPa) = 28.80881 39.01621 33.91251
# Shear Modulus (GPa) = 20.61994 28.51453 24.56724
#
# Velocity S-wave (km/s) = 3.28905 3.86776 3.59008
# Velocity P-wave (km/s) = 5.43486 6.35729 5.91409
#
# Compressibility (1/GPa) = 0.03471160
#
# Stress axis : x y z
#
# Youngs Moduli (GPa) = 40.23808 58.51098 63.69255
#
# Poissons Ratio (x) = 0.33195 0.04198
# Poissons Ratio (y) = 0.22829 0.32696
# Poissons Ratio (z) = 0.02652 0.30036
#
# Static dielectric constant tensor:
#      x y z
#    x 3.522550 -0.204750 -0.260520 
#    y -0.204750 3.661000 0.049720 
#    z -0.260520 0.049720 3.430640 
# 
# 
# High freq. dielectric constant tensor:
#      x y z
#    x 1.731310 -0.019610 -0.021230 
#    y -0.019610 1.745630 -0.004080 
#    z -0.021230 -0.004080 1.730470 
# 
# From -- ./inp_files/351727.got.cif
#   From: 2010.06.25/outbox.cif.g09.slc.cpg/sg2_176_cif.got.tgz:351727.got - 2010.06.27 13:26:56.
