data_PCOD8042530
_publ_section_title
;
Structure prediction by ZEFSAII (Michael W. Deem and Ramdas Pophale) SiO2 
 PCOD8042530
Probable space group: P -1
;
_chemical_formula_sum "Si O2"
_cell_formula_units_Z 16
_cell_length_a 8.890933
_cell_length_b 8.849114
_cell_length_c 12.793781
_cell_angle_alpha 131.679863
_cell_angle_beta 86.868038
_cell_angle_gamma 79.668897
_cell_volume 718.584520
_symmetry_space_group_name_H-M "P -1"
_symmetry_group_IT_number 2
_symmetry_cell_setting 'triclinic'
loop_
_space_group_symop_operation_xyz
x,y,z
-x,-y,-z
loop_
_atom_site_type_symbol
_atom_site_label
_atom_site_fract_x
_atom_site_fract_y
_atom_site_fract_z
Si Si1 0.256668 0.098033 0.509506
Si Si2 0.568791 0.328527 0.331968
Si Si3 0.503245 0.067806 0.911831
Si Si4 0.056850 0.590167 0.370912
Si Si5 0.484683 0.681794 0.344406
Si Si6 0.703591 0.485989 0.860629
Si Si7 0.211667 0.909429 0.207769
Si Si8 0.916279 0.263225 0.334601
O O1 0.356615 0.257272 0.611653
O O2 0.072915 0.213567 0.591173
O O3 0.331376 0.882002 0.474437
O O4 0.266315 0.040873 0.359554
O O5 0.500000 0.500000 0.500000
O O6 0.497571 0.456368 0.290606
O O7 0.756207 0.242476 0.283188
O O8 0.508539 0.123012 0.250491
O O9 0.666441 0.115652 0.903464
O O10 0.358662 0.275392 0.986116
O O11 0.500000 0.000000 0.000000
O O12 0.199918 0.513651 0.250148
O O13 0.120261 0.647803 0.505485
O O14 0.976079 0.409497 0.318889
O O15 0.443113 0.617924 0.199882
O O16 0.805791 0.321452 0.865589
O O17 0.041663 0.034532 0.227969
#
# Coordination Sequence:
#
# PCOD8042530 Si02
#       8
#     2   2   2   2   2   2   2   2
#     4   9  19  36  63  92 129 161 211 262 314 366
#     4  12  24  39  66  95 127 164 215 263 313 372
#     4  12  25  43  66  95 127 168 215 258 320 385
#     4  10  20  37  64  94 128 167 208 260 319 377
#     4  10  19  35  57  94 124 163 207 260 311 363
#     4  11  23  41  63  90 129 171 213 256 320 382
#     4  10  23  42  64  91 127 171 213 261 316 375
#     4  10  22  38  63  95 129 164 210 265 315 370
#
# _framework density 22.265998
#
# number of rings (size 3 to 8) (size 9 to 14) (size 15 to 20)
#    0.000    1.500    2.500    2.625    3.500    5.500 
#    0.000    4.375    0.000    0.000    0.000    0.000 
#    0.000    0.000    0.000    0.000    0.000    0.000 
#
# Total GULP energy -198209.820373 kJ/mol
# GULP energy per Si atom -12388.113773 kJ/mol
# Density = 2.221532 g / cm^3
# Si number density = 22.265998 Si / 1000 Ang^3
#
#
#
# Elastic Constant Matrix: (Units=GPa)
#
#
# Indices 1 2 3 4 5 6 
#
# 1 76.8988 43.3073 25.7037 12.9968 -16.5798 -13.0975
# 2 43.3073 117.0814 43.4836 31.3367 -19.5641 -3.2672
# 3 25.7037 43.4836 98.2852 30.2085 -17.7480 3.8157
# 4 12.9968 31.3367 30.2085 43.6817 3.8061 -8.7882
# 5 -16.5798 -19.5641 -17.7480 3.8061 34.2848 3.7602
# 6 -13.0975 -3.2672 3.8157 -8.7882 3.7602 35.8218
#
#
#
# Elastic Compliance Matrix: (Units=1/GPa)
#
#
# Indices 1 2 3 4 5 6 
#
# 1 0.018606 -0.005440 -0.002262 0.000865 0.003930 0.006347
# 2 -0.005440 0.014370 -0.000643 -0.009565 0.006700 -0.003660
# 3 -0.002262 -0.000643 0.016962 -0.012797 0.009490 -0.006828
# 4 0.000865 -0.009565 -0.012797 0.042539 -0.017825 0.013114
# 5 0.003930 0.006700 0.009490 -0.017825 0.042639 -0.007812
# 6 0.006347 -0.003660 -0.006828 0.013114 -0.007812 0.034668
#
#
# Mechanical properties :
#
#
# Convention : Reuss Voigt Hill
#
# Bulk Modulus (GPa) = 30.07636 57.47274 43.77455
# Shear Modulus (GPa) = 25.30937 34.74239 30.02588
#
# Velocity S-wave (km/s) = 3.37513 3.95439 3.67619
# Velocity P-wave (km/s) = 5.35964 6.83502 6.14179
#
# Compressibility (1/GPa) = 0.03324870
#
# Stress axis : x y z
#
# Youngs Moduli (GPa) = 53.74625 69.59178 58.95441
#
# Poissons Ratio (x) = 0.37857 0.13334
# Poissons Ratio (y) = 0.29237 0.03790
# Poissons Ratio (z) = 0.12156 0.04474
#
# Static dielectric constant tensor:
#      x y z
#    x 3.925560 -0.083310 -0.104750 
#    y -0.083310 3.784170 0.499170 
#    z -0.104750 0.499170 3.782250 
# 
# 
# High freq. dielectric constant tensor:
#      x y z
#    x 1.867430 -0.012140 -0.011740 
#    y -0.012140 1.891440 0.028200 
#    z -0.011740 0.028200 1.851370 
# 
# From -- ./inp_files/493865.got.cif
#   From: 2010.06.25/outbox.cif.g09.slc.cpg/sg2_247_cif.got.tgz:493865.got - 2010.06.27 13:26:56.
