data_PCOD8042224
_publ_section_title
;
Structure prediction by ZEFSAII (Michael W. Deem and Ramdas Pophale) SiO2 
 PCOD8042224
Probable space group: P -1
;
_chemical_formula_sum "Si O2"
_cell_formula_units_Z 16
_cell_length_a 10.910995
_cell_length_b 9.096446
_cell_length_c 8.432393
_cell_angle_alpha 69.285915
_cell_angle_beta 104.558036
_cell_angle_gamma 93.255498
_cell_volume 757.213750
_symmetry_space_group_name_H-M "P -1"
_symmetry_group_IT_number 2
_symmetry_cell_setting 'triclinic'
loop_
_space_group_symop_operation_xyz
x,y,z
-x,-y,-z
loop_
_atom_site_type_symbol
_atom_site_label
_atom_site_fract_x
_atom_site_fract_y
_atom_site_fract_z
Si Si1 0.139001 0.944746 0.614316
Si Si2 0.081585 0.300939 0.014939
Si Si3 0.446382 0.632797 0.050611
Si Si4 0.841504 0.360807 0.106042
Si Si5 0.709942 0.821405 0.629857
Si Si6 0.445078 0.060441 0.181120
Si Si7 0.601778 0.738653 0.324508
Si Si8 0.213464 0.104805 0.884191
O O1 0.157706 0.754275 0.694500
O O2 0.240101 0.025202 0.504145
O O3 0.156232 0.984122 0.789995
O O4 0.000000 0.000000 0.500000
O O5 0.177843 0.266238 0.204729
O O6 0.937924 0.292186 0.029775
O O7 0.110575 0.471130 0.886667
O O8 0.099967 0.174818 0.929311
O O9 0.296860 0.619134 0.023850
O O10 0.479913 0.803867 0.933449
O O11 0.500000 0.500000 0.000000
O O12 0.508287 0.616742 0.255309
O O13 0.594013 0.880868 0.679253
O O14 0.655744 0.693627 0.534502
O O15 0.536304 0.909357 0.270365
O O16 0.318627 0.016833 0.061780
O O17 0.721538 0.752527 0.241179
#
# Coordination Sequence:
#
# PCOD8042224 Si02
#       8
#     2   2   2   2   2   2   2   2
#     4  11  21  38  60  92 120 151 196 251 295 338
#     4  10  22  41  62  83 117 165 196 236 302 355
#     4  11  21  37  61  87 118 159 202 236 289 359
#     4  11  22  39  63  86 119 156 202 242 289 358
#     4  10  20  38  62  89 124 152 193 251 303 346
#     4  10  19  36  59  89 114 161 196 240 296 357
#     4  10  19  34  60  86 118 155 195 245 298 345
#     4   9  19  36  60  83 119 157 200 238 294 361
#
# _framework density 21.130098
#
# number of rings (size 3 to 8) (size 9 to 14) (size 15 to 20)
#    0.000    1.750    1.250    6.375    0.000    0.500 
#    2.250    3.125    5.500    3.000    0.000    0.000 
#    0.000    0.000    0.000    0.000    0.000    0.000 
#
# Total GULP energy -198337.277410 kJ/mol
# GULP energy per Si atom -12396.079838 kJ/mol
# Density = 2.108200 g / cm^3
# Si number density = 21.130098 Si / 1000 Ang^3
#
#
#
# Elastic Constant Matrix: (Units=GPa)
#
#
# Indices 1 2 3 4 5 6 
#
# 1 125.5414 20.7688 21.9282 11.8871 1.3577 -7.9192
# 2 20.7688 52.3115 24.6018 -0.2249 3.2104 0.1630
# 3 21.9282 24.6018 88.0676 16.8318 -0.5434 -3.5485
# 4 11.8871 -0.2249 16.8318 37.2391 1.4240 -5.3034
# 5 1.3577 3.2104 -0.5434 1.4240 29.4096 1.0856
# 6 -7.9192 0.1630 -3.5485 -5.3034 1.0856 32.7550
#
#
#
# Elastic Compliance Matrix: (Units=1/GPa)
#
#
# Indices 1 2 3 4 5 6 
#
# 1 0.008960 -0.003173 -0.000845 -0.002250 -0.000038 0.001728
# 2 -0.003173 0.023705 -0.006678 0.004158 -0.002735 -0.000844
# 3 -0.000845 -0.006678 0.014677 -0.006408 0.001337 0.000337
# 4 -0.002250 0.004158 -0.006408 0.031122 -0.002118 0.003850
# 5 -0.000038 -0.002735 0.001337 -0.002118 0.034479 -0.001336
# 6 0.001728 -0.000844 0.000337 0.003850 -0.001336 0.031656
#
#
# Mechanical properties :
#
#
# Convention : Reuss Voigt Hill
#
# Bulk Modulus (GPa) = 38.53418 44.50201 41.51810
# Shear Modulus (GPa) = 28.63006 33.12219 30.87612
#
# Velocity S-wave (km/s) = 3.68495 3.96351 3.82676
# Velocity P-wave (km/s) = 6.03169 6.48479 6.26234
#
# Compressibility (1/GPa) = 0.02595098
#
# Stress axis : x y z
#
# Youngs Moduli (GPa) = 111.60162 42.18580 68.13229
#
# Poissons Ratio (x) = 0.13384 0.05760
# Poissons Ratio (y) = 0.35407 0.45496
# Poissons Ratio (z) = 0.09435 0.28170
#
# Static dielectric constant tensor:
#      x y z
#    x 4.009060 0.065750 0.061240 
#    y 0.065750 3.762760 0.175500 
#    z 0.061240 0.175500 4.071660 
# 
# 
# High freq. dielectric constant tensor:
#      x y z
#    x 1.840800 0.000850 0.003390 
#    y 0.000850 1.811090 0.007690 
#    z 0.003390 0.007690 1.820150 
# 
# From -- ./inp_files/208929.got.cif
#   From: 2010.06.25/outbox.cif.g09.slc.cpg/sg2_105_cif.got.tgz:208929.got - 2010.06.27 13:26:56.
