data_PCOD8042638
_publ_section_title
;
Structure prediction by ZEFSAII (Michael W. Deem and Ramdas Pophale) SiO2 
 PCOD8042638
Probable space group: P -1
;
_chemical_formula_sum "Si O2"
_cell_formula_units_Z 16
_cell_length_a 8.753899
_cell_length_b 14.029419
_cell_length_c 19.020399
_cell_angle_alpha 160.684470
_cell_angle_beta 63.298944
_cell_angle_gamma 114.809392
_cell_volume 690.186008
_symmetry_space_group_name_H-M "P -1"
_symmetry_group_IT_number 2
_symmetry_cell_setting 'triclinic'
loop_
_space_group_symop_operation_xyz
x,y,z
-x,-y,-z
loop_
_atom_site_type_symbol
_atom_site_label
_atom_site_fract_x
_atom_site_fract_y
_atom_site_fract_z
Si Si1 0.901686 0.794678 0.294548
Si Si2 0.299809 0.468711 0.338796
Si Si3 0.105439 0.222011 0.871608
Si Si4 0.258713 0.047816 0.934461
Si Si5 0.946516 0.893957 0.793640
Si Si6 0.249202 0.090445 0.454654
Si Si7 0.659748 0.296268 0.189409
Si Si8 0.414023 0.090261 0.788581
O O1 0.828529 0.846154 0.267810
O O2 0.750518 0.867651 0.431637
O O3 0.061282 0.002818 0.411272
O O4 0.961600 0.468899 0.071136
O O5 0.460946 0.263015 0.184727
O O6 0.350815 0.798811 0.558914
O O7 0.138278 0.422392 0.394636
O O8 0.243434 0.350411 0.191217
O O9 0.025326 0.941405 0.732496
O O10 0.273569 0.324434 0.952128
O O11 0.314019 0.786525 0.791977
O O12 0.406855 0.072333 0.861747
O O13 0.079622 0.979303 0.886476
O O14 0.784580 0.110568 0.985030
O O15 0.293937 0.370484 0.596155
O O16 0.393184 0.849428 0.235091
#
# Coordination Sequence:
#
# PCOD8042638 Si02
#       8
#     2   2   2   2   2   2   2   2
#     4  10  22  41  62  84 112 155 204 250 294 344
#     4  10  21  36  58  89 126 156 191 232 293 359
#     4  10  22  40  61  86 117 152 200 248 295 348
#     4  10  21  36  58  89 126 156 191 232 293 359
#     4  10  19  35  59  86 122 156 191 237 293 350
#     4  10  22  40  61  86 117 152 200 248 295 348
#     4  10  19  35  59  86 122 156 191 237 293 350
#     4  10  24  41  58  94 122 151 198 242 294 362
#
# _framework density 23.182158000000001
#
# number of rings (size 3 to 8) (size 9 to 14) (size 15 to 20)
#    0.000    2.000    1.250    3.000    0.000   10.000 
#    4.500    0.000    0.000    0.000    0.000    0.000 
#    0.000    0.000    0.000    0.000    0.000    0.000 
#
# Total GULP energy -198305.903239 kJ/mol
# GULP energy per Si atom -12394.118952 kJ/mol
# Density = 2.312939 g / cm^3
# Si number density = 23.182158 Si / 1000 Ang^3
#
#
#
# Elastic Constant Matrix: (Units=GPa)
#
#
# Indices 1 2 3 4 5 6 
#
# 1 69.7742 39.3010 -8.9029 -7.4062 -9.3118 -7.1415
# 2 39.3010 164.3031 16.5510 -25.1612 -6.8328 -16.6079
# 3 -8.9029 16.5510 6.9886 4.6962 17.6422 -5.2427
# 4 -7.4062 -25.1612 4.6962 31.2561 3.1054 -4.7283
# 5 -9.3118 -6.8328 17.6422 3.1054 25.7332 -9.8219
# 6 -7.1415 -16.6079 -5.2427 -4.7283 -9.8219 40.9570
#
#
#
# Elastic Compliance Matrix: (Units=1/GPa)
#
#
# Indices 1 2 3 4 5 6 
#
# 1 0.016520 -0.001280 -0.010166 0.003754 0.014007 0.004853
# 2 -0.001280 0.004273 0.019566 0.001619 -0.012477 0.001209
# 3 -0.010166 0.019566 -0.094212 0.022688 0.068376 0.013118
# 4 0.003754 0.001619 0.022688 0.033012 -0.016166 0.004150
# 5 0.014007 -0.012477 0.068376 -0.016166 -0.002951 0.003562
# 6 0.004853 0.001209 0.013118 0.004150 0.003562 0.028765
#
#
# Mechanical properties :
#
#
# Convention : Reuss Voigt Hill
#
# Bulk Modulus (GPa) = -17.48936 37.21823 9.86444
# Shear Modulus (GPa) = -100.21157 32.53037 -33.84060
#
# Velocity S-wave (km/s) = -6.58192 3.75006 -3.82484
# Velocity P-wave (km/s) = 8.08226 5.90256 3.90403
#
# Compressibility (1/GPa) = -0.05717763
#
# Stress axis : x y z
#
# Youngs Moduli (GPa) = 60.53240 234.04498 -10.61437
#
# Poissons Ratio (x) = 0.29948 -0.10790
# Poissons Ratio (y) = 0.07746 0.20768
# Poissons Ratio (z) = 0.61535 -4.57932
#
# Static dielectric constant tensor:
#      x y z
#    x 4.362060 0.165150 -0.268350 
#    y 0.165150 4.468040 -0.127560 
#    z -0.268350 -0.127560 4.084460 
# 
# 
# High freq. dielectric constant tensor:
#      x y z
#    x 1.913920 0.011320 -0.014970 
#    y 0.011320 1.929380 -0.002090 
#    z -0.014970 -0.002090 1.905460 
# 
# From -- ./inp_files/590527.got.cif
#   From: 2010.06.25/outbox.cif.g09.slc.cpg/sg2_296_cif.got.tgz:590527.got - 2010.06.27 13:26:56.
