data_PCOD8042501
_publ_section_title
;
Structure prediction by ZEFSAII (Michael W. Deem and Ramdas Pophale) SiO2 
 PCOD8042501
Probable space group: P -1
;
_chemical_formula_sum "Si O2"
_cell_formula_units_Z 16
_cell_length_a 7.364018
_cell_length_b 9.112955
_cell_length_c 24.037832
_cell_angle_alpha 56.562803
_cell_angle_beta 144.040812
_cell_angle_gamma 127.935589
_cell_volume 742.110681
_symmetry_space_group_name_H-M "P -1"
_symmetry_group_IT_number 2
_symmetry_cell_setting 'triclinic'
loop_
_space_group_symop_operation_xyz
x,y,z
-x,-y,-z
loop_
_atom_site_type_symbol
_atom_site_label
_atom_site_fract_x
_atom_site_fract_y
_atom_site_fract_z
Si Si1 0.159169 0.715819 0.339689
Si Si2 0.824249 0.469650 0.404653
Si Si3 0.774726 0.355843 0.268894
Si Si4 0.911753 0.009498 0.173370
Si Si5 0.763368 0.609348 0.786063
Si Si6 0.768798 0.209886 0.899989
Si Si7 0.888604 0.789540 0.532602
Si Si8 0.240061 0.102780 0.117554
O O1 0.502174 0.696397 0.445937
O O2 0.939854 0.650671 0.354703
O O3 0.007768 0.575207 0.278937
O O4 0.175615 0.923127 0.283428
O O5 0.421983 0.413036 0.315909
O O6 0.000000 0.500000 0.500000
O O7 0.914148 0.299603 0.439233
O O8 0.480470 0.348315 0.238959
O O9 0.599478 0.258411 0.188893
O O10 0.002934 0.238630 0.371768
O O11 0.922171 0.198754 0.169941
O O12 0.992725 0.043306 0.121172
O O13 0.548151 0.858687 0.123650
O O14 0.855619 0.427225 0.860397
O O15 0.709276 0.082568 0.856277
O O16 0.084893 0.200229 0.012958
O O17 0.000000 0.000000 0.500000
#
# Coordination Sequence:
#
# PCOD8042501 Si02
#       8
#     2   2   2   2   2   2   2   2
#     4  10  19  39  62  87 123 159 207 246 299 375
#     4  10  20  36  57  87 121 157 197 252 306 349
#     4   9  18  37  58  87 117 162 202 243 310 358
#     4  11  21  43  65  91 121 170 204 248 319 363
#     4   9  20  39  62  87 127 160 205 257 303 373
#     4  11  22  46  60  94 130 154 208 270 299 365
#     4  10  19  35  57  82 120 160 201 243 294 368
#     4  10  24  40  67  91 122 164 208 254 315 368
#
# _framework density 21.560127999999999
#
# number of rings (size 3 to 8) (size 9 to 14) (size 15 to 20)
#    0.000    2.250    2.500    4.125    0.000    4.000 
#    9.000    2.500    0.000    0.000    0.000    0.000 
#    0.000    0.000    0.000    0.000    0.000    0.000 
#
# Total GULP energy -198219.138459 kJ/mol
# GULP energy per Si atom -12388.696154 kJ/mol
# Density = 2.151106 g / cm^3
# Si number density = 21.560128 Si / 1000 Ang^3
#
#
#
# Elastic Constant Matrix: (Units=GPa)
#
#
# Indices 1 2 3 4 5 6 
#
# 1 30.9968 20.4363 13.3655 2.7944 -12.8287 -12.4946
# 2 20.4363 142.0165 68.1863 -8.4365 -11.8475 -9.8018
# 3 13.3655 68.1863 130.9003 3.5740 -7.6320 -18.1076
# 4 2.7944 -8.4365 3.5740 46.0520 -4.4008 1.4544
# 5 -12.8287 -11.8475 -7.6320 -4.4008 31.3552 5.0142
# 6 -12.4946 -9.8018 -18.1076 1.4544 5.0142 21.0886
#
#
#
# Elastic Compliance Matrix: (Units=1/GPa)
#
#
# Indices 1 2 3 4 5 6 
#
# 1 0.052597 -0.005825 0.002411 -0.003871 0.015008 0.027223
# 2 -0.005825 0.010492 -0.005389 0.002932 0.001274 -0.003707
# 3 0.002411 -0.005389 0.011503 -0.002310 -0.000007 0.008961
# 4 -0.003871 0.002932 -0.002310 0.023122 0.003044 -0.005232
# 5 0.015008 0.001274 -0.000007 0.003044 0.038938 0.000010
# 6 0.027223 -0.003707 0.008961 -0.005232 0.000010 0.069878
#
#
# Mechanical properties :
#
#
# Convention : Reuss Voigt Hill
#
# Bulk Modulus (GPa) = 17.54879 56.43219 36.99049
# Shear Modulus (GPa) = 20.56499 33.16086 26.86293
#
# Velocity S-wave (km/s) = 3.09179 3.92607 3.53364
# Velocity P-wave (km/s) = 4.57194 6.83982 5.81747
#
# Compressibility (1/GPa) = 0.05698398
#
# Stress axis : x y z
#
# Youngs Moduli (GPa) = 19.01259 95.31362 86.93650
#
# Poissons Ratio (x) = 0.55521 -0.20956
# Poissons Ratio (y) = 0.11075 0.46850
# Poissons Ratio (z) = -0.04583 0.51364
#
# Static dielectric constant tensor:
#      x y z
#    x 2.652410 -0.156520 0.666760 
#    y -0.156520 4.222340 0.488250 
#    z 0.666760 0.488250 3.995710 
# 
# 
# High freq. dielectric constant tensor:
#      x y z
#    x 1.809030 -0.002150 0.009150 
#    y -0.002150 1.856520 0.004050 
#    z 0.009150 0.004050 1.860860 
# 
# From -- ./inp_files/217816.got.cif
#   From: 2010.06.25/outbox.cif.g09.slc.cpg/sg2_109_cif.got.tgz:217816.got - 2010.06.27 13:26:56.
