data_PCOD8042562
_publ_section_title
;
Structure prediction by ZEFSAII (Michael W. Deem and Ramdas Pophale) SiO2 
 PCOD8042562
Probable space group: P -1
;
_chemical_formula_sum "Si O2"
_cell_formula_units_Z 16
_cell_length_a 11.412965
_cell_length_b 14.426485
_cell_length_c 20.570129
_cell_angle_alpha 151.699800
_cell_angle_beta 145.684400
_cell_angle_gamma 52.454286
_cell_volume 812.484178
_symmetry_space_group_name_H-M "P -1"
_symmetry_group_IT_number 2
_symmetry_cell_setting 'triclinic'
loop_
_space_group_symop_operation_xyz
x,y,z
-x,-y,-z
loop_
_atom_site_type_symbol
_atom_site_label
_atom_site_fract_x
_atom_site_fract_y
_atom_site_fract_z
Si Si1 0.514751 0.646258 0.792380
Si Si2 0.770831 0.136357 0.698236
Si Si3 0.791450 0.247574 0.183684
Si Si4 0.925618 0.080648 0.257207
Si Si5 0.150945 0.558318 0.189604
Si Si6 0.836449 0.380335 0.486206
Si Si7 0.712129 0.426246 0.598901
Si Si8 0.764106 0.868316 0.850871
O O1 0.402632 0.700002 0.837904
O O2 0.629872 0.483353 0.759939
O O3 0.350756 0.562913 0.602530
O O4 0.725003 0.868596 0.003102
O O5 0.831915 0.230058 0.710762
O O6 0.500000 0.000000 0.500000
O O7 0.858700 0.954979 0.641951
O O8 0.901843 0.349219 0.935488
O O9 0.980048 0.254936 0.330246
O O10 0.910904 0.434587 0.301301
O O11 0.692659 0.021805 0.958307
O O12 0.819768 0.150559 0.313400
O O13 0.170579 0.619367 0.312211
O O14 0.813573 0.371272 0.546909
O O15 0.777378 0.683274 0.788970
O O16 0.437668 0.265275 0.375981
O O17 0.000000 0.000000 0.000000
#
# Coordination Sequence:
#
# PCOD8042562 Si02
#       8
#     2   2   2   2   2   2   2   2
#     4  10  19  35  58  84 121 149 192 238 285 344
#     4  10  23  41  63  84 110 146 202 253 285 334
#     4  11  21  33  56  90 121 151 190 232 288 352
#     4  10  20  36  58  84 113 154 199 238 289 333
#     4  10  23  40  61  89 110 153 196 241 296 333
#     4  11  21  34  55  91 121 155 184 229 293 359
#     4  11  22  38  57  81 127 154 187 238 284 358
#     4  11  21  35  52  87 124 161 190 220 290 357
#
# _framework density 19.692691
#
# number of rings (size 3 to 8) (size 9 to 14) (size 15 to 20)
#    0.000    1.500    1.250    7.500    3.500    1.000 
#    0.000    0.625    0.000    0.750    0.000    0.000 
#    0.000    0.000    0.000    0.000    0.000    0.000 
#
# Total GULP energy -198284.866712 kJ/mol
# GULP energy per Si atom -12392.804170 kJ/mol
# Density = 1.964787 g / cm^3
# Si number density = 19.692691 Si / 1000 Ang^3
#
#
#
# Elastic Constant Matrix: (Units=GPa)
#
#
# Indices 1 2 3 4 5 6 
#
# 1 116.1178 25.2415 47.7917 -7.2109 -6.3797 9.0768
# 2 25.2415 67.6460 25.1702 -10.7978 5.4087 7.5013
# 3 47.7917 25.1702 81.7333 -12.7081 5.5288 12.5457
# 4 -7.2109 -10.7978 -12.7081 25.9861 -1.3594 -3.9201
# 5 -6.3797 5.4087 5.5288 -1.3594 37.3195 -1.1156
# 6 9.0768 7.5013 12.5457 -3.9201 -1.1156 33.3356
#
#
#
# Elastic Compliance Matrix: (Units=1/GPa)
#
#
# Indices 1 2 3 4 5 6 
#
# 1 0.011996 -0.002386 -0.006586 -0.000743 0.003339 -0.000226
# 2 -0.002386 0.017947 -0.002919 0.004970 -0.002449 -0.001788
# 3 -0.006586 -0.002919 0.018662 0.005295 -0.003396 -0.004064
# 4 -0.000743 0.004970 0.005295 0.043260 0.000009 0.002179
# 5 0.003339 -0.002449 -0.003396 0.000009 0.028281 0.001868
# 6 -0.000226 -0.001788 -0.004064 0.002179 0.001868 0.032310
#
#
# Mechanical properties :
#
#
# Convention : Reuss Voigt Hill
#
# Bulk Modulus (GPa) = 40.28623 51.32266 45.80444
# Shear Modulus (GPa) = 27.09848 30.48113 28.78981
#
# Velocity S-wave (km/s) = 3.71356 3.93853 3.82770
# Velocity P-wave (km/s) = 6.23613 6.84113 6.54562
#
# Compressibility (1/GPa) = 0.02482238
#
# Stress axis : x y z
#
# Youngs Moduli (GPa) = 83.35787 55.72095 53.58505
#
# Poissons Ratio (x) = 0.13295 0.35294
# Poissons Ratio (y) = 0.19890 0.15640
# Poissons Ratio (z) = 0.54904 0.16263
#
# Static dielectric constant tensor:
#      x y z
#    x 3.540320 -0.037870 -0.014770 
#    y -0.037870 3.585300 0.123210 
#    z -0.014770 0.123210 3.707290 
# 
# 
# High freq. dielectric constant tensor:
#      x y z
#    x 1.766230 0.004340 0.001050 
#    y 0.004340 1.741000 0.016810 
#    z 0.001050 0.016810 1.776910 
# 
# From -- ./inp_files/524098.got.cif
#   From: 2010.06.25/outbox.cif.g09.slc.cpg/sg2_263_cif.got.tgz:524098.got - 2010.06.27 13:26:56.
