data_PCOD8042726
_publ_section_title
;
Structure prediction by ZEFSAII (Michael W. Deem and Ramdas Pophale) SiO2 
 PCOD8042726
Probable space group: P -1
;
_chemical_formula_sum "Si O2"
_cell_formula_units_Z 16
_cell_length_a 12.597968
_cell_length_b 24.040429
_cell_length_c 8.456497
_cell_angle_alpha 47.314124
_cell_angle_beta 47.128192
_cell_angle_gamma 23.643037
_cell_volume 739.583507
_symmetry_space_group_name_H-M "P -1"
_symmetry_group_IT_number 2
_symmetry_cell_setting 'triclinic'
loop_
_space_group_symop_operation_xyz
x,y,z
-x,-y,-z
loop_
_atom_site_type_symbol
_atom_site_label
_atom_site_fract_x
_atom_site_fract_y
_atom_site_fract_z
Si Si1 0.117266 0.269287 0.269446
Si Si2 0.085639 0.789531 0.259878
Si Si3 0.074822 0.926909 0.225828
Si Si4 0.333595 0.458013 0.986277
Si Si5 0.650958 0.060036 0.966110
Si Si6 0.415380 0.852764 0.461272
Si Si7 0.140925 0.372437 0.317011
Si Si8 0.272585 0.421411 0.430913
O O1 0.059147 0.225186 0.527529
O O2 0.155428 0.328384 0.217548
O O3 0.879904 0.386930 0.158156
O O4 0.391996 0.132546 0.160331
O O5 0.113253 0.822747 0.335532
O O6 0.380860 0.643585 0.176051
O O7 0.918841 0.903796 0.068699
O O8 0.339529 0.854126 0.162939
O O9 0.849445 0.036823 0.376876
O O10 0.000000 0.000000 0.000000
O O11 0.259367 0.404687 0.115613
O O12 0.335227 0.462789 0.167191
O O13 0.633054 0.061834 0.789038
O O14 0.670178 0.758241 0.499169
O O15 0.474931 0.747704 0.508170
O O16 0.821855 0.509367 0.432396
O O17 0.000000 0.500000 0.500000
#
# Coordination Sequence:
#
# PCOD8042726 Si02
#       8
#     2   2   2   2   2   2   2   2
#     4  12  23  38  59  87 118 157 198 240 290 344
#     4  11  24  40  56  85 124 157 193 242 291 345
#     4  10  20  37  60  85 115 152 190 237 289 344
#     4  10  20  39  60  81 114 156 194 242 292 345
#     4  11  21  38  62  87 114 155 198 241 288 345
#     4  10  19  35  60  91 118 147 192 246 292 341
#     4  10  19  35  61  90 115 148 196 246 289 345
#     4   8  16  32  55  84 111 140 186 244 287 331
#
# _framework density 21.633797999999999
#
# number of rings (size 3 to 8) (size 9 to 14) (size 15 to 20)
#    0.000    2.000    0.000    9.000    0.000    1.000 
#    0.000    4.375    0.000    0.000    0.000    0.000 
#    0.000    0.000    0.000    0.000    0.000    0.000 
#
# Total GULP energy -198243.848366 kJ/mol
# GULP energy per Si atom -12390.240523 kJ/mol
# Density = 2.158456 g / cm^3
# Si number density = 21.633798 Si / 1000 Ang^3
#
#
#
# Elastic Constant Matrix: (Units=GPa)
#
#
# Indices 1 2 3 4 5 6 
#
# 1 18.2695 7.5197 19.8087 6.1459 -0.6288 -3.9258
# 2 7.5197 81.8922 29.7544 22.8266 2.1420 -10.7659
# 3 19.8087 29.7544 117.1483 25.0340 10.9678 -2.7796
# 4 6.1459 22.8266 25.0340 47.5123 -3.4141 4.3516
# 5 -0.6288 2.1420 10.9678 -3.4141 26.4557 0.3084
# 6 -3.9258 -10.7659 -2.7796 4.3516 0.3084 18.4618
#
#
#
# Elastic Compliance Matrix: (Units=1/GPa)
#
#
# Indices 1 2 3 4 5 6 
#
# 1 0.071886 0.000652 -0.011541 -0.004486 0.005688 0.014891
# 2 0.000652 0.016788 -0.002204 -0.008162 -0.001618 0.011547
# 3 -0.011541 -0.002204 0.012517 -0.004397 -0.005844 -0.000721
# 4 -0.004486 -0.008162 -0.004397 0.029553 0.006348 -0.013448
# 5 0.005688 -0.001618 -0.005844 0.006348 0.041340 -0.002801
# 6 0.014891 0.011547 -0.000721 -0.013448 -0.002801 0.067174
#
#
# Mechanical properties :
#
#
# Convention : Reuss Voigt Hill
#
# Bulk Modulus (GPa) = 13.33279 36.83061 25.08170
# Shear Modulus (GPa) = 17.21479 29.16778 23.19129
#
# Velocity S-wave (km/s) = 2.82394 3.67584 3.27768
# Velocity P-wave (km/s) = 4.09990 5.92260 5.09345
#
# Compressibility (1/GPa) = 0.07500307
#
# Stress axis : x y z
#
# Youngs Moduli (GPa) = 13.91092 59.56717 79.88923
#
# Poissons Ratio (x) = -0.03883 0.92203
# Poissons Ratio (y) = -0.00907 0.17611
# Poissons Ratio (z) = 0.16055 0.13131
#
# Static dielectric constant tensor:
#      x y z
#    x 4.166010 0.273660 0.418770 
#    y 0.273660 4.167250 0.266830 
#    z 0.418770 0.266830 4.083160 
# 
# 
# High freq. dielectric constant tensor:
#      x y z
#    x 1.807210 -0.005030 0.026060 
#    y -0.005030 1.852960 0.012990 
#    z 0.026060 0.012990 1.858600 
# 
# From -- ./inp_files/321018.got.cif
#   From: 2010.06.25/outbox.cif.g09.slc.cpg/sg2_161_cif.got.tgz:321018.got - 2010.06.27 13:26:56.
