data_PCOD8042287
_publ_section_title
;
Structure prediction by ZEFSAII (Michael W. Deem and Ramdas Pophale) SiO2 
 PCOD8042287
Probable space group: P -1
;
_chemical_formula_sum "Si O2"
_cell_formula_units_Z 16
_cell_length_a 20.039639
_cell_length_b 8.770483
_cell_length_c 11.499380
_cell_angle_alpha 48.348876
_cell_angle_beta 144.337267
_cell_angle_gamma 108.102962
_cell_volume 748.698582
_symmetry_space_group_name_H-M "P -1"
_symmetry_group_IT_number 2
_symmetry_cell_setting 'triclinic'
loop_
_space_group_symop_operation_xyz
x,y,z
-x,-y,-z
loop_
_atom_site_type_symbol
_atom_site_label
_atom_site_fract_x
_atom_site_fract_y
_atom_site_fract_z
Si Si1 0.928231 0.303893 0.613086
Si Si2 0.787959 0.610914 0.664135
Si Si3 0.254622 0.279257 0.709855
Si Si4 0.337643 0.419026 0.275842
Si Si5 0.858313 0.040723 0.316792
Si Si6 0.421912 0.975909 0.293442
Si Si7 0.945304 0.856718 0.777697
Si Si8 0.188641 0.291874 0.946624
O O1 0.842371 0.442223 0.535292
O O2 0.864284 0.462508 0.325534
O O3 0.075999 0.256466 0.860286
O O4 0.937099 0.050217 0.758574
O O5 0.712011 0.736193 0.372026
O O6 0.672962 0.640833 0.574155
O O7 0.868845 0.724886 0.779456
O O8 0.900169 0.331870 0.942655
O O9 0.169847 0.152338 0.683118
O O10 0.388200 0.157944 0.042745
O O11 0.491933 0.288819 0.510196
O O12 0.268010 0.701298 0.024750
O O13 0.269489 0.305149 0.162442
O O14 0.859891 0.018073 0.467357
O O15 0.000000 0.000000 0.500000
O O16 0.500000 0.000000 0.500000
O O17 0.277976 0.058912 0.106860
#
# Coordination Sequence:
#
# PCOD8042287 Si02
#       8
#     2   2   2   2   2   2   2   2
#     4  10  19  34  62  84 119 151 192 243 307 335
#     4  10  23  37  55  87 126 154 192 235 300 362
#     4  10  23  39  57  90 123 152 194 247 288 361
#     4  11  20  37  62  82 117 166 192 241 295 339
#     4  11  20  34  61  91 121 148 193 247 295 344
#     4   9  21  39  60  85 117 153 206 246 284 338
#     4  10  21  36  55  88 123 155 187 238 298 364
#     4   9  19  33  58  93 112 146 199 252 288 343
#
# _framework density 21.370415999999999
#
# number of rings (size 3 to 8) (size 9 to 14) (size 15 to 20)
#    0.000    2.000    2.500    0.750    7.000    1.500 
#    0.000    0.000    0.000    3.000    0.000    0.000 
#    0.000    0.000    0.000    0.000    0.000    0.000 
#
# Total GULP energy -198231.796168 kJ/mol
# GULP energy per Si atom -12389.487261 kJ/mol
# Density = 2.132178 g / cm^3
# Si number density = 21.370416 Si / 1000 Ang^3
#
#
#
# Elastic Constant Matrix: (Units=GPa)
#
#
# Indices 1 2 3 4 5 6 
#
# 1 60.4275 19.2216 29.6753 -5.1998 -10.0730 -16.4300
# 2 19.2216 98.2115 33.2804 -23.8835 -5.4280 -9.4580
# 3 29.6753 33.2804 95.9467 -12.4514 5.2455 -8.1486
# 4 -5.1998 -23.8835 -12.4514 43.6941 -13.7052 -4.3916
# 5 -10.0730 -5.4280 5.2455 -13.7052 26.4689 0.1814
# 6 -16.4300 -9.4580 -8.1486 -4.3916 0.1814 24.6768
#
#
#
# Elastic Compliance Matrix: (Units=1/GPa)
#
#
# Indices 1 2 3 4 5 6 
#
# 1 0.028639 0.002258 -0.007709 0.009982 0.017928 0.019032
# 2 0.002258 0.015458 -0.004468 0.011663 0.010899 0.007949
# 3 -0.007709 -0.004468 0.014322 -0.001925 -0.007669 -0.002402
# 4 0.009982 0.011663 -0.001925 0.040207 0.027271 0.017435
# 5 0.017928 0.010899 -0.007669 0.027271 0.062355 0.017976
# 6 0.019032 0.007949 -0.002402 0.017435 0.017976 0.058420
#
#
# Mechanical properties :
#
#
# Convention : Reuss Voigt Hill
#
# Bulk Modulus (GPa) = 25.91913 46.54893 36.23403
# Shear Modulus (GPa) = 19.83362 30.46186 25.14774
#
# Velocity S-wave (km/s) = 3.04976 3.77957 3.43411
# Velocity P-wave (km/s) = 4.95542 6.39344 5.71980
#
# Compressibility (1/GPa) = 0.03858154
#
# Stress axis : x y z
#
# Youngs Moduli (GPa) = 34.91800 64.69139 69.82294
#
# Poissons Ratio (x) = -0.14610 0.53829
# Poissons Ratio (y) = -0.07886 0.31194
# Poissons Ratio (z) = 0.26919 0.28902
#
# Static dielectric constant tensor:
#      x y z
#    x 3.773820 -0.196840 0.057850 
#    y -0.196840 3.903070 -0.046540 
#    z 0.057850 -0.046540 4.163660 
# 
# 
# High freq. dielectric constant tensor:
#      x y z
#    x 1.817070 -0.029760 -0.007550 
#    y -0.029760 1.832270 -0.000670 
#    z -0.007550 -0.000670 1.841710 
# 
# From -- ./inp_files/185093.got.cif
#   From: 2010.06.25/outbox.cif.g09.slc.cpg/sg2_93_cif.got.tgz:185093.got - 2010.06.27 13:26:56.
