data_PCOD8042827
_publ_section_title
;
Structure prediction by ZEFSAII (Michael W. Deem and Ramdas Pophale) SiO2 
 PCOD8042827
Probable space group: P -1
;
_chemical_formula_sum "Si O2"
_cell_formula_units_Z 14
_cell_length_a 6.421384
_cell_length_b 10.930829
_cell_length_c 11.313213
_cell_angle_alpha 87.683920
_cell_angle_beta 41.402040
_cell_angle_gamma 84.515060
_cell_volume 522.164769
_symmetry_space_group_name_H-M "P -1"
_symmetry_group_IT_number 2
_symmetry_cell_setting 'triclinic'
loop_
_space_group_symop_operation_xyz
x,y,z
-x,-y,-z
loop_
_atom_site_type_symbol
_atom_site_label
_atom_site_fract_x
_atom_site_fract_y
_atom_site_fract_z
Si Si1 0.099133 0.627289 0.902985
Si Si2 0.805673 0.195314 0.709347
Si Si3 0.201822 0.198488 0.800447
Si Si4 0.154132 0.983958 0.688668
Si Si5 0.456178 0.358103 0.035610
Si Si6 0.626183 0.282288 0.424514
Si Si7 0.078971 0.366884 0.416757
O O1 0.848960 0.673583 0.906434
O O2 0.422761 0.635963 0.682837
O O3 0.086262 0.715100 0.020651
O O4 0.000000 0.500000 0.000000
O O5 0.497214 0.203015 0.760448
O O6 0.908324 0.051238 0.695503
O O7 0.077109 0.259545 0.520170
O O8 0.742179 0.266327 0.860819
O O9 0.103065 0.059230 0.832054
O O10 0.298460 0.245107 0.624609
O O11 0.500000 0.000000 0.500000
O O12 0.128973 0.838678 0.711405
O O13 0.404801 0.345998 0.200752
O O14 0.500000 0.500000 0.000000
O O15 0.788094 0.360582 0.449909
O O16 0.000000 0.500000 0.500000
#
# Coordination Sequence:
#
# PCOD8042827 Si02
#       7
#     2   2   2   2   2   2   2
#     4  10  22  38  60  87 122 159 199 253 309 364
#     4  10  21  40  64  88 126 162 197 257 307 355
#     4   9  21  40  62  90 120 160 203 247 309 358
#     4  10  22  42  64  89 123 162 212 254 297 367
#     4  10  20  37  58  91 123 152 205 250 296 370
#     4   9  21  40  57  86 123 155 204 260 293 362
#     4  10  19  35  62  90 120 162 202 245 313 368
#
# _framework density 26.811457999999998
#
# number of rings (size 3 to 8) (size 9 to 14) (size 15 to 20)
#    0.000    2.286    1.429    0.000    2.000    6.286 
#    5.143    9.286    0.000    0.000    0.000    0.000 
#    0.000    0.000    0.000    0.000    0.000    0.000 
#
# Total GULP energy -173480.828576 kJ/mol
# GULP energy per Si atom -12391.487755 kJ/mol
# Density = 2.675043 g / cm^3
# Si number density = 26.811458 Si / 1000 Ang^3
#
#
#
# Elastic Constant Matrix: (Units=GPa)
#
#
# Indices 1 2 3 4 5 6 
#
# 1 57.6890 29.3460 65.0233 4.5211 35.7684 3.2880
# 2 29.3460 133.6510 50.4330 15.2978 12.3790 12.8909
# 3 65.0233 50.4330 183.0853 5.9906 25.0413 -6.5678
# 4 4.5211 15.2978 5.9906 45.7568 -1.3957 8.1777
# 5 35.7684 12.3790 25.0413 -1.3957 58.9322 5.9111
# 6 3.2880 12.8909 -6.5678 8.1777 5.9111 42.1446
#
#
#
# Elastic Compliance Matrix: (Units=1/GPa)
#
#
# Indices 1 2 3 4 5 6 
#
# 1 0.048124 -0.003121 -0.013051 -0.002501 -0.022953 -0.001129
# 2 -0.003121 0.009155 -0.001550 -0.002075 0.000832 -0.002512
# 3 -0.013051 -0.001550 0.010103 0.000148 0.003705 0.002518
# 4 -0.002501 -0.002075 0.000148 0.023601 0.002864 -0.004128
# 5 -0.022953 0.000832 0.003705 0.002864 0.029477 -0.002577
# 6 -0.001129 -0.002512 0.002518 -0.004128 -0.002577 0.026139
#
#
# Mechanical properties :
#
#
# Convention : Reuss Voigt Hill
#
# Bulk Modulus (GPa) = 31.30970 73.78110 52.54540
# Shear Modulus (GPa) = 25.94865 44.67492 35.31178
#
# Velocity S-wave (km/s) = 3.11435 4.08642 3.63304
# Velocity P-wave (km/s) = 4.96340 7.05998 6.10240
#
# Compressibility (1/GPa) = 0.03193898
#
# Stress axis : x y z
#
# Youngs Moduli (GPa) = 20.77967 109.23162 98.98397
#
# Poissons Ratio (x) = 0.34088 1.29184
# Poissons Ratio (y) = 0.06485 0.15338
# Poissons Ratio (z) = 0.27119 0.16926
#
# Static dielectric constant tensor:
#      x y z
#    x 4.931930 0.049220 0.338270 
#    y 0.049220 5.175960 0.228580 
#    z 0.338270 0.228580 5.761950 
# 
# 
# High freq. dielectric constant tensor:
#      x y z
#    x 2.134400 0.010190 0.010130 
#    y 0.010190 2.056840 0.009250 
#    z 0.010130 0.009250 2.095540 
# 
# From -- ./inp_files/155393.got.cif
#   From: 2010.06.25/outbox.cif.g09.slc.cpg/sg2_78_cif.got.tgz:155393.got - 2010.06.27 13:26:56.
