data_PCOD8042945
_publ_section_title
;
Structure prediction by ZEFSAII (Michael W. Deem and Ramdas Pophale) SiO2 
 PCOD8042945
Probable space group: P -1
;
_chemical_formula_sum "Si O2"
_cell_formula_units_Z 12
_cell_length_a 12.144193
_cell_length_b 15.226262
_cell_length_c 10.885005
_cell_angle_alpha 131.590105
_cell_angle_beta 144.398311
_cell_angle_gamma 30.037671
_cell_volume 580.950094
_symmetry_space_group_name_H-M "P -1"
_symmetry_group_IT_number 2
_symmetry_cell_setting 'triclinic'
loop_
_space_group_symop_operation_xyz
x,y,z
-x,-y,-z
loop_
_atom_site_type_symbol
_atom_site_label
_atom_site_fract_x
_atom_site_fract_y
_atom_site_fract_z
Si Si1 0.038947 0.500382 0.678280
Si Si2 0.498909 0.171543 0.939586
Si Si3 0.007793 0.237422 0.995518
Si Si4 0.292632 0.734158 0.609702
Si Si5 0.541015 0.592233 0.446205
Si Si6 0.188148 0.177687 0.845249
O O1 0.034496 0.641932 0.830558
O O2 0.785227 0.554785 0.570504
O O3 0.000000 0.500000 0.500000
O O4 0.354559 0.303723 0.816190
O O5 0.217135 0.264106 0.848546
O O6 0.705238 0.968305 0.898520
O O7 0.698833 0.160658 0.193790
O O8 0.027123 0.292850 0.930203
O O9 0.735139 0.276992 0.774071
O O10 0.488425 0.667663 0.605799
O O11 0.381136 0.579914 0.625503
O O12 0.968308 0.864578 0.391007
O O13 0.500000 0.000000 0.000000
#
# Coordination Sequence:
#
# PCOD8042945 Si02
#       6
#     2   2   2   2   2   2
#     4  12  26  43  62  84 121 170 211 250 292 349
#     4  11  22  39  64  91 126 158 198 252 304 363
#     4  10  23  40  61  95 120 156 205 248 307 361
#     4  10  19  35  66  94 122 158 189 245 321 360
#     4  10  21  39  63  92 124 155 199 248 303 370
#     4   9  19  34  61  98 126 153 189 245 311 371
#
# _framework density 20.655819000000001
#
# number of rings (size 3 to 8) (size 9 to 14) (size 15 to 20)
#    0.000    1.667    3.333    1.000    0.000   11.333 
#    0.000    0.833    0.000    0.000    0.000    0.000 
#    0.000    0.000    0.000    0.000    0.000    0.000 
#
# Total GULP energy -148724.119088 kJ/mol
# GULP energy per Si atom -12393.676591 kJ/mol
# Density = 2.060881 g / cm^3
# Si number density = 20.655819 Si / 1000 Ang^3
#
#
#
# Elastic Constant Matrix: (Units=GPa)
#
#
# Indices 1 2 3 4 5 6 
#
# 1 49.4179 20.4244 39.9996 -10.3974 2.5543 2.4629
# 2 20.4244 110.0508 51.7866 -5.4337 -10.0449 7.9912
# 3 39.9996 51.7866 142.5328 -1.7690 -10.2946 0.8264
# 4 -10.3974 -5.4337 -1.7690 31.9828 -4.0220 6.1459
# 5 2.5543 -10.0449 -10.2946 -4.0220 29.2793 -5.8594
# 6 2.4629 7.9912 0.8264 6.1459 -5.8594 15.8161
#
#
#
# Elastic Compliance Matrix: (Units=1/GPa)
#
#
# Indices 1 2 3 4 5 6 
#
# 1 0.030600 -0.001015 -0.008509 0.010455 -0.006640 -0.010330
# 2 -0.001015 0.011820 -0.003795 0.002871 0.002006 -0.005989
# 3 -0.008509 -0.003795 0.010993 -0.003351 0.003931 0.005426
# 4 0.010455 0.002871 -0.003351 0.038431 0.000653 -0.017596
# 5 -0.006640 0.002006 0.003931 0.000653 0.039753 0.014289
# 6 -0.010330 -0.005989 0.005426 -0.017596 0.014289 0.079709
#
#
# Mechanical properties :
#
#
# Convention : Reuss Voigt Hill
#
# Bulk Modulus (GPa) = 37.34527 58.49141 47.91834
# Shear Modulus (GPa) = 20.25371 28.06837 24.16104
#
# Velocity S-wave (km/s) = 3.13474 3.69027 3.42379
# Velocity P-wave (km/s) = 5.58759 6.82174 6.23527
#
# Compressibility (1/GPa) = 0.02677715
#
# Stress axis : x y z
#
# Youngs Moduli (GPa) = 32.67999 84.59923 90.96410
#
# Poissons Ratio (x) = 0.08586 0.77397
# Poissons Ratio (y) = 0.03317 0.34518
# Poissons Ratio (z) = 0.27806 0.32103
#
# Static dielectric constant tensor:
#      x y z
#    x 4.684230 0.067900 0.456440 
#    y 0.067900 3.645920 -0.222400 
#    z 0.456440 -0.222400 3.976370 
# 
# 
# High freq. dielectric constant tensor:
#      x y z
#    x 1.780010 0.002230 0.022370 
#    y 0.002230 1.801980 -0.019550 
#    z 0.022370 -0.019550 1.817760 
# 
# From -- ./inp_files/25667.got.cif
#   From: 2010.06.25/outbox.cif.g09.slc.cpg/sg2_13_cif.got.tgz:25667.got - 2010.06.27 13:26:56.
