data_PCOD8042372
_publ_section_title
;
Structure prediction by ZEFSAII (Michael W. Deem and Ramdas Pophale) SiO2 
 PCOD8042372
Probable space group: P -1
;
_chemical_formula_sum "Si O2"
_cell_formula_units_Z 16
_cell_length_a 25.736837
_cell_length_b 18.722180
_cell_length_c 12.093639
_cell_angle_alpha 154.007881
_cell_angle_beta 26.888008
_cell_angle_gamma 156.994772
_cell_volume 924.530693
_symmetry_space_group_name_H-M "P -1"
_symmetry_group_IT_number 2
_symmetry_cell_setting 'triclinic'
loop_
_space_group_symop_operation_xyz
x,y,z
-x,-y,-z
loop_
_atom_site_type_symbol
_atom_site_label
_atom_site_fract_x
_atom_site_fract_y
_atom_site_fract_z
Si Si1 0.489213 0.180295 0.255008
Si Si2 0.548116 0.202831 0.826053
Si Si3 0.807082 0.825280 0.724467
Si Si4 0.637415 0.361233 0.436787
Si Si5 0.561464 0.847045 0.273304
Si Si6 0.871009 0.927773 0.493016
Si Si7 0.290410 0.942767 0.122251
Si Si8 0.639459 0.503971 0.246155
O O1 0.508169 0.275771 0.473162
O O2 0.619845 0.358003 0.179588
O O3 0.500000 0.000000 0.000000
O O4 0.337645 0.075688 0.332237
O O5 0.506951 0.240578 0.838604
O O6 0.612677 0.076551 0.513958
O O7 0.410796 0.080075 0.993945
O O8 0.659785 0.421504 0.977411
O O9 0.757641 0.598684 0.521517
O O10 0.809157 0.873631 0.659026
O O11 0.701493 0.855300 0.032635
O O12 0.963327 0.980141 0.696686
O O13 0.562479 0.312851 0.629860
O O14 0.723426 0.263336 0.122319
O O15 0.783624 0.726970 0.303992
O O16 0.852879 0.093494 0.703768
O O17 0.500000 0.500000 0.500000
#
# Coordination Sequence:
#
# PCOD8042372 Si02
#       8
#     2   2   2   2   2   2   2   2
#     4   9  17  29  50  81 107 123 168 225 266 296
#     4   9  18  31  57  81  99 134 181 218 260 303
#     4  11  22  35  50  79 111 142 176 215 265 314
#     4  10  20  32  54  80 106 139 172 216 270 311
#     4  10  19  35  53  78 110 137 173 217 258 322
#     4  11  21  34  55  78 109 138 177 225 258 311
#     4   9  17  33  53  80 106 131 172 227 264 302
#     4  11  17  32  58  82  99 129 183 225 257 302
#
# _framework density 17.306077999999999
#
# number of rings (size 3 to 8) (size 9 to 14) (size 15 to 20)
#    0.000    2.000    5.000    1.125    0.000    0.500 
#    0.000    0.625    0.000    3.000    0.000    0.000 
#    0.000    0.000    0.000    0.000    0.000    0.000 
#
# Total GULP energy -198283.726409 kJ/mol
# GULP energy per Si atom -12392.732901 kJ/mol
# Density = 1.726669 g / cm^3
# Si number density = 17.306078 Si / 1000 Ang^3
#
#
#
# Elastic Constant Matrix: (Units=GPa)
#
#
# Indices 1 2 3 4 5 6 
#
# 1 108.6810 40.6561 40.3352 11.7327 -4.2126 6.8082
# 2 40.6561 79.3922 37.0963 15.5407 -9.2581 10.8254
# 3 40.3352 37.0963 72.8391 17.8513 -8.6286 11.3413
# 4 11.7327 15.5407 17.8513 18.2224 2.7430 2.3827
# 5 -4.2126 -9.2581 -8.6286 2.7430 29.0035 4.5508
# 6 6.8082 10.8254 11.3413 2.3827 4.5508 26.0909
#
#
#
# Elastic Compliance Matrix: (Units=1/GPa)
#
#
# Indices 1 2 3 4 5 6 
#
# 1 0.012610 -0.004490 -0.005250 0.000933 -0.001411 0.001016
# 2 -0.004490 0.020289 -0.003305 -0.011426 0.006857 -0.005962
# 3 -0.005250 -0.003305 0.025193 -0.018743 0.008708 -0.008017
# 4 0.000933 -0.011426 -0.018743 0.084074 -0.018320 0.008162
# 5 -0.001411 0.006857 0.008708 -0.018320 0.042673 -0.012032
# 6 0.001016 -0.005962 -0.008017 0.008162 -0.012032 0.045374
#
#
# Mechanical properties :
#
#
# Convention : Reuss Voigt Hill
#
# Bulk Modulus (GPa) = 31.24970 55.23194 43.24082
# Shear Modulus (GPa) = 18.72855 24.18500 21.45677
#
# Velocity S-wave (km/s) = 3.29324 3.74235 3.52496
# Velocity P-wave (km/s) = 5.70586 7.11742 6.45037
#
# Compressibility (1/GPa) = 0.03200031
#
# Stress axis : x y z
#
# Youngs Moduli (GPa) = 79.29912 49.28834 39.69351
#
# Poissons Ratio (x) = 0.22131 0.20840
# Poissons Ratio (y) = 0.35607 0.13121
# Poissons Ratio (z) = 0.41635 0.16292
#
# Static dielectric constant tensor:
#      x y z
#    x 3.527800 -0.031900 -0.024370 
#    y -0.031900 3.014220 0.349460 
#    z -0.024370 0.349460 3.288790 
# 
# 
# High freq. dielectric constant tensor:
#      x y z
#    x 1.689190 -0.005990 -0.004470 
#    y -0.005990 1.635460 0.033800 
#    z -0.004470 0.033800 1.654070 
# 
# From -- ./inp_files/251918.got.cif
#   From: 2010.06.25/outbox.cif.g09.slc.cpg/sg2_126_cif.got.tgz:251918.got - 2010.06.27 13:26:56.
