data_PCOD8042628
_publ_section_title
;
Structure prediction by ZEFSAII (Michael W. Deem and Ramdas Pophale) SiO2 
 PCOD8042628
Probable space group: P -1
;
_chemical_formula_sum "Si O2"
_cell_formula_units_Z 14
_cell_length_a 9.589501
_cell_length_b 19.450472
_cell_length_c 9.096419
_cell_angle_alpha 138.770637
_cell_angle_beta 129.279181
_cell_angle_gamma 37.408321
_cell_volume 676.608821
_symmetry_space_group_name_H-M "P -1"
_symmetry_group_IT_number 2
_symmetry_cell_setting 'triclinic'
loop_
_space_group_symop_operation_xyz
x,y,z
-x,-y,-z
loop_
_atom_site_type_symbol
_atom_site_label
_atom_site_fract_x
_atom_site_fract_y
_atom_site_fract_z
Si Si1 0.032277 0.235537 0.869131
Si Si2 0.047360 0.942801 0.650118
Si Si3 0.823150 0.230535 0.994172
Si Si4 0.981761 0.654421 0.257828
Si Si5 0.625302 0.621673 0.885615
Si Si6 0.483957 0.844879 0.930608
Si Si7 0.869413 0.898185 0.731697
O O1 0.287270 0.176056 0.000466
O O2 0.015628 0.124844 0.613559
O O3 0.865455 0.299607 0.003348
O O4 0.953190 0.345699 0.869627
O O5 0.017648 0.923671 0.771801
O O6 0.316428 0.884852 0.741454
O O7 0.867569 0.099668 0.743303
O O8 0.574632 0.337689 0.070263
O O9 0.010595 0.177246 0.159428
O O10 0.224349 0.536745 0.311384
O O11 0.843112 0.801567 0.467860
O O12 0.801199 0.626511 0.106756
O O13 0.539669 0.712149 0.828545
O O14 0.373842 0.959888 0.166891
#
# Coordination Sequence:
#
# PCOD8042628 Si02
#       7
#     2   2   2   2   2   2   2
#     4  10  23  35  54  86 117 144 178 228 283 325
#     4  10  19  36  55  87 110 145 185 225 269 342
#     4  11  20  35  56  83 114 142 179 232 279 319
#     4   9  22  37  56  84 106 145 194 221 270 335
#     4  10  19  37  61  77 110 148 185 229 270 323
#     4  10  19  37  61  80 114 144 181 234 271 318
#     4  10  19  35  59  86 104 140 196 225 264 335
#
# _framework density 20.691423
#
# number of rings (size 3 to 8) (size 9 to 14) (size 15 to 20)
#    0.000    2.000    2.857    1.286    2.000    5.143 
#    2.571    0.000    0.000    2.571    0.000    0.000 
#    0.000    0.000    0.000    0.000    0.000    0.000 
#
# Total GULP energy -173480.491336 kJ/mol
# GULP energy per Si atom -12391.463667 kJ/mol
# Density = 2.064433 g / cm^3
# Si number density = 20.691423 Si / 1000 Ang^3
#
#
#
# Elastic Constant Matrix: (Units=GPa)
#
#
# Indices 1 2 3 4 5 6 
#
# 1 75.9929 -16.0426 26.4235 -7.1542 -2.3477 -0.1317
# 2 -16.0426 36.2587 0.2916 11.0773 5.6190 -1.1643
# 3 26.4235 0.2916 22.4856 -3.6127 7.8431 1.9005
# 4 -7.1542 11.0773 -3.6127 24.0309 1.4269 -0.1961
# 5 -2.3477 5.6190 7.8431 1.4269 22.6838 -9.8097
# 6 -0.1317 -1.1643 1.9005 -0.1961 -9.8097 29.5059
#
#
#
# Elastic Compliance Matrix: (Units=1/GPa)
#
#
# Indices 1 2 3 4 5 6 
#
# 1 0.033058 0.013457 -0.048368 -0.004843 0.021891 0.011040
# 2 0.013457 0.038792 -0.019614 -0.016855 0.000948 0.003057
# 3 -0.048368 -0.019614 0.126543 0.016826 -0.057069 -0.028002
# 4 -0.004843 -0.016855 0.016826 0.050854 -0.006963 -0.003748
# 5 0.021891 0.000948 -0.057069 -0.006963 0.079318 0.030135
# 6 0.011040 0.003057 -0.028002 -0.003748 0.030135 0.045859
#
#
# Mechanical properties :
#
#
# Convention : Reuss Voigt Hill
#
# Bulk Modulus (GPa) = 11.19295 17.34246 14.26771
# Shear Modulus (GPa) = 9.74177 23.51508 16.62842
#
# Velocity S-wave (km/s) = 2.17217 3.37481 2.83793
# Velocity P-wave (km/s) = 3.42233 4.85648 4.20106
#
# Compressibility (1/GPa) = 0.08934196
#
# Stress axis : x y z
#
# Youngs Moduli (GPa) = 30.25014 25.77843 7.90248
#
# Poissons Ratio (x) = -0.34690 0.38223
# Poissons Ratio (y) = -0.40708 0.15500
# Poissons Ratio (z) = 1.46315 0.50561
#
# Static dielectric constant tensor:
#      x y z
#    x 3.804160 0.031830 0.053460 
#    y 0.031830 3.915050 0.189840 
#    z 0.053460 0.189840 3.610440 
# 
# 
# High freq. dielectric constant tensor:
#      x y z
#    x 1.805570 0.002120 0.012240 
#    y 0.002120 1.806120 -0.001140 
#    z 0.012240 -0.001140 1.789370 
# 
# From -- ./inp_files/149120.got.cif
#   From: 2010.06.25/outbox.cif.g09.slc.cpg/sg2_75_cif.got.tgz:149120.got - 2010.06.27 13:26:56.
