data_PCOD8042623
_publ_section_title
;
Structure prediction by ZEFSAII (Michael W. Deem and Ramdas Pophale) SiO2 
 PCOD8042623
Probable space group: P -1
;
_chemical_formula_sum "Si O2"
_cell_formula_units_Z 14
_cell_length_a 9.906811
_cell_length_b 12.776377
_cell_length_c 20.195558
_cell_angle_alpha 21.831341
_cell_angle_beta 133.728878
_cell_angle_gamma 123.561123
_cell_volume 648.287534
_symmetry_space_group_name_H-M "P -1"
_symmetry_group_IT_number 2
_symmetry_cell_setting 'triclinic'
loop_
_space_group_symop_operation_xyz
x,y,z
-x,-y,-z
loop_
_atom_site_type_symbol
_atom_site_label
_atom_site_fract_x
_atom_site_fract_y
_atom_site_fract_z
Si Si1 0.839663 0.814370 0.696766
Si Si2 0.883486 0.168933 0.763148
Si Si3 0.758799 0.192621 0.216193
Si Si4 0.051768 0.853842 0.874842
Si Si5 0.685545 0.835461 0.286210
Si Si6 0.252665 0.160825 0.975294
Si Si7 0.619349 0.314860 0.241208
O O1 0.022247 0.793413 0.721958
O O2 0.882785 0.912307 0.727000
O O3 0.645495 0.061441 0.455027
O O4 0.810492 0.493145 0.876108
O O5 0.737970 0.482793 0.503014
O O6 0.766701 0.039981 0.851792
O O7 0.944556 0.939054 0.858402
O O8 0.074379 0.221695 0.828187
O O9 0.700579 0.154924 0.293466
O O10 0.739488 0.912048 0.333729
O O11 0.612028 0.496269 0.954569
O O12 0.194027 0.047233 0.796329
O O13 0.452349 0.988884 0.104093
O O14 0.252834 0.476772 0.817578
#
# Coordination Sequence:
#
# PCOD8042623 Si02
#       7
#     2   2   2   2   2   2   2
#     4  10  20  38  57  81 116 150 183 236 283 331
#     4  11  22  39  58  82 114 151 190 236 282 332
#     4   9  19  34  58  87 111 143 192 233 281 342
#     4  10  22  38  59  85 116 152 194 227 280 349
#     4  10  21  39  57  82 117 149 185 236 281 331
#     4  10  22  37  59  86 110 146 197 234 278 341
#     4  10  19  35  59  85 114 147 185 237 287 328
#
# _framework density 21.595355000000001
#
# number of rings (size 3 to 8) (size 9 to 14) (size 15 to 20)
#    0.000    2.000    0.000    3.857    0.000    2.857 
#    0.000   18.571    0.000    0.000    0.000    0.000 
#    0.000    0.000    0.000    0.000    0.000    0.000 
#
# Total GULP energy -173668.128023 kJ/mol
# GULP energy per Si atom -12404.866287 kJ/mol
# Density = 2.154620 g / cm^3
# Si number density = 21.595355 Si / 1000 Ang^3
#
#
#
# Elastic Constant Matrix: (Units=GPa)
#
#
# Indices 1 2 3 4 5 6 
#
# 1 39.9802 6.4179 1.1421 -2.4865 2.4821 -9.5281
# 2 6.4179 47.6202 18.9230 -0.5209 1.1323 -11.2047
# 3 1.1421 18.9230 102.6752 7.1629 -16.0426 -2.8887
# 4 -2.4865 -0.5209 7.1629 28.9748 -0.6869 0.0372
# 5 2.4821 1.1323 -16.0426 -0.6869 29.2178 -2.6457
# 6 -9.5281 -11.2047 -2.8887 0.0372 -2.6457 20.8289
#
#
#
# Elastic Compliance Matrix: (Units=1/GPa)
#
#
# Indices 1 2 3 4 5 6 
#
# 1 0.028314 -0.000777 -0.000198 0.002418 -0.001310 0.012336
# 2 -0.000777 0.026133 -0.004945 0.001551 -0.002476 0.012700
# 3 -0.000198 -0.004945 0.011885 -0.002886 0.006644 -0.000254
# 4 0.002418 0.001551 -0.002886 0.035439 -0.000894 0.001363
# 5 -0.001310 -0.002476 0.006644 -0.000894 0.038410 0.003871
# 6 0.012336 0.012700 -0.000254 0.001363 0.003871 0.060939
#
#
# Mechanical properties :
#
#
# Convention : Reuss Voigt Hill
#
# Bulk Modulus (GPa) = 18.35130 27.02682 22.68906
# Shear Modulus (GPa) = 21.63319 26.72381 24.17850
#
# Velocity S-wave (km/s) = 3.16848 3.52160 3.34970
# Velocity P-wave (km/s) = 4.67995 5.39239 5.04875
#
# Compressibility (1/GPa) = 0.05449205
#
# Stress axis : x y z
#
# Youngs Moduli (GPa) = 35.31769 38.26526 84.13728
#
# Poissons Ratio (x) = 0.02974 0.01666
# Poissons Ratio (y) = 0.02745 0.41609
# Poissons Ratio (z) = 0.00699 0.18924
#
# Static dielectric constant tensor:
#      x y z
#    x 3.816060 -0.035110 -0.000510 
#    y -0.035110 3.779090 -0.004570 
#    z -0.000510 -0.004570 3.846840 
# 
# 
# High freq. dielectric constant tensor:
#      x y z
#    x 1.846860 -0.003840 0.001110 
#    y -0.003840 1.838350 -0.003560 
#    z 0.001110 -0.003560 1.849500 
# 
# From -- ./inp_files/188041.got.cif
#   From: 2010.06.25/outbox.cif.g09.slc.cpg/sg2_95_cif.got.tgz:188041.got - 2010.06.27 13:26:56.
