data_PCOD8042142
_publ_section_title
;
Structure prediction by ZEFSAII (Michael W. Deem and Ramdas Pophale) SiO2 
 PCOD8042142
Probable space group: P -1
;
_chemical_formula_sum "Si O2"
_cell_formula_units_Z 14
_cell_length_a 10.829219
_cell_length_b 9.644053
_cell_length_c 12.477770
_cell_angle_alpha 129.449484
_cell_angle_beta 140.931474
_cell_angle_gamma 75.035581
_cell_volume 555.292984
_symmetry_space_group_name_H-M "P -1"
_symmetry_group_IT_number 2
_symmetry_cell_setting 'triclinic'
loop_
_space_group_symop_operation_xyz
x,y,z
-x,-y,-z
loop_
_atom_site_type_symbol
_atom_site_label
_atom_site_fract_x
_atom_site_fract_y
_atom_site_fract_z
Si Si1 0.180256 0.384261 0.665801
Si Si2 0.779449 0.208220 0.803429
Si Si3 0.906774 0.238086 0.616711
Si Si4 0.403306 0.136202 0.649200
Si Si5 0.466789 0.756727 0.743541
Si Si6 0.743336 0.217680 0.164896
Si Si7 0.224643 0.440012 0.133075
O O1 0.382950 0.342803 0.746845
O O2 0.278442 0.631449 0.865211
O O3 0.058362 0.254345 0.625154
O O4 0.003117 0.302833 0.408967
O O5 0.664598 0.196936 0.836205
O O6 0.048078 0.345460 0.066547
O O7 0.714585 0.987337 0.601120
O O8 0.690343 0.318688 0.708707
O O9 0.748775 0.339299 0.527980
O O10 0.072720 0.334009 0.873732
O O11 0.723062 0.000841 0.399693
O O12 0.395075 0.770772 0.821887
O O13 0.572728 0.606049 0.736013
O O14 0.645852 0.988093 0.941242
#
# Coordination Sequence:
#
# PCOD8042142 Si02
#       7
#     2   2   2   2   2   2   2
#     4  10  19  34  58  87 118 148 182 234 289 336
#     4   9  20  36  59  83 110 153 200 225 271 340
#     4  10  22  36  58  90 115 143 190 232 284 349
#     4  10  19  36  57  83 115 151 189 235 277 329
#     4  10  20  37  57  82 118 150 182 233 284 334
#     4   9  19  33  53  86 119 150 186 220 283 358
#     4  10  20  40  61  82 114 152 187 236 282 326
#
# _framework density 25.211915000000001
#
# number of rings (size 3 to 8) (size 9 to 14) (size 15 to 20)
#    0.000    2.286    0.000    3.000    0.000    3.429 
#    0.000    9.286    0.000    0.000    0.000    0.000 
#    0.000    0.000    0.000    0.000    0.000    0.000 
#
# Total GULP energy -173468.499548 kJ/mol
# GULP energy per Si atom -12390.607111 kJ/mol
# Density = 2.515453 g / cm^3
# Si number density = 25.211915 Si / 1000 Ang^3
#
#
#
# Elastic Constant Matrix: (Units=GPa)
#
#
# Indices 1 2 3 4 5 6 
#
# 1 95.5990 36.9994 2.1586 -1.2998 22.5895 -0.4156
# 2 36.9994 90.0946 8.4471 -4.7249 -2.5475 -16.9104
# 3 2.1586 8.4471 32.7421 -3.1177 -0.8327 3.4376
# 4 -1.2998 -4.7249 -3.1177 41.3915 -3.0817 11.2293
# 5 22.5895 -2.5475 -0.8327 -3.0817 26.1842 2.3506
# 6 -0.4156 -16.9104 3.4376 11.2293 2.3506 46.8085
#
#
#
# Elastic Compliance Matrix: (Units=1/GPa)
#
#
# Indices 1 2 3 4 5 6 
#
# 1 0.017157 -0.007919 0.000604 -0.001005 -0.015515 -0.001733
# 2 -0.007919 0.015998 -0.003952 0.000364 0.007810 0.005520
# 3 0.000604 -0.003952 0.032350 0.003334 0.000933 -0.004645
# 4 -0.001005 0.000364 0.003334 0.026603 0.004745 -0.006743
# 5 -0.015515 0.007810 0.000933 0.004745 0.053030 -0.001186
# 6 -0.001733 0.005520 -0.004645 -0.006743 -0.001186 0.025361
#
#
# Mechanical properties :
#
#
# Convention : Reuss Voigt Hill
#
# Bulk Modulus (GPa) = 23.27153 34.84956 29.06054
# Shear Modulus (GPa) = 24.11307 34.26556 29.18932
#
# Velocity S-wave (km/s) = 3.09595 3.69060 3.40628
# Velocity P-wave (km/s) = 4.69364 5.65803 5.19825
#
# Compressibility (1/GPa) = 0.04297097
#
# Stress axis : x y z
#
# Youngs Moduli (GPa) = 58.28692 62.50777 30.91170
#
# Poissons Ratio (x) = 0.49499 -0.01866
# Poissons Ratio (y) = 0.46157 0.12215
# Poissons Ratio (z) = -0.03518 0.24700
#
# Static dielectric constant tensor:
#      x y z
#    x 4.633770 0.147610 0.409680 
#    y 0.147610 4.561180 0.280880 
#    z 0.409680 0.280880 4.540080 
# 
# 
# High freq. dielectric constant tensor:
#      x y z
#    x 2.006790 -0.000720 0.015070 
#    y -0.000720 1.987400 0.015210 
#    z 0.015070 0.015210 2.003960 
# 
# From -- ./inp_files/210270.got.cif
#   From: 2010.06.25/outbox.cif.g09.slc.cpg/sg2_106_cif.got.tgz:210270.got - 2010.06.27 13:26:56.
