data_PCOD8042498
_publ_section_title
;
Structure prediction by ZEFSAII (Michael W. Deem and Ramdas Pophale) SiO2 
 PCOD8042498
Probable space group: P -1
;
_chemical_formula_sum "Si O2"
_cell_formula_units_Z 16
_cell_length_a 20.722375
_cell_length_b 13.747126
_cell_length_c 8.878331
_cell_angle_alpha 51.290714
_cell_angle_beta 148.222062
_cell_angle_gamma 137.189505
_cell_volume 905.148569
_symmetry_space_group_name_H-M "P -1"
_symmetry_group_IT_number 2
_symmetry_cell_setting 'triclinic'
loop_
_space_group_symop_operation_xyz
x,y,z
-x,-y,-z
loop_
_atom_site_type_symbol
_atom_site_label
_atom_site_fract_x
_atom_site_fract_y
_atom_site_fract_z
Si Si1 0.000001 0.100723 0.540650
Si Si2 0.247664 0.128901 0.543888
Si Si3 0.000008 0.352476 0.114930
Si Si4 0.551655 0.670118 0.818913
Si Si5 0.719392 0.098960 0.713013
Si Si6 0.247662 0.118757 0.199121
Si Si7 0.448356 0.118482 0.163961
Si Si8 0.719394 0.620438 0.445161
O O1 0.000018 0.246251 0.348938
O O2 0.868466 0.014278 0.470664
O O3 0.000000 0.000000 0.500000
O O4 0.131508 0.145774 0.865282
O O5 0.232773 0.116377 0.349176
O O6 0.236618 0.264881 0.445759
O O7 0.397530 0.150190 0.874827
O O8 0.147311 0.404988 0.270216
O O9 0.852708 0.257671 0.828331
O O10 0.000000 0.500000 0.000000
O O11 0.602481 0.752641 0.682260
O O12 0.489505 0.744747 0.734249
O O13 0.426011 0.518523 0.666568
O O14 0.685553 0.672922 0.168152
O O15 0.574007 0.092553 0.388528
O O16 0.763357 0.028254 0.735859
O O17 0.685534 0.012630 0.888468
#
# Coordination Sequence:
#
# PCOD8042498 Si02
#       8
#     2   2   2   2   2   2   2   2
#     4  12  19  40  61  85 115 145 195 244 273 337
#     4  11  21  34  59  87 114 154 191 230 288 344
#     4  12  22  34  62  90 108 142 190 250 290 324
#     4   9  18  34  56  84 112 148 191 240 277 328
#     4  10  19  35  57  82 114 146 194 237 279 330
#     4  11  21  34  59  87 114 154 191 230 288 344
#     4   9  18  34  56  84 112 148 191 240 277 328
#     4  10  19  35  57  82 114 146 194 237 279 330
#
# _framework density 17.676656999999999
#
# number of rings (size 3 to 8) (size 9 to 14) (size 15 to 20)
#    0.000    1.500    5.000    1.875    0.000    1.000 
#    0.000    0.000    0.000    1.500    0.000    0.000 
#    0.000    0.000    0.000    0.000    0.000    0.000 
#
# Total GULP energy -198216.968607 kJ/mol
# GULP energy per Si atom -12388.560538 kJ/mol
# Density = 1.763642 g / cm^3
# Si number density = 17.676657 Si / 1000 Ang^3
#
#
#
# Elastic Constant Matrix: (Units=GPa)
#
#
# Indices 1 2 3 4 5 6 
#
# 1 99.1175 52.8513 59.5102 1.4064 -10.6485 -3.4239
# 2 52.8513 126.1479 50.4575 -11.1209 1.5117 -10.0701
# 3 59.5102 50.4575 81.2613 -2.0537 -3.8327 -6.9785
# 4 1.4064 -11.1209 -2.0537 25.1370 1.1261 3.3690
# 5 -10.6485 1.5117 -3.8327 1.1261 25.1786 -4.0814
# 6 -3.4239 -10.0701 -6.9785 3.3690 -4.0814 17.4152
#
#
#
# Elastic Compliance Matrix: (Units=1/GPa)
#
#
# Indices 1 2 3 4 5 6 
#
# 1 0.020460 -0.004210 -0.012212 -0.004212 0.007101 -0.000826
# 2 -0.004210 0.012060 -0.004174 0.004981 -0.002904 0.002829
# 3 -0.012212 -0.004174 0.024232 0.000201 -0.000465 0.004748
# 4 -0.004212 0.004981 0.000201 0.043476 -0.005210 -0.007499
# 5 0.007101 -0.002904 -0.000465 -0.005210 0.044847 0.011049
# 6 -0.000826 0.002829 0.004748 -0.007499 0.011049 0.064837
#
#
# Mechanical properties :
#
#
# Convention : Reuss Voigt Hill
#
# Bulk Modulus (GPa) = 64.26343 70.24052 67.25197
# Shear Modulus (GPa) = 19.50912 23.12666 21.31789
#
# Velocity S-wave (km/s) = 3.32575 3.62099 3.47651
# Velocity P-wave (km/s) = 7.15412 7.56998 7.36499
#
# Compressibility (1/GPa) = 0.01556095
#
# Stress axis : x y z
#
# Youngs Moduli (GPa) = 48.87586 82.91805 41.26831
#
# Poissons Ratio (x) = 0.34906 0.50397
# Poissons Ratio (y) = 0.20575 0.17224
# Poissons Ratio (z) = 0.59687 0.34607
#
# Static dielectric constant tensor:
#      x y z
#    x 3.058790 0.102210 0.184190 
#    y 0.102210 3.355990 -0.040910 
#    z 0.184190 -0.040910 3.309420 
# 
# 
# High freq. dielectric constant tensor:
#      x y z
#    x 1.660080 0.009140 0.024850 
#    y 0.009140 1.687660 0.001960 
#    z 0.024850 0.001960 1.686920 
# 
# From -- ./inp_files/260218.got.cif
#   From: 2010.06.25/outbox.cif.g09.slc.cpg/sg2_131_cif.got.tgz:260218.got - 2010.06.27 13:26:56.
