data_PCOD8042048
_publ_section_title
;
Structure prediction by ZEFSAII (Michael W. Deem and Ramdas Pophale) SiO2 
 PCOD8042048
Probable space group: P -1
;
_chemical_formula_sum "Si O2"
_cell_formula_units_Z 12
_cell_length_a 15.951985
_cell_length_b 9.541989
_cell_length_c 12.106361
_cell_angle_alpha 70.317034
_cell_angle_beta 156.463237
_cell_angle_gamma 123.694738
_cell_volume 524.055058
_symmetry_space_group_name_H-M "P -1"
_symmetry_group_IT_number 2
_symmetry_cell_setting 'triclinic'
loop_
_space_group_symop_operation_xyz
x,y,z
-x,-y,-z
loop_
_atom_site_type_symbol
_atom_site_label
_atom_site_fract_x
_atom_site_fract_y
_atom_site_fract_z
Si Si1 0.675842 0.102988 0.872670
Si Si2 0.348756 0.583276 0.172246
Si Si3 0.870680 0.613397 0.822530
Si Si4 0.687659 0.564915 0.053884
Si Si5 0.348711 0.670454 0.552938
Si Si6 0.111832 0.327853 0.505039
O O1 0.852810 0.189472 0.949738
O O2 0.859816 0.126479 0.192858
O O3 0.416530 0.873938 0.600936
O O4 0.555572 0.206586 0.736269
O O5 0.626781 0.616658 0.506025
O O6 0.110859 0.411548 0.016471
O O7 0.228363 0.510305 0.921684
O O8 0.777978 0.414978 0.701235
O O9 0.633328 0.705587 0.901263
O O10 0.927254 0.678014 0.407991
O O11 0.400296 0.375086 0.815372
O O12 0.120552 0.497300 0.410572
#
# Coordination Sequence:
#
# PCOD8042048 Si02
#       6
#     2   2   2   2   2   2
#     4  11  19  32  57  80  99 135 174 210 256 298
#     4  10  19  34  57  75 101 140 173 205 256 306
#     4   9  20  39  51  71 112 137 162 215 255 301
#     4   8  16  37  54  69 108 141 161 210 259 297
#     4   8  17  33  54  77 101 136 171 205 259 301
#     4   8  17  35  56  70 107 138 164 211 257 298
#
# _framework density 22.898358000000002
#
# number of rings (size 3 to 8) (size 9 to 14) (size 15 to 20)
#    1.000    2.000    1.667    0.500    0.000    2.000 
#    0.000   15.000    0.000    0.000    0.000    0.000 
#    0.000    0.000    0.000    0.000    0.000    0.000 
#
# Total GULP energy -148706.486429 kJ/mol
# GULP energy per Si atom -12392.207202 kJ/mol
# Density = 2.284624 g / cm^3
# Si number density = 22.898358 Si / 1000 Ang^3
#
#
#
# Elastic Constant Matrix: (Units=GPa)
#
#
# Indices 1 2 3 4 5 6 
#
# 1 148.1872 41.4746 42.2583 3.6470 -35.5279 -8.7893
# 2 41.4746 78.7698 24.5493 29.2836 -11.6264 -14.8691
# 3 42.2583 24.5493 78.1672 17.0530 -29.8961 4.3343
# 4 3.6470 29.2836 17.0530 33.0269 1.8533 -5.8498
# 5 -35.5279 -11.6264 -29.8961 1.8533 47.7179 -14.7360
# 6 -8.7893 -14.8691 4.3343 -5.8498 -14.7360 30.9625
#
#
#
# Elastic Compliance Matrix: (Units=1/GPa)
#
#
# Indices 1 2 3 4 5 6 
#
# 1 0.010645 -0.004639 -0.003429 0.005280 0.006030 0.005142
# 2 -0.004639 0.025964 0.001606 -0.021910 0.008002 0.010596
# 3 -0.003429 0.001606 0.021423 -0.012771 0.011750 -0.000021
# 4 0.005280 -0.021910 -0.012771 0.055959 -0.012369 -0.002550
# 5 0.006030 0.008002 0.011750 -0.012369 0.041878 0.021504
# 6 0.005142 0.010596 -0.000021 -0.002550 0.021504 0.048601
#
#
# Mechanical properties :
#
#
# Convention : Reuss Voigt Hill
#
# Bulk Modulus (GPa) = 22.16811 57.96540 40.06676
# Shear Modulus (GPa) = 21.51200 35.46424 28.48812
#
# Velocity S-wave (km/s) = 3.06838 3.93971 3.53102
# Velocity P-wave (km/s) = 4.71756 6.78706 5.84464
#
# Compressibility (1/GPa) = 0.04510985
#
# Stress axis : x y z
#
# Youngs Moduli (GPa) = 93.94120 38.51553 46.67792
#
# Poissons Ratio (x) = 0.17866 0.16005
# Poissons Ratio (y) = 0.43576 -0.07499
# Poissons Ratio (z) = 0.32210 -0.06187
#
# Static dielectric constant tensor:
#      x y z
#    x 4.293460 -0.187380 -0.220990 
#    y -0.187380 3.790980 -0.417860 
#    z -0.220990 -0.417860 4.001580 
# 
# 
# High freq. dielectric constant tensor:
#      x y z
#    x 1.904400 -0.015440 -0.018280 
#    y -0.015440 1.874240 -0.039680 
#    z -0.018280 -0.039680 1.906900 
# 
# From -- ./inp_files/134537.got.cif
#   From: 2010.06.25/outbox.cif.g09.slc.cpg/sg2_68_cif.got.tgz:134537.got - 2010.06.27 13:26:56.
