data_PCOD8042528
_publ_section_title
;
Structure prediction by ZEFSAII (Michael W. Deem and Ramdas Pophale) SiO2 
 PCOD8042528
Probable space group: P -1
;
_chemical_formula_sum "Si O2"
_cell_formula_units_Z 16
_cell_length_a 11.791641
_cell_length_b 12.261591
_cell_length_c 13.382408
_cell_angle_alpha 28.914323
_cell_angle_beta 61.659745
_cell_angle_gamma 74.218018
_cell_volume 775.128160
_symmetry_space_group_name_H-M "P -1"
_symmetry_group_IT_number 2
_symmetry_cell_setting 'triclinic'
loop_
_space_group_symop_operation_xyz
x,y,z
-x,-y,-z
loop_
_atom_site_type_symbol
_atom_site_label
_atom_site_fract_x
_atom_site_fract_y
_atom_site_fract_z
Si Si1 0.542274 0.897910 0.664873
Si Si2 0.327937 0.448033 0.202011
Si Si3 0.621865 0.992443 0.888519
Si Si4 0.568874 0.482892 0.685385
Si Si5 0.648087 0.311063 0.443269
Si Si6 0.838197 0.800202 0.025749
Si Si7 0.849487 0.571457 0.408310
Si Si8 0.041726 0.272028 0.546643
O O1 0.639003 0.737121 0.737767
O O2 0.500000 0.000000 0.500000
O O3 0.634540 0.123018 0.511048
O O4 0.403698 0.724925 0.915629
O O5 0.371731 0.383404 0.344468
O O6 0.165210 0.399903 0.315748
O O7 0.735249 0.951385 0.945310
O O8 0.682416 0.217496 0.609862
O O9 0.550347 0.759069 0.036337
O O10 0.500000 0.000000 0.000000
O O11 0.496642 0.641464 0.525934
O O12 0.687175 0.430924 0.610785
O O13 0.778020 0.558571 0.177262
O O14 0.860321 0.759190 0.165473
O O15 0.980690 0.987140 0.773400
O O16 0.914759 0.710054 0.370100
O O17 0.924912 0.390668 0.485737
#
# Coordination Sequence:
#
# PCOD8042528 Si02
#       8
#     2   2   2   2   2   2   2   2
#     4  11  22  41  65  91 113 151 199 263 307 343
#     4  10  22  39  64  87 116 148 206 248 300 351
#     4  11  21  34  56  85 127 162 194 239 293 358
#     4  10  19  35  57  91 117 156 196 244 295 352
#     4  11  22  36  60  90 123 154 196 250 305 351
#     4  11  22  36  57  86 124 163 198 236 293 363
#     4  10  21  38  59  86 124 165 204 236 289 349
#     4  10  22  40  59  86 122 165 199 244 286 356
#
# _framework density 20.641746999999999
#
# number of rings (size 3 to 8) (size 9 to 14) (size 15 to 20)
#    0.000    1.500    2.500    3.375    0.000    3.000 
#    2.250    0.625    0.000    3.750    0.000    0.000 
#    0.000    0.000    0.000    0.000    0.000    0.000 
#
# Total GULP energy -198289.181693 kJ/mol
# GULP energy per Si atom -12393.073856 kJ/mol
# Density = 2.059477 g / cm^3
# Si number density = 20.641747 Si / 1000 Ang^3
#
#
#
# Elastic Constant Matrix: (Units=GPa)
#
#
# Indices 1 2 3 4 5 6 
#
# 1 101.3336 37.9466 60.5086 -4.9399 4.7169 -2.5231
# 2 37.9466 84.0447 46.4576 -5.6055 -13.8429 -2.2158
# 3 60.5086 46.4576 136.6225 -7.8791 -11.1508 1.7417
# 4 -4.9399 -5.6055 -7.8791 28.0506 5.4915 -1.4960
# 5 4.7169 -13.8429 -11.1508 5.4915 44.6949 -0.2579
# 6 -2.5231 -2.2158 1.7417 -1.4960 -0.2579 25.1776
#
#
#
# Elastic Compliance Matrix: (Units=1/GPa)
#
#
# Indices 1 2 3 4 5 6 
#
# 1 0.015109 -0.004390 -0.005515 0.001191 -0.004467 0.001534
# 2 -0.004390 0.016548 -0.003273 0.000768 0.004685 0.001337
# 3 -0.005515 -0.003273 0.011132 0.000986 0.002215 -0.001529
# 4 0.001191 0.000768 0.000986 0.037235 -0.004203 0.002288
# 5 -0.004467 0.004685 0.002215 -0.004203 0.025365 -0.000179
# 6 0.001534 0.001337 -0.001529 0.002288 -0.000179 0.040229
#
#
# Mechanical properties :
#
#
# Convention : Reuss Voigt Hill
#
# Bulk Modulus (GPa) = 60.84787 67.98072 64.41430
# Shear Modulus (GPa) = 28.17681 31.39049 29.78365
#
# Velocity S-wave (km/s) = 3.69865 3.90388 3.80265
# Velocity P-wave (km/s) = 6.91246 7.30243 7.11012
#
# Compressibility (1/GPa) = 0.01643443
#
# Stress axis : x y z
#
# Youngs Moduli (GPa) = 66.18465 60.43084 89.83081
#
# Poissons Ratio (x) = 0.26526 0.49538
# Poissons Ratio (y) = 0.29052 0.29404
# Poissons Ratio (z) = 0.36498 0.19781
#
# Static dielectric constant tensor:
#      x y z
#    x 3.998970 0.182650 -0.132240 
#    y 0.182650 3.709600 -0.306380 
#    z -0.132240 -0.306380 4.852340 
# 
# 
# High freq. dielectric constant tensor:
#      x y z
#    x 1.815840 0.012160 -0.000060 
#    y 0.012160 1.784250 -0.024190 
#    z -0.000060 -0.024190 1.810780 
# 
# From -- ./inp_files/93208.got.cif
#   From: 2010.06.25/outbox.cif.g09.slc.cpg/sg2_47_cif.got.tgz:93208.got - 2010.06.27 13:26:56.
