data_PCOD8042743
_publ_section_title
;
Structure prediction by ZEFSAII (Michael W. Deem and Ramdas Pophale) SiO2 
 PCOD8042743
Probable space group: P -1
;
_chemical_formula_sum "Si O2"
_cell_formula_units_Z 12
_cell_length_a 5.156726
_cell_length_b 15.731696
_cell_length_c 12.545297
_cell_angle_alpha 134.156190
_cell_angle_beta 114.282599
_cell_angle_gamma 89.941323
_cell_volume 598.812214
_symmetry_space_group_name_H-M "P -1"
_symmetry_group_IT_number 2
_symmetry_cell_setting 'triclinic'
loop_
_space_group_symop_operation_xyz
x,y,z
-x,-y,-z
loop_
_atom_site_type_symbol
_atom_site_label
_atom_site_fract_x
_atom_site_fract_y
_atom_site_fract_z
Si Si1 0.188327 0.915427 0.438055
Si Si2 0.143956 0.727520 0.891757
Si Si3 0.674594 0.212599 0.448359
Si Si4 0.912347 0.757699 0.658443
Si Si5 0.805054 0.727286 0.032431
Si Si6 0.690927 0.475960 0.691633
O O1 0.275833 0.875325 0.530347
O O2 0.971216 0.784161 0.221790
O O3 0.500000 0.000000 0.500000
O O4 0.000000 0.000000 0.500000
O O5 0.105034 0.790026 0.829223
O O6 0.911440 0.570113 0.717097
O O7 0.505637 0.757000 0.992028
O O8 0.045981 0.795071 0.033296
O O9 0.300148 0.161226 0.314924
O O10 0.814804 0.365958 0.645512
O O11 0.841944 0.198630 0.357943
O O12 0.673734 0.600983 0.476206
O O13 0.706804 0.569388 0.876890
#
# Coordination Sequence:
#
# PCOD8042743 Si02
#       6
#     2   2   2   2   2   2
#     4  12  26  47  67  77 111 164 214 257 290 344
#     4  10  19  35  60  96 131 154 182 229 302 372
#     4  10  22  37  60  93 116 159 198 242 294 350
#     4  10  19  35  60  96 131 154 182 229 302 372
#     4  10  22  37  60  93 116 159 198 242 294 350
#     4   8  21  33  60  96 126 155 183 234 296 366
#
# _framework density 20.039670999999998
#
# number of rings (size 3 to 8) (size 9 to 14) (size 15 to 20)
#    2.000    0.000    0.000    4.500    0.000    2.000 
#    0.000    1.667    0.000   20.000    0.000    0.000 
#    0.000    0.000    0.000    0.000    0.000    0.000 
#
# Total GULP energy -148662.954490 kJ/mol
# GULP energy per Si atom -12388.579541 kJ/mol
# Density = 1.999406 g / cm^3
# Si number density = 20.039671 Si / 1000 Ang^3
#
#
#
# Elastic Constant Matrix: (Units=GPa)
#
#
# Indices 1 2 3 4 5 6 
#
# 1 164.0356 37.5575 15.4492 -18.2135 -6.8570 -16.0593
# 2 37.5575 86.8438 11.7982 -28.2732 -2.0399 -6.3077
# 3 15.4492 11.7982 22.0408 -9.8866 -1.7631 2.4085
# 4 -18.2135 -28.2732 -9.8866 25.4414 -2.6265 -1.9759
# 5 -6.8570 -2.0399 -1.7631 -2.6265 24.8296 -9.5917
# 6 -16.0593 -6.3077 2.4085 -1.9759 -9.5917 23.5668
#
#
#
# Elastic Compliance Matrix: (Units=1/GPa)
#
#
# Indices 1 2 3 4 5 6 
#
# 1 0.008231 -0.000684 -0.003642 0.004982 0.005798 0.008575
# 2 -0.000684 0.020559 -0.000310 0.023864 0.007990 0.010321
# 3 -0.003642 -0.000310 0.057593 0.019292 0.002918 -0.005646
# 4 0.004982 0.023864 0.019292 0.081052 0.022452 0.023744
# 5 0.005798 0.007990 0.002918 0.022452 0.057048 0.030892
# 6 0.008575 0.010321 -0.005646 0.023744 0.030892 0.066180
#
#
# Mechanical properties :
#
#
# Convention : Reuss Voigt Hill
#
# Bulk Modulus (GPa) = 12.96823 44.72556 28.84689
# Shear Modulus (GPa) = 15.35446 28.64192 21.99819
#
# Velocity S-wave (km/s) = 2.77104 3.78466 3.31680
# Velocity P-wave (km/s) = 4.08944 6.43934 5.39392
#
# Compressibility (1/GPa) = 0.07711154
#
# Stress axis : x y z
#
# Youngs Moduli (GPa) = 121.49365 48.63953 17.36319
#
# Poissons Ratio (x) = 0.03327 0.06323
# Poissons Ratio (y) = 0.08309 0.00538
# Poissons Ratio (z) = 0.44247 0.01508
#
# Static dielectric constant tensor:
#      x y z
#    x 3.694440 -0.081330 -0.023750 
#    y -0.081330 3.347710 -0.015140 
#    z -0.023750 -0.015140 3.434050 
# 
# 
# High freq. dielectric constant tensor:
#      x y z
#    x 1.798020 -0.008960 -0.000990 
#    y -0.008960 1.758030 -0.002850 
#    z -0.000990 -0.002850 1.764330 
# 
# From -- ./inp_files/367100.got.cif
#   From: 2010.06.25/outbox.cif.g09.slc.cpg/sg2_184_cif.got.tgz:367100.got - 2010.06.27 13:26:56.
