data_PCOD8042465
_publ_section_title
;
Structure prediction by ZEFSAII (Michael W. Deem and Ramdas Pophale) SiO2 
 PCOD8042465
Probable space group: P -1
;
_chemical_formula_sum "Si O2"
_cell_formula_units_Z 16
_cell_length_a 8.627446
_cell_length_b 14.535347
_cell_length_c 25.872352
_cell_angle_alpha 31.256460
_cell_angle_beta 146.692228
_cell_angle_gamma 126.075679
_cell_volume 829.822494
_symmetry_space_group_name_H-M "P -1"
_symmetry_group_IT_number 2
_symmetry_cell_setting 'triclinic'
loop_
_space_group_symop_operation_xyz
x,y,z
-x,-y,-z
loop_
_atom_site_type_symbol
_atom_site_label
_atom_site_fract_x
_atom_site_fract_y
_atom_site_fract_z
Si Si1 0.153540 0.634108 0.147952
Si Si2 0.118448 0.036536 0.172944
Si Si3 0.663216 0.455442 0.303551
Si Si4 0.508423 0.339450 0.039302
Si Si5 0.722192 0.832119 0.179683
Si Si6 0.365926 0.849259 0.171837
Si Si7 0.306526 0.087582 0.669246
Si Si8 0.796338 0.382181 0.992902
O O1 0.390629 0.449963 0.267927
O O2 0.351599 0.647664 0.246414
O O3 0.060503 0.831962 0.990914
O O4 0.853523 0.612139 0.095154
O O5 0.025678 0.175401 0.130426
O O6 0.491746 0.944440 0.311500
O O7 0.047825 0.850334 0.255965
O O8 0.770674 0.617362 0.277592
O O9 0.952948 0.242533 0.485618
O O10 0.520077 0.503406 0.183457
O O11 0.681761 0.350488 0.031346
O O12 0.698128 0.118034 0.219296
O O13 0.500000 0.500000 0.000000
O O14 0.578334 0.893994 0.167388
O O15 0.500000 0.000000 0.000000
O O16 0.533064 0.832331 0.281025
O O17 0.000000 0.000000 0.000000
O O18 0.000000 0.500000 0.000000
#
# Coordination Sequence:
#
# PCOD8042465 Si02
#       8
#     2   2   2   2   2   2   2   2
#     4   9  19  35  57  85 121 158 199 237 285 360
#     4  10  19  35  56  86 121 160 197 238 285 363
#     4  10  23  39  59  90 126 154 193 257 297 338
#     4  11  22  40  66  89 110 158 208 241 290 369
#     4  11  18  33  59  88 124 161 202 236 289 360
#     4  11  18  32  58  86 118 164 199 234 287 359
#     4  11  23  38  59  91 126 153 197 254 298 336
#     4  11  22  41  66  87 111 160 206 238 296 366
#
# _framework density 19.281230999999998
#
# number of rings (size 3 to 8) (size 9 to 14) (size 15 to 20)
#    0.000    1.500    6.250    3.000    0.000    3.500 
#    0.000    7.500    0.000    0.000    0.000    0.000 
#    0.000    0.000    0.000    0.000    0.000    0.000 
#
# Total GULP energy -198265.641959 kJ/mol
# GULP energy per Si atom -12391.602622 kJ/mol
# Density = 1.923735 g / cm^3
# Si number density = 19.281231 Si / 1000 Ang^3
#
#
#
# Elastic Constant Matrix: (Units=GPa)
#
#
# Indices 1 2 3 4 5 6 
#
# 1 165.1733 57.2190 48.7424 -5.2989 20.6540 12.0631
# 2 57.2190 112.1375 27.8980 -10.1389 -0.0778 5.9985
# 3 48.7424 27.8980 103.1229 -9.9861 28.4232 2.0489
# 4 -5.2989 -10.1389 -9.9861 17.0421 -1.9232 1.9985
# 5 20.6540 -0.0778 28.4232 -1.9232 22.8075 2.8125
# 6 12.0631 5.9985 2.0489 1.9985 2.8125 39.6203
#
#
#
# Elastic Compliance Matrix: (Units=1/GPa)
#
#
# Indices 1 2 3 4 5 6 
#
# 1 0.008733 -0.004128 -0.001413 -0.001080 -0.006071 -0.001476
# 2 -0.004128 0.012362 -0.003141 0.005322 0.008305 -0.001310
# 3 -0.001413 -0.003141 0.017178 0.005385 -0.019827 0.001153
# 4 -0.001080 0.005322 0.005385 0.065172 0.000282 -0.004063
# 5 -0.006071 0.008305 -0.019827 0.000282 0.074558 -0.003691
# 6 -0.001476 -0.001310 0.001153 -0.004063 -0.003691 0.026295
#
#
# Mechanical properties :
#
#
# Convention : Reuss Voigt Hill
#
# Bulk Modulus (GPa) = 47.82449 72.01694 59.92072
# Shear Modulus (GPa) = 21.86909 32.33225 27.10067
#
# Velocity S-wave (km/s) = 3.37147 4.09941 3.75313
# Velocity P-wave (km/s) = 6.32560 7.73555 7.06583
#
# Compressibility (1/GPa) = 0.02090979
#
# Stress axis : x y z
#
# Youngs Moduli (GPa) = 114.50246 80.89152 58.21297
#
# Poissons Ratio (x) = 0.33389 0.08228
# Poissons Ratio (y) = 0.47262 0.18285
# Poissons Ratio (z) = 0.16184 0.25408
#
# Static dielectric constant tensor:
#      x y z
#    x 3.059270 -0.726400 0.281250 
#    y -0.726400 3.202390 0.089570 
#    z 0.281250 0.089570 3.198230 
# 
# 
# High freq. dielectric constant tensor:
#      x y z
#    x 1.771070 -0.002340 0.024040 
#    y -0.002340 1.751960 0.002460 
#    z 0.024040 0.002460 1.707500 
# 
# From -- ./inp_files/273734.got.cif
#   From: 2010.06.25/outbox.cif.g09.slc.cpg/sg2_137_cif.got.tgz:273734.got - 2010.06.27 13:26:56.
