data_PCOD8042487
_publ_section_title
;
Structure prediction by ZEFSAII (Michael W. Deem and Ramdas Pophale) SiO2 
 PCOD8042487
Probable space group: P -1
;
_chemical_formula_sum "Si O2"
_cell_formula_units_Z 16
_cell_length_a 18.122877
_cell_length_b 23.885063
_cell_length_c 8.900388
_cell_angle_alpha 37.877792
_cell_angle_beta 140.723685
_cell_angle_gamma 159.517001
_cell_volume 816.888168
_symmetry_space_group_name_H-M "P -1"
_symmetry_group_IT_number 2
_symmetry_cell_setting 'triclinic'
loop_
_space_group_symop_operation_xyz
x,y,z
-x,-y,-z
loop_
_atom_site_type_symbol
_atom_site_label
_atom_site_fract_x
_atom_site_fract_y
_atom_site_fract_z
Si Si1 0.406779 0.864634 0.245771
Si Si2 0.221043 0.010364 0.480858
Si Si3 0.865042 0.166860 0.009480
Si Si4 0.995309 0.499402 0.673321
Si Si5 0.807724 0.668289 0.398726
Si Si6 0.534652 0.657629 0.917266
Si Si7 0.736761 0.488658 0.919226
Si Si8 0.094088 0.359539 0.688044
O O1 0.236050 0.694184 0.240641
O O2 0.601215 0.927063 0.471900
O O3 0.298594 0.854695 0.228197
O O4 0.500000 0.000000 0.000000
O O5 0.229247 0.980788 0.731701
O O6 0.986319 0.842721 0.399266
O O7 0.283214 0.157202 0.257377
O O8 0.057971 0.333322 0.057425
O O9 0.958088 0.202263 0.916944
O O10 0.012583 0.610393 0.537542
O O11 0.000000 0.500000 0.500000
O O12 0.195600 0.569930 0.899205
O O13 0.683324 0.514358 0.634562
O O14 0.923046 0.689619 0.401718
O O15 0.630390 0.619554 0.158035
O O16 0.338641 0.526208 0.772283
O O17 0.462071 0.643111 0.999971
#
# Coordination Sequence:
#
# PCOD8042487 Si02
#       8
#     2   2   2   2   2   2   2   2
#     4   9  15  28  54  81 101 130 185 223 255 318
#     4  10  19  35  57  81 104 145 193 222 266 327
#     4   8  17  32  56  81 106 143 181 221 274 333
#     4  11  16  33  62  84 100 140 195 222 262 337
#     4  11  24  37  50  85 121 143 175 233 287 309
#     4  11  20  38  62  77 104 154 198 217 254 343
#     4   9  19  35  59  82 105 144 187 228 268 324
#     4  11  21  36  58  83 113 143 181 235 276 321
#
# _framework density 19.586524000000001
#
# number of rings (size 3 to 8) (size 9 to 14) (size 15 to 20)
#    0.000    2.000    5.000    1.875    0.000    0.500 
#    0.000    2.500    0.000    0.000    0.000    0.000 
#    0.000    0.000    0.000    0.000    0.000    0.000 
#
# Total GULP energy -198257.339579 kJ/mol
# GULP energy per Si atom -12391.083724 kJ/mol
# Density = 1.954194 g / cm^3
# Si number density = 19.586524 Si / 1000 Ang^3
#
#
#
# Elastic Constant Matrix: (Units=GPa)
#
#
# Indices 1 2 3 4 5 6 
#
# 1 56.6659 13.2365 27.0715 -10.4341 2.9633 10.5889
# 2 13.2365 43.5384 15.7144 -20.1074 -4.1513 9.0369
# 3 27.0715 15.7144 104.5114 -24.3684 12.9762 0.2101
# 4 -10.4341 -20.1074 -24.3684 25.6608 10.0257 -4.8327
# 5 2.9633 -4.1513 12.9762 10.0257 33.7551 0.5211
# 6 10.5889 9.0369 0.2101 -4.8327 0.5211 15.0668
#
#
#
# Elastic Compliance Matrix: (Units=1/GPa)
#
#
# Indices 1 2 3 4 5 6 
#
# 1 0.023787 -0.002185 -0.006093 -0.000977 0.000517 -0.015653
# 2 -0.002185 0.039710 0.003108 0.033303 -0.005834 -0.011441
# 3 -0.006093 0.003108 0.017943 0.024153 -0.013315 0.010376
# 4 -0.000977 0.033303 0.024153 0.104708 -0.036438 0.015221
# 5 0.000517 -0.005834 -0.013315 -0.036438 0.044957 -0.009921
# 6 -0.015653 -0.011441 0.010376 0.015221 -0.009921 0.089315
#
#
# Mechanical properties :
#
#
# Convention : Reuss Voigt Hill
#
# Bulk Modulus (GPa) = 14.06501 35.19562 24.63031
# Shear Modulus (GPa) = 14.10592 24.80943 19.45767
#
# Velocity S-wave (km/s) = 2.68654 3.56288 3.15528
# Velocity P-wave (km/s) = 4.10120 5.91048 5.08693
#
# Compressibility (1/GPa) = 0.07109845
#
# Stress axis : x y z
#
# Youngs Moduli (GPa) = 42.03997 25.18273 55.73062
#
# Poissons Ratio (x) = 0.05503 0.33959
# Poissons Ratio (y) = 0.09186 -0.17319
# Poissons Ratio (z) = 0.25617 -0.07826
#
# Static dielectric constant tensor:
#      x y z
#    x 3.862310 0.662170 0.233170 
#    y 0.662170 3.587770 -0.194370 
#    z 0.233170 -0.194370 4.012500 
# 
# 
# High freq. dielectric constant tensor:
#      x y z
#    x 1.734610 0.038890 0.011690 
#    y 0.038890 1.740770 -0.019360 
#    z 0.011690 -0.019360 1.772150 
# 
# From -- ./inp_files/206080.got.cif
#   From: 2010.06.25/outbox.cif.g09.slc.cpg/sg2_104_cif.got.tgz:206080.got - 2010.06.27 13:26:56.
