data_PCOD8042267
_publ_section_title
;
Structure prediction by ZEFSAII (Michael W. Deem and Ramdas Pophale) SiO2 
 PCOD8042267
Probable space group: P -1
;
_chemical_formula_sum "Si O2"
_cell_formula_units_Z 16
_cell_length_a 15.905635
_cell_length_b 9.430587
_cell_length_c 14.661327
_cell_angle_alpha 27.799271
_cell_angle_beta 134.783565
_cell_angle_gamma 132.273578
_cell_volume 719.778523
_symmetry_space_group_name_H-M "P -1"
_symmetry_group_IT_number 2
_symmetry_cell_setting 'triclinic'
loop_
_space_group_symop_operation_xyz
x,y,z
-x,-y,-z
loop_
_atom_site_type_symbol
_atom_site_label
_atom_site_fract_x
_atom_site_fract_y
_atom_site_fract_z
Si Si1 0.854091 0.451312 0.304826
Si Si2 0.716446 0.837865 0.845349
Si Si3 0.462581 0.140306 0.167019
Si Si4 0.996960 0.668177 0.997245
Si Si5 0.302552 0.086218 0.594373
Si Si6 0.104031 0.738457 0.367374
Si Si7 0.761853 0.313782 0.062911
Si Si8 0.263483 0.745967 0.137915
O O1 0.840772 0.465802 0.397308
O O2 0.995589 0.542153 0.340045
O O3 0.810636 0.102700 0.436950
O O4 0.777332 0.681465 0.065760
O O5 0.595882 0.953095 0.724937
O O6 0.798041 0.144618 0.699307
O O7 0.689419 0.585970 0.887269
O O8 0.576881 0.985598 0.319659
O O9 0.359212 0.040600 0.069493
O O10 0.500000 0.500000 0.000000
O O11 0.135154 0.752630 0.086169
O O12 0.904638 0.436822 0.122411
O O13 0.000000 0.500000 0.000000
O O14 0.943181 0.984944 0.770516
O O15 0.308808 0.446315 0.383582
O O16 0.288090 0.992038 0.744014
O O17 0.741896 0.257291 0.973482
#
# Coordination Sequence:
#
# PCOD8042267 Si02
#       8
#     2   2   2   2   2   2   2   2
#     4  10  19  34  61  89 125 159 197 256 310 370
#     4  10  20  40  62  89 128 164 207 260 312 365
#     4  12  24  44  65  92 126 167 219 269 305 357
#     4   9  18  35  59  92 124 157 200 249 312 376
#     4  11  23  42  64  90 127 165 213 258 314 367
#     4  10  20  35  60  95 126 164 205 246 323 384
#     4   9  20  40  67  93 125 165 203 253 317 389
#     4  11  24  42  67  89 128 169 204 260 316 372
#
# _framework density 22.229058999999999
#
# number of rings (size 3 to 8) (size 9 to 14) (size 15 to 20)
#    0.000    1.750    2.500    3.750    0.000    3.000 
#    0.000   13.750    0.000    0.000    0.000    0.000 
#    0.000    0.000    0.000    0.000    0.000    0.000 
#
# Total GULP energy -198239.700720 kJ/mol
# GULP energy per Si atom -12389.981295 kJ/mol
# Density = 2.217846 g / cm^3
# Si number density = 22.229059 Si / 1000 Ang^3
#
#
#
# Elastic Constant Matrix: (Units=GPa)
#
#
# Indices 1 2 3 4 5 6 
#
# 1 164.5873 42.3503 44.1531 -6.9554 -12.4173 13.5653
# 2 42.3503 121.3785 14.8980 -16.2059 -14.5697 12.1128
# 3 44.1531 14.8980 63.4100 -2.7741 -22.3968 13.1251
# 4 -6.9554 -16.2059 -2.7741 12.0656 3.3432 -6.8106
# 5 -12.4173 -14.5697 -22.3968 3.3432 25.1389 -4.6922
# 6 13.5653 12.1128 13.1251 -6.8106 -4.6922 30.8493
#
#
#
# Elastic Compliance Matrix: (Units=1/GPa)
#
#
# Indices 1 2 3 4 5 6 
#
# 1 0.008130 -0.002297 -0.006017 0.000799 -0.002851 -0.000370
# 2 -0.002297 0.011149 0.001295 0.012370 0.004749 -0.000465
# 3 -0.006017 0.001295 0.029233 -0.005987 0.023106 -0.008107
# 4 0.000799 0.012370 -0.005987 0.112836 -0.008875 0.020900
# 5 -0.002851 0.004749 0.023106 -0.008875 0.062344 -0.002918
# 6 -0.000370 -0.000465 -0.008107 0.020900 -0.002918 0.040381
#
#
# Mechanical properties :
#
#
# Convention : Reuss Voigt Hill
#
# Bulk Modulus (GPa) = 29.00722 61.35317 45.18020
# Shear Modulus (GPa) = 17.26503 30.14239 23.70371
#
# Velocity S-wave (km/s) = 2.78993 3.68637 3.26903
# Velocity P-wave (km/s) = 4.84313 6.76605 5.88368
#
# Compressibility (1/GPa) = 0.03447418
#
# Stress axis : x y z
#
# Youngs Moduli (GPa) = 122.99956 89.69242 34.20774
#
# Poissons Ratio (x) = 0.20600 0.20583
# Poissons Ratio (y) = 0.28250 -0.04428
# Poissons Ratio (z) = 0.74008 -0.11611
#
# Static dielectric constant tensor:
#      x y z
#    x 5.434050 0.737390 0.415130 
#    y 0.737390 4.454150 0.064360 
#    z 0.415130 0.064360 4.029940 
# 
# 
# High freq. dielectric constant tensor:
#      x y z
#    x 1.888280 0.006780 -0.010870 
#    y 0.006780 1.877140 -0.018330 
#    z -0.010870 -0.018330 1.844340 
# 
# From -- ./inp_files/529239.got.cif
#   From: 2010.06.25/outbox.cif.g09.slc.cpg/sg2_265_cif.got.tgz:529239.got - 2010.06.27 13:26:56.
