data_PCOD8042620
_publ_section_title
;
Structure prediction by ZEFSAII (Michael W. Deem and Ramdas Pophale) SiO2 
 PCOD8042620
Probable space group: P -1
;
_chemical_formula_sum "Si O2"
_cell_formula_units_Z 14
_cell_length_a 13.059216
_cell_length_b 11.167850
_cell_length_c 14.176932
_cell_angle_alpha 29.594418
_cell_angle_beta 49.648709
_cell_angle_gamma 45.951251
_cell_volume 728.536401
_symmetry_space_group_name_H-M "P -1"
_symmetry_group_IT_number 2
_symmetry_cell_setting 'triclinic'
loop_
_space_group_symop_operation_xyz
x,y,z
-x,-y,-z
loop_
_atom_site_type_symbol
_atom_site_label
_atom_site_fract_x
_atom_site_fract_y
_atom_site_fract_z
Si Si1 0.162249 0.857097 0.468603
Si Si2 0.782438 0.076653 0.407409
Si Si3 0.834165 0.502612 0.790819
Si Si4 0.375953 0.580371 0.894297
Si Si5 0.938075 0.792567 0.871430
Si Si6 0.658722 0.194412 0.046576
Si Si7 0.149681 0.314237 0.803120
O O1 0.258348 0.855299 0.504492
O O2 0.192365 0.566129 0.616694
O O3 0.184139 0.029680 0.250219
O O4 0.000000 0.000000 0.500000
O O5 0.656215 0.273530 0.285978
O O6 0.934322 0.094556 0.274951
O O7 0.790703 0.787460 0.578012
O O8 0.781115 0.326552 0.870799
O O9 0.003835 0.379596 0.786904
O O10 0.755232 0.515119 0.931119
O O11 0.523324 0.336512 0.962538
O O12 0.395263 0.771026 0.835437
O O13 0.861679 0.810808 0.004189
O O14 0.000000 0.500000 0.000000
O O15 0.723333 0.893169 0.188754
#
# Coordination Sequence:
#
# PCOD8042620 Si02
#       7
#     2   2   2   2   2   2   2
#     4  10  20  32  53  90 115 137 186 229 283 332
#     4  11  19  33  61  85 106 152 190 221 276 340
#     4  10  19  35  59  85 112 140 192 230 271 335
#     4   9  21  41  57  78 113 157 185 223 284 333
#     4  11  18  32  55  86 115 147 175 228 286 323
#     4   9  22  41  56  82 114 151 187 230 280 329
#     4  12  19  36  60  87 117 139 185 241 273 329
#
# _framework density 19.216609999999999
#
# number of rings (size 3 to 8) (size 9 to 14) (size 15 to 20)
#    0.857    0.857    7.143    0.429    0.000    0.571 
#    2.571    2.143    0.000    1.714    0.000    0.000 
#    0.000    0.000    0.000    0.000    0.000    0.000 
#
# Total GULP energy -173525.755642 kJ/mol
# GULP energy per Si atom -12394.696832 kJ/mol
# Density = 1.917287 g / cm^3
# Si number density = 19.216610 Si / 1000 Ang^3
#
#
#
# Elastic Constant Matrix: (Units=GPa)
#
#
# Indices 1 2 3 4 5 6 
#
# 1 68.7332 29.4879 37.6186 -17.8576 33.7203 0.5710
# 2 29.4879 81.1105 30.2885 -34.5458 4.1766 -2.6912
# 3 37.6186 30.2885 121.3228 -23.7532 20.7657 5.0253
# 4 -17.8576 -34.5458 -23.7532 32.3536 4.0526 -0.5521
# 5 33.7203 4.1766 20.7657 4.0526 40.4039 -10.9738
# 6 0.5710 -2.6912 5.0253 -0.5521 -10.9738 19.3099
#
#
#
# Elastic Compliance Matrix: (Units=1/GPa)
#
#
# Indices 1 2 3 4 5 6 
#
# 1 0.050541 -0.004023 0.002337 0.031657 -0.055127 -0.033087
# 2 -0.004023 0.023932 -0.000334 0.023176 -0.000150 0.004118
# 3 0.002337 -0.000334 0.012275 0.011284 -0.012024 -0.009821
# 4 0.031657 0.023176 0.011284 0.087302 -0.050693 -0.026955
# 5 -0.055127 -0.000150 -0.012024 -0.050693 0.098068 0.059021
# 6 -0.033087 0.004118 -0.009821 -0.026955 0.059021 0.088666
#
#
# Mechanical properties :
#
#
# Convention : Reuss Voigt Hill
#
# Bulk Modulus (GPa) = 12.09085 51.77297 31.93191
# Shear Modulus (GPa) = 12.74231 29.99825 21.37028
#
# Velocity S-wave (km/s) = 2.57784 3.95531 3.33839
# Velocity P-wave (km/s) = 3.89434 6.91806 5.61362
#
# Compressibility (1/GPa) = 0.08270716
#
# Stress axis : x y z
#
# Youngs Moduli (GPa) = 19.78608 41.78528 81.46444
#
# Poissons Ratio (x) = 0.16811 -0.19040
# Poissons Ratio (y) = 0.07960 0.02724
# Poissons Ratio (z) = -0.04625 0.01397
#
# Static dielectric constant tensor:
#      x y z
#    x 3.617490 0.175040 0.293300 
#    y 0.175040 3.143190 0.057010 
#    z 0.293300 0.057010 3.886010 
# 
# 
# High freq. dielectric constant tensor:
#      x y z
#    x 1.740480 0.010780 0.011400 
#    y 0.010780 1.705100 -0.017230 
#    z 0.011400 -0.017230 1.752400 
# 
# From -- ./inp_files/415941.got.cif
#   From: 2010.06.25/outbox.cif.g09.slc.cpg/sg2_208_cif.got.tgz:415941.got - 2010.06.27 13:26:56.
