data_PCOD8042748
_publ_section_title
;
Structure prediction by ZEFSAII (Michael W. Deem and Ramdas Pophale) SiO2 
 PCOD8042748
Probable space group: P -1
;
_chemical_formula_sum "Si O2"
_cell_formula_units_Z 14
_cell_length_a 15.233379
_cell_length_b 8.525348
_cell_length_c 9.919387
_cell_angle_alpha 110.733253
_cell_angle_beta 143.304811
_cell_angle_gamma 80.364179
_cell_volume 704.129147
_symmetry_space_group_name_H-M "P -1"
_symmetry_group_IT_number 2
_symmetry_cell_setting 'triclinic'
loop_
_space_group_symop_operation_xyz
x,y,z
-x,-y,-z
loop_
_atom_site_type_symbol
_atom_site_label
_atom_site_fract_x
_atom_site_fract_y
_atom_site_fract_z
Si Si1 0.833021 0.520804 0.767644
Si Si2 0.841320 0.810276 0.648799
Si Si3 0.345131 0.266076 0.232749
Si Si4 0.170080 0.941331 0.049921
Si Si5 0.564832 0.232281 0.270758
Si Si6 0.565184 0.194208 0.684477
Si Si7 0.549733 0.835948 0.176893
O O1 0.838894 0.642514 0.682837
O O2 0.763933 0.601238 0.837112
O O3 0.726792 0.339886 0.546071
O O4 0.000000 0.500000 0.000000
O O5 0.711669 0.783105 0.368430
O O6 0.813631 0.963238 0.757527
O O7 0.997798 0.864720 0.778741
O O8 0.424747 0.287293 0.191981
O O9 0.480107 0.311500 0.524428
O O10 0.245493 0.073162 0.066136
O O11 0.255971 0.781451 0.115591
O O12 0.569055 0.038833 0.252237
O O13 0.538954 0.258545 0.088699
O O14 0.541961 0.233401 0.823518
O O15 0.500000 0.000000 0.500000
#
# Coordination Sequence:
#
# PCOD8042748 Si02
#       7
#     2   2   2   2   2   2   2
#     4  11  25  38  60  90 124 154 196 248 302 346
#     4  10  20  36  56  88 113 163 188 242 294 346
#     4  10  19  38  59  90 111 160 199 245 290 343
#     4   9  17  30  62  86 111 143 209 244 270 346
#     4  11  24  38  60  94 123 151 193 252 301 349
#     4  10  15  33  61  85 111 147 211 238 271 351
#     4  11  21  39  63  89 119 157 200 243 295 351
#
# _framework density 19.882715000000001
#
# number of rings (size 3 to 8) (size 9 to 14) (size 15 to 20)
#    0.000    1.714    7.143    0.429    8.000    0.571 
#    0.000    2.143    0.000    1.714    0.000    0.000 
#    0.000    0.000    0.000    0.000    0.000    0.000 
#
# Total GULP energy -173554.926882 kJ/mol
# GULP energy per Si atom -12396.780492 kJ/mol
# Density = 1.983746 g / cm^3
# Si number density = 19.882715 Si / 1000 Ang^3
#
#
#
# Elastic Constant Matrix: (Units=GPa)
#
#
# Indices 1 2 3 4 5 6 
#
# 1 123.4045 26.0132 58.5804 -5.4303 10.8101 -15.6850
# 2 26.0132 52.1420 30.5749 -11.0130 6.2798 -19.9823
# 3 58.5804 30.5749 92.9991 -10.2277 11.7157 -14.1194
# 4 -5.4303 -11.0130 -10.2277 29.8275 -0.5180 11.5919
# 5 10.8101 6.2798 11.7157 -0.5180 41.8301 -9.9531
# 6 -15.6850 -19.9823 -14.1194 11.5919 -9.9531 24.8147
#
#
#
# Elastic Compliance Matrix: (Units=1/GPa)
#
#
# Indices 1 2 3 4 5 6 
#
# 1 0.011957 -0.000883 -0.006862 -0.001985 -0.000154 0.003808
# 2 -0.000883 0.031869 -0.006836 0.000807 0.002572 0.021870
# 3 -0.006862 -0.006836 0.017649 0.003139 -0.002660 -0.002334
# 4 -0.001985 0.000807 0.003139 0.042463 -0.004864 -0.020605
# 5 -0.000154 0.002572 -0.002660 -0.004864 0.027521 0.013772
# 6 0.003808 0.021870 -0.002334 -0.020605 0.013772 0.074138
#
#
# Mechanical properties :
#
#
# Convention : Reuss Voigt Hill
#
# Bulk Modulus (GPa) = 30.94772 55.43139 43.18955
# Shear Modulus (GPa) = 20.36394 29.51959 24.94177
#
# Velocity S-wave (km/s) = 3.20379 3.85734 3.54566
# Velocity P-wave (km/s) = 5.41153 6.91220 6.20738
#
# Compressibility (1/GPa) = 0.03231256
#
# Stress axis : x y z
#
# Youngs Moduli (GPa) = 83.63106 31.37799 56.66049
#
# Poissons Ratio (x) = 0.02770 0.38883
# Poissons Ratio (y) = 0.07383 0.38735
# Poissons Ratio (z) = 0.57391 0.21451
#
# Static dielectric constant tensor:
#      x y z
#    x 3.899990 -0.156750 0.319180 
#    y -0.156750 3.603560 -0.246980 
#    z 0.319180 -0.246980 3.598840 
# 
# 
# High freq. dielectric constant tensor:
#      x y z
#    x 1.778490 -0.004420 0.021160 
#    y -0.004420 1.766330 -0.017210 
#    z 0.021160 -0.017210 1.746540 
# 
# From -- ./inp_files/190962.got.cif
#   From: 2010.06.25/outbox.cif.g09.slc.cpg/sg2_96_cif.got.tgz:190962.got - 2010.06.27 13:26:56.
