data_PCOD8042346
_publ_section_title
;
Structure prediction by ZEFSAII (Michael W. Deem and Ramdas Pophale) SiO2 
 PCOD8042346
Probable space group: P -1
;
_chemical_formula_sum "Si O2"
_cell_formula_units_Z 14
_cell_length_a 19.381615
_cell_length_b 24.671222
_cell_length_c 13.911777
_cell_angle_alpha 24.625880
_cell_angle_beta 30.224530
_cell_angle_gamma 13.570451
_cell_volume 637.185170
_symmetry_space_group_name_H-M "P -1"
_symmetry_group_IT_number 2
_symmetry_cell_setting 'triclinic'
loop_
_space_group_symop_operation_xyz
x,y,z
-x,-y,-z
loop_
_atom_site_type_symbol
_atom_site_label
_atom_site_fract_x
_atom_site_fract_y
_atom_site_fract_z
Si Si1 0.891170 0.644452 0.796523
Si Si2 0.233602 0.202027 0.743986
Si Si3 0.943464 0.203669 0.437141
Si Si4 0.995707 0.343244 0.997429
Si Si5 0.966246 0.201661 0.626977
Si Si6 0.720077 0.121679 0.862617
Si Si7 0.615223 0.255225 0.980323
O O1 0.890145 0.547093 0.866165
O O2 0.095545 0.595680 0.599130
O O3 0.551906 0.979882 0.679504
O O4 0.000000 0.500000 0.000000
O O5 0.000000 0.500000 0.500000
O O6 0.225687 0.208716 0.859769
O O7 0.172800 0.103373 0.948366
O O8 0.090460 0.092375 0.544053
O O9 0.898061 0.090397 0.648189
O O10 0.633004 0.549650 0.254330
O O11 0.140832 0.107026 0.271484
O O12 0.725898 0.504986 0.000256
O O13 0.660367 0.375408 0.728293
O O14 0.238206 0.918496 0.819133
O O15 0.795704 0.049982 0.000776
#
# Coordination Sequence:
#
# PCOD8042346 Si02
#       7
#     2   2   2   2   2   2   2
#     4  12  24  44  67  96 137 177 216 274 335 392
#     4  12  26  40  65 103 138 171 221 273 330 405
#     4   9  17  38  64  90 121 172 219 270 315 385
#     4  11  23  41  69  95 128 177 225 266 334 391
#     4  10  19  34  65  93 125 168 218 266 324 385
#     4   9  18  37  63  89 127 168 222 262 318 384
#     4   9  19  37  65  92 123 176 222 259 328 395
#
# _framework density 21.971634999999999
#
# number of rings (size 3 to 8) (size 9 to 14) (size 15 to 20)
#    0.000    1.714    4.286    1.714    2.000    2.286 
#    0.000    0.000    3.143    7.714    0.000    0.000 
#    0.000    0.000    0.000    0.000    0.000    0.000 
#
# Total GULP energy -173460.912941 kJ/mol
# GULP energy per Si atom -12390.065210 kJ/mol
# Density = 2.192163 g / cm^3
# Si number density = 21.971635 Si / 1000 Ang^3
#
#
#
# Elastic Constant Matrix: (Units=GPa)
#
#
# Indices 1 2 3 4 5 6 
#
# 1 128.2015 29.5043 59.5308 5.0984 1.0332 1.8971
# 2 29.5043 51.7700 23.7998 2.7095 -7.3273 18.3018
# 3 59.5308 23.7998 145.2446 7.8874 -10.7377 15.2609
# 4 5.0984 2.7095 7.8874 31.8269 2.0892 5.3862
# 5 1.0332 -7.3273 -10.7377 2.0892 54.4491 12.7664
# 6 1.8971 18.3018 15.2609 5.3862 12.7664 23.9906
#
#
#
# Elastic Compliance Matrix: (Units=1/GPa)
#
#
# Indices 1 2 3 4 5 6 
#
# 1 0.012493 -0.010269 -0.005200 -0.001765 -0.005770 0.013620
# 2 -0.010269 0.040333 0.002865 0.003390 0.015638 -0.040863
# 3 -0.005200 0.002865 0.010069 -0.000416 0.005006 -0.010751
# 4 -0.001765 0.003390 -0.000416 0.033186 0.001592 -0.010480
# 5 -0.005770 0.015638 0.005006 0.001592 0.028594 -0.030232
# 6 0.013620 -0.040863 -0.010751 -0.010480 -0.030232 0.097058
#
#
# Mechanical properties :
#
#
# Convention : Reuss Voigt Hill
#
# Bulk Modulus (GPa) = 26.53327 61.20955 43.87141
# Shear Modulus (GPa) = 19.26759 36.21208 27.73983
#
# Velocity S-wave (km/s) = 2.96451 4.06412 3.55706
# Velocity P-wave (km/s) = 4.88059 7.06694 6.07297
#
# Compressibility (1/GPa) = 0.03768853
#
# Stress axis : x y z
#
# Youngs Moduli (GPa) = 80.04394 24.79355 99.31636
#
# Poissons Ratio (x) = 0.25460 0.51641
# Poissons Ratio (y) = 0.82197 -0.28458
# Poissons Ratio (z) = 0.41620 -0.07104
#
# Static dielectric constant tensor:
#      x y z
#    x 4.291710 -0.009610 -0.087420 
#    y -0.009610 3.649650 0.544550 
#    z -0.087420 0.544550 4.321240 
# 
# 
# High freq. dielectric constant tensor:
#      x y z
#    x 1.880500 0.000310 -0.002910 
#    y 0.000310 1.810040 0.036020 
#    z -0.002910 0.036020 1.880510 
# 
# From -- ./inp_files/467035.got.cif
#   From: 2010.06.25/outbox.cif.g09.slc.cpg/sg2_234_cif.got.tgz:467035.got - 2010.06.27 13:26:56.
