data_PCOD8042490
_publ_section_title
;
Structure prediction by ZEFSAII (Michael W. Deem and Ramdas Pophale) SiO2 
 PCOD8042490
Probable space group: P -1
;
_chemical_formula_sum "Si O2"
_cell_formula_units_Z 16
_cell_length_a 13.389874
_cell_length_b 21.126919
_cell_length_c 5.134022
_cell_angle_alpha 92.516913
_cell_angle_beta 69.705099
_cell_angle_gamma 145.423817
_cell_volume 688.764611
_symmetry_space_group_name_H-M "P -1"
_symmetry_group_IT_number 2
_symmetry_cell_setting 'triclinic'
loop_
_space_group_symop_operation_xyz
x,y,z
-x,-y,-z
loop_
_atom_site_type_symbol
_atom_site_label
_atom_site_fract_x
_atom_site_fract_y
_atom_site_fract_z
Si Si1 0.779732 0.639718 0.508670
Si Si2 0.908501 0.311813 0.771987
Si Si3 0.661737 0.648796 0.100577
Si Si4 0.029511 0.089058 0.501736
Si Si5 0.676040 0.231451 0.489037
Si Si6 0.380069 0.249217 0.558444
Si Si7 0.819394 0.437448 0.321932
Si Si8 0.217246 0.027575 0.789042
O O1 0.764441 0.662296 0.244170
O O2 0.580706 0.494998 0.738466
O O3 0.987040 0.703237 0.332767
O O4 0.796207 0.703233 0.725841
O O5 0.726417 0.217818 0.701457
O O6 0.081619 0.455658 0.572614
O O7 0.819725 0.280219 0.133061
O O8 0.664876 0.725539 0.159351
O O9 0.277488 0.225264 0.380956
O O10 0.944350 0.078094 0.311265
O O11 0.000000 0.000000 0.500000
O O12 0.889207 0.044479 0.856021
O O13 0.719761 0.327521 0.551739
O O14 0.434733 0.099799 0.595009
O O15 0.629347 0.368550 0.304386
O O16 0.262516 0.125437 0.733986
O O17 0.000000 0.500000 0.000000
#
# Coordination Sequence:
#
# PCOD8042490 Si02
#       8
#     2   2   2   2   2   2   2   2
#     4  10  21  36  53  76 113 140 192 227 262 309
#     4  11  19  36  53  79 107 152 176 223 265 320
#     4  10  21  36  52  80 105 150 182 229 266 316
#     4  10  20  35  55  81 112 145 180 227 274 324
#     4  10  21  33  56  78 109 145 184 211 274 330
#     4  10  19  35  57  81 112 151 179 218 279 325
#     4   9  19  34  50  81 114 145 178 215 255 334
#     4  10  21  37  54  85 116 139 181 230 268 333
#
# _framework density 23.229994999999999
#
# number of rings (size 3 to 8) (size 9 to 14) (size 15 to 20)
#    0.000    2.000    1.250    3.375    0.000    4.000 
#    0.000    6.250    0.000    0.000    0.000   17.500 
#    0.000    0.000    0.000    0.000    0.000    0.000 
#
# Total GULP energy -198327.126225 kJ/mol
# GULP energy per Si atom -12395.445389 kJ/mol
# Density = 2.317712 g / cm^3
# Si number density = 23.229995 Si / 1000 Ang^3
#
#
#
# Elastic Constant Matrix: (Units=GPa)
#
#
# Indices 1 2 3 4 5 6 
#
# 1 112.6485 51.5310 43.4659 7.0849 -29.4569 34.0494
# 2 51.5310 88.7910 30.6956 15.0675 -17.8770 35.0801
# 3 43.4659 30.6956 102.7317 17.4710 -10.0907 20.8993
# 4 7.0849 15.0675 17.4710 36.9389 5.3159 -3.9190
# 5 -29.4569 -17.8770 -10.0907 5.3159 39.6045 1.4024
# 6 34.0494 35.0801 20.8993 -3.9190 1.4024 40.7457
#
#
#
# Elastic Compliance Matrix: (Units=1/GPa)
#
#
# Indices 1 2 3 4 5 6 
#
# 1 0.018707 0.000289 -0.002197 -0.006500 0.014919 -0.015892
# 2 0.000289 0.027270 0.001689 -0.017153 0.016206 -0.026794
# 3 -0.002197 0.001689 0.013392 -0.007942 0.003868 -0.007384
# 4 -0.006500 -0.017153 -0.007942 0.045314 -0.021723 0.029379
# 5 0.014919 0.016206 0.003868 -0.021723 0.048702 -0.032169
# 6 -0.015892 -0.026794 -0.007384 0.029379 -0.032169 0.068612
#
#
# Mechanical properties :
#
#
# Convention : Reuss Voigt Hill
#
# Bulk Modulus (GPa) = 16.96923 61.72846 39.34885
# Shear Modulus (GPa) = 20.65449 35.35638 28.00544
#
# Velocity S-wave (km/s) = 2.98506 3.90553 3.47590
# Velocity P-wave (km/s) = 4.38196 6.85332 5.75194
#
# Compressibility (1/GPa) = 0.05893021
#
# Stress axis : x y z
#
# Youngs Moduli (GPa) = 53.45673 36.66984 74.67345
#
# Poissons Ratio (x) = -0.01058 0.16407
# Poissons Ratio (y) = -0.01543 -0.12615
# Poissons Ratio (z) = 0.11745 -0.06195
#
# Static dielectric constant tensor:
#      x y z
#    x 4.202990 0.256150 -0.142930 
#    y 0.256150 4.681940 0.099290 
#    z -0.142930 0.099290 3.990950 
# 
# 
# High freq. dielectric constant tensor:
#      x y z
#    x 1.914250 0.018440 -0.010570 
#    y 0.018440 1.919610 0.005130 
#    z -0.010570 0.005130 1.906570 
# 
# From -- ./inp_files/82637.got.cif
#   From: 2010.06.25/outbox.cif.g09.slc.cpg/sg2_42_cif.got.tgz:82637.got - 2010.06.27 13:26:56.
