data_PCOD8042308
_publ_section_title
;
Structure prediction by ZEFSAII (Michael W. Deem and Ramdas Pophale) SiO2 
 PCOD8042308
Probable space group: P -1
;
_chemical_formula_sum "Si O2"
_cell_formula_units_Z 14
_cell_length_a 9.310476
_cell_length_b 17.068232
_cell_length_c 5.272249
_cell_angle_alpha 128.458895
_cell_angle_beta 68.835071
_cell_angle_gamma 107.731356
_cell_volume 608.130009
_symmetry_space_group_name_H-M "P -1"
_symmetry_group_IT_number 2
_symmetry_cell_setting 'triclinic'
loop_
_space_group_symop_operation_xyz
x,y,z
-x,-y,-z
loop_
_atom_site_type_symbol
_atom_site_label
_atom_site_fract_x
_atom_site_fract_y
_atom_site_fract_z
Si Si1 0.991452 0.215067 0.041280
Si Si2 0.472687 0.165225 0.285041
Si Si3 0.285586 0.122780 0.832589
Si Si4 0.725767 0.099984 0.688742
Si Si5 0.283030 0.727384 0.347047
Si Si6 0.814526 0.493850 0.127962
Si Si7 0.867813 0.574794 0.756939
O O1 0.066458 0.308904 0.014661
O O2 0.884106 0.259734 0.406695
O O3 0.117914 0.160044 0.998333
O O4 0.896221 0.134555 0.757427
O O5 0.364523 0.131679 0.523961
O O6 0.583445 0.265643 0.506255
O O7 0.372562 0.183587 0.133701
O O8 0.596360 0.086487 0.969365
O O9 0.269285 0.004197 0.674400
O O10 0.669479 0.184282 0.707400
O O11 0.268541 0.618667 0.006383
O O12 0.757753 0.543237 0.004259
O O13 0.767756 0.559498 0.530542
O O14 0.000000 0.500000 0.000000
O O15 0.000000 0.500000 0.500000
#
# Coordination Sequence:
#
# PCOD8042308 Si02
#       7
#     2   2   2   2   2   2   2
#     4  11  25  39  67 103 131 163 215 279 326 369
#     4  11  26  45  65  91 132 181 220 253 314 397
#     4  12  27  44  64  94 138 175 209 266 330 380
#     4  11  24  43  69  96 128 173 227 262 309 385
#     4  11  23  40  70 101 125 165 226 267 312 385
#     4  10  19  34  62  95 120 154 209 270 310 364
#     4  10  19  36  60  94 124 159 205 262 321 375
#
# _framework density 23.021391999999999
#
# number of rings (size 3 to 8) (size 9 to 14) (size 15 to 20)
#    0.000    1.143    4.286    3.000    8.000    0.571 
#    0.000    0.000    0.000    5.143    0.000    0.000 
#    0.000    0.000    0.000    0.000    0.000    0.000 
#
# Total GULP energy -173516.944988 kJ/mol
# GULP energy per Si atom -12394.067499 kJ/mol
# Density = 2.296899 g / cm^3
# Si number density = 23.021392 Si / 1000 Ang^3
#
#
#
# Elastic Constant Matrix: (Units=GPa)
#
#
# Indices 1 2 3 4 5 6 
#
# 1 113.6507 21.3249 41.2739 -1.5036 31.8486 3.3341
# 2 21.3249 101.1197 39.8118 -15.5491 8.3500 -5.5744
# 3 41.2739 39.8118 85.9927 -16.0918 34.5006 1.3156
# 4 -1.5036 -15.5491 -16.0918 36.3325 -7.6870 13.4996
# 5 31.8486 8.3500 34.5006 -7.6870 29.6104 -3.7894
# 6 3.3341 -5.5744 1.3156 13.4996 -3.7894 21.2679
#
#
#
# Elastic Compliance Matrix: (Units=1/GPa)
#
#
# Indices 1 2 3 4 5 6 
#
# 1 0.013488 -0.002299 0.000535 -0.001862 -0.015521 -0.004334
# 2 -0.002299 0.013693 -0.009099 0.002054 0.010394 0.005061
# 3 0.000535 -0.009099 0.031102 0.008618 -0.034050 -0.015930
# 4 -0.001862 0.002054 0.008618 0.041696 -0.001169 -0.026377
# 5 -0.015521 0.010394 -0.034050 -0.001169 0.089981 0.024038
# 6 -0.004334 0.005061 -0.015930 -0.026377 0.024038 0.071036
#
#
# Mechanical properties :
#
#
# Convention : Reuss Voigt Hill
#
# Bulk Modulus (GPa) = 27.35435 56.17604 41.76519
# Shear Modulus (GPa) = 16.95454 30.66566 23.81010
#
# Velocity S-wave (km/s) = 2.71674 3.65369 3.21948
# Velocity P-wave (km/s) = 4.66357 6.50030 5.65697
#
# Compressibility (1/GPa) = 0.03655726
#
# Stress axis : x y z
#
# Youngs Moduli (GPa) = 74.14148 73.02995 32.15244
#
# Poissons Ratio (x) = 0.16788 -0.01722
# Poissons Ratio (y) = 0.17044 0.29256
# Poissons Ratio (z) = -0.03970 0.66452
#
# Static dielectric constant tensor:
#      x y z
#    x 3.811330 0.492200 -0.194000 
#    y 0.492200 3.038330 1.367080 
#    z -0.194000 1.367080 2.243320 
# 
# 
# High freq. dielectric constant tensor:
#      x y z
#    x 1.883130 0.004970 0.034300 
#    y 0.004970 1.906620 -0.005650 
#    z 0.034300 -0.005650 1.911610 
# 
# From -- ./inp_files/46573.got.cif
#   From: 2010.06.25/outbox.cif.g09.slc.cpg/sg2_24_cif.got.tgz:46573.got - 2010.06.27 13:26:56.
