data_PCOD8042663
_publ_section_title
;
Structure prediction by ZEFSAII (Michael W. Deem and Ramdas Pophale) SiO2 
 PCOD8042663
Probable space group: P -1
;
_chemical_formula_sum "Si O2"
_cell_formula_units_Z 16
_cell_length_a 15.403498
_cell_length_b 30.101081
_cell_length_c 12.470636
_cell_angle_alpha 152.330161
_cell_angle_beta 152.565578
_cell_angle_gamma 18.086750
_cell_volume 790.688849
_symmetry_space_group_name_H-M "P -1"
_symmetry_group_IT_number 2
_symmetry_cell_setting 'triclinic'
loop_
_space_group_symop_operation_xyz
x,y,z
-x,-y,-z
loop_
_atom_site_type_symbol
_atom_site_label
_atom_site_fract_x
_atom_site_fract_y
_atom_site_fract_z
Si Si1 0.097701 0.775715 0.979552
Si Si2 0.152090 0.540366 0.225142
Si Si3 0.678717 0.103982 0.149060
Si Si4 0.972392 0.173400 0.544132
Si Si5 0.717831 0.857988 0.362310
Si Si6 0.327074 0.833501 0.494087
Si Si7 0.548676 0.493133 0.716542
Si Si8 0.525743 0.919012 0.757362
O O1 0.299025 0.733612 0.211444
O O2 0.305779 0.640609 0.836141
O O3 0.954647 0.925486 0.088626
O O4 0.837233 0.807058 0.799072
O O5 0.404131 0.465949 0.427790
O O6 0.286737 0.493340 0.150904
O O7 0.901055 0.718704 0.343877
O O8 0.000000 0.500000 0.000000
O O9 0.780473 0.152828 0.293563
O O10 0.538306 0.202157 0.315877
O O11 0.426318 0.147142 0.901931
O O12 0.780643 0.344120 0.727471
O O13 0.072148 0.145792 0.471123
O O14 0.255798 0.052427 0.671119
O O15 0.500000 0.000000 0.500000
O O16 0.509318 0.818028 0.569025
O O17 0.000000 0.000000 0.500000
O O18 0.500000 0.000000 0.000000
#
# Coordination Sequence:
#
# PCOD8042663 Si02
#       8
#     2   2   2   2   2   2   2   2
#     4  11  21  36  62  89 121 157 202 247 290 366
#     4  10  22  42  63  80 122 167 194 246 311 363
#     4  11  20  37  63  87 119 155 200 248 296 352
#     4  11  22  38  61  88 120 160 193 248 304 352
#     4  11  23  37  60  93 117 147 206 254 292 353
#     4  10  19  35  59  92 117 157 200 244 299 351
#     4  10  24  41  58  90 124 157 200 248 308 356
#     4  12  19  36  64  88 118 162 203 242 296 351
#
# _framework density 20.235520999999999
#
# number of rings (size 3 to 8) (size 9 to 14) (size 15 to 20)
#    0.000    1.250    6.250    1.500    0.000    2.500 
#    0.000    2.500    0.000    4.500    0.000    0.000 
#    0.000    0.000    0.000    0.000    0.000    0.000 
#
# Total GULP energy -198314.014275 kJ/mol
# GULP energy per Si atom -12394.625892 kJ/mol
# Density = 2.018946 g / cm^3
# Si number density = 20.235521 Si / 1000 Ang^3
#
#
#
# Elastic Constant Matrix: (Units=GPa)
#
#
# Indices 1 2 3 4 5 6 
#
# 1 144.1140 55.8377 59.0461 10.5726 32.0446 -15.4150
# 2 55.8377 87.9763 25.6537 8.8610 -0.1834 -16.6680
# 3 59.0461 25.6537 81.7414 -9.6829 10.8250 -8.9160
# 4 10.5726 8.8610 -9.6829 26.4028 -0.9959 -7.8521
# 5 32.0446 -0.1834 10.8250 -0.9959 40.4128 -0.1494
# 6 -15.4150 -16.6680 -8.9160 -7.8521 -0.1494 33.3900
#
#
#
# Elastic Compliance Matrix: (Units=1/GPa)
#
#
# Indices 1 2 3 4 5 6 
#
# 1 0.016351 -0.006967 -0.009198 -0.008087 -0.010734 -0.000335
# 2 -0.006967 0.017086 -0.000765 -0.001591 0.005785 0.004760
# 3 -0.009198 -0.000765 0.020795 0.012818 0.002050 0.003948
# 4 -0.008087 -0.001591 0.012818 0.049657 0.004235 0.010592
# 5 -0.010734 0.005785 0.002050 0.004235 0.032836 -0.000377
# 6 -0.000335 0.004760 0.003948 0.010592 -0.000377 0.035714
#
#
# Mechanical properties :
#
#
# Convention : Reuss Voigt Hill
#
# Bulk Modulus (GPa) = 49.08519 66.10075 57.59297
# Shear Modulus (GPa) = 23.46432 31.59405 27.52919
#
# Velocity S-wave (km/s) = 3.40893 3.95564 3.69241
# Velocity P-wave (km/s) = 6.30904 7.32116 6.83386
#
# Compressibility (1/GPa) = 0.02037274
#
# Stress axis : x y z
#
# Youngs Moduli (GPa) = 61.15845 58.52793 48.08793
#
# Poissons Ratio (x) = 0.40777 0.44230
# Poissons Ratio (y) = 0.42610 0.03678
# Poissons Ratio (z) = 0.56251 0.04477
#
# Static dielectric constant tensor:
#      x y z
#    x 3.724730 0.360510 -0.643310 
#    y 0.360510 3.368010 0.249700 
#    z -0.643310 0.249700 2.736990 
# 
# 
# High freq. dielectric constant tensor:
#      x y z
#    x 1.801350 -0.001710 0.010470 
#    y -0.001710 1.773480 -0.017660 
#    z 0.010470 -0.017660 1.786150 
# 
# From -- ./inp_files/458402.got.cif
#   From: 2010.06.25/outbox.cif.g09.slc.cpg/sg2_230_cif.got.tgz:458402.got - 2010.06.27 13:26:56.
