data_PCOD8042811
_publ_section_title
;
Structure prediction by ZEFSAII (Michael W. Deem and Ramdas Pophale) SiO2 
 PCOD8042811
Probable space group: P -1
;
_chemical_formula_sum "Si O2"
_cell_formula_units_Z 16
_cell_length_a 16.452967
_cell_length_b 10.607584
_cell_length_c 9.430068
_cell_angle_alpha 119.721701
_cell_angle_beta 106.804531
_cell_angle_gamma 32.975755
_cell_volume 749.416591
_symmetry_space_group_name_H-M "P -1"
_symmetry_group_IT_number 2
_symmetry_cell_setting 'triclinic'
loop_
_space_group_symop_operation_xyz
x,y,z
-x,-y,-z
loop_
_atom_site_type_symbol
_atom_site_label
_atom_site_fract_x
_atom_site_fract_y
_atom_site_fract_z
Si Si1 0.104347 0.184410 0.250109
Si Si2 0.625826 0.530583 0.686036
Si Si3 0.416400 0.619787 0.176068
Si Si4 0.149447 0.222504 0.994862
Si Si5 0.825166 0.985091 0.369134
Si Si6 0.606428 0.105014 0.478063
Si Si7 0.203001 0.354567 0.508243
Si Si8 0.805513 0.545159 0.737122
O O1 0.101821 0.187204 0.080351
O O2 0.143168 0.291201 0.375475
O O3 0.937261 0.368884 0.323364
O O4 0.232268 0.889299 0.206402
O O5 0.555857 0.563332 0.814878
O O6 0.736669 0.261168 0.507798
O O7 0.488444 0.774032 0.646749
O O8 0.723865 0.533564 0.777067
O O9 0.478458 0.671633 0.323509
O O10 0.500000 0.500000 0.000000
O O11 0.248030 0.223515 0.093835
O O12 0.000000 0.500000 0.000000
O O13 0.236024 0.992709 0.799631
O O14 0.773434 0.943368 0.439591
O O15 0.009148 0.741463 0.328538
O O16 0.650605 0.885739 0.447196
O O17 0.253037 0.383514 0.416872
#
# Coordination Sequence:
#
# PCOD8042811 Si02
#       8
#     2   2   2   2   2   2   2   2
#     4   9  17  30  57  84 108 144 208 243 275 331
#     4  11  23  37  58  91 121 155 191 243 308 351
#     4  10  21  36  59  85 116 158 203 239 284 360
#     4   9  18  32  58  88 113 150 198 242 285 342
#     4  10  19  35  62  85 113 157 205 239 280 358
#     4  10  21  36  60  87 114 155 206 237 284 356
#     4   9  16  33  55  83 111 150 193 245 282 343
#     4  10  20  36  60  87 121 151 195 247 303 343
#
# _framework density 21.34994
#
# number of rings (size 3 to 8) (size 9 to 14) (size 15 to 20)
#    0.000    2.250    0.000    6.375    3.500    0.500 
#    0.000    0.625    8.250    3.750    0.000    0.000 
#    0.000    0.000    0.000    0.000    0.000    0.000 
#
# Total GULP energy -198288.481065 kJ/mol
# GULP energy per Si atom -12393.030067 kJ/mol
# Density = 2.130135 g / cm^3
# Si number density = 21.349940 Si / 1000 Ang^3
#
#
#
# Elastic Constant Matrix: (Units=GPa)
#
#
# Indices 1 2 3 4 5 6 
#
# 1 82.2020 22.8643 40.0966 -2.8491 -9.0155 3.1058
# 2 22.8643 104.2733 20.9733 -18.6721 -9.2741 9.8657
# 3 40.0966 20.9733 127.3023 -13.9473 -15.3438 6.9696
# 4 -2.8491 -18.6721 -13.9473 27.8805 5.3534 -6.6445
# 5 -9.0155 -9.2741 -15.3438 5.3534 22.2198 -3.1127
# 6 3.1058 9.8657 6.9696 -6.6445 -3.1127 20.5626
#
#
#
# Elastic Compliance Matrix: (Units=1/GPa)
#
#
# Indices 1 2 3 4 5 6 
#
# 1 0.015251 -0.002758 -0.004343 -0.003005 0.002753 -0.000062
# 2 -0.002758 0.011805 0.000024 0.006607 0.001835 -0.002843
# 3 -0.004343 0.000024 0.010184 0.003610 0.004272 -0.000994
# 4 -0.003005 0.006607 0.003610 0.045186 -0.005478 0.009832
# 5 0.002753 0.001835 0.004272 -0.005478 0.051620 0.003300
# 6 -0.000062 -0.002843 -0.000994 0.009832 0.003300 0.054019
#
#
# Mechanical properties :
#
#
# Convention : Reuss Voigt Hill
#
# Bulk Modulus (GPa) = 43.31460 53.51621 48.41541
# Shear Modulus (GPa) = 23.81927 29.45546 26.63737
#
# Velocity S-wave (km/s) = 3.34377 3.71839 3.53605
# Velocity P-wave (km/s) = 5.93631 6.59969 6.27677
#
# Compressibility (1/GPa) = 0.02308690
#
# Stress axis : x y z
#
# Youngs Moduli (GPa) = 65.56984 84.70803 98.19242
#
# Poissons Ratio (x) = 0.23361 0.42647
# Poissons Ratio (y) = 0.18083 -0.00239
# Poissons Ratio (z) = 0.28478 -0.00206
#
# Static dielectric constant tensor:
#      x y z
#    x 3.593470 0.280570 0.054500 
#    y 0.280570 3.951050 0.006600 
#    z 0.054500 0.006600 4.638160 
# 
# 
# High freq. dielectric constant tensor:
#      x y z
#    x 1.791180 0.015030 -0.020510 
#    y 0.015030 1.845230 -0.009970 
#    z -0.020510 -0.009970 1.839790 
# 
# From -- ./inp_files/333526.got.cif
#   From: 2010.06.25/outbox.cif.g09.slc.cpg/sg2_167_cif.got.tgz:333526.got - 2010.06.27 13:26:56.
