data_PCOD8042157
_publ_section_title
;
Structure prediction by ZEFSAII (Michael W. Deem and Ramdas Pophale) SiO2 
 PCOD8042157
Probable space group: P -1
;
_chemical_formula_sum "Si O2"
_cell_formula_units_Z 16
_cell_length_a 15.377676
_cell_length_b 11.973194
_cell_length_c 21.928651
_cell_angle_alpha 152.394846
_cell_angle_beta 28.308973
_cell_angle_gamma 152.013957
_cell_volume 783.972620
_symmetry_space_group_name_H-M "P -1"
_symmetry_group_IT_number 2
_symmetry_cell_setting 'triclinic'
loop_
_space_group_symop_operation_xyz
x,y,z
-x,-y,-z
loop_
_atom_site_type_symbol
_atom_site_label
_atom_site_fract_x
_atom_site_fract_y
_atom_site_fract_z
Si Si1 0.184868 0.798640 0.273956
Si Si2 0.169346 0.273976 0.451127
Si Si3 0.918242 0.316065 0.521379
Si Si4 0.462337 0.197872 0.544712
Si Si5 0.401283 0.078689 0.869268
Si Si6 0.383468 0.510321 0.167646
Si Si7 0.358941 0.201488 0.742410
Si Si8 0.964124 0.775687 0.963826
O O1 0.401087 0.965707 0.258437
O O2 0.183686 0.529382 0.116355
O O3 0.991442 0.708857 0.394372
O O4 0.177626 0.991275 0.318024
O O5 0.398593 0.523447 0.443389
O O6 0.101522 0.290198 0.431164
O O7 0.829165 0.467808 0.694879
O O8 0.000000 0.500000 0.500000
O O9 0.736585 0.011468 0.471903
O O10 0.384420 0.283726 0.695653
O O11 0.621232 0.076042 0.400527
O O12 0.440245 0.257941 0.870911
O O13 0.345078 0.217145 0.027674
O O14 0.188998 0.798503 0.853787
O O15 0.458745 0.561737 0.216120
O O16 0.138325 0.160695 0.883168
O O17 0.000000 0.000000 0.000000
#
# Coordination Sequence:
#
# PCOD8042157 Si02
#       8
#     2   2   2   2   2   2   2   2
#     4  11  25  42  61  94 126 167 210 251 318 380
#     4  11  24  43  65  86 130 169 204 258 311 383
#     4  11  23  38  65  96 124 160 211 262 306 366
#     4  10  23  38  61  91 124 163 207 252 316 365
#     4  11  21  36  58  89 126 158 198 256 315 367
#     4  10  19  34  58  91 125 151 198 258 312 359
#     4  10  19  37  59  94 123 152 204 262 312 364
#     4  12  22  35  65  93 126 164 206 266 316 363
#
# _framework density 20.408875999999999
#
# number of rings (size 3 to 8) (size 9 to 14) (size 15 to 20)
#    0.000    1.250    3.750    3.750    5.250    1.000 
#    0.000    3.125    0.000    1.500    0.000    0.000 
#    0.000    0.000    0.000    0.000    0.000    0.000 
#
# Total GULP energy -198380.953859 kJ/mol
# GULP energy per Si atom -12398.809616 kJ/mol
# Density = 2.036242 g / cm^3
# Si number density = 20.408876 Si / 1000 Ang^3
#
#
#
# Elastic Constant Matrix: (Units=GPa)
#
#
# Indices 1 2 3 4 5 6 
#
# 1 76.0383 40.7846 17.3277 2.3736 -3.4177 0.5009
# 2 40.7846 114.6230 30.8470 -6.9678 -10.2028 4.7145
# 3 17.3277 30.8470 85.9695 -8.3488 9.3338 -7.8748
# 4 2.3736 -6.9678 -8.3488 27.8760 1.0598 -5.1120
# 5 -3.4177 -10.2028 9.3338 1.0598 26.7686 -3.8355
# 6 0.5009 4.7145 -7.8748 -5.1120 -3.8355 31.2439
#
#
#
# Elastic Compliance Matrix: (Units=1/GPa)
#
#
# Indices 1 2 3 4 5 6 
#
# 1 0.016703 -0.005588 -0.001808 -0.003453 0.000719 -0.000357
# 2 -0.005588 0.012383 -0.003844 0.001895 0.005010 -0.001823
# 3 -0.001808 -0.003844 0.014933 0.004709 -0.006466 0.004350
# 4 -0.003453 0.001895 0.004709 0.039439 -0.001894 0.007177
# 5 0.000719 0.005010 -0.006466 -0.001894 0.042040 0.002454
# 6 -0.000357 -0.001823 0.004350 0.007177 0.002454 0.034859
#
#
# Mechanical properties :
#
#
# Convention : Reuss Voigt Hill
#
# Bulk Modulus (GPa) = 46.42407 50.50551 48.46479
# Shear Modulus (GPa) = 26.31355 29.68913 28.00134
#
# Velocity S-wave (km/s) = 3.59460 3.81821 3.70809
# Velocity P-wave (km/s) = 6.32650 6.65123 6.49090
#
# Compressibility (1/GPa) = 0.02154055
#
# Stress axis : x y z
#
# Youngs Moduli (GPa) = 59.87008 80.75501 66.96415
#
# Poissons Ratio (x) = 0.45125 0.12104
# Poissons Ratio (y) = 0.33455 0.25740
# Poissons Ratio (z) = 0.10822 0.31041
#
# Static dielectric constant tensor:
#      x y z
#    x 3.626430 0.195490 0.099160 
#    y 0.195490 3.654990 -0.218150 
#    z 0.099160 -0.218150 3.754380 
# 
# 
# High freq. dielectric constant tensor:
#      x y z
#    x 1.779950 0.023340 0.012620 
#    y 0.023340 1.789420 -0.021930 
#    z 0.012620 -0.021930 1.792940 
# 
# From -- ./inp_files/432754.got.cif
#   From: 2010.06.25/outbox.cif.g09.slc.cpg/sg2_217_cif.got.tgz:432754.got - 2010.06.27 13:26:56.
