data_PCOD8042612
_publ_section_title
;
Structure prediction by ZEFSAII (Michael W. Deem and Ramdas Pophale) SiO2 
 PCOD8042612
Probable space group: P -1
;
_chemical_formula_sum "Si O2"
_cell_formula_units_Z 16
_cell_length_a 18.062088
_cell_length_b 10.723602
_cell_length_c 11.575546
_cell_angle_alpha 25.808436
_cell_angle_beta 123.390713
_cell_angle_gamma 122.313668
_cell_volume 810.267784
_symmetry_space_group_name_H-M "P -1"
_symmetry_group_IT_number 2
_symmetry_cell_setting 'triclinic'
loop_
_space_group_symop_operation_xyz
x,y,z
-x,-y,-z
loop_
_atom_site_type_symbol
_atom_site_label
_atom_site_fract_x
_atom_site_fract_y
_atom_site_fract_z
Si Si1 0.284899 0.286781 0.350299
Si Si2 0.443810 0.047262 0.024532
Si Si3 0.855598 0.719110 0.954590
Si Si4 0.086349 0.664540 0.493001
Si Si5 0.737240 0.364565 0.481567
Si Si6 0.684120 0.739796 0.938982
Si Si7 0.384079 0.721238 0.909271
Si Si8 0.679090 0.509636 0.542079
O O1 0.190160 0.317104 0.180977
O O2 0.271615 0.329219 0.440402
O O3 0.319220 0.972523 0.617118
O O4 0.354527 0.548720 0.145303
O O5 0.379945 0.286541 0.746788
O O6 0.514290 0.139547 0.110246
O O7 0.500000 0.000000 0.000000
O O8 0.386041 0.758853 0.249924
O O9 0.927519 0.000671 0.781809
O O10 0.901645 0.449921 0.269498
O O11 0.780610 0.756396 0.951993
O O12 0.168948 0.641755 0.496602
O O13 0.000000 0.500000 0.500000
O O14 0.687090 0.621716 0.170153
O O15 0.751770 0.421817 0.583970
O O16 0.666679 0.074540 0.647312
O O17 0.617217 0.517510 0.993685
#
# Coordination Sequence:
#
# PCOD8042612 Si02
#       8
#     2   2   2   2   2   2   2   2
#     4  11  19  33  54  79 106 139 183 228 267 308
#     4  12  22  37  52  80 109 140 192 234 272 310
#     4   9  18  31  54  83 104 132 177 222 258 312
#     4  10  19  35  59  84 108 136 172 219 264 315
#     4  10  21  37  54  78 111 142 179 212 270 339
#     4   9  18  35  53  74 104 141 178 226 264 316
#     4  11  20  33  56  77 102 139 191 239 268 299
#     4  12  23  36  54  78 110 148 178 227 278 321
#
# _framework density 19.746559000000001
#
# number of rings (size 3 to 8) (size 9 to 14) (size 15 to 20)
#    0.000    1.500    2.500    6.000    0.000    0.000 
#    0.000    3.750    0.000    1.500    0.000    0.000 
#    0.000    3.000    0.000    0.000    0.000    0.000 
#
# Total GULP energy -198240.455788 kJ/mol
# GULP energy per Si atom -12390.028487 kJ/mol
# Density = 1.970161 g / cm^3
# Si number density = 19.746559 Si / 1000 Ang^3
#
#
#
# Elastic Constant Matrix: (Units=GPa)
#
#
# Indices 1 2 3 4 5 6 
#
# 1 41.2717 37.4545 23.8877 2.5457 -10.5563 -8.3878
# 2 37.4545 137.1768 32.6793 6.3952 -11.4891 0.2573
# 3 23.8877 32.6793 113.2527 -4.5717 -7.6106 2.9783
# 4 2.5457 6.3952 -4.5717 35.1312 1.0749 -6.0978
# 5 -10.5563 -11.4891 -7.6106 1.0749 17.9119 2.2884
# 6 -8.3878 0.2573 2.9783 -6.0978 2.2884 30.5283
#
#
#
# Elastic Compliance Matrix: (Units=1/GPa)
#
#
# Indices 1 2 3 4 5 6 
#
# 1 0.041431 -0.008714 -0.005517 -0.000739 0.015160 0.010711
# 2 -0.008714 0.010115 -0.000986 -0.001879 0.001412 -0.002864
# 3 -0.005517 -0.000986 0.010450 0.001520 0.000756 -0.002280
# 4 -0.000739 -0.001879 0.001520 0.030203 -0.003569 0.005965
# 5 0.015160 0.001412 0.000756 -0.003569 0.066410 -0.001612
# 6 0.010711 -0.002864 -0.002280 0.005965 -0.001612 0.037258
#
#
# Mechanical properties :
#
#
# Convention : Reuss Voigt Hill
#
# Bulk Modulus (GPa) = 31.68415 53.30490 42.49453
# Shear Modulus (GPa) = 21.11286 29.89292 25.50289
#
# Velocity S-wave (km/s) = 3.27340 3.89502 3.59766
# Velocity P-wave (km/s) = 5.51063 6.87614 6.23091
#
# Compressibility (1/GPa) = 0.03156152
#
# Stress axis : x y z
#
# Youngs Moduli (GPa) = 24.13673 98.86012 95.69118
#
# Poissons Ratio (x) = 0.86145 0.52794
# Poissons Ratio (y) = 0.21032 0.09439
# Poissons Ratio (z) = 0.13317 0.09752
#
# Static dielectric constant tensor:
#      x y z
#    x 3.086180 -0.189590 -0.206600 
#    y -0.189590 3.648690 -0.115760 
#    z -0.206600 -0.115760 4.250510 
# 
# 
# High freq. dielectric constant tensor:
#      x y z
#    x 1.711360 -0.008820 -0.019730 
#    y -0.008820 1.772930 -0.006840 
#    z -0.019730 -0.006840 1.799190 
# 
# From -- ./inp_files/452704.got.cif
#   From: 2010.06.25/outbox.cif.g09.slc.cpg/sg2_227_cif.got.tgz:452704.got - 2010.06.27 13:26:56.
