data_PCOD8042942
_publ_section_title
;
Structure prediction by ZEFSAII (Michael W. Deem and Ramdas Pophale) SiO2 
 PCOD8042942
Probable space group: P -1
;
_chemical_formula_sum "Si O2"
_cell_formula_units_Z 16
_cell_length_a 9.536845
_cell_length_b 14.314088
_cell_length_c 22.578220
_cell_angle_alpha 20.939388
_cell_angle_beta 132.096646
_cell_angle_gamma 131.426054
_cell_volume 809.962475
_symmetry_space_group_name_H-M "P -1"
_symmetry_group_IT_number 2
_symmetry_cell_setting 'triclinic'
loop_
_space_group_symop_operation_xyz
x,y,z
-x,-y,-z
loop_
_atom_site_type_symbol
_atom_site_label
_atom_site_fract_x
_atom_site_fract_y
_atom_site_fract_z
Si Si1 0.887210 0.075355 0.980488
Si Si2 0.518391 0.829691 0.768512
Si Si3 0.006164 0.089111 0.381224
Si Si4 0.559009 0.832391 0.561601
Si Si5 0.359687 0.138392 0.640698
Si Si6 0.505269 0.304658 0.701846
Si Si7 0.185174 0.430194 0.933793
Si Si8 0.389814 0.255294 0.823639
O O1 0.710626 0.225938 0.823720
O O2 0.043557 0.255587 0.954648
O O3 0.805333 0.825036 0.147112
O O4 0.000000 0.000000 0.000000
O O5 0.357727 0.583581 0.851759
O O6 0.526456 0.059975 0.586306
O O7 0.450880 0.915411 0.763130
O O8 0.726945 0.741269 0.888630
O O9 0.216012 0.106263 0.406617
O O10 0.937759 0.372366 0.185413
O O11 0.000000 0.000000 0.500000
O O12 0.866503 0.880201 0.426170
O O13 0.498640 0.514792 0.734480
O O14 0.500000 0.000000 0.500000
O O15 0.398111 0.102236 0.743063
O O16 0.467803 0.411908 0.487230
O O17 0.364435 0.324070 0.706607
O O18 0.500000 0.000000 0.000000
#
# Coordination Sequence:
#
# PCOD8042942 Si02
#       8
#     2   2   2   2   2   2   2   2
#     4  11  23  37  63  88 124 170 223 260 322 400
#     4  10  21  40  63  95 134 164 214 280 328 380
#     4  11  19  39  66  92 122 170 225 262 311 396
#     4  12  25  42  67  98 134 174 216 276 335 385
#     4  10  19  35  66  92 123 164 222 262 323 386
#     4  10  20  37  62  91 124 168 212 267 324 387
#     4  10  21  38  66  92 126 167 219 270 322 381
#     4  10  22  43  63  92 131 170 213 272 327 385
#
# _framework density 19.754002
#
# number of rings (size 3 to 8) (size 9 to 14) (size 15 to 20)
#    0.000    1.500    3.750    3.000    1.750    0.000 
#    6.750    1.250    0.000    0.000    0.000    0.000 
#    0.000    0.000    0.000    0.000    0.000    0.000 
#
# Total GULP energy -198265.090401 kJ/mol
# GULP energy per Si atom -12391.568150 kJ/mol
# Density = 1.970904 g / cm^3
# Si number density = 19.754002 Si / 1000 Ang^3
#
#
#
# Elastic Constant Matrix: (Units=GPa)
#
#
# Indices 1 2 3 4 5 6 
#
# 1 139.6296 62.1821 36.1927 -2.6110 -1.2342 -5.3284
# 2 62.1821 156.7955 43.1515 -3.1312 -6.5751 4.6560
# 3 36.1927 43.1515 88.5293 -0.2670 5.1583 4.0974
# 4 -2.6110 -3.1312 -0.2670 35.7169 6.5036 6.9874
# 5 -1.2342 -6.5751 5.1583 6.5036 28.0083 1.6868
# 6 -5.3284 4.6560 4.0974 6.9874 1.6868 25.1809
#
#
#
# Elastic Compliance Matrix: (Units=1/GPa)
#
#
# Indices 1 2 3 4 5 6 
#
# 1 0.009283 -0.003109 -0.002418 -0.000195 -0.000010 0.002987
# 2 -0.003109 0.008600 -0.002967 0.000462 0.002445 -0.002057
# 3 -0.002418 -0.002967 0.014035 0.000725 -0.003423 -0.002219
# 4 -0.000195 0.000462 0.000725 0.030887 -0.006702 -0.008366
# 5 -0.000010 0.002445 -0.003423 -0.006702 0.038501 -0.000617
# 6 0.002987 -0.002057 -0.002219 -0.008366 -0.000617 0.043449
#
#
# Mechanical properties :
#
#
# Convention : Reuss Voigt Hill
#
# Bulk Modulus (GPa) = 66.97771 74.22301 70.60036
# Shear Modulus (GPa) = 29.99052 34.00975 32.00014
#
# Velocity S-wave (km/s) = 3.90064 4.15380 4.02920
# Velocity P-wave (km/s) = 7.36655 7.78849 7.58046
#
# Compressibility (1/GPa) = 0.01493034
#
# Stress axis : x y z
#
# Youngs Moduli (GPa) = 107.71807 116.27806 71.25272
#
# Poissons Ratio (x) = 0.36153 0.17229
# Poissons Ratio (y) = 0.33492 0.21138
# Poissons Ratio (z) = 0.26047 0.34495
#
# Static dielectric constant tensor:
#      x y z
#    x 3.726120 -0.104610 -0.139510 
#    y -0.104610 3.736750 0.023020 
#    z -0.139510 0.023020 3.768870 
# 
# 
# High freq. dielectric constant tensor:
#      x y z
#    x 1.753260 0.000100 0.002180 
#    y 0.000100 1.779110 -0.007630 
#    z 0.002180 -0.007630 1.774200 
# 
# From -- ./inp_files/608166.got.cif
#   From: 2010.06.25/outbox.cif.g09.slc.cpg/sg2_305_cif.got.tgz:608166.got - 2010.06.27 13:26:56.
