data_PCOD8042318
_publ_section_title
;
Structure prediction by ZEFSAII (Michael W. Deem and Ramdas Pophale) SiO2 
 PCOD8042318
Probable space group: P -1
;
_chemical_formula_sum "Si O2"
_cell_formula_units_Z 14
_cell_length_a 5.215605
_cell_length_b 29.136256
_cell_length_c 9.858720
_cell_angle_alpha 148.751485
_cell_angle_beta 136.921092
_cell_angle_gamma 44.464218
_cell_volume 513.700945
_symmetry_space_group_name_H-M "P -1"
_symmetry_group_IT_number 2
_symmetry_cell_setting 'triclinic'
loop_
_space_group_symop_operation_xyz
x,y,z
-x,-y,-z
loop_
_atom_site_type_symbol
_atom_site_label
_atom_site_fract_x
_atom_site_fract_y
_atom_site_fract_z
Si Si1 0.861442 0.888619 0.125979
Si Si2 0.754865 0.649849 0.815125
Si Si3 0.535288 0.507506 0.692233
Si Si4 0.839218 0.185187 0.227901
Si Si5 0.276691 0.064570 0.299470
Si Si6 0.179520 0.331532 0.799693
Si Si7 0.935918 0.194835 0.737494
O O1 0.119759 0.843475 0.985219
O O2 0.503590 0.843650 0.899457
O O3 0.139465 0.857967 0.287634
O O4 0.708813 0.998622 0.325713
O O5 0.419358 0.598014 0.506032
O O6 0.153289 0.572522 0.771709
O O7 0.704695 0.683997 0.036807
O O8 0.763751 0.737980 0.946355
O O9 0.500000 0.500000 0.500000
O O10 0.875571 0.560487 0.990979
O O11 0.245555 0.131658 0.326386
O O12 0.812539 0.293717 0.516044
O O13 0.141692 0.118181 0.519952
O O14 0.000000 0.000000 0.000000
O O15 0.558093 0.264572 0.703647
#
# Coordination Sequence:
#
# PCOD8042318 Si02
#       7
#     2   2   2   2   2   2   2
#     4  11  26  40  60  89 128 164 204 257 313 361
#     4   9  17  32  57  88 120 148 202 250 302 353
#     4   8  16  30  54  93 116 149 192 261 289 354
#     4  11  23  42  62  88 122 166 209 253 303 366
#     4  10  21  42  62  87 119 162 213 256 299 359
#     4  10  19  34  63  87 118 157 209 249 299 359
#     4  11  22  38  60  91 123 161 203 256 312 362
#
# _framework density 27.253208000000001
#
# number of rings (size 3 to 8) (size 9 to 14) (size 15 to 20)
#    0.000    2.000    1.429    2.571    4.000    1.143 
#    0.000    4.286    0.000    1.714    0.000    0.000 
#    0.000    0.000    0.000    0.000    0.000    0.000 
#
# Total GULP energy -173441.716247 kJ/mol
# GULP energy per Si atom -12388.694018 kJ/mol
# Density = 2.719118 g / cm^3
# Si number density = 27.253208 Si / 1000 Ang^3
#
#
#
# Elastic Constant Matrix: (Units=GPa)
#
#
# Indices 1 2 3 4 5 6 
#
# 1 65.0656 1.9141 22.9062 7.7888 -4.8268 10.3614
# 2 1.9141 72.6879 10.1228 12.8334 -0.5734 27.6493
# 3 22.9062 10.1228 118.1651 23.0178 -14.0644 11.2590
# 4 7.7888 12.8334 23.0178 37.6173 10.3520 7.6548
# 5 -4.8268 -0.5734 -14.0644 10.3520 27.8276 2.5247
# 6 10.3614 27.6493 11.2590 7.6548 2.5247 42.9640
#
#
#
# Elastic Compliance Matrix: (Units=1/GPa)
#
#
# Indices 1 2 3 4 5 6 
#
# 1 0.017432 0.002213 -0.002080 -0.003120 0.003609 -0.004739
# 2 0.002213 0.019480 0.000910 -0.006442 0.004770 -0.012441
# 3 -0.002080 0.000910 0.011912 -0.009311 0.009332 -0.002095
# 4 -0.003120 -0.006442 -0.009311 0.040515 -0.020572 0.001328
# 5 0.003609 0.004770 0.009332 -0.020572 0.049540 -0.005632
# 6 -0.004739 -0.012441 -0.002095 0.001328 -0.005632 0.033068
#
#
# Mechanical properties :
#
#
# Convention : Reuss Voigt Hill
#
# Bulk Modulus (GPa) = 19.64252 36.20055 27.92153
# Shear Modulus (GPa) = 26.76219 36.41348 31.58783
#
# Velocity S-wave (km/s) = 3.13706 3.65926 3.40818
# Velocity P-wave (km/s) = 4.51050 5.58260 5.07494
#
# Compressibility (1/GPa) = 0.05090997
#
# Stress axis : x y z
#
# Youngs Moduli (GPa) = 57.36536 51.33564 83.94934
#
# Poissons Ratio (x) = -0.11359 0.17460
# Poissons Ratio (y) = -0.12693 -0.07642
# Poissons Ratio (z) = 0.11931 -0.04673
#
# Static dielectric constant tensor:
#      x y z
#    x 4.683120 0.456910 0.813130 
#    y 0.456910 5.470300 0.698020 
#    z 0.813130 0.698020 5.786280 
# 
# 
# High freq. dielectric constant tensor:
#      x y z
#    x 2.103640 0.015410 0.027270 
#    y 0.015410 2.079600 0.025330 
#    z 0.027270 0.025330 2.129500 
# 
# From -- ./inp_files/37601.got.cif
#   From: 2010.06.25/outbox.cif.g09.slc.cpg/sg2_19_cif.got.tgz:37601.got - 2010.06.27 13:26:56.
