data_PCOD8042664
_publ_section_title
;
Structure prediction by ZEFSAII (Michael W. Deem and Ramdas Pophale) SiO2 
 PCOD8042664
Probable space group: P -1
;
_chemical_formula_sum "Si O2"
_cell_formula_units_Z 16
_cell_length_a 13.772498
_cell_length_b 10.855401
_cell_length_c 14.810696
_cell_angle_alpha 102.562275
_cell_angle_beta 126.750457
_cell_angle_gamma 33.218734
_cell_volume 742.894851
_symmetry_space_group_name_H-M "P -1"
_symmetry_group_IT_number 2
_symmetry_cell_setting 'triclinic'
loop_
_space_group_symop_operation_xyz
x,y,z
-x,-y,-z
loop_
_atom_site_type_symbol
_atom_site_label
_atom_site_fract_x
_atom_site_fract_y
_atom_site_fract_z
Si Si1 0.961875 0.550003 0.861841
Si Si2 0.325771 0.131115 0.618501
Si Si3 0.440729 0.451204 0.333447
Si Si4 0.546549 0.626548 0.470985
Si Si5 0.971260 0.827703 0.463807
Si Si6 0.946185 0.762807 0.027737
Si Si7 0.141282 0.223890 0.339544
Si Si8 0.323647 0.403168 0.738651
O O1 0.957053 0.580966 0.757702
O O2 0.126744 0.265760 0.934337
O O3 0.653463 0.815234 0.772952
O O4 0.074806 0.565788 0.982059
O O5 0.195537 0.144557 0.609445
O O6 0.286625 0.159315 0.493203
O O7 0.216114 0.370043 0.630410
O O8 0.391033 0.643727 0.359473
O O9 0.460175 0.350638 0.420559
O O10 0.171328 0.658257 0.160485
O O11 0.737752 0.158520 0.397045
O O12 0.872632 0.318936 0.569698
O O13 0.368046 0.910724 0.374262
O O14 0.222218 0.605398 0.643309
O O15 0.653812 0.107095 0.893748
O O16 0.861391 0.409472 0.243446
#
# Coordination Sequence:
#
# PCOD8042664 Si02
#       8
#     2   2   2   2   2   2   2   2
#     4  10  20  35  61  83 125 163 191 247 311 360
#     4  10  19  35  59  92 122 156 197 253 299 357
#     4  11  23  43  63  90 124 156 206 258 296 356
#     4  11  23  39  68  90 116 161 212 252 297 347
#     4  11  20  40  63  90 120 157 205 250 299 352
#     4  10  21  40  56  86 127 161 189 250 314 357
#     4  11  20  37  58  92 123 158 211 247 290 363
#     4  10  22  37  59  92 130 157 195 251 304 369
#
# _framework density 21.537368000000001
#
# number of rings (size 3 to 8) (size 9 to 14) (size 15 to 20)
#    0.000    1.500    3.750    3.750    0.000    3.500 
#    2.250    3.125    0.000    0.000    0.000    0.000 
#    0.000    0.000    0.000    0.000    0.000    0.000 
#
# Total GULP energy -198372.763078 kJ/mol
# GULP energy per Si atom -12398.297692 kJ/mol
# Density = 2.148835 g / cm^3
# Si number density = 21.537368 Si / 1000 Ang^3
#
#
#
# Elastic Constant Matrix: (Units=GPa)
#
#
# Indices 1 2 3 4 5 6 
#
# 1 48.4038 11.2587 19.3962 7.6877 -6.9371 -11.5181
# 2 11.2587 91.6290 35.3656 -11.2380 5.1909 -10.2043
# 3 19.3962 35.3656 102.6576 6.0463 7.0960 10.4409
# 4 7.6877 -11.2380 6.0463 26.3369 4.8493 -3.9576
# 5 -6.9371 5.1909 7.0960 4.8493 24.9275 -0.5368
# 6 -11.5181 -10.2043 10.4409 -3.9576 -0.5368 32.4940
#
#
#
# Elastic Compliance Matrix: (Units=1/GPa)
#
#
# Indices 1 2 3 4 5 6 
#
# 1 0.029361 -0.001561 -0.006503 -0.008309 0.012205 0.011196
# 2 -0.001561 0.015920 -0.006330 0.010566 -0.003837 0.007703
# 3 -0.006503 -0.006330 0.014695 -0.004907 -0.003928 -0.009677
# 4 -0.008309 0.010566 -0.004907 0.049514 -0.012581 0.007773
# 5 0.012205 -0.003837 -0.003928 -0.012581 0.047956 0.003643
# 6 0.011196 0.007703 -0.009677 0.007773 0.003643 0.041279
#
#
# Mechanical properties :
#
#
# Convention : Reuss Voigt Hill
#
# Bulk Modulus (GPa) = 32.06318 41.63681 36.85000
# Shear Modulus (GPa) = 21.01636 28.52968 24.77302
#
# Velocity S-wave (km/s) = 3.12718 3.64354 3.39519
# Velocity P-wave (km/s) = 5.28759 6.08891 5.70234
#
# Compressibility (1/GPa) = 0.03118842
#
# Stress axis : x y z
#
# Youngs Moduli (GPa) = 34.05821 62.81518 68.04949
#
# Poissons Ratio (x) = 0.09808 0.44250
# Poissons Ratio (y) = 0.05318 0.43074
# Poissons Ratio (z) = 0.22147 0.39761
#
# Static dielectric constant tensor:
#      x y z
#    x 3.646530 -0.021160 -0.073030 
#    y -0.021160 3.959650 -0.170130 
#    z -0.073030 -0.170130 3.824220 
# 
# 
# High freq. dielectric constant tensor:
#      x y z
#    x 1.832430 -0.002720 -0.003430 
#    y -0.002720 1.843160 -0.013390 
#    z -0.003430 -0.013390 1.834300 
# 
# From -- ./inp_files/532558.got.cif
#   From: 2010.06.25/outbox.cif.g09.slc.cpg/sg2_267_cif.got.tgz:532558.got - 2010.06.27 13:26:56.
