data_PCOD8042079
_publ_section_title
;
Structure prediction by ZEFSAII (Michael W. Deem and Ramdas Pophale) SiO2 
 PCOD8042079
Probable space group: P -1
;
_chemical_formula_sum "Si O2"
_cell_formula_units_Z 16
_cell_length_a 15.521203
_cell_length_b 8.845704
_cell_length_c 9.622757
_cell_angle_alpha 83.362499
_cell_angle_beta 63.770209
_cell_angle_gamma 47.627154
_cell_volume 841.768042
_symmetry_space_group_name_H-M "P -1"
_symmetry_group_IT_number 2
_symmetry_cell_setting 'triclinic'
loop_
_space_group_symop_operation_xyz
x,y,z
-x,-y,-z
loop_
_atom_site_type_symbol
_atom_site_label
_atom_site_fract_x
_atom_site_fract_y
_atom_site_fract_z
Si Si1 0.737241 0.928171 0.295942
Si Si2 0.517669 0.647211 0.033310
Si Si3 0.008739 0.167810 0.966655
Si Si4 0.426893 0.008574 0.845199
Si Si5 0.875731 0.662054 0.666913
Si Si6 0.630535 0.048035 0.655240
Si Si7 0.766468 0.541147 0.920202
Si Si8 0.039269 0.545508 0.827539
O O1 0.840781 0.943604 0.168749
O O2 0.625165 0.023007 0.249168
O O3 0.819444 0.681217 0.302126
O O4 0.655238 0.071477 0.475923
O O5 0.677224 0.492659 0.955236
O O6 0.458214 0.849798 0.959470
O O7 0.500000 0.500000 0.000000
O O8 0.453875 0.730788 0.224300
O O9 0.908541 0.338232 0.903101
O O10 0.956383 0.284568 0.142799
O O11 0.000000 0.000000 0.000000
O O12 0.558785 0.961891 0.720777
O O13 0.311512 0.252077 0.949194
O O14 0.799572 0.585810 0.746255
O O15 0.000000 0.500000 0.500000
O O16 0.922350 0.667941 0.784249
O O17 0.774750 0.891302 0.644326
O O18 0.000000 0.500000 0.000000
#
# Coordination Sequence:
#
# PCOD8042079 Si02
#       8
#     2   2   2   2   2   2   2   2
#     4  11  21  38  61  90 119 149 201 255 293 347
#     4  11  25  39  62  89 120 163 200 241 299 365
#     4  11  23  37  60  91 123 160 196 242 303 362
#     4  11  21  39  65  86 114 160 207 246 287 355
#     4  12  19  34  63  91 116 146 197 259 295 334
#     4  11  22  39  61  91 118 154 204 252 298 345
#     4  11  19  40  61  86 117 156 209 241 283 359
#     4  10  19  34  57  85 112 153 199 235 284 350
#
# _framework density 19.007612000000002
#
# number of rings (size 3 to 8) (size 9 to 14) (size 15 to 20)
#    0.000    1.000    7.500    1.875    1.750    0.000 
#    0.000    3.125    0.000    3.000    0.000    0.000 
#    0.000    0.000    0.000    0.000    0.000    0.000 
#
# Total GULP energy -198313.204646 kJ/mol
# GULP energy per Si atom -12394.575290 kJ/mol
# Density = 1.896435 g / cm^3
# Si number density = 19.007612 Si / 1000 Ang^3
#
#
#
# Elastic Constant Matrix: (Units=GPa)
#
#
# Indices 1 2 3 4 5 6 
#
# 1 120.2928 26.2543 47.5340 7.7165 12.9990 5.2051
# 2 26.2543 42.9837 15.5532 3.2174 4.5919 10.3992
# 3 47.5340 15.5532 115.3080 8.6401 4.6991 8.3185
# 4 7.7165 3.2174 8.6401 21.1421 -6.5413 5.5700
# 5 12.9990 4.5919 4.6991 -6.5413 26.5963 -1.1199
# 6 5.2051 10.3992 8.3185 5.5700 -1.1199 43.4642
#
#
#
# Elastic Compliance Matrix: (Units=1/GPa)
#
#
# Indices 1 2 3 4 5 6 
#
# 1 0.011643 -0.005180 -0.003680 -0.003751 -0.005031 0.000900
# 2 -0.005180 0.028655 -0.001088 -0.001330 -0.002800 -0.005929
# 3 -0.003680 -0.001088 0.010641 -0.002768 -0.000616 -0.000997
# 4 -0.003751 -0.001330 -0.002768 0.056471 0.016208 -0.005522
# 5 -0.005031 -0.002800 -0.000616 0.016208 0.044656 0.000464
# 6 0.000900 -0.005929 -0.000997 -0.005522 0.000464 0.025229
#
#
# Mechanical properties :
#
#
# Convention : Reuss Voigt Hill
#
# Bulk Modulus (GPa) = 32.21325 50.80752 41.51038
# Shear Modulus (GPa) = 24.09194 30.85672 27.47433
#
# Velocity S-wave (km/s) = 3.56404 4.03350 3.80602
# Velocity P-wave (km/s) = 5.82416 6.96278 6.41877
#
# Compressibility (1/GPa) = 0.03104312
#
# Stress axis : x y z
#
# Youngs Moduli (GPa) = 85.88936 34.89762 93.97960
#
# Poissons Ratio (x) = 0.18075 0.34583
# Poissons Ratio (y) = 0.44487 0.10229
# Poissons Ratio (z) = 0.31606 0.03798
#
# Static dielectric constant tensor:
#      x y z
#    x 3.354950 0.238980 -0.271440 
#    y 0.238980 3.404340 0.417780 
#    z -0.271440 0.417780 3.320610 
# 
# 
# High freq. dielectric constant tensor:
#      x y z
#    x 1.750020 -0.025300 0.003760 
#    y -0.025300 1.714350 0.004560 
#    z 0.003760 0.004560 1.736410 
# 
# From -- ./inp_files/178994.got.cif
#   From: 2010.06.25/outbox.cif.g09.slc.cpg/sg2_90_cif.got.tgz:178994.got - 2010.06.27 13:26:56.
