data_PCOD8042249
_publ_section_title
;
Structure prediction by ZEFSAII (Michael W. Deem and Ramdas Pophale) SiO2 
 PCOD8042249
Probable space group: P -1
;
_chemical_formula_sum "Si O2"
_cell_formula_units_Z 16
_cell_length_a 10.540666
_cell_length_b 17.246836
_cell_length_c 18.829471
_cell_angle_alpha 144.770004
_cell_angle_beta 25.760704
_cell_angle_gamma 129.158790
_cell_volume 780.582210
_symmetry_space_group_name_H-M "P -1"
_symmetry_group_IT_number 2
_symmetry_cell_setting 'triclinic'
loop_
_space_group_symop_operation_xyz
x,y,z
-x,-y,-z
loop_
_atom_site_type_symbol
_atom_site_label
_atom_site_fract_x
_atom_site_fract_y
_atom_site_fract_z
Si Si1 0.152535 0.388973 0.004200
Si Si2 0.371416 0.909996 0.829463
Si Si3 0.401609 0.931710 0.431049
Si Si4 0.698318 0.590746 0.488656
Si Si5 0.374352 0.897072 0.654422
Si Si6 0.448028 0.629780 0.787599
Si Si7 0.324513 0.959204 0.121978
Si Si8 0.367697 0.425212 0.779875
O O1 0.358697 0.238066 0.828013
O O2 0.376322 0.426530 0.862648
O O3 0.029581 0.518932 0.223201
O O4 0.865442 0.369994 0.092935
O O5 0.492006 0.761056 0.702347
O O6 0.460695 0.869460 0.672618
O O7 0.548586 0.008309 0.842764
O O8 0.993413 0.997388 0.096193
O O9 0.500000 0.000000 0.500000
O O10 0.410025 0.025032 0.427647
O O11 0.049563 0.937920 0.622131
O O12 0.500000 0.500000 0.500000
O O13 0.740606 0.579301 0.544692
O O14 0.457172 0.741963 0.459430
O O15 0.544577 0.518276 0.723043
O O16 0.380165 0.790218 0.970475
O O17 0.500000 0.000000 0.000000
O O18 0.000000 0.500000 0.000000
#
# Coordination Sequence:
#
# PCOD8042249 Si02
#       8
#     2   2   2   2   2   2   2   2
#     4  10  20  35  64  93 118 159 211 259 301 372
#     4  11  24  40  63  95 127 164 205 267 314 368
#     4  12  21  39  66  93 122 166 215 252 307 379
#     4  10  19  35  60  89 124 160 210 251 306 372
#     4  11  22  40  66  93 124 160 217 259 307 379
#     4  10  19  36  61  90 120 164 204 251 315 370
#     4  12  24  40  64  89 128 165 210 260 317 368
#     4  10  19  34  60  93 121 154 211 263 304 363
#
# _framework density 20.497523000000001
#
# number of rings (size 3 to 8) (size 9 to 14) (size 15 to 20)
#    0.000    1.250    3.750    5.250    0.000    1.500 
#    0.000    1.250    0.000    0.000    0.000    0.000 
#    0.000    0.000    0.000    0.000    0.000    0.000 
#
# Total GULP energy -198376.962738 kJ/mol
# GULP energy per Si atom -12398.560171 kJ/mol
# Density = 2.045087 g / cm^3
# Si number density = 20.497523 Si / 1000 Ang^3
#
#
#
# Elastic Constant Matrix: (Units=GPa)
#
#
# Indices 1 2 3 4 5 6 
#
# 1 62.9126 39.5370 36.5669 -10.6167 21.7085 -10.4345
# 2 39.5370 116.0935 48.9276 7.1445 8.7021 -33.5216
# 3 36.5669 48.9276 123.2991 6.0814 25.2187 -14.5591
# 4 -10.6167 7.1445 6.0814 39.3146 -0.3767 -0.4499
# 5 21.7085 8.7021 25.2187 -0.3767 29.9973 -8.9511
# 6 -10.4345 -33.5216 -14.5591 -0.4499 -8.9511 40.6379
#
#
#
# Elastic Compliance Matrix: (Units=1/GPa)
#
#
# Indices 1 2 3 4 5 6 
#
# 1 0.031319 -0.010473 -0.002390 0.010484 -0.019144 -0.005554
# 2 -0.010473 0.016822 -0.003845 -0.005065 0.009396 0.011823
# 3 -0.002390 -0.003845 0.011823 -0.001861 -0.007482 -0.001218
# 4 0.010484 -0.005065 -0.001861 0.029393 -0.005062 -0.002943
# 5 -0.019144 0.009396 -0.007482 -0.005062 0.054288 0.012057
# 6 -0.005554 0.011823 -0.001218 -0.002943 0.012057 0.035121
#
#
# Mechanical properties :
#
#
# Convention : Reuss Voigt Hill
#
# Bulk Modulus (GPa) = 37.66680 61.37422 49.52051
# Shear Modulus (GPa) = 22.62098 33.80822 28.21460
#
# Velocity S-wave (km/s) = 3.32565 4.06566 3.71413
# Velocity P-wave (km/s) = 5.75871 7.21434 6.52723
#
# Compressibility (1/GPa) = 0.02654858
#
# Stress axis : x y z
#
# Youngs Moduli (GPa) = 31.92904 59.44446 84.57901
#
# Poissons Ratio (x) = 0.62255 0.20214
# Poissons Ratio (y) = 0.33439 0.32525
# Poissons Ratio (z) = 0.07631 0.22859
#
# Static dielectric constant tensor:
#      x y z
#    x 3.747360 -0.449320 0.348780 
#    y -0.449320 4.179750 -0.049600 
#    z 0.348780 -0.049600 4.335920 
# 
# 
# High freq. dielectric constant tensor:
#      x y z
#    x 1.777570 -0.026890 0.022350 
#    y -0.026890 1.803780 0.008000 
#    z 0.022350 0.008000 1.813450 
# 
# From -- ./inp_files/345179.got.cif
#   From: 2010.06.25/outbox.cif.g09.slc.cpg/sg2_173_cif.got.tgz:345179.got - 2010.06.27 13:26:56.
