data_PCOD8042897
_publ_section_title
;
Structure prediction by ZEFSAII (Michael W. Deem and Ramdas Pophale) SiO2 
 PCOD8042897
Probable space group: P -1
;
_chemical_formula_sum "Si O2"
_cell_formula_units_Z 16
_cell_length_a 10.712152
_cell_length_b 15.657015
_cell_length_c 9.316267
_cell_angle_alpha 38.313451
_cell_angle_beta 74.217888
_cell_angle_gamma 95.968664
_cell_volume 789.327267
_symmetry_space_group_name_H-M "P -1"
_symmetry_group_IT_number 2
_symmetry_cell_setting 'triclinic'
loop_
_space_group_symop_operation_xyz
x,y,z
-x,-y,-z
loop_
_atom_site_type_symbol
_atom_site_label
_atom_site_fract_x
_atom_site_fract_y
_atom_site_fract_z
Si Si1 0.820583 0.540406 0.480410
Si Si2 0.152077 0.018434 0.355396
Si Si3 0.343028 0.391337 0.778229
Si Si4 0.808786 0.768068 0.387019
Si Si5 0.823906 0.238286 0.857451
Si Si6 0.857649 0.065361 0.844833
Si Si7 0.363288 0.031513 0.510208
Si Si8 0.612436 0.647604 0.868672
O O1 0.779128 0.567976 0.296925
O O2 0.740053 0.594706 0.553104
O O3 0.750639 0.346745 0.769349
O O4 0.001464 0.648151 0.298000
O O5 0.244826 0.967484 0.497549
O O6 0.110942 0.909304 0.368570
O O7 0.271407 0.201045 0.026596
O O8 0.000000 0.000000 0.500000
O O9 0.500000 0.500000 0.500000
O O10 0.362853 0.425212 0.897967
O O11 0.766530 0.746038 0.597091
O O12 0.990503 0.862570 0.201496
O O13 0.754958 0.874393 0.175544
O O14 0.794965 0.176382 0.780627
O O15 0.741807 0.070335 0.190157
O O16 0.440038 0.225482 0.250108
O O17 0.500000 0.000000 0.500000
O O18 0.500000 0.500000 0.000000
#
# Coordination Sequence:
#
# PCOD8042897 Si02
#       8
#     2   2   2   2   2   2   2   2
#     4  10  21  39  63  91 123 165 203 254 313 380
#     4  11  23  41  70  95 122 164 219 264 307 373
#     4  11  23  37  62  91 124 160 206 258 311 366
#     4  10  19  35  64  90 118 154 210 264 301 359
#     4  10  22  39  63  89 127 165 203 247 323 379
#     4  10  19  37  63  94 117 153 210 263 303 365
#     4  11  25  42  61  91 131 169 203 261 324 376
#     4  11  24  40  60  89 121 164 214 256 307 373
#
# _framework density 20.270426
#
# number of rings (size 3 to 8) (size 9 to 14) (size 15 to 20)
#    0.000    1.500    2.500    3.000    7.000    0.000 
#    2.250    0.625    0.000    5.250    0.000    0.000 
#    0.000    0.000    0.000    0.000    0.000    0.000 
#
# Total GULP energy -198222.660229 kJ/mol
# GULP energy per Si atom -12388.916264 kJ/mol
# Density = 2.022429 g / cm^3
# Si number density = 20.270426 Si / 1000 Ang^3
#
#
#
# Elastic Constant Matrix: (Units=GPa)
#
#
# Indices 1 2 3 4 5 6 
#
# 1 77.5145 55.2767 27.4806 4.0465 22.3719 1.1770
# 2 55.2767 170.7171 53.5183 3.8615 21.2873 4.4582
# 3 27.4806 53.5183 92.7728 11.6430 7.6880 -0.6118
# 4 4.0465 3.8615 11.6430 39.5639 2.2369 5.1187
# 5 22.3719 21.2873 7.6880 2.2369 31.4277 3.4468
# 6 1.1770 4.4582 -0.6118 5.1187 3.4468 29.7534
#
#
#
# Elastic Compliance Matrix: (Units=1/GPa)
#
#
# Indices 1 2 3 4 5 6 
#
# 1 0.020010 -0.004392 -0.002439 -0.000439 -0.010767 0.001139
# 2 -0.004392 0.008663 -0.003673 0.000935 -0.001783 -0.001154
# 3 -0.002439 -0.003673 0.014028 -0.003762 0.000898 0.001479
# 4 -0.000439 0.000935 -0.003762 0.026996 -0.000801 -0.004752
# 5 -0.010767 -0.001783 0.000898 -0.000801 0.040955 -0.003895
# 6 0.001139 -0.001154 0.001479 -0.004752 -0.003895 0.035037
#
#
# Mechanical properties :
#
#
# Convention : Reuss Voigt Hill
#
# Bulk Modulus (GPa) = 46.09917 68.17284 57.13600
# Shear Modulus (GPa) = 28.74738 33.79758 31.27248
#
# Velocity S-wave (km/s) = 3.76998 4.08773 3.93206
# Velocity P-wave (km/s) = 6.46079 7.48225 6.99020
#
# Compressibility (1/GPa) = 0.02169236
#
# Stress axis : x y z
#
# Youngs Moduli (GPa) = 49.97388 115.43932 71.28550
#
# Poissons Ratio (x) = 0.50700 0.17387
# Poissons Ratio (y) = 0.21948 0.26187
# Poissons Ratio (z) = 0.12189 0.42407
#
# Static dielectric constant tensor:
#      x y z
#    x 3.620650 -0.025740 0.108720 
#    y -0.025740 4.200500 0.127940 
#    z 0.108720 0.127940 4.093810 
# 
# 
# High freq. dielectric constant tensor:
#      x y z
#    x 1.767850 0.007380 -0.001860 
#    y 0.007380 1.800970 0.000250 
#    z -0.001860 0.000250 1.796120 
# 
# From -- ./inp_files/271519.got.cif
#   From: 2010.06.25/outbox.cif.g09.slc.cpg/sg2_136_cif.got.tgz:271519.got - 2010.06.27 13:26:56.
