data_PCOD8042119
_publ_section_title
;
Structure prediction by ZEFSAII (Michael W. Deem and Ramdas Pophale) SiO2 
 PCOD8042119
Probable space group: P -1
;
_chemical_formula_sum "Si O2"
_cell_formula_units_Z 14
_cell_length_a 25.883919
_cell_length_b 10.429183
_cell_length_c 16.604063
_cell_angle_alpha 151.026191
_cell_angle_beta 161.133110
_cell_angle_gamma 31.476956
_cell_volume 693.106460
_symmetry_space_group_name_H-M "P -1"
_symmetry_group_IT_number 2
_symmetry_cell_setting 'triclinic'
loop_
_space_group_symop_operation_xyz
x,y,z
-x,-y,-z
loop_
_atom_site_type_symbol
_atom_site_label
_atom_site_fract_x
_atom_site_fract_y
_atom_site_fract_z
Si Si1 0.190283 0.267877 0.575415
Si Si2 0.511576 0.927974 0.851219
Si Si3 0.250085 0.358946 0.266991
Si Si4 0.969836 0.074666 0.732861
Si Si5 0.533986 0.590107 0.846301
Si Si6 0.762270 0.864181 0.047693
Si Si7 0.954778 0.274756 0.498982
O O1 0.320799 0.019234 0.599093
O O2 0.105458 0.435699 0.468663
O O3 0.053408 0.151096 0.360087
O O4 0.285058 0.467192 0.879591
O O5 0.542687 0.655665 0.799778
O O6 0.569188 0.155993 0.118765
O O7 0.603698 0.891758 0.883339
O O8 0.165102 0.666319 0.316626
O O9 0.429230 0.345849 0.564545
O O10 0.272263 0.286669 0.166674
O O11 0.147812 0.160895 0.053809
O O12 0.957485 0.942515 0.554630
O O13 0.914766 0.686994 0.219578
O O14 0.802883 0.161084 0.251951
#
# Coordination Sequence:
#
# PCOD8042119 Si02
#       7
#     2   2   2   2   2   2   2
#     4  10  19  35  61  83 106 141 192 229 262 318
#     4   9  18  34  60  80 109 141 191 218 268 330
#     4  10  19  34  58  83 112 142 182 224 277 324
#     4  10  19  35  58  81 107 146 186 228 259 324
#     4   9  17  34  58  83 104 143 183 224 269 321
#     4  10  21  35  54  83 109 150 180 223 274 333
#     4  10  21  36  57  79 111 146 192 221 265 324
#
# _framework density 20.198917000000002
#
# number of rings (size 3 to 8) (size 9 to 14) (size 15 to 20)
#    0.857    1.429    1.429    2.143    0.000    2.286 
#    0.000    3.571    3.143    0.000    0.000    0.000 
#    0.000    0.000    0.000    0.000    0.000    0.000 
#
# Total GULP energy -173487.471293 kJ/mol
# GULP energy per Si atom -12391.962235 kJ/mol
# Density = 2.015294 g / cm^3
# Si number density = 20.198917 Si / 1000 Ang^3
#
#
#
# Elastic Constant Matrix: (Units=GPa)
#
#
# Indices 1 2 3 4 5 6 
#
# 1 97.4179 16.1676 31.4403 -3.0701 26.6660 6.5588
# 2 16.1676 46.6836 21.7014 -3.5290 3.3454 24.0460
# 3 31.4403 21.7014 112.0230 16.2548 14.8921 16.7984
# 4 -3.0701 -3.5290 16.2548 15.1123 5.6301 -0.6465
# 5 26.6660 3.3454 14.8921 5.6301 23.3805 4.1822
# 6 6.5588 24.0460 16.7984 -0.6465 4.1822 31.3482
#
#
#
# Elastic Compliance Matrix: (Units=1/GPa)
#
#
# Indices 1 2 3 4 5 6 
#
# 1 0.018901 -0.004110 -0.004635 0.016626 -0.022930 0.005084
# 2 -0.004110 0.039532 -0.004477 0.010448 0.004271 -0.027419
# 3 -0.004635 -0.004477 0.013992 -0.017943 0.002003 -0.003731
# 4 0.016626 0.010448 -0.017943 0.104576 -0.035099 0.004962
# 5 -0.022930 0.004271 0.002003 -0.035099 0.077384 -0.010600
# 6 0.005084 -0.027419 -0.003731 0.004962 -0.010600 0.055384
#
#
# Mechanical properties :
#
#
# Convention : Reuss Voigt Hill
#
# Bulk Modulus (GPa) = 21.74807 43.86035 32.80421
# Shear Modulus (GPa) = 14.22311 26.42253 20.32282
#
# Velocity S-wave (km/s) = 2.65647 3.62071 3.17540
# Velocity P-wave (km/s) = 4.49437 6.26424 5.45161
#
# Compressibility (1/GPa) = 0.04598109
#
# Stress axis : x y z
#
# Youngs Moduli (GPa) = 52.90623 25.29584 71.47132
#
# Poissons Ratio (x) = 0.10396 0.33129
# Poissons Ratio (y) = 0.21743 0.31998
# Poissons Ratio (z) = 0.24523 0.11325
#
# Static dielectric constant tensor:
#      x y z
#    x 3.605040 0.082570 0.202760 
#    y 0.082570 3.225610 0.162560 
#    z 0.202760 0.162560 3.671100 
# 
# 
# High freq. dielectric constant tensor:
#      x y z
#    x 1.783790 0.007830 0.018860 
#    y 0.007830 1.753100 0.008310 
#    z 0.018860 0.008310 1.786760 
# 
# From -- ./inp_files/542621.got.cif
#   From: 2010.06.25/outbox.cif.g09.slc.cpg/sg2_272_cif.got.tgz:542621.got - 2010.06.27 13:26:56.
