data_PCOD8042446
_publ_section_title
;
Structure prediction by ZEFSAII (Michael W. Deem and Ramdas Pophale) SiO2 
 PCOD8042446
Probable space group: P -1
;
_chemical_formula_sum "Si O2"
_cell_formula_units_Z 14
_cell_length_a 22.369708
_cell_length_b 5.252494
_cell_length_c 17.974116
_cell_angle_alpha 87.922180
_cell_angle_beta 18.117784
_cell_angle_gamma 97.288756
_cell_volume 560.943227
_symmetry_space_group_name_H-M "P -1"
_symmetry_group_IT_number 2
_symmetry_cell_setting 'triclinic'
loop_
_space_group_symop_operation_xyz
x,y,z
-x,-y,-z
loop_
_atom_site_type_symbol
_atom_site_label
_atom_site_fract_x
_atom_site_fract_y
_atom_site_fract_z
Si Si1 0.525652 0.613934 0.352396
Si Si2 0.658625 0.161768 0.741031
Si Si3 0.239332 0.910193 0.709892
Si Si4 0.027772 0.015976 0.090916
Si Si5 0.106319 0.517928 0.294928
Si Si6 0.773590 0.893819 0.909770
Si Si7 0.229645 0.251939 0.457485
O O1 0.407849 0.263476 0.503534
O O2 0.370034 0.735623 0.564357
O O3 0.584847 0.708113 0.196009
O O4 0.746609 0.736595 0.139255
O O5 0.608847 0.394402 0.755080
O O6 0.916110 0.364175 0.459021
O O7 0.625402 0.904740 0.725805
O O8 0.500000 0.000000 0.000000
O O9 0.081178 0.816066 0.824774
O O10 0.080036 0.827479 0.971781
O O11 0.851843 0.782056 0.360811
O O12 0.275800 0.869344 0.073882
O O13 0.000000 0.500000 0.500000
O O14 0.239242 0.341057 0.134394
O O15 0.019945 0.090324 0.651516
#
# Coordination Sequence:
#
# PCOD8042446 Si02
#       7
#     2   2   2   2   2   2   2
#     4  11  23  43  66  95 132 175 218 266 327 380
#     4  10  20  37  57  85 114 152 205 252 303 383
#     4  11  25  41  67 101 131 170 228 264 319 400
#     4  10  24  44  67  96 136 175 213 276 326 379
#     4  10  19  35  56  82 113 155 195 251 319 364
#     4   9  19  36  58  81 117 158 203 249 303 386
#     4   9  20  37  61  81 118 164 200 246 321 372
#
# _framework density 24.957962999999999
#
# number of rings (size 3 to 8) (size 9 to 14) (size 15 to 20)
#    0.000    2.000    0.000    2.571    0.000    9.143 
#    7.714    0.000    0.000    0.000    0.000    0.000 
#    0.000    0.000    0.000    0.000    0.000    0.000 
#
# Total GULP energy -173595.754786 kJ/mol
# GULP energy per Si atom -12399.696770 kJ/mol
# Density = 2.490116 g / cm^3
# Si number density = 24.957963 Si / 1000 Ang^3
#
#
#
# Elastic Constant Matrix: (Units=GPa)
#
#
# Indices 1 2 3 4 5 6 
#
# 1 93.9278 47.2857 50.7754 0.8867 23.3099 -1.8717
# 2 47.2857 181.4648 65.5030 -8.0559 13.2301 -4.7612
# 3 50.7754 65.5030 102.4305 3.2432 32.7276 -0.5252
# 4 0.8867 -8.0559 3.2432 38.3208 0.2833 6.2278
# 5 23.3099 13.2301 32.7276 0.2833 52.3484 4.6119
# 6 -1.8717 -4.7612 -0.5252 6.2278 4.6119 17.2997
#
#
#
# Elastic Compliance Matrix: (Units=1/GPa)
#
#
# Indices 1 2 3 4 5 6 
#
# 1 0.015294 -0.001775 -0.005409 -0.000579 -0.003158 0.002053
# 2 -0.001775 0.007603 -0.004570 0.001911 0.001660 0.000631
# 3 -0.005409 -0.004570 0.017946 -0.002574 -0.007793 0.001706
# 4 -0.000579 0.001911 -0.002574 0.028405 0.002148 -0.010413
# 5 -0.003158 0.001660 -0.007793 0.002148 0.025631 -0.007728
# 6 0.002053 0.000631 0.001706 -0.010413 -0.007728 0.064061
#
#
# Mechanical properties :
#
#
# Convention : Reuss Voigt Hill
#
# Bulk Modulus (GPa) = 57.68021 78.32792 68.00406
# Shear Modulus (GPa) = 26.56394 35.87772 31.22083
#
# Velocity S-wave (km/s) = 3.26597 3.79559 3.54070
# Velocity P-wave (km/s) = 6.11418 7.11763 6.63490
#
# Compressibility (1/GPa) = 0.01733697
#
# Stress axis : x y z
#
# Youngs Moduli (GPa) = 65.38690 131.52404 55.72130
#
# Poissons Ratio (x) = 0.23339 0.30137
# Poissons Ratio (y) = 0.11603 0.25465
# Poissons Ratio (z) = 0.35365 0.60108
#
# Static dielectric constant tensor:
#      x y z
#    x 4.595240 -0.033610 -0.035550 
#    y -0.033610 4.911570 -0.079120 
#    z -0.035550 -0.079120 4.554900 
# 
# 
# High freq. dielectric constant tensor:
#      x y z
#    x 1.999020 0.001410 -0.002390 
#    y 0.001410 2.002720 -0.005630 
#    z -0.002390 -0.005630 2.000580 
# 
# From -- ./inp_files/42628.got.cif
#   From: 2010.06.25/outbox.cif.g09.slc.cpg/sg2_22_cif.got.tgz:42628.got - 2010.06.27 13:26:56.
