data_PCOD8042597
_publ_section_title
;
Structure prediction by ZEFSAII (Michael W. Deem and Ramdas Pophale) SiO2 
 PCOD8042597
Probable space group: P -1
;
_chemical_formula_sum "Si O2"
_cell_formula_units_Z 16
_cell_length_a 7.525900
_cell_length_b 17.833717
_cell_length_c 8.596792
_cell_angle_alpha 128.530603
_cell_angle_beta 99.797224
_cell_angle_gamma 66.491690
_cell_volume 822.741159
_symmetry_space_group_name_H-M "P -1"
_symmetry_group_IT_number 2
_symmetry_cell_setting 'triclinic'
loop_
_space_group_symop_operation_xyz
x,y,z
-x,-y,-z
loop_
_atom_site_type_symbol
_atom_site_label
_atom_site_fract_x
_atom_site_fract_y
_atom_site_fract_z
Si Si1 0.248673 0.877728 0.477419
Si Si2 0.828479 0.678167 0.391472
Si Si3 0.958821 0.721199 0.770072
Si Si4 0.230757 0.564971 0.404606
Si Si5 0.630197 0.806826 0.250163
Si Si6 0.449771 0.693358 0.490530
Si Si7 0.360542 0.332402 0.197460
Si Si8 0.910580 0.887278 0.222533
O O1 0.438219 0.873963 0.404283
O O2 0.304864 0.799988 0.530798
O O3 0.098037 0.848543 0.311977
O O4 0.145098 0.993446 0.678493
O O5 0.838200 0.756059 0.633755
O O6 0.801075 0.734926 0.296312
O O7 0.646761 0.644535 0.354945
O O8 0.031440 0.577293 0.296883
O O9 0.855116 0.663588 0.790376
O O10 0.172764 0.635845 0.645862
O O11 0.970434 0.820229 0.986697
O O12 0.356531 0.606863 0.364248
O O13 0.352883 0.447474 0.316066
O O14 0.721414 0.877725 0.262949
O O15 0.562168 0.736484 0.032820
O O16 0.492557 0.718728 0.705583
#
# Coordination Sequence:
#
# PCOD8042597 Si02
#       8
#     2   2   2   2   2   2   2   2
#     4  10  22  38  58  79 113 137 179 232 269 318
#     4   8  19  35  53  78 113 139 179 222 264 308
#     4   8  19  35  57  78 109 140 184 220 262 318
#     4  10  19  35  59  76 112 151 174 222 267 313
#     4  10  20  37  57  82 113 139 178 228 268 317
#     4  10  20  36  53  80 111 143 180 225 263 318
#     4  10  20  35  57  83 108 146 186 212 268 328
#     4  10  20  39  59  82 101 147 182 217 280 325
#
# _framework density 19.447185999999999
#
# number of rings (size 3 to 8) (size 9 to 14) (size 15 to 20)
#    0.750    1.750    0.000    1.875    1.750    0.500 
#    0.000   14.375    0.000    0.000    0.000    0.000 
#    0.000    0.000    0.000    0.000    0.000    0.000 
#
# Total GULP energy -198306.561898 kJ/mol
# GULP energy per Si atom -12394.160119 kJ/mol
# Density = 1.940292 g / cm^3
# Si number density = 19.447186 Si / 1000 Ang^3
#
#
#
# Elastic Constant Matrix: (Units=GPa)
#
#
# Indices 1 2 3 4 5 6 
#
# 1 72.0483 27.2801 15.0297 3.2486 12.1494 0.2948
# 2 27.2801 116.2707 41.2206 -6.7882 12.3273 -4.3174
# 3 15.0297 41.2206 62.9642 -3.3884 11.3458 0.4747
# 4 3.2486 -6.7882 -3.3884 22.4423 -0.6482 3.9815
# 5 12.1494 12.3273 11.3458 -0.6482 17.8921 -0.4387
# 6 0.2948 -4.3174 0.4747 3.9815 -0.4387 28.0813
#
#
#
# Elastic Compliance Matrix: (Units=1/GPa)
#
#
# Indices 1 2 3 4 5 6 
#
# 1 0.016845 -0.002989 -0.000614 -0.003654 -0.009128 -0.000251
# 2 -0.002989 0.012111 -0.006736 0.002742 -0.001904 0.001589
# 3 -0.000614 -0.006736 0.022147 0.001446 -0.008977 -0.001749
# 4 -0.003654 0.002742 0.001446 0.047280 0.001235 -0.006249
# 5 -0.009128 -0.001904 -0.008977 0.001235 0.069159 0.000860
# 6 -0.000251 0.001589 -0.001749 -0.006249 0.000860 0.036787
#
#
# Mechanical properties :
#
#
# Convention : Reuss Voigt Hill
#
# Bulk Modulus (GPa) = 32.86918 46.48266 39.67592
# Shear Modulus (GPa) = 21.26312 24.86666 23.06489
#
# Velocity S-wave (km/s) = 3.31021 3.57974 3.44761
# Velocity P-wave (km/s) = 5.61680 6.40624 6.02447
#
# Compressibility (1/GPa) = 0.03042364
#
# Stress axis : x y z
#
# Youngs Moduli (GPa) = 59.36640 82.56770 45.15239
#
# Poissons Ratio (x) = 0.24684 0.02771
# Poissons Ratio (y) = 0.17748 0.30417
# Poissons Ratio (z) = 0.03643 0.55622
#
# Static dielectric constant tensor:
#      x y z
#    x 3.594470 -0.000670 0.050530 
#    y -0.000670 3.343320 -0.160810 
#    z 0.050530 -0.160810 3.357170 
# 
# 
# High freq. dielectric constant tensor:
#      x y z
#    x 1.767030 0.000870 0.006220 
#    y 0.000870 1.743660 -0.013220 
#    z 0.006220 -0.013220 1.735590 
# 
# From -- ./inp_files/215939.got.cif
#   From: 2010.06.25/outbox.cif.g09.slc.cpg/sg2_108_cif.got.tgz:215939.got - 2010.06.27 13:26:56.
