data_PCOD8042226
_publ_section_title
;
Structure prediction by ZEFSAII (Michael W. Deem and Ramdas Pophale) SiO2 
 PCOD8042226
Probable space group: P -1
;
_chemical_formula_sum "Si O2"
_cell_formula_units_Z 16
_cell_length_a 25.520944
_cell_length_b 9.641247
_cell_length_c 22.137192
_cell_angle_alpha 151.808818
_cell_angle_beta 20.456626
_cell_angle_gamma 140.075353
_cell_volume 840.152993
_symmetry_space_group_name_H-M "P -1"
_symmetry_group_IT_number 2
_symmetry_cell_setting 'triclinic'
loop_
_space_group_symop_operation_xyz
x,y,z
-x,-y,-z
loop_
_atom_site_type_symbol
_atom_site_label
_atom_site_fract_x
_atom_site_fract_y
_atom_site_fract_z
Si Si1 0.333329 0.755689 0.758176
Si Si2 0.465917 0.168076 0.699148
Si Si3 0.769274 0.106519 0.619745
Si Si4 0.503966 0.271604 0.055324
Si Si5 0.631348 0.576395 0.221156
Si Si6 0.373695 0.321912 0.445665
Si Si7 0.137465 0.979302 0.174043
Si Si8 0.640280 0.697517 0.908243
O O1 0.500000 0.500000 0.500000
O O2 0.275055 0.567652 0.697423
O O3 0.360379 0.064195 0.821979
O O4 0.201070 0.858983 0.992422
O O5 0.550915 0.392305 0.723248
O O6 0.345954 0.344003 0.842016
O O7 0.607905 0.869607 0.403577
O O8 0.653177 0.367780 0.798449
O O9 0.759452 0.769803 0.482496
O O10 0.689700 0.191434 0.804226
O O11 0.947100 0.100571 0.426229
O O12 0.395655 0.289654 0.119759
O O13 0.500000 0.000000 0.000000
O O14 0.471790 0.483834 0.360554
O O15 0.792799 0.302519 0.961864
O O16 0.510265 0.997953 0.198543
O O17 0.187198 0.269145 0.253690
#
# Coordination Sequence:
#
# PCOD8042226 Si02
#       8
#     2   2   2   2   2   2   2   2
#     4  11  19  33  60  84 106 141 187 237 259 332
#     4  10  19  34  60  87 102 141 196 224 270 318
#     4  11  23  34  55  81 117 149 176 232 283 325
#     4  11  22  37  60  84 108 148 192 227 260 335
#     4   9  19  36  60  80 108 143 182 234 270 331
#     4   9  18  34  55  80 108 140 192 226 270 317
#     4  11  21  37  53  82 115 146 181 230 288 315
#     4  10  20  35  55  78 114 149 188 222 270 334
#
# _framework density 19.044149999999998
#
# number of rings (size 3 to 8) (size 9 to 14) (size 15 to 20)
#    0.000    1.750    3.750    4.875    1.750    0.500 
#    0.000    3.750    0.000   10.500    0.000    0.000 
#    0.000    0.000    0.000    0.000    0.000    0.000 
#
# Total GULP energy -198323.933156 kJ/mol
# GULP energy per Si atom -12395.245822 kJ/mol
# Density = 1.900080 g / cm^3
# Si number density = 19.044150 Si / 1000 Ang^3
#
#
#
# Elastic Constant Matrix: (Units=GPa)
#
#
# Indices 1 2 3 4 5 6 
#
# 1 71.3562 44.4549 30.0455 -1.8770 12.4040 -5.7194
# 2 44.4549 117.1265 37.8436 10.8527 10.6993 -4.3864
# 3 30.0455 37.8436 62.3708 -8.6099 5.8511 1.0552
# 4 -1.8770 10.8527 -8.6099 35.2087 6.4889 4.2846
# 5 12.4040 10.6993 5.8511 6.4889 20.6242 6.4304
# 6 -5.7194 -4.3864 1.0552 4.2846 6.4304 46.8654
#
#
#
# Elastic Compliance Matrix: (Units=1/GPa)
#
#
# Indices 1 2 3 4 5 6 
#
# 1 0.022312 -0.005729 -0.005888 0.003085 -0.010846 0.003525
# 2 -0.005729 0.013330 -0.006162 -0.006035 -0.000218 0.001269
# 3 -0.005888 -0.006162 0.023936 0.008065 -0.001868 -0.002315
# 4 0.003085 -0.006035 0.008065 0.034727 -0.011318 -0.001992
# 5 -0.010846 -0.000218 -0.001868 -0.011318 0.061948 -0.008767
# 6 0.003525 0.001269 -0.002315 -0.001992 -0.008767 0.023324
#
#
# Mechanical properties :
#
#
# Convention : Reuss Voigt Hill
#
# Bulk Modulus (GPa) = 41.63366 52.83796 47.23581
# Shear Modulus (GPa) = 22.40720 29.77361 26.09041
#
# Velocity S-wave (km/s) = 3.43387 3.95827 3.70536
# Velocity P-wave (km/s) = 6.13442 6.97824 6.56989
#
# Compressibility (1/GPa) = 0.02401903
#
# Stress axis : x y z
#
# Youngs Moduli (GPa) = 44.81918 75.01938 41.77726
#
# Poissons Ratio (x) = 0.42978 0.24600
# Poissons Ratio (y) = 0.25676 0.25745
# Poissons Ratio (z) = 0.26391 0.46229
#
# Static dielectric constant tensor:
#      x y z
#    x 3.689470 0.086240 0.497400 
#    y 0.086240 3.788270 0.321430 
#    z 0.497400 0.321430 3.472930 
# 
# 
# High freq. dielectric constant tensor:
#      x y z
#    x 1.735510 -0.000250 0.023980 
#    y -0.000250 1.758360 0.022210 
#    z 0.023980 0.022210 1.706210 
# 
# From -- ./inp_files/392457.got.cif
#   From: 2010.06.25/outbox.cif.g09.slc.cpg/sg2_197_cif.got.tgz:392457.got - 2010.06.27 13:26:56.
