data_PCOD8042480
_publ_section_title
;
Structure prediction by ZEFSAII (Michael W. Deem and Ramdas Pophale) SiO2 
 PCOD8042480
Probable space group: P -1
;
_chemical_formula_sum "Si O2"
_cell_formula_units_Z 16
_cell_length_a 6.553257
_cell_length_b 19.351759
_cell_length_c 8.864424
_cell_angle_alpha 63.654082
_cell_angle_beta 128.157420
_cell_angle_gamma 93.298265
_cell_volume 753.760594
_symmetry_space_group_name_H-M "P -1"
_symmetry_group_IT_number 2
_symmetry_cell_setting 'triclinic'
loop_
_space_group_symop_operation_xyz
x,y,z
-x,-y,-z
loop_
_atom_site_type_symbol
_atom_site_label
_atom_site_fract_x
_atom_site_fract_y
_atom_site_fract_z
Si Si1 0.369378 0.057997 0.069939
Si Si2 0.116990 0.194748 0.399555
Si Si3 0.871775 0.908721 0.759640
Si Si4 0.929108 0.950188 0.330479
Si Si5 0.681702 0.515490 0.203367
Si Si6 0.527006 0.192917 0.841866
Si Si7 0.674367 0.332825 0.914431
Si Si8 0.783665 0.443001 0.623259
O O1 0.338063 0.059175 0.233537
O O2 0.618433 0.978645 0.222923
O O3 0.100038 0.051413 0.864248
O O4 0.418796 0.141106 0.961792
O O5 0.243618 0.146067 0.351883
O O6 0.946307 0.140218 0.456252
O O7 0.356207 0.208369 0.595136
O O8 0.908768 0.281996 0.183302
O O9 0.905147 0.987866 0.608634
O O10 0.160680 0.854070 0.010909
O O11 0.521541 0.594732 0.148450
O O12 0.759331 0.439898 0.431574
O O13 0.959661 0.525033 0.250884
O O14 0.500000 0.500000 0.000000
O O15 0.494249 0.279026 0.821043
O O16 0.822036 0.359122 0.811010
O O17 0.500000 0.500000 0.500000
#
# Coordination Sequence:
#
# PCOD8042480 Si02
#       8
#     2   2   2   2   2   2   2   2
#     4   9  18  34  56  77 108 152 199 249 297 345
#     4  10  21  36  54  81 116 152 193 244 298 350
#     4  10  19  35  57  78 105 152 206 251 296 346
#     4   9  18  34  53  78 111 150 197 249 300 347
#     4  10  22  41  68  98 120 150 198 241 288 354
#     4   9  21  39  53  78 119 154 192 243 297 349
#     4  10  22  39  60  85 121 158 187 235 295 357
#     4   9  21  41  63  89 122 155 189 235 289 349
#
# _framework density 21.226897999999998
#
# number of rings (size 3 to 8) (size 9 to 14) (size 15 to 20)
#    0.000    2.500    0.000    1.500    0.000    8.500 
#    0.000   13.750    0.000    0.000    0.000    0.000 
#    0.000    0.000    0.000    0.000    0.000    0.000 
#
# Total GULP energy -198322.015197 kJ/mol
# GULP energy per Si atom -12395.125950 kJ/mol
# Density = 2.117859 g / cm^3
# Si number density = 21.226898 Si / 1000 Ang^3
#
#
#
# Elastic Constant Matrix: (Units=GPa)
#
#
# Indices 1 2 3 4 5 6 
#
# 1 80.5883 26.8464 31.8410 -2.6577 -6.1320 -0.1753
# 2 26.8464 99.7500 48.4469 7.4951 0.1821 4.5077
# 3 31.8410 48.4469 132.4392 6.9343 -11.6700 12.4984
# 4 -2.6577 7.4951 6.9343 43.9607 8.3136 -5.3500
# 5 -6.1320 0.1821 -11.6700 8.3136 20.2887 5.3298
# 6 -0.1753 4.5077 12.4984 -5.3500 5.3298 26.8583
#
#
#
# Elastic Compliance Matrix: (Units=1/GPa)
#
#
# Indices 1 2 3 4 5 6 
#
# 1 0.014571 -0.002898 -0.002526 0.001630 0.001859 0.001713
# 2 -0.002898 0.012960 -0.004270 -0.001116 -0.003036 0.000173
# 3 -0.002526 -0.004270 0.011429 -0.003876 0.009340 -0.007244
# 4 0.001630 -0.001116 -0.003876 0.027986 -0.016019 0.010755
# 5 0.001859 -0.003036 0.009340 -0.016019 0.067158 -0.020342
# 6 0.001713 0.000173 -0.007244 0.010755 -0.020342 0.046765
#
#
# Mechanical properties :
#
#
# Convention : Reuss Voigt Hill
#
# Bulk Modulus (GPa) = 51.09071 58.56066 54.82568
# Shear Modulus (GPa) = 24.18006 31.93109 28.05558
#
# Velocity S-wave (km/s) = 3.37875 3.88271 3.63946
# Velocity P-wave (km/s) = 6.27235 6.91002 6.59889
#
# Compressibility (1/GPa) = 0.01957303
#
# Stress axis : x y z
#
# Youngs Moduli (GPa) = 68.62820 77.15878 87.49358
#
# Poissons Ratio (x) = 0.22360 0.22104
# Poissons Ratio (y) = 0.19888 0.37356
# Poissons Ratio (z) = 0.17338 0.32944
#
# Static dielectric constant tensor:
#      x y z
#    x 3.719300 0.177130 -0.272330 
#    y 0.177130 3.801380 -0.018830 
#    z -0.272330 -0.018830 4.209970 
# 
# 
# High freq. dielectric constant tensor:
#      x y z
#    x 1.813070 0.005750 -0.012910 
#    y 0.005750 1.819150 0.006490 
#    z -0.012910 0.006490 1.851800 
# 
# From -- ./inp_files/141313.got.cif
#   From: 2010.06.25/outbox.cif.g09.slc.cpg/sg2_71_cif.got.tgz:141313.got - 2010.06.27 13:26:56.
