data_PCOD8042636
_publ_section_title
;
Structure prediction by ZEFSAII (Michael W. Deem and Ramdas Pophale) SiO2 
 PCOD8042636
Probable space group: P -1
;
_chemical_formula_sum "Si O2"
_cell_formula_units_Z 16
_cell_length_a 11.674887
_cell_length_b 19.643786
_cell_length_c 8.987841
_cell_angle_alpha 90.350490
_cell_angle_beta 73.021142
_cell_angle_gamma 29.012834
_cell_volume 789.744942
_symmetry_space_group_name_H-M "P -1"
_symmetry_group_IT_number 2
_symmetry_cell_setting 'triclinic'
loop_
_space_group_symop_operation_xyz
x,y,z
-x,-y,-z
loop_
_atom_site_type_symbol
_atom_site_label
_atom_site_fract_x
_atom_site_fract_y
_atom_site_fract_z
Si Si1 0.787330 0.305053 0.858555
Si Si2 0.356526 0.415914 0.016128
Si Si3 0.134262 0.566300 0.801272
Si Si4 0.051365 0.662456 0.382327
Si Si5 0.440439 0.646924 0.614900
Si Si6 0.950264 0.816855 0.929920
Si Si7 0.645549 0.182069 0.144939
Si Si8 0.629423 0.816720 0.771714
O O1 0.654201 0.303043 0.853422
O O2 0.997265 0.234818 0.658206
O O3 0.500000 0.500000 0.000000
O O4 0.964558 0.199104 0.940714
O O5 0.172736 0.499493 0.933527
O O6 0.128434 0.573297 0.214272
O O7 0.485521 0.282330 0.048403
O O8 0.456199 0.400271 0.595266
O O9 0.027130 0.697985 0.883931
O O10 0.893179 0.658145 0.783256
O O11 0.327229 0.522817 0.389768
O O12 0.755698 0.791139 0.580278
O O13 0.451439 0.715115 0.688810
O O14 0.121102 0.775156 0.743660
O O15 0.597064 0.015544 0.051147
O O16 0.533783 0.165218 0.229203
O O17 0.000000 0.000000 0.000000
#
# Coordination Sequence:
#
# PCOD8042636 Si02
#       8
#     2   2   2   2   2   2   2   2
#     4  10  15  32  61  87 114 150 208 241 284 343
#     4  10  19  37  65  86 118 162 198 247 288 349
#     4  11  23  37  57  94 125 153 195 242 313 357
#     4   9  18  35  57  90 116 152 204 242 287 353
#     4  10  20  36  65  88 110 163 203 243 285 355
#     4  12  19  38  62  89 126 155 194 253 301 350
#     4  11  21  43  67  83 117 158 212 244 283 356
#     4  11  25  37  59  91 125 160 194 244 307 350
#
# _framework density 20.259706000000001
#
# number of rings (size 3 to 8) (size 9 to 14) (size 15 to 20)
#    0.000    1.500    7.500    0.750    0.000    6.500 
#    0.000    0.625    2.750    0.000    0.000    0.000 
#    0.000    0.000    0.000    0.000    0.000    0.000 
#
# Total GULP energy -198319.747501 kJ/mol
# GULP energy per Si atom -12394.984219 kJ/mol
# Density = 2.021359 g / cm^3
# Si number density = 20.259706 Si / 1000 Ang^3
#
#
#
# Elastic Constant Matrix: (Units=GPa)
#
#
# Indices 1 2 3 4 5 6 
#
# 1 64.7507 3.1765 25.2485 6.6297 -17.3466 7.7978
# 2 3.1765 61.7239 43.3841 0.4674 1.5938 -1.2148
# 3 25.2485 43.3841 130.8674 3.3437 -19.4939 -0.2517
# 4 6.6297 0.4674 3.3437 25.5440 -5.6407 2.0010
# 5 -17.3466 1.5938 -19.4939 -5.6407 31.9188 -0.4683
# 6 7.7978 -1.2148 -0.2517 2.0010 -0.4683 28.1235
#
#
#
# Elastic Compliance Matrix: (Units=1/GPa)
#
#
# Indices 1 2 3 4 5 6 
#
# 1 0.019592 0.000548 -0.002643 -0.002473 0.008494 -0.005115
# 2 0.000548 0.022218 -0.008350 -0.000846 -0.006050 0.000692
# 3 -0.002643 -0.008350 0.011848 0.000645 0.006338 0.000538
# 4 -0.002473 -0.000846 0.000645 0.041296 0.006358 -0.002177
# 5 0.008494 -0.006050 0.006338 0.006358 0.041208 -0.002326
# 6 -0.005115 0.000692 0.000538 -0.002177 -0.002326 0.037127
#
#
# Mechanical properties :
#
#
# Convention : Reuss Voigt Hill
#
# Bulk Modulus (GPa) = 30.51644 44.55113 37.53379
# Shear Modulus (GPa) = 24.37829 29.48613 26.93221
#
# Velocity S-wave (km/s) = 3.47261 3.81912 3.64998
# Velocity P-wave (km/s) = 5.58337 6.44091 6.02741
#
# Compressibility (1/GPa) = 0.03276922
#
# Stress axis : x y z
#
# Youngs Moduli (GPa) = 51.04058 45.00875 84.40289
#
# Poissons Ratio (x) = -0.02468 0.22309
# Poissons Ratio (y) = -0.02798 0.70473
# Poissons Ratio (z) = 0.13491 0.37580
#
# Static dielectric constant tensor:
#      x y z
#    x 3.662430 0.055990 -0.267390 
#    y 0.055990 3.837340 -0.116830 
#    z -0.267390 -0.116830 3.904440 
# 
# 
# High freq. dielectric constant tensor:
#      x y z
#    x 1.774260 -0.003260 -0.013640 
#    y -0.003260 1.778360 -0.005160 
#    z -0.013640 -0.005160 1.785030 
# 
# From -- ./inp_files/188684.got.cif
#   From: 2010.06.25/outbox.cif.g09.slc.cpg/sg2_95_cif.got.tgz:188684.got - 2010.06.27 13:26:56.
