data_PCOD8042300
_publ_section_title
;
Structure prediction by ZEFSAII (Michael W. Deem and Ramdas Pophale) SiO2 
 PCOD8042300
Probable space group: P -1
;
_chemical_formula_sum "Si O2"
_cell_formula_units_Z 16
_cell_length_a 19.609560
_cell_length_b 9.390413
_cell_length_c 10.943591
_cell_angle_alpha 117.300620
_cell_angle_beta 128.033645
_cell_angle_gamma 30.479768
_cell_volume 791.806090
_symmetry_space_group_name_H-M "P -1"
_symmetry_group_IT_number 2
_symmetry_cell_setting 'triclinic'
loop_
_space_group_symop_operation_xyz
x,y,z
-x,-y,-z
loop_
_atom_site_type_symbol
_atom_site_label
_atom_site_fract_x
_atom_site_fract_y
_atom_site_fract_z
Si Si1 0.123419 0.423806 0.773638
Si Si2 0.907084 0.825237 0.497235
Si Si3 0.712506 0.388904 0.412035
Si Si4 0.660669 0.331968 0.076750
Si Si5 0.640708 0.707283 0.111136
Si Si6 0.835239 0.753847 0.978306
Si Si7 0.228447 0.378124 0.536802
Si Si8 0.402689 0.988357 0.372024
O O1 0.193304 0.166628 0.669898
O O2 0.208554 0.461035 0.858315
O O3 0.136754 0.364487 0.905588
O O4 0.950577 0.715568 0.642554
O O5 0.062191 0.597672 0.495648
O O6 0.812912 0.133597 0.518366
O O7 0.740989 0.267321 0.263510
O O8 0.782422 0.460579 0.511126
O O9 0.533109 0.652688 0.360793
O O10 0.634697 0.522758 0.031661
O O11 0.773580 0.030259 0.021034
O O12 0.500000 0.500000 0.000000
O O13 0.645520 0.762990 0.278004
O O14 0.500000 0.000000 0.000000
O O15 0.712217 0.833308 0.800989
O O16 0.000000 0.500000 0.000000
O O17 0.299974 0.120406 0.434494
O O18 0.500000 0.000000 0.500000
#
# Coordination Sequence:
#
# PCOD8042300 Si02
#       8
#     2   2   2   2   2   2   2   2
#     4  10  22  38  61  91 129 164 207 261 327 374
#     4  10  19  37  62  90 122 165 207 262 318 374
#     4  10  19  34  62  92 124 161 215 263 305 380
#     4  11  21  39  65  94 125 163 225 264 307 383
#     4  10  22  37  64  94 127 163 210 267 321 373
#     4  12  24  42  69  93 128 172 221 265 318 386
#     4   9  20  37  58  92 124 161 210 253 315 382
#     4  10  22  37  58  93 128 164 207 260 321 368
#
# _framework density 20.206966999999999
#
# number of rings (size 3 to 8) (size 9 to 14) (size 15 to 20)
#    0.000    1.750    2.500    1.875    3.500    0.000 
#    4.500    1.875    0.000    8.250    0.000    0.000 
#    0.000    0.000    0.000    0.000    0.000    0.000 
#
# Total GULP energy -198255.293519 kJ/mol
# GULP energy per Si atom -12390.955845 kJ/mol
# Density = 2.016097 g / cm^3
# Si number density = 20.206967 Si / 1000 Ang^3
#
#
#
# Elastic Constant Matrix: (Units=GPa)
#
#
# Indices 1 2 3 4 5 6 
#
# 1 100.7867 61.1480 43.8823 -6.8023 2.3111 18.2735
# 2 61.1480 142.1396 53.1014 -12.0261 -11.6259 5.3240
# 3 43.8823 53.1014 118.9851 -10.1652 -11.6747 4.4884
# 4 -6.8023 -12.0261 -10.1652 28.3731 4.6857 -3.6811
# 5 2.3111 -11.6259 -11.6747 4.6857 35.1294 -5.2398
# 6 18.2735 5.3240 4.4884 -3.6811 -5.2398 37.5019
#
#
#
# Elastic Compliance Matrix: (Units=1/GPa)
#
#
# Indices 1 2 3 4 5 6 
#
# 1 0.016643 -0.005919 -0.003739 0.000056 -0.005434 -0.007575
# 2 -0.005919 0.010767 -0.002207 0.002109 0.003279 0.002285
# 3 -0.003739 -0.002207 0.011185 0.001832 0.003201 0.001424
# 4 0.000056 0.002109 0.001832 0.037707 -0.003325 0.002691
# 5 -0.005434 0.003279 0.003201 -0.003325 0.032309 0.005987
# 6 -0.007575 0.002285 0.001424 0.002691 0.005987 0.030962
#
#
# Mechanical properties :
#
#
# Convention : Reuss Voigt Hill
#
# Bulk Modulus (GPa) = 67.26771 75.35274 71.31023
# Shear Modulus (GPa) = 29.71648 33.78619 31.75134
#
# Velocity S-wave (km/s) = 3.83901 4.09345 3.96827
# Velocity P-wave (km/s) = 7.28095 7.72744 7.50751
#
# Compressibility (1/GPa) = 0.01486597
#
# Stress axis : x y z
#
# Youngs Moduli (GPa) = 60.08628 92.87692 89.40535
#
# Poissons Ratio (x) = 0.54971 0.33429
# Poissons Ratio (y) = 0.35563 0.19728
# Poissons Ratio (z) = 0.22467 0.20494
#
# Static dielectric constant tensor:
#      x y z
#    x 3.943970 0.171970 0.085710 
#    y 0.171970 4.086550 0.185570 
#    z 0.085710 0.185570 4.142520 
# 
# 
# High freq. dielectric constant tensor:
#      x y z
#    x 1.780690 0.006900 0.007830 
#    y 0.006900 1.777220 -0.008280 
#    z 0.007830 -0.008280 1.794350 
# 
# From -- ./inp_files/435799.got.cif
#   From: 2010.06.25/outbox.cif.g09.slc.cpg/sg2_218_cif.got.tgz:435799.got - 2010.06.27 13:26:56.
