data_PCOD8042210
_publ_section_title
;
Structure prediction by ZEFSAII (Michael W. Deem and Ramdas Pophale) SiO2 
 PCOD8042210
Probable space group: P -1
;
_chemical_formula_sum "Si O2"
_cell_formula_units_Z 14
_cell_length_a 14.433737
_cell_length_b 12.131722
_cell_length_c 9.916201
_cell_angle_alpha 106.233074
_cell_angle_beta 131.815689
_cell_angle_gamma 37.346870
_cell_volume 653.556128
_symmetry_space_group_name_H-M "P -1"
_symmetry_group_IT_number 2
_symmetry_cell_setting 'triclinic'
loop_
_space_group_symop_operation_xyz
x,y,z
-x,-y,-z
loop_
_atom_site_type_symbol
_atom_site_label
_atom_site_fract_x
_atom_site_fract_y
_atom_site_fract_z
Si Si1 0.369222 0.854168 0.269484
Si Si2 0.768283 0.109778 0.334226
Si Si3 0.416821 0.538758 0.582293
Si Si4 0.363037 0.952200 0.599086
Si Si5 0.134708 0.375504 0.952615
Si Si6 0.307065 0.209526 0.486570
Si Si7 0.889784 0.871692 0.137757
O O1 0.407792 0.687319 0.249973
O O2 0.338679 0.915811 0.415484
O O3 0.593749 0.740451 0.377059
O O4 0.144578 0.065987 0.031598
O O5 0.571034 0.354302 0.280051
O O6 0.809822 0.979727 0.444882
O O7 0.713487 0.088996 0.132684
O O8 0.000000 0.000000 0.500000
O O9 0.500000 0.500000 0.500000
O O10 0.159666 0.682348 0.374806
O O11 0.297871 0.138567 0.587791
O O12 0.624722 0.740221 0.845740
O O13 0.180091 0.204130 0.922141
O O14 0.965823 0.565659 0.743175
O O15 0.000000 0.500000 0.000000
O O16 0.500000 0.000000 0.500000
#
# Coordination Sequence:
#
# PCOD8042210 Si02
#       7
#     2   2   2   2   2   2   2
#     4  11  20  38  68 100 124 162 219 267 312 381
#     4  10  25  47  63  90 137 178 208 269 323 380
#     4  11  22  43  68  91 127 173 224 260 312 385
#     4  11  21  40  66  97 131 167 216 262 322 390
#     4  12  19  36  67  99 131 168 209 268 327 381
#     4  10  19  34  60 100 130 155 207 273 317 372
#     4  11  24  41  66  95 132 168 211 272 331 368
#
# _framework density 21.421268000000001
#
# number of rings (size 3 to 8) (size 9 to 14) (size 15 to 20)
#    0.000    1.143    7.143    0.857    0.000    1.714 
#    0.000    3.571    0.000    0.000    0.000    0.000 
#    0.000    0.000    0.000    0.000    0.000    0.000 
#
# Total GULP energy -173465.578730 kJ/mol
# GULP energy per Si atom -12390.398481 kJ/mol
# Density = 2.137251 g / cm^3
# Si number density = 21.421268 Si / 1000 Ang^3
#
#
#
# Elastic Constant Matrix: (Units=GPa)
#
#
# Indices 1 2 3 4 5 6 
#
# 1 138.8241 31.7684 22.0404 -2.5663 6.7325 23.2057
# 2 31.7684 107.9943 19.3250 13.6817 -2.8756 10.9189
# 3 22.0404 19.3250 80.0143 -4.8597 -14.2266 2.3146
# 4 -2.5663 13.6817 -4.8597 33.6007 10.4941 -8.0464
# 5 6.7325 -2.8756 -14.2266 10.4941 24.5519 -4.9117
# 6 23.2057 10.9189 2.3146 -8.0464 -4.9117 35.1363
#
#
#
# Elastic Compliance Matrix: (Units=1/GPa)
#
#
# Indices 1 2 3 4 5 6 
#
# 1 0.009490 -0.002046 -0.003000 0.001734 -0.006511 -0.005947
# 2 -0.002046 0.011494 -0.001996 -0.006846 0.003030 -0.003233
# 3 -0.003000 -0.001996 0.015524 0.000439 0.010013 0.003079
# 4 0.001734 -0.006846 0.000439 0.039742 -0.016458 0.007754
# 5 -0.006511 0.003030 0.010013 -0.016458 0.057089 0.006910
# 6 -0.005947 -0.003233 0.003079 0.007754 0.006910 0.035932
#
#
# Mechanical properties :
#
#
# Convention : Reuss Voigt Hill
#
# Bulk Modulus (GPa) = 44.59712 52.56671 48.58192
# Shear Modulus (GPa) = 26.20142 35.57103 30.88623
#
# Velocity S-wave (km/s) = 3.50115 4.07940 3.80129
# Velocity P-wave (km/s) = 6.09986 6.83970 6.48035
#
# Compressibility (1/GPa) = 0.02242297
#
# Stress axis : x y z
#
# Youngs Moduli (GPa) = 105.37484 87.00440 64.41625
#
# Poissons Ratio (x) = 0.17805 0.19326
# Poissons Ratio (y) = 0.21565 0.12856
# Poissons Ratio (z) = 0.31614 0.17364
#
# Static dielectric constant tensor:
#      x y z
#    x 4.105540 0.241030 -0.013230 
#    y 0.241030 4.161780 0.168780 
#    z -0.013230 0.168780 3.629880 
# 
# 
# High freq. dielectric constant tensor:
#      x y z
#    x 1.841590 0.026760 0.001790 
#    y 0.026760 1.834660 0.010650 
#    z 0.001790 0.010650 1.822520 
# 
# From -- ./inp_files/171855.got.cif
#   From: 2010.06.25/outbox.cif.g09.slc.cpg/sg2_86_cif.got.tgz:171855.got - 2010.06.27 13:26:56.
