data_PCOD8042073
_publ_section_title
;
Structure prediction by ZEFSAII (Michael W. Deem and Ramdas Pophale) SiO2 
 PCOD8042073
Probable space group: P -1
;
_chemical_formula_sum "Si O2"
_cell_formula_units_Z 16
_cell_length_a 9.819572
_cell_length_b 15.277788
_cell_length_c 14.371109
_cell_angle_alpha 141.751781
_cell_angle_beta 46.229133
_cell_angle_gamma 142.872443
_cell_volume 793.087509
_symmetry_space_group_name_H-M "P -1"
_symmetry_group_IT_number 2
_symmetry_cell_setting 'triclinic'
loop_
_space_group_symop_operation_xyz
x,y,z
-x,-y,-z
loop_
_atom_site_type_symbol
_atom_site_label
_atom_site_fract_x
_atom_site_fract_y
_atom_site_fract_z
Si Si1 0.529268 0.133996 0.734196
Si Si2 0.496696 0.001297 0.111247
Si Si3 0.700117 0.786941 0.627874
Si Si4 0.126618 0.906404 0.867930
Si Si5 0.734024 0.363590 0.994579
Si Si6 0.532199 0.482265 0.332117
Si Si7 0.178324 0.918260 0.578059
Si Si8 0.939535 0.622872 0.589190
O O1 0.713942 0.098484 0.581376
O O2 0.361704 0.993183 0.770796
O O3 0.362516 0.100230 0.696132
O O4 0.661345 0.319140 0.881181
O O5 0.393327 0.107351 0.283594
O O6 0.769804 0.093142 0.081090
O O7 0.334791 0.809963 0.067274
O O8 0.500000 0.000000 0.000000
O O9 0.718029 0.670014 0.444064
O O10 0.525446 0.666722 0.692035
O O11 0.955366 0.916065 0.657200
O O12 0.937573 0.720822 0.763039
O O13 0.000000 0.000000 0.000000
O O14 0.609818 0.445763 0.168110
O O15 0.000000 0.500000 0.000000
O O16 0.312506 0.488219 0.426448
O O17 0.113794 0.757110 0.540610
O O18 0.000000 0.500000 0.500000
#
# Coordination Sequence:
#
# PCOD8042073 Si02
#       8
#     2   2   2   2   2   2   2   2
#     4   9  19  36  58  81 112 157 203 235 293 370
#     4  11  22  38  61  93 118 153 213 250 286 363
#     4  10  20  36  60  89 116 154 204 252 298 354
#     4  10  21  36  60  83 116 157 195 243 296 351
#     4  11  22  39  59  86 123 159 193 249 314 358
#     4  10  20  36  58  85 121 157 194 248 307 357
#     4   9  19  36  59  84 116 159 199 245 304 356
#     4  10  19  34  57  84 112 150 199 243 293 350
#
# _framework density 20.174318
#
# number of rings (size 3 to 8) (size 9 to 14) (size 15 to 20)
#    0.000    2.000    1.250    3.000    3.500    0.000 
#    2.250    9.375    0.000    2.250    0.000    0.000 
#    0.000    0.000    0.000    0.000    0.000    0.000 
#
# Total GULP energy -198208.863353 kJ/mol
# GULP energy per Si atom -12388.053960 kJ/mol
# Density = 2.012840 g / cm^3
# Si number density = 20.174318 Si / 1000 Ang^3
#
#
#
# Elastic Constant Matrix: (Units=GPa)
#
#
# Indices 1 2 3 4 5 6 
#
# 1 126.4380 29.5834 56.6694 7.5704 -4.3923 13.8128
# 2 29.5834 55.1871 28.8270 1.2502 -2.2578 13.4077
# 3 56.6694 28.8270 138.9168 1.7123 10.0203 6.9096
# 4 7.5704 1.2502 1.7123 27.9871 -0.0955 4.1520
# 5 -4.3923 -2.2578 10.0203 -0.0955 47.8086 9.5891
# 6 13.8128 13.4077 6.9096 4.1520 9.5891 31.8357
#
#
#
# Elastic Compliance Matrix: (Units=1/GPa)
#
#
# Indices 1 2 3 4 5 6 
#
# 1 0.010836 -0.002948 -0.003794 -0.002108 0.002257 -0.003042
# 2 -0.002948 0.023920 -0.003568 0.001329 0.003462 -0.009237
# 3 -0.003794 -0.003568 0.009598 0.000306 -0.002910 0.001902
# 4 -0.002108 0.001329 0.000306 0.036935 0.000838 -0.004781
# 5 0.002257 0.003462 -0.002910 0.000838 0.023716 -0.009059
# 6 -0.003042 -0.009237 0.001902 -0.004781 -0.009059 0.039560
#
#
# Mechanical properties :
#
#
# Convention : Reuss Voigt Hill
#
# Bulk Modulus (GPa) = 42.13324 61.18905 51.66115
# Shear Modulus (GPa) = 28.88558 35.22376 32.05467
#
# Velocity S-wave (km/s) = 3.78802 4.18301 3.99041
# Velocity P-wave (km/s) = 6.32946 7.32981 6.84793
#
# Compressibility (1/GPa) = 0.02373423
#
# Stress axis : x y z
#
# Youngs Moduli (GPa) = 92.28236 41.80687 104.18534
#
# Poissons Ratio (x) = 0.12324 0.39532
# Poissons Ratio (y) = 0.27203 0.37171
# Poissons Ratio (z) = 0.35016 0.14916
#
# Static dielectric constant tensor:
#      x y z
#    x 4.288090 0.227730 0.371640 
#    y 0.227730 3.481390 0.025240 
#    z 0.371640 0.025240 3.885810 
# 
# 
# High freq. dielectric constant tensor:
#      x y z
#    x 1.794530 0.029140 0.022070 
#    y 0.029140 1.756870 -0.002020 
#    z 0.022070 -0.002020 1.793780 
# 
# From -- ./inp_files/262680.got.cif
#   From: 2010.06.25/outbox.cif.g09.slc.cpg/sg2_132_cif.got.tgz:262680.got - 2010.06.27 13:26:56.
