data_PCOD8042236
_publ_section_title
;
Structure prediction by ZEFSAII (Michael W. Deem and Ramdas Pophale) SiO2 
 PCOD8042236
Probable space group: P -1
;
_chemical_formula_sum "Si O2"
_cell_formula_units_Z 16
_cell_length_a 16.672210
_cell_length_b 9.038398
_cell_length_c 15.106330
_cell_angle_alpha 40.407879
_cell_angle_beta 140.848596
_cell_angle_gamma 147.833776
_cell_volume 726.862807
_symmetry_space_group_name_H-M "P -1"
_symmetry_group_IT_number 2
_symmetry_cell_setting 'triclinic'
loop_
_space_group_symop_operation_xyz
x,y,z
-x,-y,-z
loop_
_atom_site_type_symbol
_atom_site_label
_atom_site_fract_x
_atom_site_fract_y
_atom_site_fract_z
Si Si1 0.487652 0.191950 0.547437
Si Si2 0.799459 0.670155 0.506557
Si Si3 0.063132 0.727013 0.818825
Si Si4 0.011868 0.213027 0.083477
Si Si5 0.390296 0.582154 0.258896
Si Si6 0.919979 0.615402 0.265625
Si Si7 0.811898 0.437567 0.451395
Si Si8 0.301299 0.950413 0.774960
O O1 0.654184 0.347733 0.564869
O O2 0.391568 0.310209 0.381218
O O3 0.525457 0.233888 0.664123
O O4 0.373596 0.850062 0.585679
O O5 0.966757 0.782242 0.644004
O O6 0.813483 0.656291 0.418730
O O7 0.764060 0.892288 0.401567
O O8 0.081625 0.864601 0.867609
O O9 0.240624 0.880631 0.856642
O O10 0.968447 0.376798 0.907734
O O11 0.205400 0.453660 0.154862
O O12 0.958864 0.916061 0.128271
O O13 0.501045 0.816600 0.167388
O O14 0.882475 0.592588 0.347581
O O15 0.769739 0.347111 0.203152
O O16 0.078073 0.636764 0.376503
#
# Coordination Sequence:
#
# PCOD8042236 Si02
#       8
#     2   2   2   2   2   2   2   2
#     4  10  19  34  60  89 123 155 194 250 306 349
#     4  11  22  37  62  91 126 151 201 248 305 358
#     4  11  24  40  62  87 119 170 196 245 298 357
#     4  11  24  43  62  84 124 165 206 236 294 373
#     4  10  20  37  62  88 120 158 198 249 298 353
#     4  11  23  35  62  91 120 154 199 249 300 350
#     4  11  21  34  58  96 121 151 194 254 308 343
#     4  11  23  40  64  94 120 154 199 258 303 344
#
# _framework density 22.012408000000001
#
# number of rings (size 3 to 8) (size 9 to 14) (size 15 to 20)
#    0.000    1.250    5.000    1.500    3.500    1.000 
#    0.000    0.000    0.000    8.250    0.000    0.000 
#    0.000    0.000    0.000    0.000    0.000    0.000 
#
# Total GULP energy -198417.043754 kJ/mol
# GULP energy per Si atom -12401.065235 kJ/mol
# Density = 2.196231 g / cm^3
# Si number density = 22.012408 Si / 1000 Ang^3
#
#
#
# Elastic Constant Matrix: (Units=GPa)
#
#
# Indices 1 2 3 4 5 6 
#
# 1 113.5306 21.1922 8.1494 -3.2588 -13.4153 9.5106
# 2 21.1922 102.8264 15.4010 -17.9459 6.4464 -3.0318
# 3 8.1494 15.4010 21.5300 -11.6882 0.7348 -8.0825
# 4 -3.2588 -17.9459 -11.6882 22.5154 -2.5046 6.0754
# 5 -13.4153 6.4464 0.7348 -2.5046 27.7174 -8.7850
# 6 9.5106 -3.0318 -8.0825 6.0754 -8.7850 36.2141
#
#
#
# Elastic Compliance Matrix: (Units=1/GPa)
#
#
# Indices 1 2 3 4 5 6 
#
# 1 0.010206 -0.002048 -0.004067 -0.001088 0.004649 -0.002449
# 2 -0.002048 0.012251 -0.004578 0.007104 -0.003557 -0.001513
# 3 -0.004067 -0.004578 0.072366 0.030340 0.003946 0.012703
# 4 -0.001088 0.007104 0.030340 0.066720 0.002083 -0.003036
# 5 0.004649 -0.003557 0.003946 0.002083 0.042169 0.009242
# 6 -0.002449 -0.001513 0.012703 -0.003036 0.009242 0.033716
#
#
# Mechanical properties :
#
#
# Convention : Reuss Voigt Hill
#
# Bulk Modulus (GPa) = 13.61711 36.37470 24.99590
# Shear Modulus (GPa) = 17.64952 30.16565 23.90759
#
# Velocity S-wave (km/s) = 2.83468 3.70590 3.29917
# Velocity P-wave (km/s) = 4.11259 5.90526 5.08849
#
# Compressibility (1/GPa) = 0.07343705
#
# Stress axis : x y z
#
# Youngs Moduli (GPa) = 97.98477 81.62498 13.81858
#
# Poissons Ratio (x) = 0.16715 0.05620
# Poissons Ratio (y) = 0.20066 0.06327
# Poissons Ratio (z) = 0.39850 0.37370
#
# Static dielectric constant tensor:
#      x y z
#    x 4.197060 0.186730 -0.031450 
#    y 0.186730 3.790880 -0.262720 
#    z -0.031450 -0.262720 3.700540 
# 
# 
# High freq. dielectric constant tensor:
#      x y z
#    x 1.879620 0.012000 -0.005080 
#    y 0.012000 1.861670 -0.024160 
#    z -0.005080 -0.024160 1.836920 
# 
# From -- ./inp_files/256871.got.cif
#   From: 2010.06.25/outbox.cif.g09.slc.cpg/sg2_129_cif.got.tgz:256871.got - 2010.06.27 13:26:56.
