data_PCOD8042600
_publ_section_title
;
Structure prediction by ZEFSAII (Michael W. Deem and Ramdas Pophale) SiO2 
 PCOD8042600
Probable space group: P -1
;
_chemical_formula_sum "Si O2"
_cell_formula_units_Z 16
_cell_length_a 4.981452
_cell_length_b 17.023837
_cell_length_c 32.590413
_cell_angle_alpha 18.428319
_cell_angle_beta 75.639480
_cell_angle_gamma 76.091529
_cell_volume 846.265516
_symmetry_space_group_name_H-M "P -1"
_symmetry_group_IT_number 2
_symmetry_cell_setting 'triclinic'
loop_
_space_group_symop_operation_xyz
x,y,z
-x,-y,-z
loop_
_atom_site_type_symbol
_atom_site_label
_atom_site_fract_x
_atom_site_fract_y
_atom_site_fract_z
Si Si1 0.040025 0.583872 0.757441
Si Si2 0.759888 0.524548 0.644631
Si Si3 0.394492 0.279273 0.360366
Si Si4 0.324511 0.260537 0.743312
Si Si5 0.292844 0.689314 0.036532
Si Si6 0.489582 0.594567 0.499379
Si Si7 0.925065 0.858519 0.400578
Si Si8 0.856307 0.379287 0.176306
O O1 0.829621 0.727565 0.664160
O O2 0.890722 0.329088 0.904822
O O3 0.342343 0.542203 0.746116
O O4 0.097211 0.737646 0.721408
O O5 0.761068 0.620806 0.643137
O O6 0.474206 0.388922 0.712429
O O7 0.796398 0.757360 0.497785
O O8 0.000548 0.319952 0.729901
O O9 0.500000 0.000000 0.500000
O O10 0.449709 0.358136 0.647523
O O11 0.379452 0.967341 0.886918
O O12 0.561608 0.514208 0.116898
O O13 0.100944 0.581611 0.060114
O O14 0.500000 0.500000 0.500000
O O15 0.774734 0.732330 0.430208
O O16 0.248532 0.797371 0.415418
O O17 0.881048 0.155883 0.253565
#
# Coordination Sequence:
#
# PCOD8042600 Si02
#       8
#     2   2   2   2   2   2   2   2
#     4  10  21  35  51  79 104 147 192 220 279 315
#     4  10  22  34  55  80 108 145 185 232 280 316
#     4  12  22  35  52  78 115 142 183 241 286 316
#     4  10  21  40  57  81 109 145 188 220 265 343
#     4  10  20  36  59  75 109 149 197 216 266 326
#     4  10  21  37  62  88 114 141 172 224 284 326
#     4  10  20  36  58  85 112 140 183 226 269 334
#     4  10  19  35  59  80 108 144 196 221 268 318
#
# _framework density 18.906594999999999
#
# number of rings (size 3 to 8) (size 9 to 14) (size 15 to 20)
#    0.750    1.000    1.250    3.750    0.000    2.000 
#    0.000    3.750    0.000    4.500    0.000    0.000 
#    0.000    0.000    0.000    0.000    0.000    0.000 
#
# Total GULP energy -198305.389767 kJ/mol
# GULP energy per Si atom -12394.086860 kJ/mol
# Density = 1.886356 g / cm^3
# Si number density = 18.906595 Si / 1000 Ang^3
#
#
#
# Elastic Constant Matrix: (Units=GPa)
#
#
# Indices 1 2 3 4 5 6 
#
# 1 94.9584 8.7813 16.5050 0.8708 0.1779 3.3084
# 2 8.7813 74.5295 34.4622 -4.3559 -0.0563 12.0362
# 3 16.5050 34.4622 83.9138 -14.6659 -1.0943 -1.6298
# 4 0.8708 -4.3559 -14.6659 16.3239 -0.2591 1.7653
# 5 0.1779 -0.0563 -1.0943 -0.2591 20.7405 1.0852
# 6 3.3084 12.0362 -1.6298 1.7653 1.0852 21.1604
#
#
#
# Elastic Compliance Matrix: (Units=1/GPa)
#
#
# Indices 1 2 3 4 5 6 
#
# 1 0.011089 0.000079 -0.002749 -0.002854 -0.000184 -0.001743
# 2 0.000079 0.018980 -0.008219 -0.001092 0.000198 -0.011360
# 3 -0.002749 -0.008219 0.018378 0.013903 0.000866 0.005316
# 4 -0.002854 -0.001092 0.013903 0.074090 0.001897 -0.004140
# 5 -0.000184 0.000198 0.000866 0.001897 0.048426 -0.002659
# 6 -0.001743 -0.011360 0.005316 -0.004140 -0.002659 0.054883
#
#
# Mechanical properties :
#
#
# Convention : Reuss Voigt Hill
#
# Bulk Modulus (GPa) = 37.49783 41.43319 39.46551
# Shear Modulus (GPa) = 19.49233 24.55516 22.02375
#
# Velocity S-wave (km/s) = 3.21437 3.60774 3.41672
# Velocity P-wave (km/s) = 5.80108 6.27030 6.04025
#
# Compressibility (1/GPa) = 0.02666821
#
# Stress axis : x y z
#
# Youngs Moduli (GPa) = 90.18267 52.68812 54.41430
#
# Poissons Ratio (x) = -0.00416 0.14956
# Poissons Ratio (y) = -0.00711 0.44724
# Poissons Ratio (z) = 0.24787 0.43305
#
# Static dielectric constant tensor:
#      x y z
#    x 3.743720 0.043000 -0.122330 
#    y 0.043000 3.198930 0.072590 
#    z -0.122330 0.072590 3.238510 
# 
# 
# High freq. dielectric constant tensor:
#      x y z
#    x 1.762730 0.003750 -0.004140 
#    y 0.003750 1.706410 -0.002900 
#    z -0.004140 -0.002900 1.711690 
# 
# From -- ./inp_files/80525.got.cif
#   From: 2010.06.25/outbox.cif.g09.slc.cpg/sg2_41_cif.got.tgz:80525.got - 2010.06.27 13:26:56.
