data_PCOD8042114
_publ_section_title
;
Structure prediction by ZEFSAII (Michael W. Deem and Ramdas Pophale) SiO2 
 PCOD8042114
Probable space group: P -1
;
_chemical_formula_sum "Si O2"
_cell_formula_units_Z 12
_cell_length_a 15.734457
_cell_length_b 9.334492
_cell_length_c 5.385218
_cell_angle_alpha 84.425178
_cell_angle_beta 80.193288
_cell_angle_gamma 38.045370
_cell_volume 479.432711
_symmetry_space_group_name_H-M "P -1"
_symmetry_group_IT_number 2
_symmetry_cell_setting 'triclinic'
loop_
_space_group_symop_operation_xyz
x,y,z
-x,-y,-z
loop_
_atom_site_type_symbol
_atom_site_label
_atom_site_fract_x
_atom_site_fract_y
_atom_site_fract_z
Si Si1 0.589945 0.687924 0.226021
Si Si2 0.291240 0.733607 0.979509
Si Si3 0.042130 0.100954 0.378634
Si Si4 0.167175 0.429571 0.844580
Si Si5 0.512298 0.283258 0.218640
Si Si6 0.942304 0.690609 0.308112
O O1 0.673897 0.728075 0.170720
O O2 0.504687 0.787244 0.509530
O O3 0.700807 0.408806 0.197855
O O4 0.487465 0.818449 0.013387
O O5 0.384416 0.566130 0.203042
O O6 0.133620 0.972221 0.104098
O O7 0.346464 0.809171 0.818440
O O8 0.125007 0.080797 0.559424
O O9 0.901900 0.378259 0.363987
O O10 0.000000 0.000000 0.500000
O O11 0.170418 0.253658 0.807454
O O12 0.074419 0.574511 0.108711
O O13 0.000000 0.500000 0.500000
#
# Coordination Sequence:
#
# PCOD8042114 Si02
#       6
#     2   2   2   2   2   2
#     4  10  19  34  58  81 111 151 197 238 279 348
#     4   9  20  32  54  81 122 150 191 239 290 344
#     4  11  21  35  57  92 121 149 186 248 297 349
#     4  10  21  36  58  86 113 159 193 239 292 359
#     4   9  20  35  53  85 113 159 192 236 287 342
#     4   9  21  38  55  80 119 156 196 229 300 352
#
# _framework density 25.029581
#
# number of rings (size 3 to 8) (size 9 to 14) (size 15 to 20)
#    1.000    1.333    0.000    2.500    4.667    4.000 
#    0.000    0.000    0.000    2.000    0.000    0.000 
#    0.000    0.000    0.000    0.000    0.000    0.000 
#
# Total GULP energy -148713.000503 kJ/mol
# GULP energy per Si atom -12392.750042 kJ/mol
# Density = 2.497261 g / cm^3
# Si number density = 25.029581 Si / 1000 Ang^3
#
#
#
# Elastic Constant Matrix: (Units=GPa)
#
#
# Indices 1 2 3 4 5 6 
#
# 1 154.3096 8.9678 61.1063 0.1727 -21.4984 32.4041
# 2 8.9678 56.0688 4.0426 1.5440 -0.2970 21.7043
# 3 61.1063 4.0426 154.8439 -0.8663 -9.7067 21.8803
# 4 0.1727 1.5440 -0.8663 18.8165 5.8745 0.5889
# 5 -21.4984 -0.2970 -9.7067 5.8745 44.8951 -1.9957
# 6 32.4041 21.7043 21.8803 0.5889 -1.9957 20.8684
#
#
#
# Elastic Compliance Matrix: (Units=1/GPa)
#
#
# Indices 1 2 3 4 5 6 
#
# 1 0.012829 0.008612 -0.001149 -0.001573 0.004950 -0.027156
# 2 0.008612 0.038242 0.003800 -0.002189 0.002961 -0.056787
# 3 -0.001149 0.003800 0.008404 0.000183 0.000783 -0.010911
# 4 -0.001573 -0.002189 0.000183 0.055753 -0.007926 0.002197
# 5 0.004950 0.002961 0.000783 -0.007926 0.025474 -0.008928
# 6 -0.027156 -0.056787 -0.010911 0.002197 -0.008928 0.159672
#
#
# Mechanical properties :
#
#
# Convention : Reuss Voigt Hill
#
# Bulk Modulus (GPa) = 12.19463 57.05064 34.62264
# Shear Modulus (GPa) = 16.38380 36.32305 26.35343
#
# Velocity S-wave (km/s) = 2.56125 3.81360 3.24835
# Velocity P-wave (km/s) = 3.69179 6.49878 5.28505
#
# Compressibility (1/GPa) = 0.08200333
#
# Stress axis : x y z
#
# Youngs Moduli (GPa) = 77.94933 26.14927 118.98959
#
# Poissons Ratio (x) = -0.22521 0.13669
# Poissons Ratio (y) = -0.67134 -0.45222
# Poissons Ratio (z) = 0.08954 -0.09938
#
# Static dielectric constant tensor:
#      x y z
#    x 5.608650 -0.655860 1.848620 
#    y -0.655860 5.561950 -1.924850 
#    z 1.848620 -1.924850 7.356920 
# 
# 
# High freq. dielectric constant tensor:
#      x y z
#    x 1.997710 0.023170 0.002030 
#    y 0.023170 1.973600 -0.008110 
#    z 0.002030 -0.008110 1.994790 
# 
# From -- ./inp_files/31732.got.cif
#   From: 2010.06.25/outbox.cif.g09.slc.cpg/sg2_16_cif.got.tgz:31732.got - 2010.06.27 13:26:56.
