data_PCOD8042012
_publ_section_title
;
Structure prediction by ZEFSAII (Michael W. Deem and Ramdas Pophale) SiO2 
 PCOD8042012
Probable space group: P -1
;
_chemical_formula_sum "Si O2"
_cell_formula_units_Z 16
_cell_length_a 5.392137
_cell_length_b 13.123699
_cell_length_c 11.590794
_cell_angle_alpha 89.324752
_cell_angle_beta 108.831935
_cell_angle_gamma 76.168132
_cell_volume 750.261718
_symmetry_space_group_name_H-M "P -1"
_symmetry_group_IT_number 2
_symmetry_cell_setting 'triclinic'
loop_
_space_group_symop_operation_xyz
x,y,z
-x,-y,-z
loop_
_atom_site_type_symbol
_atom_site_label
_atom_site_fract_x
_atom_site_fract_y
_atom_site_fract_z
Si Si1 0.642587 0.099094 0.644348
Si Si2 0.453390 0.465252 0.864425
Si Si3 0.616044 0.080998 0.388443
Si Si4 0.860842 0.061722 0.185001
Si Si5 0.191687 0.203075 0.171294
Si Si6 0.308502 0.118537 0.955033
Si Si7 0.098213 0.449799 0.138563
Si Si8 0.669896 0.222415 0.847788
O O1 0.735036 0.113763 0.526108
O O2 0.571218 0.210612 0.700031
O O3 0.399831 0.040701 0.601403
O O4 0.863956 0.030454 0.765384
O O5 0.609914 0.524841 0.796405
O O6 0.571456 0.342115 0.869490
O O7 0.125420 0.499464 0.797214
O O8 0.500000 0.500000 0.000000
O O9 0.804343 0.090010 0.310088
O O10 0.327142 0.164463 0.316317
O O11 0.914243 0.163386 0.124416
O O12 0.676876 0.005137 0.075358
O O13 0.128500 0.326093 0.142638
O O14 0.397987 0.141088 0.101644
O O15 0.507836 0.156156 0.899101
O O16 0.997942 0.189277 0.905942
O O17 0.000000 0.500000 0.000000
#
# Coordination Sequence:
#
# PCOD8042012 Si02
#       8
#     2   2   2   2   2   2   2   2
#     4   9  20  38  59  87 114 159 204 241 282 351
#     4  10  19  34  56  82 111 145 194 244 290 339
#     4  10  20  38  59  83 122 155 203 238 289 349
#     4  10  21  36  56  89 120 163 191 242 290 358
#     4  11  24  35  57  88 121 159 192 242 305 356
#     4  11  22  36  57  89 128 155 189 233 300 369
#     4  10  21  37  56  81 112 153 195 241 287 349
#     4  11  21  38  62  89 117 158 197 247 295 348
#
# _framework density 21.325892
#
# number of rings (size 3 to 8) (size 9 to 14) (size 15 to 20)
#    0.000    1.750    1.250    4.500    3.500    0.500 
#    0.000    0.000    0.000    1.500    0.000    0.000 
#    0.000    0.000    0.000    0.000    0.000    0.000 
#
# Total GULP energy -198263.657647 kJ/mol
# GULP energy per Si atom -12391.478603 kJ/mol
# Density = 2.127735 g / cm^3
# Si number density = 21.325892 Si / 1000 Ang^3
#
#
#
# Elastic Constant Matrix: (Units=GPa)
#
#
# Indices 1 2 3 4 5 6 
#
# 1 138.4766 46.0025 21.2126 2.7522 -14.8066 7.1100
# 2 46.0025 172.1826 37.8970 8.1474 -5.1664 2.4995
# 3 21.2126 37.8970 101.3089 16.0866 -5.2985 4.5276
# 4 2.7522 8.1474 16.0866 25.8351 -3.2703 -5.5803
# 5 -14.8066 -5.1664 -5.2985 -3.2703 25.1162 0.8522
# 6 7.1100 2.4995 4.5276 -5.5803 0.8522 36.0882
#
#
#
# Elastic Compliance Matrix: (Units=1/GPa)
#
#
# Indices 1 2 3 4 5 6 
#
# 1 0.008558 -0.001969 -0.000827 0.000484 0.004579 -0.001479
# 2 -0.001969 0.006806 -0.002043 -0.000684 -0.000283 0.000074
# 3 -0.000827 -0.002043 0.012099 -0.007208 0.000786 -0.002347
# 4 0.000484 -0.000684 -0.007208 0.045589 0.004295 0.007804
# 5 0.004579 -0.000283 0.000786 0.004295 0.043227 -0.001338
# 6 -0.001479 0.000074 -0.002347 0.007804 -0.001338 0.029529
#
#
# Mechanical properties :
#
#
# Convention : Reuss Voigt Hill
#
# Bulk Modulus (GPa) = 56.22443 69.13249 62.67846
# Shear Modulus (GPa) = 30.97630 37.86497 34.42063
#
# Velocity S-wave (km/s) = 3.81533 4.21829 4.02186
# Velocity P-wave (km/s) = 6.76983 7.49752 7.14295
#
# Compressibility (1/GPa) = 0.01778586
#
# Stress axis : x y z
#
# Youngs Moduli (GPa) = 116.84990 146.92339 82.65247
#
# Poissons Ratio (x) = 0.28922 0.06834
# Poissons Ratio (y) = 0.23002 0.16888
# Poissons Ratio (z) = 0.09661 0.30021
#
# Static dielectric constant tensor:
#      x y z
#    x 0.360950 -0.020010 1.066870 
#    y -0.020010 3.753810 0.209620 
#    z 1.066870 0.209620 3.808920 
# 
# 
# High freq. dielectric constant tensor:
#      x y z
#    x 1.871110 -0.004600 -0.005500 
#    y -0.004600 1.823190 0.010500 
#    z -0.005500 0.010500 1.807880 
# 
# From -- ./inp_files/66423.got.cif
#   From: 2010.06.25/outbox.cif.g09.slc.cpg/sg2_34_cif.got.tgz:66423.got - 2010.06.27 13:26:56.
