data_PCOD8042983
_publ_section_title
;
Structure prediction by ZEFSAII (Michael W. Deem and Ramdas Pophale) SiO2 
 PCOD8042983
Probable space group: P -1
;
_chemical_formula_sum "Si O2"
_cell_formula_units_Z 16
_cell_length_a 9.990708
_cell_length_b 17.990196
_cell_length_c 13.441415
_cell_angle_alpha 38.220022
_cell_angle_beta 55.618783
_cell_angle_gamma 85.780103
_cell_volume 849.909840
_symmetry_space_group_name_H-M "P -1"
_symmetry_group_IT_number 2
_symmetry_cell_setting 'triclinic'
loop_
_space_group_symop_operation_xyz
x,y,z
-x,-y,-z
loop_
_atom_site_type_symbol
_atom_site_label
_atom_site_fract_x
_atom_site_fract_y
_atom_site_fract_z
Si Si1 0.339016 0.247217 0.385044
Si Si2 0.882515 0.688481 0.223251
Si Si3 0.204288 0.019352 0.859780
Si Si4 0.878656 0.912619 0.852998
Si Si5 0.297084 0.496790 0.192405
Si Si6 0.527954 0.350828 0.833681
Si Si7 0.448201 0.102622 0.870519
Si Si8 0.853878 0.417882 0.480367
O O1 0.355904 0.163629 0.557116
O O2 0.591555 0.391211 0.073692
O O3 0.267264 0.338118 0.363822
O O4 0.152316 0.097428 0.538037
O O5 0.631449 0.528358 0.552105
O O6 0.974636 0.614071 0.211211
O O7 0.841321 0.767076 0.076724
O O8 0.078743 0.832220 0.069513
O O9 0.385485 0.073683 0.810851
O O10 0.000000 0.000000 0.000000
O O11 0.743892 0.824259 0.897362
O O12 0.771218 0.961665 0.911264
O O13 0.466492 0.629392 0.071545
O O14 0.040197 0.411244 0.411492
O O15 0.697670 0.334168 0.737120
O O16 0.680494 0.307315 0.575582
O O17 0.500000 0.000000 0.000000
#
# Coordination Sequence:
#
# PCOD8042983 Si02
#       8
#     2   2   2   2   2   2   2   2
#     4  10  23  36  60  80 115 157 196 230 286 342
#     4   9  19  32  57  87 110 144 193 235 289 333
#     4  11  20  37  61  84 114 152 194 236 280 349
#     4  10  19  36  53  89 113 142 195 242 283 343
#     4  11  21  39  54  84 118 156 193 234 279 352
#     4   9  20  31  59  81 111 145 184 236 285 330
#     4  11  22  33  58  89 117 146 187 252 288 329
#     4   9  22  34  55  84 118 146 190 240 291 330
#
# _framework density 18.825526
#
# number of rings (size 3 to 8) (size 9 to 14) (size 15 to 20)
#    0.750    1.250    2.500    2.250    1.750    1.500 
#    0.000    3.125    0.000    1.500    0.000    0.000 
#    0.000    0.000    0.000    0.000    0.000    0.000 
#
# Total GULP energy -198253.686030 kJ/mol
# GULP energy per Si atom -12390.855377 kJ/mol
# Density = 1.878268 g / cm^3
# Si number density = 18.825526 Si / 1000 Ang^3
#
#
#
# Elastic Constant Matrix: (Units=GPa)
#
#
# Indices 1 2 3 4 5 6 
#
# 1 93.8799 49.3548 27.7588 -12.1489 -0.4136 16.4167
# 2 49.3548 92.4095 33.0540 -22.7337 0.4344 10.8533
# 3 27.7588 33.0540 63.6441 -14.9987 0.4520 10.8423
# 4 -12.1489 -22.7337 -14.9987 27.1496 5.7767 -4.5795
# 5 -0.4136 0.4344 0.4520 5.7767 16.9272 -9.1771
# 6 16.4167 10.8533 10.8423 -4.5795 -9.1771 35.9427
#
#
#
# Elastic Compliance Matrix: (Units=1/GPa)
#
#
# Indices 1 2 3 4 5 6 
#
# 1 0.015942 -0.007210 -0.002544 -0.000762 -0.001742 -0.004879
# 2 -0.007210 0.019014 -0.003790 0.011495 -0.005106 -0.001144
# 3 -0.002544 -0.003790 0.021513 0.008022 -0.005792 -0.004640
# 4 -0.000762 0.011495 0.008022 0.054395 -0.021285 -0.004047
# 5 -0.001742 -0.005106 -0.005792 -0.021285 0.078145 0.021325
# 6 -0.004879 -0.001144 -0.004640 -0.004047 0.021325 0.036725
#
#
# Mechanical properties :
#
#
# Convention : Reuss Voigt Hill
#
# Bulk Modulus (GPa) = 34.03845 52.25208 43.14526
# Shear Modulus (GPa) = 19.03916 25.32164 22.18040
#
# Velocity S-wave (km/s) = 3.18362 3.67150 3.43623
# Velocity P-wave (km/s) = 5.62443 6.76679 6.22188
#
# Compressibility (1/GPa) = 0.02937854
#
# Stress axis : x y z
#
# Youngs Moduli (GPa) = 62.72818 52.59199 46.48406
#
# Poissons Ratio (x) = 0.37921 0.11827
# Poissons Ratio (y) = 0.45230 0.17619
# Poissons Ratio (z) = 0.15960 0.19934
#
# Static dielectric constant tensor:
#      x y z
#    x 3.460520 0.139680 -0.121770 
#    y 0.139680 3.605850 -0.299880 
#    z -0.121770 -0.299880 3.281270 
# 
# 
# High freq. dielectric constant tensor:
#      x y z
#    x 1.720500 0.010970 -0.004350 
#    y 0.010970 1.731180 -0.033550 
#    z -0.004350 -0.033550 1.712320 
# 
# From -- ./inp_files/507872.got.cif
#   From: 2010.06.25/outbox.cif.g09.slc.cpg/sg2_254_cif.got.tgz:507872.got - 2010.06.27 13:26:56.
