data_PCOD8042808
_publ_section_title
;
Structure prediction by ZEFSAII (Michael W. Deem and Ramdas Pophale) SiO2 
 PCOD8042808
Probable space group: P -1
;
_chemical_formula_sum "Si O2"
_cell_formula_units_Z 14
_cell_length_a 7.164223
_cell_length_b 12.568037
_cell_length_c 8.380120
_cell_angle_alpha 91.556599
_cell_angle_beta 46.591203
_cell_angle_gamma 86.585503
_cell_volume 544.765079
_symmetry_space_group_name_H-M "P -1"
_symmetry_group_IT_number 2
_symmetry_cell_setting 'triclinic'
loop_
_space_group_symop_operation_xyz
x,y,z
-x,-y,-z
loop_
_atom_site_type_symbol
_atom_site_label
_atom_site_fract_x
_atom_site_fract_y
_atom_site_fract_z
Si Si1 0.406764 0.207305 0.429791
Si Si2 0.528760 0.632966 0.165851
Si Si3 0.637062 0.149921 0.612893
Si Si4 0.062301 0.107093 0.052683
Si Si5 0.486092 0.398587 0.176914
Si Si6 0.016851 0.299714 0.900342
Si Si7 0.263070 0.042289 0.252444
O O1 0.631865 0.152075 0.419305
O O2 0.431082 0.326877 0.356616
O O3 0.141055 0.223756 0.684039
O O4 0.378388 0.127952 0.299258
O O5 0.316488 0.732852 0.340732
O O6 0.396739 0.523541 0.269067
O O7 0.774679 0.634610 0.135095
O O8 0.629668 0.639023 0.923881
O O9 0.828073 0.056635 0.589040
O O10 0.352600 0.128297 0.837953
O O11 0.041005 0.097310 0.260965
O O12 0.889608 0.214236 0.090319
O O13 0.000000 0.000000 0.000000
O O14 0.796386 0.386018 0.965783
O O15 0.500000 0.000000 0.000000
#
# Coordination Sequence:
#
# PCOD8042808 Si02
#       7
#     2   2   2   2   2   2   2
#     4  10  21  39  61  93 119 159 205 246 304 366
#     4   9  21  41  60  97 117 158 215 245 296 372
#     4   9  20  36  57  85 126 153 196 256 295 351
#     4   9  19  33  56  85 115 157 197 238 295 366
#     4  11  21  39  72  82 122 170 197 249 315 354
#     4  10  23  40  59  92 129 150 205 261 292 363
#     4  10  19  35  62  81 121 162 188 252 304 349
#
# _framework density 25.699152000000002
#
# number of rings (size 3 to 8) (size 9 to 14) (size 15 to 20)
#    0.000    2.571    0.000    3.429    6.000    2.286 
#    0.000   11.429    0.000    0.000    0.000    0.000 
#    0.000    0.000    0.000    0.000    0.000    0.000 
#
# Total GULP energy -173579.237229 kJ/mol
# GULP energy per Si atom -12398.516945 kJ/mol
# Density = 2.564066 g / cm^3
# Si number density = 25.699152 Si / 1000 Ang^3
#
#
#
# Elastic Constant Matrix: (Units=GPa)
#
#
# Indices 1 2 3 4 5 6 
#
# 1 88.0069 55.4331 33.2288 9.8350 29.4407 -11.6655
# 2 55.4331 185.5347 54.9302 0.4446 35.3273 -4.7150
# 3 33.2288 54.9302 125.0035 -14.8440 43.3068 0.6594
# 4 9.8350 0.4446 -14.8440 46.4013 -1.0478 15.5617
# 5 29.4407 35.3273 43.3068 -1.0478 36.1415 8.2236
# 6 -11.6655 -4.7150 0.6594 15.5617 8.2236 44.7972
#
#
#
# Elastic Compliance Matrix: (Units=1/GPa)
#
#
# Indices 1 2 3 4 5 6 
#
# 1 0.021658 -0.002822 0.000973 -0.008644 -0.018989 0.011817
# 2 -0.002822 0.007294 -0.001280 -0.000216 -0.003477 0.000765
# 3 0.000973 -0.001280 0.014819 0.003505 -0.017633 0.001920
# 4 -0.008644 -0.000216 0.003505 0.029291 0.007041 -0.013793
# 5 -0.018989 -0.003477 -0.017633 0.007041 0.072608 -0.020826
# 6 0.011817 0.000765 0.001920 -0.013793 -0.020826 0.034067
#
#
# Mechanical properties :
#
#
# Convention : Reuss Voigt Hill
#
# Bulk Modulus (GPa) = 26.65847 76.19214 51.42530
# Shear Modulus (GPa) = 25.18899 42.46486 33.82692
#
# Velocity S-wave (km/s) = 3.13413 4.06936 3.63197
# Velocity P-wave (km/s) = 4.84694 7.19664 6.13533
#
# Compressibility (1/GPa) = 0.03751154
#
# Stress axis : x y z
#
# Youngs Moduli (GPa) = 46.17299 137.09750 67.48299
#
# Poissons Ratio (x) = 0.38691 -0.06564
# Poissons Ratio (y) = 0.13031 0.08638
# Poissons Ratio (z) = -0.04491 0.17549
#
# Static dielectric constant tensor:
#      x y z
#    x 5.527140 -1.076600 0.385190 
#    y -1.076600 5.410690 -0.332980 
#    z 0.385190 -0.332980 4.957670 
# 
# 
# High freq. dielectric constant tensor:
#      x y z
#    x 2.042290 -0.024770 0.005460 
#    y -0.024770 2.030250 -0.010210 
#    z 0.005460 -0.010210 2.058920 
# 
# From -- ./inp_files/178696.got.cif
#   From: 2010.06.25/outbox.cif.g09.slc.cpg/sg2_90_cif.got.tgz:178696.got - 2010.06.27 13:26:56.
