data_PCOD8042699
_publ_section_title
;
Structure prediction by ZEFSAII (Michael W. Deem and Ramdas Pophale) SiO2 
 PCOD8042699
Probable space group: P -1
;
_chemical_formula_sum "Si O2"
_cell_formula_units_Z 16
_cell_length_a 14.833247
_cell_length_b 9.702767
_cell_length_c 11.464230
_cell_angle_alpha 127.932413
_cell_angle_beta 40.441638
_cell_angle_gamma 105.981086
_cell_volume 782.126909
_symmetry_space_group_name_H-M "P -1"
_symmetry_group_IT_number 2
_symmetry_cell_setting 'triclinic'
loop_
_space_group_symop_operation_xyz
x,y,z
-x,-y,-z
loop_
_atom_site_type_symbol
_atom_site_label
_atom_site_fract_x
_atom_site_fract_y
_atom_site_fract_z
Si Si1 0.985654 0.821447 0.483710
Si Si2 0.595190 0.861283 0.607832
Si Si3 0.453438 0.683796 0.824003
Si Si4 0.182034 0.873530 0.035378
Si Si5 0.058993 0.296610 0.776462
Si Si6 0.535317 0.232030 0.738439
Si Si7 0.588715 0.255331 0.444401
Si Si8 0.691371 0.365449 0.836127
O O1 0.947295 0.695925 0.356224
O O2 0.134986 0.694479 0.337645
O O3 0.857556 0.918133 0.758339
O O4 0.000000 0.000000 0.500000
O O5 0.534415 0.824595 0.775098
O O6 0.770926 0.815295 0.411237
O O7 0.553863 0.732083 0.487326
O O8 0.508251 0.075422 0.763033
O O9 0.574263 0.470689 0.586116
O O10 0.307065 0.712833 0.904717
O O11 0.393721 0.725308 0.036760
O O12 0.035693 0.821169 0.142100
O O13 0.252919 0.870804 0.836786
O O14 0.000000 0.500000 0.000000
O O15 0.588910 0.155730 0.516156
O O16 0.664668 0.294342 0.698806
O O17 0.378043 0.408214 0.974228
#
# Coordination Sequence:
#
# PCOD8042699 Si02
#       8
#     2   2   2   2   2   2   2   2
#     4  10  19  35  60  87 120 149 202 241 303 351
#     4  11  22  35  59  95 118 144 202 251 300 338
#     4  10  19  36  64  86 117 151 202 253 292 344
#     4  10  19  36  60  85 115 157 199 244 293 353
#     4  11  21  34  58  93 126 149 189 253 310 346
#     4  10  22  37  59  86 122 159 199 243 293 361
#     4  10  21  39  59  86 122 160 200 238 297 359
#     4  10  20  39  61  87 115 163 200 240 299 361
#
# _framework density 20.457039000000002
#
# number of rings (size 3 to 8) (size 9 to 14) (size 15 to 20)
#    0.000    1.750    2.500    4.875    1.750    0.500 
#    2.250    2.500    0.000    3.000    0.000    0.000 
#    0.000    0.000    0.000    0.000    0.000    0.000 
#
# Total GULP energy -198323.270950 kJ/mol
# GULP energy per Si atom -12395.204434 kJ/mol
# Density = 2.041048 g / cm^3
# Si number density = 20.457039 Si / 1000 Ang^3
#
#
#
# Elastic Constant Matrix: (Units=GPa)
#
#
# Indices 1 2 3 4 5 6 
#
# 1 94.3051 16.8801 47.1335 -7.8834 -3.9553 3.6171
# 2 16.8801 81.4422 35.0731 2.8987 -11.9953 -8.4162
# 3 47.1335 35.0731 125.2549 -4.2172 5.4407 -1.3238
# 4 -7.8834 2.8987 -4.2172 25.5823 2.5369 -7.0384
# 5 -3.9553 -11.9953 5.4407 2.5369 41.3242 0.7354
# 6 3.6171 -8.4162 -1.3238 -7.0384 0.7354 27.7604
#
#
#
# Elastic Compliance Matrix: (Units=1/GPa)
#
#
# Indices 1 2 3 4 5 6 
#
# 1 0.013538 -0.000734 -0.004876 0.002873 0.001575 -0.001532
# 2 -0.000734 0.015517 -0.004318 -0.002119 0.005063 0.003923
# 3 -0.004876 -0.004318 0.011215 0.001232 -0.003277 0.000260
# 4 0.002873 -0.002119 0.001232 0.043550 -0.003357 0.010172
# 5 0.001575 0.005063 -0.003277 -0.003357 0.026464 -0.000379
# 6 -0.001532 0.003923 0.000260 0.010172 -0.000379 0.040013
#
#
# Mechanical properties :
#
#
# Convention : Reuss Voigt Hill
#
# Bulk Modulus (GPa) = 48.99411 55.46395 52.22903
# Shear Modulus (GPa) = 28.25533 32.39440 30.32487
#
# Velocity S-wave (km/s) = 3.72049 3.98368 3.85433
# Velocity P-wave (km/s) = 6.51596 6.95204 6.73753
#
# Compressibility (1/GPa) = 0.02041062
#
# Stress axis : x y z
#
# Youngs Moduli (GPa) = 73.86817 64.44520 89.17002
#
# Poissons Ratio (x) = 0.04733 0.43484
# Poissons Ratio (y) = 0.05425 0.38508
# Poissons Ratio (z) = 0.36022 0.27830
#
# Static dielectric constant tensor:
#      x y z
#    x 3.863350 -0.103590 0.295770 
#    y -0.103590 3.455600 -0.009360 
#    z 0.295770 -0.009360 4.067900 
# 
# 
# High freq. dielectric constant tensor:
#      x y z
#    x 1.800530 -0.004330 0.009490 
#    y -0.004330 1.766400 0.005180 
#    z 0.009490 0.005180 1.805440 
# 
# From -- ./inp_files/308613.got.cif
#   From: 2010.06.25/outbox.cif.g09.slc.cpg/sg2_155_cif.got.tgz:308613.got - 2010.06.27 13:26:56.
