data_PCOD8042744
_publ_section_title
;
Structure prediction by ZEFSAII (Michael W. Deem and Ramdas Pophale) SiO2 
 PCOD8042744
Probable space group: P -1
;
_chemical_formula_sum "Si O2"
_cell_formula_units_Z 16
_cell_length_a 11.030760
_cell_length_b 7.590244
_cell_length_c 13.528570
_cell_angle_alpha 125.663230
_cell_angle_beta 136.773043
_cell_angle_gamma 59.074042
_cell_volume 622.146511
_symmetry_space_group_name_H-M "P -1"
_symmetry_group_IT_number 2
_symmetry_cell_setting 'triclinic'
loop_
_space_group_symop_operation_xyz
x,y,z
-x,-y,-z
loop_
_atom_site_type_symbol
_atom_site_label
_atom_site_fract_x
_atom_site_fract_y
_atom_site_fract_z
Si Si1 0.876170 0.738809 0.600825
Si Si2 0.389068 0.343068 0.749771
Si Si3 0.013307 0.603636 0.935971
Si Si4 0.316422 0.562312 0.355482
Si Si5 0.109677 0.724958 0.457537
Si Si6 0.712801 0.149692 0.752885
Si Si7 0.243178 0.233054 0.823674
Si Si8 0.254202 0.806525 0.773542
O O1 0.793728 0.680112 0.426643
O O2 0.916747 0.529972 0.627100
O O3 0.064167 0.823400 0.721826
O O4 0.734666 0.918969 0.633880
O O5 0.555259 0.178749 0.749540
O O6 0.388059 0.284480 0.846284
O O7 0.402969 0.606667 0.837799
O O8 0.806656 0.635570 0.784235
O O9 0.152282 0.448855 0.897524
O O10 0.000000 0.500000 0.000000
O O11 0.097967 0.826737 0.073095
O O12 0.500000 0.500000 0.500000
O O13 0.205954 0.755888 0.419742
O O14 0.346872 0.651319 0.294236
O O15 0.236349 0.775182 0.636018
O O16 0.909261 0.860596 0.367201
O O17 0.319050 0.046716 0.890134
#
# Coordination Sequence:
#
# PCOD8042744 Si02
#       8
#     2   2   2   2   2   2   2   2
#     4  11  20  38  62  95 136 174 224 285 336 395
#     4  11  23  39  60 100 132 169 236 281 327 404
#     4   9  21  42  66  94 132 182 223 267 345 413
#     4  10  20  37  64  94 126 170 225 276 327 394
#     4  10  19  35  60  99 129 162 228 279 334 401
#     4  11  24  42  62  92 145 181 211 285 345 393
#     4  11  21  38  67  92 129 179 226 276 336 405
#     4  11  20  36  63  94 130 171 219 292 344 379
#
# _framework density 25.717416
#
# number of rings (size 3 to 8) (size 9 to 14) (size 15 to 20)
#    0.000    1.500    2.500    5.250    1.750    0.500 
#    2.250    3.125    2.750    1.500    0.000    0.000 
#    0.000    0.000    0.000    0.000    0.000    0.000 
#
# Total GULP energy -198233.289066 kJ/mol
# GULP energy per Si atom -12389.580567 kJ/mol
# Density = 2.565888 g / cm^3
# Si number density = 25.717416 Si / 1000 Ang^3
#
#
#
# Elastic Constant Matrix: (Units=GPa)
#
#
# Indices 1 2 3 4 5 6 
#
# 1 139.6725 33.4337 9.2352 -4.7847 -29.5667 -4.4266
# 2 33.4337 105.8607 3.5214 3.5723 4.3196 4.0425
# 3 9.2352 3.5214 66.9581 -11.4295 0.0224 -1.5356
# 4 -4.7847 3.5723 -11.4295 28.7081 -8.2496 5.2546
# 5 -29.5667 4.3196 0.0224 -8.2496 29.9881 5.3911
# 6 -4.4266 4.0425 -1.5356 5.2546 5.3911 34.0024
#
#
#
# Elastic Compliance Matrix: (Units=1/GPa)
#
#
# Indices 1 2 3 4 5 6 
#
# 1 0.011304 -0.004296 -0.000257 0.006496 0.013770 -0.001216
# 2 -0.004296 0.011270 -0.000756 -0.004421 -0.007051 -0.000132
# 3 -0.000257 -0.000756 0.016220 0.007178 0.001931 -0.000627
# 4 0.006496 -0.004421 0.007178 0.047196 0.021643 -0.009029
# 5 0.013770 -0.007051 0.001931 0.021643 0.055588 -0.009440
# 6 -0.001216 -0.000132 -0.000627 -0.009029 -0.009440 0.032131
#
#
# Mechanical properties :
#
#
# Convention : Reuss Voigt Hill
#
# Bulk Modulus (GPa) = 35.48960 44.98577 40.23768
# Shear Modulus (GPa) = 25.81067 36.29313 31.05190
#
# Velocity S-wave (km/s) = 3.17144 3.76071 3.47857
# Velocity P-wave (km/s) = 5.21925 6.03221 5.64039
#
# Compressibility (1/GPa) = 0.02817727
#
# Stress axis : x y z
#
# Youngs Moduli (GPa) = 88.46618 88.72876 61.65157
#
# Poissons Ratio (x) = 0.38119 0.01583
# Poissons Ratio (y) = 0.38006 0.04658
# Poissons Ratio (z) = 0.02272 0.06704
#
# Static dielectric constant tensor:
#      x y z
#    x 4.819850 0.106440 -0.021770 
#    y 0.106440 4.575970 0.118020 
#    z -0.021770 0.118020 5.056920 
# 
# 
# High freq. dielectric constant tensor:
#      x y z
#    x 2.036550 0.004320 -0.012410 
#    y 0.004320 2.008210 0.002540 
#    z -0.012410 0.002540 2.023620 
# 
# From -- ./inp_files/516296.got.cif
#   From: 2010.06.25/outbox.cif.g09.slc.cpg/sg2_259_cif.got.tgz:516296.got - 2010.06.27 13:26:56.
