data_PCOD8042802
_publ_section_title
;
Structure prediction by ZEFSAII (Michael W. Deem and Ramdas Pophale) SiO2 
 PCOD8042802
Probable space group: P -1
;
_chemical_formula_sum "Si O2"
_cell_formula_units_Z 14
_cell_length_a 7.206778
_cell_length_b 11.632783
_cell_length_c 12.106150
_cell_angle_alpha 35.576722
_cell_angle_beta 117.735167
_cell_angle_gamma 107.971091
_cell_volume 517.783006
_symmetry_space_group_name_H-M "P -1"
_symmetry_group_IT_number 2
_symmetry_cell_setting 'triclinic'
loop_
_space_group_symop_operation_xyz
x,y,z
-x,-y,-z
loop_
_atom_site_type_symbol
_atom_site_label
_atom_site_fract_x
_atom_site_fract_y
_atom_site_fract_z
Si Si1 0.503975 0.136966 0.608190
Si Si2 0.404190 0.228811 0.265052
Si Si3 0.217822 0.647388 0.849367
Si Si4 0.081979 0.340756 0.427101
Si Si5 0.682349 0.477275 0.477683
Si Si6 0.533922 0.155271 0.981986
Si Si7 0.017140 0.898668 0.786422
O O1 0.481862 0.098488 0.499262
O O2 0.304278 0.295688 0.461783
O O3 0.704074 0.256381 0.600243
O O4 0.508386 0.934646 0.838788
O O5 0.602547 0.227013 0.240544
O O6 0.215795 0.144774 0.207346
O O7 0.321262 0.458076 0.098782
O O8 0.050719 0.802287 0.748588
O O9 0.094741 0.553522 0.788122
O O10 0.102317 0.479550 0.432970
O O11 0.006117 0.134373 0.603274
O O12 0.500000 0.500000 0.500000
O O13 0.623677 0.642272 0.236672
O O14 0.780049 0.198243 0.008996
O O15 0.500000 0.000000 0.000000
#
# Coordination Sequence:
#
# PCOD8042802 Si02
#       7
#     2   2   2   2   2   2   2
#     4  10  21  38  62  93 130 166 213 263 319 378
#     4  11  25  41  62  99 126 170 215 257 331 376
#     4  11  24  41  63  95 132 165 214 267 313 393
#     4  10  21  37  62  96 122 164 217 251 318 385
#     4  10  19  35  61  96 126 166 213 264 314 375
#     4  11  20  35  61  98 125 161 220 256 311 395
#     4  11  22  39  67  92 129 166 207 266 322 377
#
# _framework density 27.038354000000002
#
# number of rings (size 3 to 8) (size 9 to 14) (size 15 to 20)
#    0.000    1.429    5.714    1.714    6.000    0.571 
#    0.000    0.714    0.000    3.429    0.000    0.000 
#    0.000    0.000    0.000    0.000    0.000    0.000 
#
# Total GULP energy -173556.818191 kJ/mol
# GULP energy per Si atom -12396.915585 kJ/mol
# Density = 2.697681 g / cm^3
# Si number density = 27.038354 Si / 1000 Ang^3
#
#
#
# Elastic Constant Matrix: (Units=GPa)
#
#
# Indices 1 2 3 4 5 6 
#
# 1 49.0020 45.0277 25.0707 10.1074 -1.7326 19.9879
# 2 45.0277 195.9783 23.7934 33.7661 -17.1563 19.9968
# 3 25.0707 23.7934 133.8897 17.6838 -15.1726 8.9351
# 4 10.1074 33.7661 17.6838 44.3960 3.9751 0.6684
# 5 -1.7326 -17.1563 -15.1726 3.9751 28.0335 4.3251
# 6 19.9879 19.9968 8.9351 0.6684 4.3251 47.5882
#
#
#
# Elastic Compliance Matrix: (Units=1/GPa)
#
#
# Indices 1 2 3 4 5 6 
#
# 1 0.032318 -0.005961 -0.004518 -0.000654 -0.002462 -0.009988
# 2 -0.005961 0.008033 0.001277 -0.005802 0.006309 -0.001603
# 3 -0.004518 0.001277 0.009432 -0.004254 0.006353 -0.000927
# 4 -0.000654 -0.005802 -0.004254 0.029680 -0.010730 0.004069
# 5 -0.002462 0.006309 0.006353 -0.010730 0.045387 -0.006784
# 6 -0.009988 -0.001603 -0.000927 0.004069 -0.006784 0.026616
#
#
# Mechanical properties :
#
#
# Convention : Reuss Voigt Hill
#
# Bulk Modulus (GPa) = 31.86942 62.96150 47.41546
# Shear Modulus (GPa) = 27.72711 43.00208 35.36460
#
# Velocity S-wave (km/s) = 3.20578 3.99232 3.62047
# Velocity P-wave (km/s) = 5.05124 6.67743 5.92043
#
# Compressibility (1/GPa) = 0.03137804
#
# Stress axis : x y z
#
# Youngs Moduli (GPa) = 30.94234 124.49394 106.02532
#
# Poissons Ratio (x) = 0.74205 0.47907
# Poissons Ratio (y) = 0.18443 -0.13537
# Poissons Ratio (z) = 0.13981 -0.15895
#
# Static dielectric constant tensor:
#      x y z
#    x 4.606230 0.310710 0.035280 
#    y 0.310710 5.767300 0.043740 
#    z 0.035280 0.043740 5.135090 
# 
# 
# High freq. dielectric constant tensor:
#      x y z
#    x 2.063270 0.012050 0.001920 
#    y 0.012050 2.121920 -0.010800 
#    z 0.001920 -0.010800 2.084680 
# 
# From -- ./inp_files/501497.got.cif
#   From: 2010.06.25/outbox.cif.g09.slc.cpg/sg2_251_cif.got.tgz:501497.got - 2010.06.27 13:26:56.
