data_PCOD8042651
_publ_section_title
;
Structure prediction by ZEFSAII (Michael W. Deem and Ramdas Pophale) SiO2 
 PCOD8042651
Probable space group: P -1
;
_chemical_formula_sum "Si O2"
_cell_formula_units_Z 16
_cell_length_a 15.021292
_cell_length_b 9.255556
_cell_length_c 12.648289
_cell_angle_alpha 79.358828
_cell_angle_beta 132.253778
_cell_angle_gamma 62.559437
_cell_volume 760.348388
_symmetry_space_group_name_H-M "P -1"
_symmetry_group_IT_number 2
_symmetry_cell_setting 'triclinic'
loop_
_space_group_symop_operation_xyz
x,y,z
-x,-y,-z
loop_
_atom_site_type_symbol
_atom_site_label
_atom_site_fract_x
_atom_site_fract_y
_atom_site_fract_z
Si Si1 0.928719 0.102701 0.588555
Si Si2 0.841589 0.502327 0.434334
Si Si3 0.059950 0.168194 0.227938
Si Si4 0.804241 0.591503 0.829113
Si Si5 0.309080 0.795101 0.803320
Si Si6 0.453009 0.969689 0.840222
Si Si7 0.083279 0.504085 0.730219
Si Si8 0.606963 0.950592 0.456219
O O1 0.799536 0.380161 0.460420
O O2 0.817523 0.105637 0.417355
O O3 0.928173 0.016384 0.711141
O O4 0.161189 0.909620 0.768961
O O5 0.637239 0.797642 0.201732
O O6 0.957871 0.368958 0.431771
O O7 0.971199 0.458083 0.633130
O O8 0.980570 0.337022 0.243293
O O9 0.281109 0.020902 0.399056
O O10 0.897469 0.343923 0.977327
O O11 0.703796 0.703561 0.616678
O O12 0.631966 0.810982 0.745144
O O13 0.000000 0.500000 0.000000
O O14 0.393654 0.877344 0.863003
O O15 0.500000 0.500000 0.000000
O O16 0.342661 0.087953 0.621865
O O17 0.685247 0.761437 0.032585
#
# Coordination Sequence:
#
# PCOD8042651 Si02
#       8
#     2   2   2   2   2   2   2   2
#     4  11  22  35  52  81 116 154 187 227 278 326
#     4  11  23  36  50  78 122 158 194 221 261 333
#     4  11  19  36  59  85 113 144 185 236 284 326
#     4   9  20  35  59  89 109 131 177 246 296 333
#     4  11  22  35  55  80 111 152 196 236 273 319
#     4  12  21  37  58  81 114 155 193 229 274 328
#     4  11  21  35  55  78 112 158 193 230 269 317
#     4  10  19  35  59  89 108 135 184 239 289 333
#
# _framework density 21.042985999999999
#
# number of rings (size 3 to 8) (size 9 to 14) (size 15 to 20)
#    0.000    1.250    3.750    4.875    0.000    1.000 
#    0.000    0.000    0.000    0.750    0.000    5.250 
#    0.000    0.000    0.000    0.000    0.000    0.000 
#
# Total GULP energy -198243.191362 kJ/mol
# GULP energy per Si atom -12390.199460 kJ/mol
# Density = 2.099509 g / cm^3
# Si number density = 21.042986 Si / 1000 Ang^3
#
#
#
# Elastic Constant Matrix: (Units=GPa)
#
#
# Indices 1 2 3 4 5 6 
#
# 1 91.4804 28.0068 21.4607 -14.8841 -5.8989 23.8411
# 2 28.0068 82.9015 17.9128 -17.9800 2.1310 29.0172
# 3 21.4607 17.9128 80.5922 -21.0251 14.1860 14.1370
# 4 -14.8841 -17.9800 -21.0251 28.7333 0.4943 -9.1927
# 5 -5.8989 2.1310 14.1860 0.4943 43.5922 -10.5846
# 6 23.8411 29.0172 14.1370 -9.1927 -10.5846 30.4909
#
#
#
# Elastic Compliance Matrix: (Units=1/GPa)
#
#
# Indices 1 2 3 4 5 6 
#
# 1 0.014298 -0.000798 -0.001312 0.003132 0.000232 -0.008787
# 2 -0.000798 0.020847 0.002476 0.008051 -0.006966 -0.020354
# 3 -0.001312 0.002476 0.018378 0.011454 -0.008695 -0.009416
# 4 0.003132 0.008051 0.011454 0.049206 -0.004802 -0.002254
# 5 0.000232 -0.006966 -0.008695 -0.004802 0.031002 0.019794
# 6 -0.008787 -0.020354 -0.009416 -0.002254 0.019794 0.069596
#
#
# Mechanical properties :
#
#
# Convention : Reuss Voigt Hill
#
# Bulk Modulus (GPa) = 18.43178 43.30389 30.86783
# Shear Modulus (GPa) = 22.65727 33.06952 27.86340
#
# Velocity S-wave (km/s) = 3.28489 3.96854 3.64279
# Velocity P-wave (km/s) = 4.81305 6.45156 5.69157
#
# Compressibility (1/GPa) = 0.05425412
#
# Stress axis : x y z
#
# Youngs Moduli (GPa) = 69.93976 47.96936 54.41348
#
# Poissons Ratio (x) = 0.03827 0.07141
# Poissons Ratio (y) = 0.05579 -0.13473
# Poissons Ratio (z) = 0.09179 -0.11877
#
# Static dielectric constant tensor:
#      x y z
#    x 4.110190 0.137200 -0.194140 
#    y 0.137200 3.501260 -0.203480 
#    z -0.194140 -0.203480 4.339760 
# 
# 
# High freq. dielectric constant tensor:
#      x y z
#    x 1.821450 0.013430 0.004350 
#    y 0.013430 1.773740 -0.022090 
#    z 0.004350 -0.022090 1.851990 
# 
# From -- ./inp_files/315478.got.cif
#   From: 2010.06.25/outbox.cif.g09.slc.cpg/sg2_158_cif.got.tgz:315478.got - 2010.06.27 13:26:56.
