data_PCOD8042539
_publ_section_title
;
Structure prediction by ZEFSAII (Michael W. Deem and Ramdas Pophale) SiO2 
 PCOD8042539
Probable space group: P -1
;
_chemical_formula_sum "Si O2"
_cell_formula_units_Z 14
_cell_length_a 12.160182
_cell_length_b 9.432289
_cell_length_c 9.710043
_cell_angle_alpha 94.697439
_cell_angle_beta 51.029093
_cell_angle_gamma 128.772986
_cell_volume 578.797709
_symmetry_space_group_name_H-M "P -1"
_symmetry_group_IT_number 2
_symmetry_cell_setting 'triclinic'
loop_
_space_group_symop_operation_xyz
x,y,z
-x,-y,-z
loop_
_atom_site_type_symbol
_atom_site_label
_atom_site_fract_x
_atom_site_fract_y
_atom_site_fract_z
Si Si1 0.649011 0.883441 0.693929
Si Si2 0.217077 0.778610 0.200135
Si Si3 0.609492 0.385956 0.897376
Si Si4 0.708192 0.990140 0.084410
Si Si5 0.456892 0.237117 0.535631
Si Si6 0.814930 0.710719 0.294458
Si Si7 0.906162 0.772201 0.524809
O O1 0.613256 0.887028 0.562546
O O2 0.619620 0.010535 0.812480
O O3 0.480606 0.651350 0.879994
O O4 0.883162 0.991569 0.558694
O O5 0.222405 0.618642 0.225230
O O6 0.986136 0.675127 0.400684
O O7 0.275669 0.847614 0.997162
O O8 0.735678 0.619528 0.767636
O O9 0.416115 0.212802 0.931921
O O10 0.584787 0.909033 0.321295
O O11 0.946998 0.115495 0.933905
O O12 0.699712 0.470291 0.353779
O O13 0.314346 0.268527 0.688727
O O14 0.801131 0.758732 0.467807
#
# Coordination Sequence:
#
# PCOD8042539 Si02
#       7
#     2   2   2   2   2   2   2
#     4   9  21  34  54  87 108 135 185 232 258 315
#     4   8  19  36  57  82 108 142 186 213 268 330
#     4  11  17  37  60  78 112 147 175 224 267 322
#     4  10  19  35  58  79 105 147 181 217 265 333
#     4  11  22  37  57  78 116 141 175 236 270 306
#     4  10  21  38  57  80 105 151 186 207 277 338
#     4   9  19  35  59  82 103 144 188 214 261 330
#
# _framework density 24.188071999999998
#
# number of rings (size 3 to 8) (size 9 to 14) (size 15 to 20)
#    0.857    1.429    2.857    2.571    0.000    1.714 
#    0.000    3.571    0.000    5.143    0.000    0.000 
#    0.000    0.000    0.000    0.000    0.000    0.000 
#
# Total GULP energy -173494.087859 kJ/mol
# GULP energy per Si atom -12392.434847 kJ/mol
# Density = 2.413302 g / cm^3
# Si number density = 24.188072 Si / 1000 Ang^3
#
#
#
# Elastic Constant Matrix: (Units=GPa)
#
#
# Indices 1 2 3 4 5 6 
#
# 1 69.2711 18.0381 14.5719 9.2222 5.3980 7.4823
# 2 18.0381 64.2903 24.3405 0.3554 11.4648 14.1942
# 3 14.5719 24.3405 113.9736 -9.5490 39.1228 8.0522
# 4 9.2222 0.3554 -9.5490 38.7072 10.4284 3.6288
# 5 5.3980 11.4648 39.1228 10.4284 47.5033 0.9152
# 6 7.4823 14.1942 8.0522 3.6288 0.9152 33.7648
#
#
#
# Elastic Compliance Matrix: (Units=1/GPa)
#
#
# Indices 1 2 3 4 5 6 
#
# 1 0.016545 -0.003878 -0.002354 -0.004960 0.002103 -0.000999
# 2 -0.003878 0.019442 -0.002085 0.001622 -0.002757 -0.006916
# 3 -0.002354 -0.002085 0.014936 0.008086 -0.013254 -0.002674
# 4 -0.004960 0.001622 0.008086 0.033120 -0.013668 -0.004700
# 5 0.002103 -0.002757 -0.013254 -0.013668 0.035310 0.004366
# 6 -0.000999 -0.006916 -0.002674 -0.004700 0.004366 0.033770
#
#
# Mechanical properties :
#
#
# Convention : Reuss Voigt Hill
#
# Bulk Modulus (GPa) = 29.16401 40.15956 34.66178
# Shear Modulus (GPa) = 27.59588 36.70072 32.14830
#
# Velocity S-wave (km/s) = 3.38137 3.89949 3.64963
# Velocity P-wave (km/s) = 5.22764 6.07567 5.66754
#
# Compressibility (1/GPa) = 0.03428884
#
# Stress axis : x y z
#
# Youngs Moduli (GPa) = 60.43980 51.43610 66.95112
#
# Poissons Ratio (x) = 0.19947 0.15760
# Poissons Ratio (y) = 0.23439 0.13961
# Poissons Ratio (z) = 0.14227 0.10726
#
# Static dielectric constant tensor:
#      x y z
#    x 4.350850 0.125150 -0.000580 
#    y 0.125150 3.871800 -0.125280 
#    z -0.000580 -0.125280 4.331760 
# 
# 
# High freq. dielectric constant tensor:
#      x y z
#    x 1.973940 0.007650 -0.004140 
#    y 0.007650 1.925640 -0.011370 
#    z -0.004140 -0.011370 1.963980 
# 
# From -- ./inp_files/262508.got.cif
#   From: 2010.06.25/outbox.cif.g09.slc.cpg/sg2_132_cif.got.tgz:262508.got - 2010.06.27 13:26:56.
