data_PCOD8042255
_publ_section_title
;
Structure prediction by ZEFSAII (Michael W. Deem and Ramdas Pophale) SiO2 
 PCOD8042255
Probable space group: P -1
;
_chemical_formula_sum "Si O2"
_cell_formula_units_Z 14
_cell_length_a 9.278255
_cell_length_b 8.844334
_cell_length_c 9.242990
_cell_angle_alpha 95.983901
_cell_angle_beta 84.521627
_cell_angle_gamma 104.099127
_cell_volume 729.689527
_symmetry_space_group_name_H-M "P -1"
_symmetry_group_IT_number 2
_symmetry_cell_setting 'triclinic'
loop_
_space_group_symop_operation_xyz
x,y,z
-x,-y,-z
loop_
_atom_site_type_symbol
_atom_site_label
_atom_site_fract_x
_atom_site_fract_y
_atom_site_fract_z
Si Si1 0.002187 0.916073 0.644003
Si Si2 0.463524 0.166393 0.489702
Si Si3 0.677718 0.746891 0.758131
Si Si4 0.427740 0.327754 0.936975
Si Si5 0.198306 0.217518 0.710949
Si Si6 0.664182 0.378939 0.697137
Si Si7 0.960660 0.340523 0.569294
O O1 0.079922 0.778224 0.575299
O O2 0.842716 0.850681 0.726007
O O3 0.098417 0.047368 0.755784
O O4 0.000000 0.000000 0.500000
O O5 0.440893 0.195123 0.325181
O O6 0.310752 0.177183 0.579943
O O7 0.595690 0.309542 0.543863
O O8 0.500000 0.000000 0.500000
O O9 0.675169 0.564102 0.717293
O O10 0.625732 0.779092 0.928676
O O11 0.282411 0.315879 0.847826
O O12 0.558613 0.282110 0.824548
O O13 0.500000 0.500000 0.000000
O O14 0.098581 0.319402 0.651371
O O15 0.823777 0.336819 0.691537
O O16 0.000000 0.500000 0.500000
#
# Coordination Sequence:
#
# PCOD8042255 Si02
#       7
#     2   2   2   2   2   2   2
#     4  10  19  34  61  85 121 146 196 244 296 330
#     4  11  21  36  63  89 116 154 198 247 294 341
#     4  11  20  39  61  86 117 159 198 241 291 351
#     4   9  22  41  61  81 121 160 196 239 293 352
#     4  10  21  39  59  87 120 156 190 244 299 343
#     4  10  21  37  61  90 119 152 197 243 292 349
#     4  11  19  34  63  94 115 148 197 245 292 346
#
# _framework density 19.186243000000001
#
# number of rings (size 3 to 8) (size 9 to 14) (size 15 to 20)
#    0.000    1.714    4.286    1.286    2.000    2.857 
#    0.000    5.714    6.286    0.000    0.000    0.000 
#    0.000    0.000    0.000    0.000    0.000    0.000 
#
# Total GULP energy -173445.947843 kJ/mol
# GULP energy per Si atom -12388.996274 kJ/mol
# Density = 1.914257 g / cm^3
# Si number density = 19.186243 Si / 1000 Ang^3
#
#
#
# Elastic Constant Matrix: (Units=GPa)
#
#
# Indices 1 2 3 4 5 6 
#
# 1 143.0133 56.6353 70.9101 -5.0220 -2.6969 -3.7712
# 2 56.6353 112.3200 43.8271 0.1988 8.6431 7.3168
# 3 70.9101 43.8271 126.0352 -10.6360 4.2875 4.6158
# 4 -5.0220 0.1988 -10.6360 28.2219 12.0095 4.0408
# 5 -2.6969 8.6431 4.2875 12.0095 33.5575 0.5148
# 6 -3.7712 7.3168 4.6158 4.0408 0.5148 41.1816
#
#
#
# Elastic Compliance Matrix: (Units=1/GPa)
#
#
# Indices 1 2 3 4 5 6 
#
# 1 0.011270 -0.004024 -0.005280 -0.001658 0.003173 0.002462
# 2 -0.004024 0.011991 -0.001687 0.000280 -0.003261 -0.002297
# 3 -0.005280 -0.001687 0.012139 0.005403 -0.003443 -0.002031
# 4 -0.001658 0.000280 0.005403 0.045110 -0.016963 -0.005021
# 5 0.003173 -0.003261 -0.003443 -0.016963 0.037367 0.002453
# 6 0.002462 -0.002297 -0.002031 -0.005021 0.002453 0.025606
#
#
# Mechanical properties :
#
#
# Convention : Reuss Voigt Hill
#
# Bulk Modulus (GPa) = 74.52418 80.45706 77.49062
# Shear Modulus (GPa) = 29.42274 34.59194 32.00734
#
# Velocity S-wave (km/s) = 3.92028 4.25073 4.08885
# Velocity P-wave (km/s) = 7.70833 8.13126 7.92262
#
# Compressibility (1/GPa) = 0.01341846
#
# Stress axis : x y z
#
# Youngs Moduli (GPa) = 88.72864 83.39904 82.38121
#
# Poissons Ratio (x) = 0.33563 0.43493
# Poissons Ratio (y) = 0.35708 0.13895
# Poissons Ratio (z) = 0.46845 0.14067
#
# Static dielectric constant tensor:
#      x y z
#    x 3.904780 0.495860 -0.034330 
#    y 0.495860 3.914650 0.156620 
#    z -0.034330 0.156620 3.780520 
# 
# 
# High freq. dielectric constant tensor:
#      x y z
#    x 1.751980 0.019290 -0.008790 
#    y 0.019290 1.750710 0.006510 
#    z -0.008790 0.006510 1.728090 
# 
# From -- ./inp_files/154016.got.cif
#   From: 2010.06.25/outbox.cif.g09.slc.cpg/sg2_78_cif.got.tgz:154016.got - 2010.06.27 13:26:56.
