data_PCOD8042885
_publ_section_title
;
Structure prediction by ZEFSAII (Michael W. Deem and Ramdas Pophale) SiO2 
 PCOD8042885
Probable space group: P -1
;
_chemical_formula_sum "Si O2"
_cell_formula_units_Z 16
_cell_length_a 15.419519
_cell_length_b 8.436739
_cell_length_c 8.962634
_cell_angle_alpha 102.817228
_cell_angle_beta 137.487157
_cell_angle_gamma 92.352029
_cell_volume 730.305271
_symmetry_space_group_name_H-M "P -1"
_symmetry_group_IT_number 2
_symmetry_cell_setting 'triclinic'
loop_
_space_group_symop_operation_xyz
x,y,z
-x,-y,-z
loop_
_atom_site_type_symbol
_atom_site_label
_atom_site_fract_x
_atom_site_fract_y
_atom_site_fract_z
Si Si1 0.152908 0.048737 0.397559
Si Si2 0.860906 0.884037 0.933581
Si Si3 0.370769 0.257382 0.187471
Si Si4 0.863874 0.516941 0.771037
Si Si5 0.896902 0.621250 0.517371
Si Si6 0.799055 0.295301 0.146902
Si Si7 0.653777 0.378252 0.711143
Si Si8 0.646930 0.007477 0.130126
O O1 0.158838 0.014394 0.219296
O O2 0.185694 0.245268 0.533214
O O3 0.253263 0.969032 0.596114
O O4 0.996546 0.956312 0.217556
O O5 0.744691 0.885619 0.900905
O O6 0.850665 0.700288 0.821681
O O7 0.502568 0.275047 0.455655
O O8 0.338164 0.435801 0.172575
O O9 0.375042 0.176867 0.013696
O O10 0.869274 0.490557 0.595401
O O11 0.738351 0.384464 0.667387
O O12 0.000000 0.500000 0.000000
O O13 0.833715 0.495914 0.275504
O O14 0.056056 0.728243 0.716190
O O15 0.714406 0.164750 0.136947
O O16 0.705662 0.271259 0.877349
O O17 0.500000 0.000000 0.000000
#
# Coordination Sequence:
#
# PCOD8042885 Si02
#       8
#     2   2   2   2   2   2   2   2
#     4  10  22  44  64  93 128 166 215 261 322 381
#     4   9  21  39  69  93 121 170 215 262 318 381
#     4  10  23  44  64  93 124 174 217 257 327 381
#     4  10  19  35  63  99 127 160 206 266 324 371
#     4  10  22  40  66  96 125 164 213 267 317 381
#     4  11  24  40  62  99 128 167 216 261 327 369
#     4  10  22  41  68  92 128 170 214 267 313 390
#     4  12  29  44  61  95 133 177 210 265 323 379
#
# _framework density 21.908646000000001
#
# number of rings (size 3 to 8) (size 9 to 14) (size 15 to 20)
#    0.000    1.750    1.250    1.500    5.250    3.500 
#    2.250    1.250    0.000    0.000    0.000    0.000 
#    0.000    0.000    0.000    0.000    0.000    0.000 
#
# Total GULP energy -198325.573920 kJ/mol
# GULP energy per Si atom -12395.348370 kJ/mol
# Density = 2.185878 g / cm^3
# Si number density = 21.908646 Si / 1000 Ang^3
#
#
#
# Elastic Constant Matrix: (Units=GPa)
#
#
# Indices 1 2 3 4 5 6 
#
# 1 140.1651 29.7407 52.1096 -10.6393 21.1963 15.5248
# 2 29.7407 40.7305 32.5477 -14.7953 10.1118 19.7944
# 3 52.1096 32.5477 137.4092 -18.8955 12.2207 20.0840
# 4 -10.6393 -14.7953 -18.8955 29.3875 1.7621 -9.1373
# 5 21.1963 10.1118 12.2207 1.7621 30.6946 5.6792
# 6 15.5248 19.7944 20.0840 -9.1373 5.6792 33.6870
#
#
#
# Elastic Compliance Matrix: (Units=1/GPa)
#
#
# Indices 1 2 3 4 5 6 
#
# 1 0.009487 -0.004017 -0.002239 0.000278 -0.004378 0.000136
# 2 -0.004017 0.046874 -0.004239 0.014386 -0.008507 -0.017828
# 3 -0.002239 -0.004239 0.009822 0.002998 -0.000887 -0.001371
# 4 0.000278 0.014386 0.002998 0.044911 -0.009329 0.003386
# 5 -0.004378 -0.008507 -0.000887 -0.009329 0.039601 -0.001661
# 6 0.000136 -0.017828 -0.001371 0.003386 -0.001661 0.042114
#
#
# Mechanical properties :
#
#
# Convention : Reuss Voigt Hill
#
# Bulk Modulus (GPa) = 22.12669 60.78898 41.45783
# Shear Modulus (GPa) = 21.84722 32.34762 27.09742
#
# Velocity S-wave (km/s) = 3.16127 3.84666 3.52068
# Velocity P-wave (km/s) = 4.84213 6.89463 5.95744
#
# Compressibility (1/GPa) = 0.04519429
#
# Stress axis : x y z
#
# Youngs Moduli (GPa) = 105.40663 21.33381 101.81238
#
# Poissons Ratio (x) = 0.08569 0.22793
# Poissons Ratio (y) = 0.42340 0.43157
# Poissons Ratio (z) = 0.23597 0.09043
#
# Static dielectric constant tensor:
#      x y z
#    x 4.616370 0.041810 -0.195220 
#    y 0.041810 3.783610 0.041480 
#    z -0.195220 0.041480 3.882580 
# 
# 
# High freq. dielectric constant tensor:
#      x y z
#    x 1.869390 -0.003560 -0.002810 
#    y -0.003560 1.855480 0.002910 
#    z -0.002810 0.002910 1.859970 
# 
# From -- ./inp_files/274627.got.cif
#   From: 2010.06.25/outbox.cif.g09.slc.cpg/sg2_138_cif.got.tgz:274627.got - 2010.06.27 13:26:56.
