data_PCOD8042452
_publ_section_title
;
Structure prediction by ZEFSAII (Michael W. Deem and Ramdas Pophale) SiO2 
 PCOD8042452
Probable space group: P -1
;
_chemical_formula_sum "Si O2"
_cell_formula_units_Z 12
_cell_length_a 19.437905
_cell_length_b 9.038513
_cell_length_c 8.983797
_cell_angle_alpha 94.121426
_cell_angle_beta 126.143329
_cell_angle_gamma 130.800978
_cell_volume 640.334332
_symmetry_space_group_name_H-M "P -1"
_symmetry_group_IT_number 2
_symmetry_cell_setting 'triclinic'
loop_
_space_group_symop_operation_xyz
x,y,z
-x,-y,-z
loop_
_atom_site_type_symbol
_atom_site_label
_atom_site_fract_x
_atom_site_fract_y
_atom_site_fract_z
Si Si1 0.878599 0.406962 0.229975
Si Si2 0.701841 0.851098 0.928928
Si Si3 0.004558 0.665527 0.089868
Si Si4 0.035427 0.199210 0.466642
Si Si5 0.146474 0.314281 0.281340
Si Si6 0.330178 0.314605 0.453465
O O1 0.969290 0.600965 0.212752
O O2 0.000000 0.500000 0.500000
O O3 0.828871 0.485304 0.257777
O O4 0.725743 0.066723 0.963992
O O5 0.520886 0.551885 0.756444
O O6 0.704667 0.774901 0.768713
O O7 0.853783 0.007171 0.224702
O O8 0.859743 0.539907 0.805603
O O9 0.192148 0.017619 0.350250
O O10 0.000000 0.500000 0.000000
O O11 0.112198 0.283345 0.409614
O O12 0.000000 0.000000 0.500000
O O13 0.315030 0.469899 0.478313
O O14 0.000000 0.000000 0.000000
#
# Coordination Sequence:
#
# PCOD8042452 Si02
#       6
#     2   2   2   2   2   2
#     4  10  21  36  55  84 115 150 187 228 286 345
#     4  10  20  38  56  86 115 149 186 241 287 324
#     4  11  18  35  60  86 110 150 198 230 273 342
#     4  11  20  36  59  84 115 152 188 233 285 344
#     4  10  19  35  56  84 108 149 198 226 272 345
#     4  10  20  36  60  84 115 144 193 243 278 326
#
# _framework density 18.740209
#
# number of rings (size 3 to 8) (size 9 to 14) (size 15 to 20)
#    0.000    1.667    5.000    3.000    0.000    0.000 
#    0.000   10.833    0.000    0.000    0.000    0.000 
#    0.000    0.000    0.000    0.000    0.000    0.000 
#
# Total GULP energy -148658.164519 kJ/mol
# GULP energy per Si atom -12388.180377 kJ/mol
# Density = 1.869756 g / cm^3
# Si number density = 18.740209 Si / 1000 Ang^3
#
#
#
# Elastic Constant Matrix: (Units=GPa)
#
#
# Indices 1 2 3 4 5 6 
#
# 1 145.8965 57.5604 51.4377 -1.8384 -24.1509 -10.1686
# 2 57.5604 124.0478 36.9585 -10.1724 -7.5286 -1.2670
# 3 51.4377 36.9585 54.2757 4.3627 3.8429 4.6350
# 4 -1.8384 -10.1724 4.3627 30.4106 4.5873 -5.0050
# 5 -24.1509 -7.5286 3.8429 4.5873 30.8053 -1.3779
# 6 -10.1686 -1.2670 4.6350 -5.0050 -1.3779 40.2778
#
#
#
# Elastic Compliance Matrix: (Units=1/GPa)
#
#
# Indices 1 2 3 4 5 6 
#
# 1 0.015694 -0.001663 -0.015390 0.001553 0.013870 0.006348
# 2 -0.001663 0.011340 -0.006752 0.004630 0.001681 0.001347
# 3 -0.015390 -0.006752 0.040409 -0.007970 -0.018033 -0.010355
# 4 0.001553 0.004630 -0.007970 0.036939 -0.001890 0.005980
# 5 0.013870 0.001681 -0.018033 -0.001890 0.046590 0.006989
# 6 0.006348 0.001347 -0.010355 0.005980 0.006989 0.028647
#
#
# Mechanical properties :
#
#
# Convention : Reuss Voigt Hill
#
# Bulk Modulus (GPa) = 50.42030 68.45927 59.43979
# Shear Modulus (GPa) = 21.38200 32.18294 26.78247
#
# Velocity S-wave (km/s) = 3.38149 4.14855 3.78450
# Velocity P-wave (km/s) = 6.49686 7.71734 7.13325
#
# Compressibility (1/GPa) = 0.01983328
#
# Stress axis : x y z
#
# Youngs Moduli (GPa) = 63.71672 88.18189 24.74670
#
# Poissons Ratio (x) = 0.14666 0.38086
# Poissons Ratio (y) = 0.10597 0.16709
# Poissons Ratio (z) = 0.98062 0.59540
#
# Static dielectric constant tensor:
#      x y z
#    x 4.758870 -0.582270 0.220150 
#    y -0.582270 3.546750 0.172020 
#    z 0.220150 0.172020 3.175090 
# 
# 
# High freq. dielectric constant tensor:
#      x y z
#    x 1.748600 -0.011560 -0.021820 
#    y -0.011560 1.723540 -0.004750 
#    z -0.021820 -0.004750 1.701470 
# 
# From -- ./inp_files/145359.got.cif
#   From: 2010.06.25/outbox.cif.g09.slc.cpg/sg2_73_cif.got.tgz:145359.got - 2010.06.27 13:26:56.
