data_PCOD8042454
_publ_section_title
;
Structure prediction by ZEFSAII (Michael W. Deem and Ramdas Pophale) SiO2 
 PCOD8042454
Probable space group: P -1
;
_chemical_formula_sum "Si O2"
_cell_formula_units_Z 16
_cell_length_a 16.123992
_cell_length_b 9.350788
_cell_length_c 25.613662
_cell_angle_alpha 137.430925
_cell_angle_beta 162.588434
_cell_angle_gamma 45.951245
_cell_volume 781.200422
_symmetry_space_group_name_H-M "P -1"
_symmetry_group_IT_number 2
_symmetry_cell_setting 'triclinic'
loop_
_space_group_symop_operation_xyz
x,y,z
-x,-y,-z
loop_
_atom_site_type_symbol
_atom_site_label
_atom_site_fract_x
_atom_site_fract_y
_atom_site_fract_z
Si Si1 0.424328 0.029019 0.110267
Si Si2 0.404414 0.079483 0.230477
Si Si3 0.260713 0.230694 0.963626
Si Si4 0.198203 0.579956 0.878309
Si Si5 0.806508 0.541565 0.265030
Si Si6 0.874371 0.185094 0.283338
Si Si7 0.956235 0.910605 0.530627
Si Si8 0.967800 0.338899 0.092708
O O1 0.391956 0.130139 0.175028
O O2 0.742436 0.989035 0.274508
O O3 0.283941 0.182956 0.026260
O O4 0.267353 0.803875 0.952568
O O5 0.251814 0.263221 0.218389
O O6 0.724696 0.087094 0.443262
O O7 0.269122 0.848265 0.101264
O O8 0.126204 0.457628 0.940703
O O9 0.078309 0.046843 0.774930
O O10 0.556151 0.234073 0.114572
O O11 0.077137 0.438242 0.719370
O O12 0.974067 0.596910 0.794499
O O13 0.475080 0.488052 0.046474
O O14 0.972130 0.364497 0.348714
O O15 0.856225 0.762889 0.383023
O O16 0.040998 0.211064 0.444742
#
# Coordination Sequence:
#
# PCOD8042454 Si02
#       8
#     2   2   2   2   2   2   2   2
#     4  10  20  36  58  87 115 143 181 246 281 324
#     4  10  21  38  58  83 114 150 191 225 280 331
#     4  10  19  35  56  84 114 146 189 226 286 331
#     4  10  20  34  59  84 110 147 188 231 277 330
#     4  11  19  33  57  87 113 142 189 230 286 327
#     4  10  20  32  55  85 119 143 178 240 285 330
#     4  11  21  34  58  86 119 142 183 238 287 325
#     4  10  20  38  59  82 111 154 191 226 268 348
#
# _framework density 20.481300999999998
#
# number of rings (size 3 to 8) (size 9 to 14) (size 15 to 20)
#    0.000    1.750    5.000    0.750    0.000    1.500 
#    0.000    0.625    0.000    0.750    0.000    0.000 
#    0.000    0.000    0.000    0.000    0.000    0.000 
#
# Total GULP energy -198339.589847 kJ/mol
# GULP energy per Si atom -12396.224365 kJ/mol
# Density = 2.043468 g / cm^3
# Si number density = 20.481301 Si / 1000 Ang^3
#
#
#
# Elastic Constant Matrix: (Units=GPa)
#
#
# Indices 1 2 3 4 5 6 
#
# 1 150.9608 63.1398 46.0478 -27.3507 -14.8186 -4.1701
# 2 63.1398 126.4428 28.1781 -28.3813 -1.2931 1.6893
# 3 46.0478 28.1781 53.1581 -13.8624 -9.8960 -3.7347
# 4 -27.3507 -28.3813 -13.8624 16.0009 -1.2197 2.2793
# 5 -14.8186 -1.2931 -9.8960 -1.2197 28.8101 -4.4759
# 6 -4.1701 1.6893 -3.7347 2.2793 -4.4759 35.8570
#
#
#
# Elastic Compliance Matrix: (Units=1/GPa)
#
#
# Indices 1 2 3 4 5 6 
#
# 1 0.011697 -0.001852 -0.004850 0.012777 0.004924 0.000745
# 2 -0.001852 0.013681 -0.000248 0.021212 0.000130 -0.002218
# 3 -0.004850 -0.000248 0.029381 0.017030 0.008697 0.002511
# 4 0.012777 0.021212 0.017030 0.138735 0.018588 -0.004238
# 5 0.004924 0.000130 0.008697 0.018588 0.041880 0.005519
# 6 0.000745 -0.002218 0.002511 -0.004238 0.005519 0.029299
#
#
# Mechanical properties :
#
#
# Convention : Reuss Voigt Hill
#
# Bulk Modulus (GPa) = 24.47417 67.25480 45.86448
# Shear Modulus (GPa) = 17.11200 29.01333 23.06267
#
# Velocity S-wave (km/s) = 2.89363 3.76783 3.35929
# Velocity P-wave (km/s) = 4.81036 7.19980 6.12277
#
# Compressibility (1/GPa) = 0.04085941
#
# Stress axis : x y z
#
# Youngs Moduli (GPa) = 85.49245 73.09493 34.03572
#
# Poissons Ratio (x) = 0.13536 0.16507
# Poissons Ratio (y) = 0.15832 0.00844
# Poissons Ratio (z) = 0.41463 0.01812
#
# Static dielectric constant tensor:
#      x y z
#    x 3.988150 0.029220 -0.210490 
#    y 0.029220 3.630420 -0.022280 
#    z -0.210490 -0.022280 3.370950 
# 
# 
# High freq. dielectric constant tensor:
#      x y z
#    x 1.812520 0.011360 -0.026350 
#    y 0.011360 1.798900 0.004300 
#    z -0.026350 0.004300 1.756170 
# 
# From -- ./inp_files/436784.got.cif
#   From: 2010.06.25/outbox.cif.g09.slc.cpg/sg2_219_cif.got.tgz:436784.got - 2010.06.27 13:26:56.
