data_PCOD8042932
_publ_section_title
;
Structure prediction by ZEFSAII (Michael W. Deem and Ramdas Pophale) SiO2 
 PCOD8042932
Probable space group: P -1
;
_chemical_formula_sum "Si O2"
_cell_formula_units_Z 16
_cell_length_a 25.730770
_cell_length_b 19.626818
_cell_length_c 14.016245
_cell_angle_alpha 158.879318
_cell_angle_beta 159.992388
_cell_angle_gamma 21.112018
_cell_volume 776.168836
_symmetry_space_group_name_H-M "P -1"
_symmetry_group_IT_number 2
_symmetry_cell_setting 'triclinic'
loop_
_space_group_symop_operation_xyz
x,y,z
-x,-y,-z
loop_
_atom_site_type_symbol
_atom_site_label
_atom_site_fract_x
_atom_site_fract_y
_atom_site_fract_z
Si Si1 0.217024 0.450078 0.255658
Si Si2 0.055781 0.692608 0.463755
Si Si3 0.555164 0.756764 0.774701
Si Si4 0.936434 0.250664 0.228432
Si Si5 0.620876 0.504223 0.886035
Si Si6 0.760025 0.179763 0.312789
Si Si7 0.003130 0.086411 0.773371
Si Si8 0.827176 0.554830 0.140293
O O1 0.407223 0.305644 0.354527
O O2 0.151551 0.675802 0.383278
O O3 0.213406 0.498723 0.426351
O O4 0.110213 0.326293 0.881751
O O5 0.082149 0.669160 0.590606
O O6 0.039354 0.921091 0.705637
O O7 0.415281 0.681732 0.467704
O O8 0.724966 0.629925 0.963391
O O9 0.500000 0.000000 0.000000
O O10 0.074378 0.306229 0.486831
O O11 0.751657 0.391413 0.049180
O O12 0.000000 0.000000 0.000000
O O13 0.446056 0.698030 0.877876
O O14 0.697654 0.596208 0.058142
O O15 0.837597 0.102894 0.451201
O O16 0.830934 0.985295 0.104516
O O17 0.964491 0.308550 0.046454
#
# Coordination Sequence:
#
# PCOD8042932 Si02
#       8
#     2   2   2   2   2   2   2   2
#     4   9  18  37  59  91 124 156 217 259 307 368
#     4  10  20  35  64  92 121 170 212 259 313 378
#     4  11  22  38  63  96 129 163 212 273 316 371
#     4  12  25  44  62  92 133 176 214 260 329 395
#     4  11  24  40  62  95 132 167 214 268 320 379
#     4   9  19  38  59  93 127 165 204 269 320 371
#     4  10  19  35  65  91 124 161 217 261 319 379
#     4  12  23  41  64  93 125 171 220 263 322 380
#
# _framework density 20.614072
#
# number of rings (size 3 to 8) (size 9 to 14) (size 15 to 20)
#    0.000    1.500    3.750    2.250    1.750    0.000 
#    0.000    6.250    0.000    1.500    0.000    0.000 
#    0.000    0.000    0.000    0.000    0.000    0.000 
#
# Total GULP energy -198282.365929 kJ/mol
# GULP energy per Si atom -12392.647871 kJ/mol
# Density = 2.056715 g / cm^3
# Si number density = 20.614072 Si / 1000 Ang^3
#
#
#
# Elastic Constant Matrix: (Units=GPa)
#
#
# Indices 1 2 3 4 5 6 
#
# 1 84.6419 57.5912 24.4318 5.7732 5.6510 -20.8928
# 2 57.5912 113.5940 50.4912 -2.4804 3.2496 -14.5018
# 3 24.4318 50.4912 100.5928 5.3791 11.6761 -8.8813
# 4 5.7732 -2.4804 5.3791 32.1417 1.1881 -1.5553
# 5 5.6510 3.2496 11.6761 1.1881 30.4091 -0.4634
# 6 -20.8928 -14.5018 -8.8813 -1.5553 -0.4634 25.0987
#
#
#
# Elastic Compliance Matrix: (Units=1/GPa)
#
#
# Indices 1 2 3 4 5 6 
#
# 1 0.021906 -0.010165 0.001489 -0.004242 -0.003199 0.012567
# 2 -0.010165 0.016775 -0.006520 0.004084 0.002428 -0.000778
# 3 0.001489 -0.006520 0.013731 -0.002794 -0.004712 0.002071
# 4 -0.004242 0.004084 -0.002794 0.032645 0.000147 -0.000134
# 5 -0.003199 0.002428 -0.004712 0.000147 0.034989 -0.002272
# 6 0.012567 -0.000778 0.002071 -0.000134 -0.002272 0.050536
#
#
# Mechanical properties :
#
#
# Convention : Reuss Voigt Hill
#
# Bulk Modulus (GPa) = 45.41164 62.65079 54.03121
# Shear Modulus (GPa) = 24.00222 28.61756 26.30989
#
# Velocity S-wave (km/s) = 3.41598 3.72997 3.57642
# Velocity P-wave (km/s) = 6.13480 7.00060 6.58195
#
# Compressibility (1/GPa) = 0.02202078
#
# Stress axis : x y z
#
# Youngs Moduli (GPa) = 45.65032 59.61146 72.82640
#
# Poissons Ratio (x) = 0.60594 -0.10846
# Poissons Ratio (y) = 0.46402 0.47485
# Poissons Ratio (z) = -0.06799 0.38868
#
# Static dielectric constant tensor:
#      x y z
#    x 3.995150 -0.080240 0.131630 
#    y -0.080240 4.460840 0.419690 
#    z 0.131630 0.419690 3.748720 
# 
# 
# High freq. dielectric constant tensor:
#      x y z
#    x 1.818970 -0.009670 0.010700 
#    y -0.009670 1.797380 0.021410 
#    z 0.010700 0.021410 1.786260 
# 
# From -- ./inp_files/544474.got.cif
#   From: 2010.06.25/outbox.cif.g09.slc.cpg/sg2_273_cif.got.tgz:544474.got - 2010.06.27 13:26:56.
