data_PCOD8042754
_publ_section_title
;
Structure prediction by ZEFSAII (Michael W. Deem and Ramdas Pophale) SiO2 
 PCOD8042754
Probable space group: P -1
;
_chemical_formula_sum "Si O2"
_cell_formula_units_Z 16
_cell_length_a 9.629466
_cell_length_b 5.293726
_cell_length_c 16.608315
_cell_angle_alpha 87.004518
_cell_angle_beta 118.141698
_cell_angle_gamma 75.287345
_cell_volume 707.215709
_symmetry_space_group_name_H-M "P -1"
_symmetry_group_IT_number 2
_symmetry_cell_setting 'triclinic'
loop_
_space_group_symop_operation_xyz
x,y,z
-x,-y,-z
loop_
_atom_site_type_symbol
_atom_site_label
_atom_site_fract_x
_atom_site_fract_y
_atom_site_fract_z
Si Si1 0.299932 0.190842 0.686296
Si Si2 0.058233 0.730523 0.391991
Si Si3 0.970254 0.798699 0.889284
Si Si4 0.802518 0.369347 0.902198
Si Si5 0.403725 0.638139 0.555080
Si Si6 0.907122 0.772914 0.698735
Si Si7 0.465542 0.927226 0.399618
Si Si8 0.433893 0.617783 0.751585
O O1 0.422167 0.189404 0.645996
O O2 0.309243 0.444903 0.737419
O O3 0.110625 0.236410 0.604785
O O4 0.359221 0.919301 0.760694
O O5 0.215132 0.634938 0.496218
O O6 0.070233 0.513303 0.329565
O O7 0.047736 0.019823 0.350565
O O8 0.856700 0.621110 0.887047
O O9 0.019001 0.739162 0.810088
O O10 0.874310 0.114074 0.868108
O O11 0.138659 0.716589 0.989028
O O12 0.604821 0.460872 0.843720
O O13 0.535851 0.362062 0.559612
O O14 0.451463 0.670753 0.660166
O O15 0.431569 0.911743 0.521614
O O16 0.716661 0.887759 0.675436
#
# Coordination Sequence:
#
# PCOD8042754 Si02
#       8
#     2   2   2   2   2   2   2   2
#     4  10  22  39  59  83 113 157 202 239 284 340
#     4  12  26  39  57  84 123 163 192 230 292 353
#     4  10  20  35  59  89 122 149 187 238 297 346
#     4  10  19  35  62  93 114 145 192 248 293 335
#     4  10  21  36  57  86 117 152 196 240 287 341
#     4  12  24  40  59  86 124 156 188 238 292 348
#     4  10  21  37  60  82 111 152 201 248 283 328
#     4  10  19  35  61  84 112 145 198 252 284 328
#
# _framework density 22.623930999999999
#
# number of rings (size 3 to 8) (size 9 to 14) (size 15 to 20)
#    0.000    1.500    0.000    6.750    0.000    7.000 
#    0.000    0.000    0.000    4.500    0.000    0.000 
#    0.000    0.000    0.000    0.000    0.000    0.000 
#
# Total GULP energy -198387.044467 kJ/mol
# GULP energy per Si atom -12399.190279 kJ/mol
# Density = 2.257244 g / cm^3
# Si number density = 22.623931 Si / 1000 Ang^3
#
#
#
# Elastic Constant Matrix: (Units=GPa)
#
#
# Indices 1 2 3 4 5 6 
#
# 1 73.5159 10.7583 9.5268 -0.2172 20.9137 10.0730
# 2 10.7583 152.3767 20.0374 4.6962 11.1957 25.5812
# 3 9.5268 20.0374 87.3369 1.2272 16.2205 3.8333
# 4 -0.2172 4.6962 1.2272 30.7981 -2.6059 9.2717
# 5 20.9137 11.1957 16.2205 -2.6059 31.5896 5.5638
# 6 10.0730 25.5812 3.8333 9.2717 5.5638 28.9403
#
#
#
# Elastic Compliance Matrix: (Units=1/GPa)
#
#
# Indices 1 2 3 4 5 6 
#
# 1 0.017200 0.000257 0.000256 0.000456 -0.010812 -0.004315
# 2 0.000257 0.007950 -0.001375 0.000878 -0.000971 -0.007029
# 3 0.000256 -0.001375 0.012935 -0.001183 -0.006608 0.001063
# 4 0.000456 0.000878 -0.001183 0.036962 0.005450 -0.013668
# 5 -0.010812 -0.000971 -0.006608 0.005450 0.043824 -0.004675
# 6 -0.004315 -0.007029 0.001063 -0.013668 -0.004675 0.047406
#
#
# Mechanical properties :
#
#
# Convention : Reuss Voigt Hill
#
# Bulk Modulus (GPa) = 27.50340 43.76384 35.63362
# Shear Modulus (GPa) = 27.75901 36.45941 32.10921
#
# Velocity S-wave (km/s) = 3.50662 4.01876 3.77139
# Velocity P-wave (km/s) = 5.34587 6.39687 5.89484
#
# Compressibility (1/GPa) = 0.03635913
#
# Stress axis : x y z
#
# Youngs Moduli (GPa) = 58.13899 125.79093 77.31040
#
# Poissons Ratio (x) = -0.03229 -0.01978
# Poissons Ratio (y) = -0.01493 0.10633
# Poissons Ratio (z) = -0.01488 0.17302
#
# Static dielectric constant tensor:
#      x y z
#    x 3.916140 0.316520 0.082470 
#    y 0.316520 4.983200 0.000210 
#    z 0.082470 0.000210 4.068250 
# 
# 
# High freq. dielectric constant tensor:
#      x y z
#    x 1.870050 0.021550 0.010670 
#    y 0.021550 1.945500 0.003010 
#    z 0.010670 0.003010 1.876580 
# 
# From -- ./inp_files/552718.got.cif
#   From: 2010.06.25/outbox.cif.g09.slc.cpg/sg2_277_cif.got.tgz:552718.got - 2010.06.27 13:26:56.
