data_PCOD8042953
_publ_section_title
;
Structure prediction by ZEFSAII (Michael W. Deem and Ramdas Pophale) SiO2 
 PCOD8042953
Probable space group: P -1
;
_chemical_formula_sum "Si O2"
_cell_formula_units_Z 14
_cell_length_a 11.336212
_cell_length_b 10.878281
_cell_length_c 14.530923
_cell_angle_alpha 152.416457
_cell_angle_beta 64.364339
_cell_angle_gamma 126.608357
_cell_volume 643.500051
_symmetry_space_group_name_H-M "P -1"
_symmetry_group_IT_number 2
_symmetry_cell_setting 'triclinic'
loop_
_space_group_symop_operation_xyz
x,y,z
-x,-y,-z
loop_
_atom_site_type_symbol
_atom_site_label
_atom_site_fract_x
_atom_site_fract_y
_atom_site_fract_z
Si Si1 0.810058 0.959370 0.457940
Si Si2 0.650250 0.324077 0.756115
Si Si3 0.150330 0.444317 0.688260
Si Si4 0.922729 0.218861 0.913246
Si Si5 0.660372 0.572034 0.532190
Si Si6 0.670308 0.256645 0.499683
Si Si7 0.194631 0.124515 0.796718
O O1 0.744135 0.166248 0.655275
O O2 0.991272 0.168530 0.520475
O O3 0.768443 0.691318 0.366068
O O4 0.735407 0.794037 0.276460
O O5 0.692530 0.426318 0.702849
O O6 0.473338 0.088325 0.673777
O O7 0.695614 0.620078 0.998668
O O8 0.268409 0.596325 0.664427
O O9 0.128190 0.688384 0.914754
O O10 0.030324 0.093185 0.829427
O O11 0.774165 0.941024 0.731703
O O12 0.000000 0.500000 0.000000
O O13 0.500000 0.500000 0.500000
O O14 0.647217 0.458542 0.565729
O O15 0.810788 0.198510 0.391137
#
# Coordination Sequence:
#
# PCOD8042953 Si02
#       7
#     2   2   2   2   2   2   2
#     4  10  19  35  66  98 125 169 223 275 322 391
#     4  10  21  42  68  97 129 181 224 279 327 400
#     4  11  21  38  63  96 135 171 218 274 333 386
#     4  12  24  43  71 104 132 179 232 271 330 404
#     4  12  28  46  66  99 142 177 217 285 342 398
#     4  10  25  43  63  99 138 175 225 270 346 396
#     4  11  21  39  71  98 127 172 227 276 323 398
#
# _framework density 21.756021
#
# number of rings (size 3 to 8) (size 9 to 14) (size 15 to 20)
#    0.000    1.143    4.286    2.143    2.000    2.286 
#    0.000    1.429    0.000    0.000    0.000    0.000 
#    0.000    0.000    0.000    0.000    0.000    0.000 
#
# Total GULP energy -173567.622471 kJ/mol
# GULP energy per Si atom -12397.687319 kJ/mol
# Density = 2.170650 g / cm^3
# Si number density = 21.756021 Si / 1000 Ang^3
#
#
#
# Elastic Constant Matrix: (Units=GPa)
#
#
# Indices 1 2 3 4 5 6 
#
# 1 121.8145 41.6276 28.7387 5.3917 -3.3662 -12.0162
# 2 41.6276 76.2276 41.5563 -8.8775 -2.5022 -1.3267
# 3 28.7387 41.5563 122.2697 -18.4386 13.7294 -2.3894
# 4 5.3917 -8.8775 -18.4386 29.8390 2.9507 1.0066
# 5 -3.3662 -2.5022 13.7294 2.9507 39.0298 -0.7184
# 6 -12.0162 -1.3267 -2.3894 1.0066 -0.7184 33.9163
#
#
#
# Elastic Compliance Matrix: (Units=1/GPa)
#
#
# Indices 1 2 3 4 5 6 
#
# 1 0.011163 -0.005721 -0.001528 -0.004948 0.001578 0.003804
# 2 -0.005721 0.019428 -0.005003 0.003560 0.002212 -0.001678
# 3 -0.001528 -0.005003 0.011802 0.006592 -0.005106 -0.000210
# 4 -0.004948 0.003560 0.006592 0.040177 -0.005600 -0.002460
# 5 0.001578 0.002212 -0.005106 -0.005600 0.028138 0.001048
# 6 0.003804 -0.001678 -0.000210 -0.002460 0.001048 0.030847
#
#
# Mechanical properties :
#
#
# Convention : Reuss Voigt Hill
#
# Bulk Modulus (GPa) = 55.90185 60.46191 58.18188
# Shear Modulus (GPa) = 29.06630 34.44964 31.75797
#
# Velocity S-wave (km/s) = 3.65911 3.98358 3.82479
# Velocity P-wave (km/s) = 6.60324 7.00070 6.80487
#
# Compressibility (1/GPa) = 0.01788849
#
# Stress axis : x y z
#
# Youngs Moduli (GPa) = 89.58536 51.47193 84.73464
#
# Poissons Ratio (x) = 0.29447 0.12950
# Poissons Ratio (y) = 0.51251 0.42390
# Poissons Ratio (z) = 0.13691 0.25750
#
# Static dielectric constant tensor:
#      x y z
#    x 4.201250 -0.011440 -0.000360 
#    y -0.011440 3.667780 -0.333060 
#    z -0.000360 -0.333060 3.927330 
# 
# 
# High freq. dielectric constant tensor:
#      x y z
#    x 1.875660 0.000030 -0.001070 
#    y 0.000030 1.824620 -0.033690 
#    z -0.001070 -0.033690 1.856390 
# 
# From -- ./inp_files/519361.got.cif
#   From: 2010.06.25/outbox.cif.g09.slc.cpg/sg2_260_cif.got.tgz:519361.got - 2010.06.27 13:26:56.
