data_PCOD8042765
_publ_section_title
;
Structure prediction by ZEFSAII (Michael W. Deem and Ramdas Pophale) SiO2 
 PCOD8042765
Probable space group: P -1
;
_chemical_formula_sum "Si O2"
_cell_formula_units_Z 14
_cell_length_a 15.166333
_cell_length_b 15.406036
_cell_length_c 9.466016
_cell_angle_alpha 128.791894
_cell_angle_beta 109.740550
_cell_angle_gamma 27.102794
_cell_volume 616.610147
_symmetry_space_group_name_H-M "P -1"
_symmetry_group_IT_number 2
_symmetry_cell_setting 'triclinic'
loop_
_space_group_symop_operation_xyz
x,y,z
-x,-y,-z
loop_
_atom_site_type_symbol
_atom_site_label
_atom_site_fract_x
_atom_site_fract_y
_atom_site_fract_z
Si Si1 0.561012 0.309689 0.886113
Si Si2 0.083703 0.431973 0.256260
Si Si3 0.908255 0.414843 0.024550
Si Si4 0.404521 0.062238 0.312882
Si Si5 0.150082 0.722150 0.307881
Si Si6 0.889803 0.346866 0.502119
Si Si7 0.650029 0.633787 0.370217
O O1 0.515737 0.280078 0.697211
O O2 0.500000 0.500000 0.000000
O O3 0.402750 0.452295 0.082863
O O4 0.844725 0.984578 0.747275
O O5 0.070264 0.350674 0.044106
O O6 0.829038 0.714234 0.491540
O O7 0.320580 0.142893 0.186818
O O8 0.115153 0.521629 0.302134
O O9 0.890663 0.391096 0.153403
O O10 0.631248 0.734400 0.138610
O O11 0.019146 0.192939 0.762669
O O12 0.493857 0.090081 0.422061
O O13 0.209408 0.628334 0.406928
O O14 0.000000 0.000000 0.500000
O O15 0.720157 0.521839 0.451818
#
# Coordination Sequence:
#
# PCOD8042765 Si02
#       7
#     2   2   2   2   2   2   2
#     4  11  22  42  67  84 118 168 206 244 310 357
#     4   9  17  31  59  95 116 158 193 242 310 359
#     4  10  19  35  61  86 125 159 198 245 300 363
#     4   9  16  32  59  91 126 148 197 246 299 369
#     4  11  24  43  60  90 125 160 209 258 294 355
#     4  11  22  41  66  90 129 153 202 258 301 365
#     4   9  20  36  62  98 120 159 201 252 305 361
#
# _framework density 22.704784
#
# number of rings (size 3 to 8) (size 9 to 14) (size 15 to 20)
#    0.000    2.000    1.429    5.143    0.000    1.143 
#    0.000    7.857    0.000    0.000    0.000    0.000 
#    0.000    0.000    0.000    0.000    0.000    0.000 
#
# Total GULP energy -173539.605518 kJ/mol
# GULP energy per Si atom -12395.686108 kJ/mol
# Density = 2.265311 g / cm^3
# Si number density = 22.704784 Si / 1000 Ang^3
#
#
#
# Elastic Constant Matrix: (Units=GPa)
#
#
# Indices 1 2 3 4 5 6 
#
# 1 107.0605 46.8161 42.8559 -4.1322 9.3348 26.6860
# 2 46.8161 70.6854 35.3847 -11.0707 5.0284 18.5184
# 3 42.8559 35.3847 90.9330 -8.0049 13.5755 6.9767
# 4 -4.1322 -11.0707 -8.0049 16.0528 5.9770 -3.3856
# 5 9.3348 5.0284 13.5755 5.9770 45.0059 -6.5972
# 6 26.6860 18.5184 6.9767 -3.3856 -6.5972 38.6553
#
#
#
# Elastic Compliance Matrix: (Units=1/GPa)
#
#
# Indices 1 2 3 4 5 6 
#
# 1 0.015999 -0.006884 -0.004323 -0.003694 -0.001870 -0.007609
# 2 -0.006884 0.024510 -0.004381 0.012710 -0.002485 -0.005510
# 3 -0.004323 -0.004381 0.015621 0.005494 -0.003747 0.002106
# 4 -0.003694 0.012710 0.005494 0.077562 -0.012595 0.000113
# 5 -0.001870 -0.002485 -0.003747 -0.012595 0.026656 0.006604
# 6 -0.007609 -0.005510 0.002106 0.000113 0.006604 0.034519
#
#
# Mechanical properties :
#
#
# Convention : Reuss Voigt Hill
#
# Bulk Modulus (GPa) = 40.07430 57.64359 48.85895
# Shear Modulus (GPa) = 21.33462 29.51764 25.42613
#
# Velocity S-wave (km/s) = 3.06870 3.60955 3.35006
# Velocity P-wave (km/s) = 5.49949 6.54333 6.04399
#
# Compressibility (1/GPa) = 0.02495365
#
# Stress axis : x y z
#
# Youngs Moduli (GPa) = 62.50583 40.79900 64.01687
#
# Poissons Ratio (x) = 0.28085 0.27677
# Poissons Ratio (y) = 0.43027 0.28045
# Poissons Ratio (z) = 0.27024 0.17874
#
# Static dielectric constant tensor:
#      x y z
#    x 4.404430 0.157680 0.428010 
#    y 0.157680 4.024040 -0.092460 
#    z 0.428010 -0.092460 4.217780 
# 
# 
# High freq. dielectric constant tensor:
#      x y z
#    x 1.898890 0.013740 0.012830 
#    y 0.013740 1.881830 -0.011790 
#    z 0.012830 -0.011790 1.885150 
# 
# From -- ./inp_files/315953.got.cif
#   From: 2010.06.25/outbox.cif.g09.slc.cpg/sg2_158_cif.got.tgz:315953.got - 2010.06.27 13:26:56.
