data_PCOD8042217
_publ_section_title
;
Structure prediction by ZEFSAII (Michael W. Deem and Ramdas Pophale) SiO2 
 PCOD8042217
Probable space group: P -1
;
_chemical_formula_sum "Si O2"
_cell_formula_units_Z 16
_cell_length_a 30.084679
_cell_length_b 15.369311
_cell_length_c 9.066979
_cell_angle_alpha 132.030492
_cell_angle_beta 142.060057
_cell_angle_gamma 18.785871
_cell_volume 764.531457
_symmetry_space_group_name_H-M "P -1"
_symmetry_group_IT_number 2
_symmetry_cell_setting 'triclinic'
loop_
_space_group_symop_operation_xyz
x,y,z
-x,-y,-z
loop_
_atom_site_type_symbol
_atom_site_label
_atom_site_fract_x
_atom_site_fract_y
_atom_site_fract_z
Si Si1 0.807542 0.242001 0.325439
Si Si2 0.674393 0.319336 0.784674
Si Si3 0.122272 0.145526 0.404830
Si Si4 0.419172 0.192491 0.643226
Si Si5 0.272505 0.555335 0.147018
Si Si6 0.390457 0.082675 0.697261
Si Si7 0.746352 0.803559 0.245100
Si Si8 0.088070 0.008862 0.385735
O O1 0.693804 0.528112 0.392032
O O2 0.840629 0.105928 0.393230
O O3 0.702978 0.310197 0.018671
O O4 0.000000 0.000000 0.500000
O O5 0.500000 0.500000 0.500000
O O6 0.656872 0.468765 0.827435
O O7 0.850142 0.988281 0.807785
O O8 0.261123 0.046224 0.634950
O O9 0.162040 0.019381 0.520064
O O10 0.918497 0.493403 0.261226
O O11 0.301575 0.282222 0.549490
O O12 0.500000 0.000000 0.500000
O O13 0.576395 0.000618 0.945018
O O14 0.168497 0.775894 0.252954
O O15 0.454004 0.231199 0.323102
O O16 0.132309 0.667521 0.837769
O O17 0.247489 0.227145 0.594487
O O18 0.500000 0.000000 0.000000
#
# Coordination Sequence:
#
# PCOD8042217 Si02
#       8
#     2   2   2   2   2   2   2   2
#     4  12  25  38  62  96 130 159 212 263 308 377
#     4  11  22  40  64  90 129 164 211 254 325 371
#     4  10  22  40  64  88 121 171 206 263 308 378
#     4  11  24  39  62  93 129 164 201 260 321 368
#     4  10  19  36  59  90 115 161 209 256 305 382
#     4  10  19  34  60  84 118 156 209 252 301 366
#     4  10  22  40  62  88 122 161 222 250 308 377
#     4  10  21  36  60  88 124 157 207 258 317 365
#
# _framework density 20.927851
#
# number of rings (size 3 to 8) (size 9 to 14) (size 15 to 20)
#    0.000    1.500    1.250    5.250    3.500    0.000 
#    0.000    8.125    0.000    3.000    0.000    0.000 
#    0.000    0.000    0.000    0.000    0.000    0.000 
#
# Total GULP energy -198295.498061 kJ/mol
# GULP energy per Si atom -12393.468629 kJ/mol
# Density = 2.088022 g / cm^3
# Si number density = 20.927851 Si / 1000 Ang^3
#
#
#
# Elastic Constant Matrix: (Units=GPa)
#
#
# Indices 1 2 3 4 5 6 
#
# 1 151.9767 18.7097 44.4490 13.6132 1.5362 11.4186
# 2 18.7097 82.9811 13.2457 10.9894 -2.4584 4.1001
# 3 44.4490 13.2457 79.3761 7.4699 -1.8380 -0.3024
# 4 13.6132 10.9894 7.4699 23.3207 0.0782 4.4567
# 5 1.5362 -2.4584 -1.8380 0.0782 31.1592 -0.8140
# 6 11.4186 4.1001 -0.3024 4.4567 -0.8140 31.9272
#
#
#
# Elastic Compliance Matrix: (Units=1/GPa)
#
#
# Indices 1 2 3 4 5 6 
#
# 1 0.008384 -0.000740 -0.004350 -0.002654 -0.000789 -0.002594
# 2 -0.000740 0.013178 -0.001271 -0.005244 0.000997 -0.000682
# 3 -0.004350 -0.001271 0.015491 -0.002250 0.001091 0.002207
# 4 -0.002654 -0.005244 -0.002250 0.048618 -0.000674 -0.005203
# 5 -0.000789 0.000997 0.001091 -0.000674 0.032305 0.001082
# 6 -0.002594 -0.000682 0.002207 -0.005203 0.001082 0.033111
#
#
# Mechanical properties :
#
#
# Convention : Reuss Voigt Hill
#
# Bulk Modulus (GPa) = 41.09668 51.90476 46.50072
# Shear Modulus (GPa) = 29.08336 33.14338 31.11337
#
# Velocity S-wave (km/s) = 3.73191 3.98389 3.85995
# Velocity P-wave (km/s) = 6.18461 6.78361 6.49103
#
# Compressibility (1/GPa) = 0.02433287
#
# Stress axis : x y z
#
# Youngs Moduli (GPa) = 119.27761 75.88228 64.55163
#
# Poissons Ratio (x) = 0.05613 0.28078
# Poissons Ratio (y) = 0.08824 0.08204
# Poissons Ratio (z) = 0.51883 0.09644
#
# Static dielectric constant tensor:
#      x y z
#    x 4.409530 -0.054920 0.069660 
#    y -0.054920 2.763670 0.665750 
#    z 0.069660 0.665750 3.212000 
# 
# 
# High freq. dielectric constant tensor:
#      x y z
#    x 1.835040 -0.000770 0.003500 
#    y -0.000770 1.843340 0.009320 
#    z 0.003500 0.009320 1.771000 
# 
# From -- ./inp_files/358821.got.cif
#   From: 2010.06.25/outbox.cif.g09.slc.cpg/sg2_180_cif.got.tgz:358821.got - 2010.06.27 13:26:56.
