data_PCOD8042739
_publ_section_title
;
Structure prediction by ZEFSAII (Michael W. Deem and Ramdas Pophale) SiO2 
 PCOD8042739
Probable space group: P -1
;
_chemical_formula_sum "Si O2"
_cell_formula_units_Z 16
_cell_length_a 9.487039
_cell_length_b 14.209235
_cell_length_c 21.253064
_cell_angle_alpha 21.450052
_cell_angle_beta 113.204968
_cell_angle_gamma 104.911541
_cell_volume 910.500073
_symmetry_space_group_name_H-M "P -1"
_symmetry_group_IT_number 2
_symmetry_cell_setting 'triclinic'
loop_
_space_group_symop_operation_xyz
x,y,z
-x,-y,-z
loop_
_atom_site_type_symbol
_atom_site_label
_atom_site_fract_x
_atom_site_fract_y
_atom_site_fract_z
Si Si1 0.807694 0.584990 0.396726
Si Si2 0.101420 0.668351 0.024025
Si Si3 0.744290 0.696331 0.074837
Si Si4 0.957706 0.534155 0.332017
Si Si5 0.851665 0.095652 0.238623
Si Si6 0.617873 0.171702 0.050239
Si Si7 0.142965 0.866395 0.228112
Si Si8 0.928683 0.266767 0.279070
O O1 0.803118 0.584180 0.320656
O O2 0.752956 0.350888 0.566680
O O3 0.000000 0.500000 0.500000
O O4 0.692130 0.871867 0.221361
O O5 0.292464 0.635543 0.088701
O O6 0.056035 0.768641 0.880760
O O7 0.000932 0.898463 0.910840
O O8 0.072476 0.384666 0.210999
O O9 0.890203 0.594941 0.212560
O O10 0.786087 0.490130 0.151930
O O11 0.573773 0.703930 0.069985
O O12 0.730839 0.001827 0.862096
O O13 0.066894 0.224852 0.547435
O O14 0.066254 0.723965 0.249789
O O15 0.666980 0.156112 0.142974
O O16 0.847482 0.210342 0.236181
O O17 0.000000 0.000000 0.500000
#
# Coordination Sequence:
#
# PCOD8042739 Si02
#       8
#     2   2   2   2   2   2   2   2
#     4  10  15  33  60  79 105 145 187 206 260 337
#     4   9  18  36  61  79 103 143 195 212 262 333
#     4  11  25  33  53  86 122 131 181 234 283 302
#     4  11  17  35  59  83 106 147 186 220 259 336
#     4  10  18  36  63  76 103 149 194 208 265 327
#     4  10  20  37  57  84 110 146 173 232 274 319
#     4  10  17  35  58  84 105 149 182 221 261 333
#     4  11  22  37  58  83 106 144 187 232 261 322
#
# _framework density 17.572762000000001
#
# number of rings (size 3 to 8) (size 9 to 14) (size 15 to 20)
#    0.750    1.000    7.500    0.750    0.000    1.500 
#    0.000    0.625    2.750    0.000    0.000    0.000 
#    0.000    0.000    0.000    0.000    0.000    0.000 
#
# Total GULP energy -198209.518021 kJ/mol
# GULP energy per Si atom -12388.094876 kJ/mol
# Density = 1.753277 g / cm^3
# Si number density = 17.572762 Si / 1000 Ang^3
#
#
#
# Elastic Constant Matrix: (Units=GPa)
#
#
# Indices 1 2 3 4 5 6 
#
# 1 66.3206 17.3762 25.9028 -5.7570 -1.0018 4.9269
# 2 17.3762 88.7588 21.8369 -18.5894 -0.9750 -11.6633
# 3 25.9028 21.8369 70.7974 -11.5776 -14.6470 5.9507
# 4 -5.7570 -18.5894 -11.5776 17.0065 -3.0042 -3.9093
# 5 -1.0018 -0.9750 -14.6470 -3.0042 28.5980 -0.4831
# 6 4.9269 -11.6633 5.9507 -3.9093 -0.4831 19.6084
#
#
#
# Elastic Compliance Matrix: (Units=1/GPa)
#
#
# Indices 1 2 3 4 5 6 
#
# 1 0.018630 -0.003695 -0.006560 -0.004125 -0.003364 -0.005794
# 2 -0.003695 0.019826 -0.001923 0.023684 0.002355 0.018084
# 3 -0.006560 -0.001923 0.021855 0.011897 0.012090 -0.003458
# 4 -0.004125 0.023684 0.011897 0.101999 0.018017 0.032293
# 5 -0.003364 0.002355 0.012090 0.018017 0.043069 0.003231
# 6 -0.005794 0.018084 -0.003458 0.032293 0.003231 0.070778
#
#
# Mechanical properties :
#
#
# Convention : Reuss Voigt Hill
#
# Bulk Modulus (GPa) = 27.81262 39.56764 33.69013
# Shear Modulus (GPa) = 16.00006 23.75997 19.88002
#
# Velocity S-wave (km/s) = 3.02073 3.68107 3.36713
# Velocity P-wave (km/s) = 5.29414 6.37435 5.85919
#
# Compressibility (1/GPa) = 0.03595490
#
# Stress axis : x y z
#
# Youngs Moduli (GPa) = 53.67639 50.43987 45.75537
#
# Poissons Ratio (x) = 0.18640 0.30016
# Poissons Ratio (y) = 0.19836 0.08797
# Poissons Ratio (z) = 0.35212 0.09698
#
# Static dielectric constant tensor:
#      x y z
#    x 3.343410 -0.218550 -0.407950 
#    y -0.218550 3.401430 -0.099780 
#    z -0.407950 -0.099780 3.244040 
# 
# 
# High freq. dielectric constant tensor:
#      x y z
#    x 1.661440 -0.017660 -0.021890 
#    y -0.017660 1.676610 -0.014460 
#    z -0.021890 -0.014460 1.670080 
# 
# From -- ./inp_files/468932.got.cif
#   From: 2010.06.25/outbox.cif.g09.slc.cpg/sg2_235_cif.got.tgz:468932.got - 2010.06.27 13:26:56.
