data_PCOD8042405
_publ_section_title
;
Structure prediction by ZEFSAII (Michael W. Deem and Ramdas Pophale) SiO2 
 PCOD8042405
Probable space group: P -1
;
_chemical_formula_sum "Si O2"
_cell_formula_units_Z 16
_cell_length_a 11.132973
_cell_length_b 19.597112
_cell_length_c 9.272814
_cell_angle_alpha 89.478436
_cell_angle_beta 55.369094
_cell_angle_gamma 133.796399
_cell_volume 883.712913
_symmetry_space_group_name_H-M "P -1"
_symmetry_group_IT_number 2
_symmetry_cell_setting 'triclinic'
loop_
_space_group_symop_operation_xyz
x,y,z
-x,-y,-z
loop_
_atom_site_type_symbol
_atom_site_label
_atom_site_fract_x
_atom_site_fract_y
_atom_site_fract_z
Si Si1 0.097421 0.921717 0.249419
Si Si2 0.233950 0.383956 0.881309
Si Si3 0.607269 0.753052 0.408111
Si Si4 0.293624 0.345303 0.541061
Si Si5 0.102418 0.187984 0.046872
Si Si6 0.553321 0.964787 0.250670
Si Si7 0.749705 0.014954 0.541975
Si Si8 0.678459 0.225501 0.356679
O O1 0.170894 0.980871 0.354197
O O2 0.870116 0.879741 0.326254
O O3 0.969986 0.793937 0.354148
O O4 0.372551 0.028564 0.962526
O O5 0.186318 0.350432 0.744399
O O6 0.523574 0.538986 0.698501
O O7 0.249324 0.319825 0.963899
O O8 0.995003 0.338219 0.103646
O O9 0.516286 0.640659 0.520706
O O10 0.361973 0.709483 0.593415
O O11 0.706775 0.789101 0.172331
O O12 0.023320 0.121689 0.253230
O O13 0.828128 0.096964 0.143971
O O14 0.345990 0.945106 0.386954
O O15 0.407821 0.845518 0.435495
O O16 0.509968 0.872975 0.645671
#
# Coordination Sequence:
#
# PCOD8042405 Si02
#       8
#     2   2   2   2   2   2   2   2
#     4   9  19  33  44  69 107 127 149 189 248 284
#     4  10  15  31  55  71  90 123 167 201 223 277
#     4   8  19  34  44  72  99 127 155 193 240 280
#     4   8  18  33  49  69  98 126 157 196 237 272
#     4   9  16  31  48  71  97 121 163 193 235 276
#     4  10  17  30  48  73  99 120 157 202 236 272
#     4  11  18  28  50  74  98 125 156 197 235 288
#     4  11  19  29  53  76  93 123 162 197 238 273
#
# _framework density 18.105428
#
# number of rings (size 3 to 8) (size 9 to 14) (size 15 to 20)
#    0.750    1.750    3.750    1.125    0.000    5.500 
#    0.000    0.625    0.000    0.000    0.000    0.875 
#    0.000    0.000    0.000    0.000    0.000    0.000 
#
# Total GULP energy -198284.785656 kJ/mol
# GULP energy per Si atom -12392.799104 kJ/mol
# Density = 1.806422 g / cm^3
# Si number density = 18.105428 Si / 1000 Ang^3
#
#
#
# Elastic Constant Matrix: (Units=GPa)
#
#
# Indices 1 2 3 4 5 6 
#
# 1 38.8230 14.8189 26.3438 17.4510 -4.0812 -10.1014
# 2 14.8189 28.2831 33.5385 4.6614 4.2848 0.3073
# 3 26.3438 33.5385 107.0115 9.5129 10.6683 1.1968
# 4 17.4510 4.6614 9.5129 28.5789 -4.0374 2.3932
# 5 -4.0812 4.2848 10.6683 -4.0374 27.5305 8.7934
# 6 -10.1014 0.3073 1.1968 2.3932 8.7934 20.6615
#
#
#
# Elastic Compliance Matrix: (Units=1/GPa)
#
#
# Indices 1 2 3 4 5 6 
#
# 1 0.063596 -0.019734 -0.006379 -0.036908 -0.002256 0.036990
# 2 -0.019734 0.062990 -0.015137 0.007198 -0.002824 -0.009340
# 3 -0.006379 -0.015137 0.016025 0.000648 -0.004004 -0.002193
# 4 -0.036908 0.007198 0.000648 0.060302 0.011621 -0.030119
# 5 -0.002256 -0.002824 -0.004004 0.011621 0.046732 -0.022064
# 6 0.036990 -0.009340 -0.002193 -0.030119 -0.022064 0.079628
#
#
# Mechanical properties :
#
#
# Convention : Reuss Voigt Hill
#
# Bulk Modulus (GPa) = 16.63599 35.94667 26.29133
# Shear Modulus (GPa) = 11.57916 21.98196 16.78056
#
# Velocity S-wave (km/s) = 2.53166 3.48819 3.04768
# Velocity P-wave (km/s) = 4.21356 6.01003 5.19011
#
# Compressibility (1/GPa) = 0.06011065
#
# Stress axis : x y z
#
# Youngs Moduli (GPa) = 15.72419 15.87563 62.40059
#
# Poissons Ratio (x) = 0.31329 0.39805
# Poissons Ratio (y) = 0.31030 0.94458
# Poissons Ratio (z) = 0.10030 0.24031
#
# Static dielectric constant tensor:
#      x y z
#    x 2.929370 -0.145750 0.119600 
#    y -0.145750 3.027180 0.064240 
#    z 0.119600 0.064240 3.574770 
# 
# 
# High freq. dielectric constant tensor:
#      x y z
#    x 1.660090 -0.022230 0.007480 
#    y -0.022230 1.667990 0.010890 
#    z 0.007480 0.010890 1.711800 
# 
# From -- ./inp_files/281954.got.cif
#   From: 2010.06.25/outbox.cif.g09.slc.cpg/sg2_141_cif.got.tgz:281954.got - 2010.06.27 13:26:56.
