data_PCOD8042546
_publ_section_title
;
Structure prediction by ZEFSAII (Michael W. Deem and Ramdas Pophale) SiO2 
 PCOD8042546
Probable space group: P -1
;
_chemical_formula_sum "Si O2"
_cell_formula_units_Z 14
_cell_length_a 25.097536
_cell_length_b 24.916540
_cell_length_c 8.162829
_cell_angle_alpha 137.853800
_cell_angle_beta 41.548057
_cell_angle_gamma 168.599765
_cell_volume 668.016224
_symmetry_space_group_name_H-M "P -1"
_symmetry_group_IT_number 2
_symmetry_cell_setting 'triclinic'
loop_
_space_group_symop_operation_xyz
x,y,z
-x,-y,-z
loop_
_atom_site_type_symbol
_atom_site_label
_atom_site_fract_x
_atom_site_fract_y
_atom_site_fract_z
Si Si1 0.330442 0.259703 0.878316
Si Si2 0.408977 0.770794 0.564031
Si Si3 0.799121 0.701261 0.241298
Si Si4 0.891436 0.310306 0.873459
Si Si5 0.241717 0.737869 0.610510
Si Si6 0.370855 0.191210 0.914710
Si Si7 0.918134 0.959746 0.357114
O O1 0.472118 0.325699 0.811544
O O2 0.257518 0.155092 0.628463
O O3 0.500000 0.500000 0.000000
O O4 0.065819 0.032452 0.075436
O O5 0.292223 0.705420 0.525556
O O6 0.558816 0.834497 0.301172
O O7 0.152346 0.501944 0.664418
O O8 0.623564 0.030557 0.755181
O O9 0.739496 0.734757 0.384245
O O10 0.530743 0.391001 0.142995
O O11 0.875889 0.785025 0.445487
O O12 0.049196 0.894003 0.012462
O O13 0.818764 0.245545 0.087554
O O14 0.000000 0.500000 0.000000
O O15 0.000000 0.500000 0.500000
O O16 0.500000 0.000000 0.500000
#
# Coordination Sequence:
#
# PCOD8042546 Si02
#       7
#     2   2   2   2   2   2   2
#     4  10  19  35  58  81 111 150 204 241 285 333
#     4  11  22  40  61  87 124 156 195 236 294 354
#     4  10  21  36  57  83 110 153 195 236 298 339
#     4  10  20  39  65  89 114 158 198 230 279 362
#     4  11  21  37  64  91 116 148 194 240 283 340
#     4  11  23  38  58  83 118 155 188 241 295 342
#     4   9  20  34  56  81 108 146 203 252 273 342
#
# _framework density 20.957576
#
# number of rings (size 3 to 8) (size 9 to 14) (size 15 to 20)
#    0.000    1.714    1.429    5.143    2.000    1.714 
#    0.000    4.286    0.000    0.000    0.000    0.000 
#    0.000    0.000    0.000    0.000    0.000    0.000 
#
# Total GULP energy -173485.685480 kJ/mol
# GULP energy per Si atom -12391.834677 kJ/mol
# Density = 2.090988 g / cm^3
# Si number density = 20.957576 Si / 1000 Ang^3
#
#
#
# Elastic Constant Matrix: (Units=GPa)
#
#
# Indices 1 2 3 4 5 6 
#
# 1 105.1906 25.4199 50.9631 15.3328 18.3919 19.8339
# 2 25.4199 88.5723 11.3040 11.6417 15.0505 9.3744
# 3 50.9631 11.3040 87.8431 13.8607 14.9662 13.4845
# 4 15.3328 11.6417 13.8607 41.3936 7.6630 12.6903
# 5 18.3919 15.0505 14.9662 7.6630 39.5040 2.9207
# 6 19.8339 9.3744 13.4845 12.6903 2.9207 31.8789
#
#
#
# Elastic Compliance Matrix: (Units=1/GPa)
#
#
# Indices 1 2 3 4 5 6 
#
# 1 0.015058 -0.002302 -0.007058 -0.000396 -0.002993 -0.005274
# 2 -0.002302 0.012886 0.000850 -0.001875 -0.003675 -0.001634
# 3 -0.007058 0.000850 0.016429 -0.002092 -0.002729 -0.001726
# 4 -0.000396 -0.001875 -0.002092 0.029074 -0.003239 -0.009594
# 5 -0.002993 -0.003675 -0.002729 -0.003239 0.029572 0.002677
# 6 -0.005274 -0.001634 -0.001726 -0.009594 0.002677 0.039435
#
#
# Mechanical properties :
#
#
# Convention : Reuss Voigt Hill
#
# Bulk Modulus (GPa) = 36.55796 50.77557 43.66676
# Shear Modulus (GPa) = 29.65777 35.48321 32.57049
#
# Velocity S-wave (km/s) = 3.76591 4.11919 3.94650
# Velocity P-wave (km/s) = 6.03250 6.84865 6.45349
#
# Compressibility (1/GPa) = 0.02735383
#
# Stress axis : x y z
#
# Youngs Moduli (GPa) = 66.41180 77.60217 60.86803
#
# Poissons Ratio (x) = 0.17864 0.42958
# Poissons Ratio (y) = 0.15288 -0.05174
# Poissons Ratio (z) = 0.46871 -0.06597
#
# Static dielectric constant tensor:
#      x y z
#    x 4.096350 0.129630 0.473660 
#    y 0.129630 4.056000 -0.315360 
#    z 0.473660 -0.315360 4.075510 
# 
# 
# High freq. dielectric constant tensor:
#      x y z
#    x 1.798350 0.013340 0.029620 
#    y 0.013340 1.835910 -0.005320 
#    z 0.029620 -0.005320 1.811330 
# 
# From -- ./inp_files/355954.got.cif
#   From: 2010.06.25/outbox.cif.g09.slc.cpg/sg2_178_cif.got.tgz:355954.got - 2010.06.27 13:26:56.
