data_PCOD8042049
_publ_section_title
;
Structure prediction by ZEFSAII (Michael W. Deem and Ramdas Pophale) SiO2 
 PCOD8042049
Probable space group: P -1
;
_chemical_formula_sum "Si O2"
_cell_formula_units_Z 14
_cell_length_a 11.603605
_cell_length_b 9.472715
_cell_length_c 8.535007
_cell_angle_alpha 103.724991
_cell_angle_beta 64.284122
_cell_angle_gamma 67.356872
_cell_volume 681.655339
_symmetry_space_group_name_H-M "P -1"
_symmetry_group_IT_number 2
_symmetry_cell_setting 'triclinic'
loop_
_space_group_symop_operation_xyz
x,y,z
-x,-y,-z
loop_
_atom_site_type_symbol
_atom_site_label
_atom_site_fract_x
_atom_site_fract_y
_atom_site_fract_z
Si Si1 0.912060 0.479466 0.686381
Si Si2 0.415980 0.806339 0.757269
Si Si3 0.685411 0.822770 0.102248
Si Si4 0.486064 0.306510 0.676217
Si Si5 0.057542 0.309442 0.860715
Si Si6 0.689609 0.443467 0.609950
Si Si7 0.211947 0.670309 0.824875
O O1 0.804899 0.417109 0.671244
O O2 0.000000 0.500000 0.500000
O O3 0.035592 0.323985 0.689128
O O4 0.810883 0.668106 0.877339
O O5 0.461076 0.789782 0.545300
O O6 0.557518 0.649367 0.728521
O O7 0.265138 0.800880 0.861621
O O8 0.378588 0.990671 0.893068
O O9 0.540820 0.807949 0.216788
O O10 0.765836 0.818923 0.220454
O O11 0.613437 0.337864 0.675358
O O12 0.322802 0.490238 0.804408
O O13 0.000000 0.500000 0.000000
O O14 0.959125 0.243390 0.984162
O O15 0.781698 0.369403 0.373613
#
# Coordination Sequence:
#
# PCOD8042049 Si02
#       7
#     2   2   2   2   2   2   2
#     4  11  23  36  57  80 108 149 185 226 269 318
#     4   9  20  33  58  87 112 138 176 228 279 317
#     4  11  21  35  57  85 111 142 183 225 271 321
#     4   9  17  34  58  84 104 143 183 222 261 322
#     4  10  19  34  57  78 104 142 194 223 254 319
#     4   9  19  35  59  82 112 139 180 223 273 328
#     4   9  16  36  58  82 103 145 188 222 260 321
#
# _framework density 20.538236000000001
#
# number of rings (size 3 to 8) (size 9 to 14) (size 15 to 20)
#    0.000    2.286    2.857    3.857    2.000    1.714 
#    0.000    0.000    0.000    4.286    0.000    0.000 
#    0.000    0.000    0.000    0.000    0.000    0.000 
#
# Total GULP energy -173562.481938 kJ/mol
# GULP energy per Si atom -12397.320138 kJ/mol
# Density = 2.049149 g / cm^3
# Si number density = 20.538236 Si / 1000 Ang^3
#
#
#
# Elastic Constant Matrix: (Units=GPa)
#
#
# Indices 1 2 3 4 5 6 
#
# 1 115.5141 31.8491 31.5767 -16.7129 7.3951 12.0666
# 2 31.8491 93.2327 31.6893 -12.2450 -5.1754 27.1462
# 3 31.5767 31.6893 62.1341 -19.7662 -6.3922 12.2007
# 4 -16.7129 -12.2450 -19.7662 27.2054 7.2640 -3.2372
# 5 7.3951 -5.1754 -6.3922 7.2640 28.2250 -9.3536
# 6 12.0666 27.1462 12.2007 -3.2372 -9.3536 29.7407
#
#
#
# Elastic Compliance Matrix: (Units=1/GPa)
#
#
# Indices 1 2 3 4 5 6 
#
# 1 0.011541 -0.001437 -0.003452 0.005279 -0.006570 -0.003446
# 2 -0.001437 0.016934 -0.004774 0.002381 -0.002687 -0.013501
# 3 -0.003452 -0.004774 0.025201 0.013344 0.001413 -0.002683
# 4 0.005279 0.002381 0.013344 0.053639 -0.014555 -0.008529
# 5 -0.006570 -0.002687 0.001413 -0.014555 0.046555 0.017596
# 6 -0.003446 -0.013501 -0.002683 -0.008529 0.017596 0.053052
#
#
# Mechanical properties :
#
#
# Convention : Reuss Voigt Hill
#
# Bulk Modulus (GPa) = 29.11271 51.23458 40.17365
# Shear Modulus (GPa) = 21.03508 28.75195 24.89351
#
# Velocity S-wave (km/s) = 3.20377 3.74561 3.48524
# Velocity P-wave (km/s) = 5.28121 6.61107 5.98320
#
# Compressibility (1/GPa) = 0.03434926
#
# Stress axis : x y z
#
# Youngs Moduli (GPa) = 86.64565 59.05236 39.68169
#
# Poissons Ratio (x) = 0.08487 0.13698
# Poissons Ratio (y) = 0.12452 0.18944
# Poissons Ratio (z) = 0.29911 0.28192
#
# Static dielectric constant tensor:
#      x y z
#    x 4.115820 0.074720 -0.105080 
#    y 0.074720 3.658150 -0.169690 
#    z -0.105080 -0.169690 3.530450 
# 
# 
# High freq. dielectric constant tensor:
#      x y z
#    x 1.804310 0.021830 -0.008110 
#    y 0.021830 1.788480 -0.014610 
#    z -0.008110 -0.014610 1.778370 
# 
# From -- ./inp_files/175391.got.cif
#   From: 2010.06.25/outbox.cif.g09.slc.cpg/sg2_88_cif.got.tgz:175391.got - 2010.06.27 13:26:56.
