data_PCOD8042793
_publ_section_title
;
Structure prediction by ZEFSAII (Michael W. Deem and Ramdas Pophale) SiO2 
 PCOD8042793
Probable space group: P -1
;
_chemical_formula_sum "Si O2"
_cell_formula_units_Z 14
_cell_length_a 9.997337
_cell_length_b 25.854519
_cell_length_c 10.072090
_cell_angle_alpha 26.314633
_cell_angle_beta 44.903367
_cell_angle_gamma 34.285036
_cell_volume 644.638486
_symmetry_space_group_name_H-M "P -1"
_symmetry_group_IT_number 2
_symmetry_cell_setting 'triclinic'
loop_
_space_group_symop_operation_xyz
x,y,z
-x,-y,-z
loop_
_atom_site_type_symbol
_atom_site_label
_atom_site_fract_x
_atom_site_fract_y
_atom_site_fract_z
Si Si1 0.697310 0.267364 0.810799
Si Si2 0.401597 0.846396 0.405681
Si Si3 0.536003 0.970160 0.251852
Si Si4 0.109102 0.039011 0.536297
Si Si5 0.001636 0.791829 0.506602
Si Si6 0.224586 0.467205 0.079707
Si Si7 0.790727 0.474641 0.348472
O O1 0.818429 0.207978 0.718343
O O2 0.833040 0.318923 0.678737
O O3 0.419510 0.408872 0.670635
O O4 0.717039 0.137959 0.169357
O O5 0.531289 0.870518 0.374703
O O6 0.540156 0.670892 0.693648
O O7 0.130276 0.912751 0.482660
O O8 0.406291 0.923674 0.092011
O O9 0.745764 0.859718 0.462425
O O10 0.271609 0.074242 0.266219
O O11 0.031210 0.115109 0.558362
O O12 0.129994 0.623419 0.848496
O O13 0.030449 0.441752 0.305640
O O14 0.278958 0.460452 0.901032
#
# Coordination Sequence:
#
# PCOD8042793 Si02
#       7
#     2   2   2   2   2   2   2
#     4  10  19  35  61  94 118 161 211 261 302 359
#     4  11  24  41  64  94 131 160 206 267 317 363
#     4  11  24  42  65  96 122 166 214 260 311 368
#     4  12  24  41  66  92 131 167 207 256 315 378
#     4  11  23  42  65  91 128 168 213 253 306 379
#     4  10  20  39  60  89 126 165 206 260 306 372
#     4   9  19  35  64  90 122 160 216 258 305 360
#
# _framework density 21.717597999999999
#
# number of rings (size 3 to 8) (size 9 to 14) (size 15 to 20)
#    0.000    1.429    1.429    5.571    2.000    0.571 
#    5.143    0.714    0.000    0.000    0.000    0.000 
#    0.000    0.000    0.000    0.000    0.000    0.000 
#
# Total GULP energy -173598.880145 kJ/mol
# GULP energy per Si atom -12399.920010 kJ/mol
# Density = 2.166817 g / cm^3
# Si number density = 21.717598 Si / 1000 Ang^3
#
#
#
# Elastic Constant Matrix: (Units=GPa)
#
#
# Indices 1 2 3 4 5 6 
#
# 1 41.8517 9.7443 13.3278 -4.1346 -7.1909 -6.7426
# 2 9.7443 96.9042 33.6111 5.6054 -11.1523 -17.3566
# 3 13.3278 33.6111 87.0887 -19.0207 -4.8285 -6.9323
# 4 -4.1346 5.6054 -19.0207 42.5526 -7.6609 -10.5399
# 5 -7.1909 -11.1523 -4.8285 -7.6609 16.2582 0.9986
# 6 -6.7426 -17.3566 -6.9323 -10.5399 0.9986 24.6424
#
#
#
# Elastic Compliance Matrix: (Units=1/GPa)
#
#
# Indices 1 2 3 4 5 6 
#
# 1 0.029443 0.000901 -0.001389 0.007754 0.016209 0.010960
# 2 0.000901 0.014317 -0.004571 -0.000227 0.008225 0.008614
# 3 -0.001389 -0.004571 0.016360 0.010030 0.005523 0.005068
# 4 0.007754 -0.000227 0.010030 0.037846 0.022854 0.020044
# 5 0.016209 0.008225 0.005523 0.022854 0.085617 0.018088
# 6 0.010960 0.008614 0.005068 0.020044 0.018088 0.058912
#
#
# Mechanical properties :
#
#
# Convention : Reuss Voigt Hill
#
# Bulk Modulus (GPa) = 19.99966 37.69013 28.84489
# Shear Modulus (GPa) = 18.56796 27.96808 23.26802
#
# Velocity S-wave (km/s) = 2.92716 3.59250 3.27676
# Velocity P-wave (km/s) = 4.54460 5.88221 5.25613
#
# Compressibility (1/GPa) = 0.05000085
#
# Stress axis : x y z
#
# Youngs Moduli (GPa) = 33.96378 69.84665 61.12625
#
# Poissons Ratio (x) = -0.06293 0.08491
# Poissons Ratio (y) = -0.03060 0.27943
# Poissons Ratio (z) = 0.04718 0.31929
#
# Static dielectric constant tensor:
#      x y z
#    x 3.543890 -0.166140 -0.212810 
#    y -0.166140 3.994650 0.056510 
#    z -0.212810 0.056510 3.973000 
# 
# 
# High freq. dielectric constant tensor:
#      x y z
#    x 1.820600 -0.017810 -0.022520 
#    y -0.017810 1.867660 -0.001600 
#    z -0.022520 -0.001600 1.853040 
# 
# From -- ./inp_files/225793.got.cif
#   From: 2010.06.25/outbox.cif.g09.slc.cpg/sg2_113_cif.got.tgz:225793.got - 2010.06.27 13:26:56.
