data_PCOD8042796
_publ_section_title
;
Structure prediction by ZEFSAII (Michael W. Deem and Ramdas Pophale) SiO2 
 PCOD8042796
Probable space group: P -1
;
_chemical_formula_sum "Si O2"
_cell_formula_units_Z 16
_cell_length_a 22.171569
_cell_length_b 9.694487
_cell_length_c 9.638739
_cell_angle_alpha 149.959107
_cell_angle_beta 128.763785
_cell_angle_gamma 49.992799
_cell_volume 781.239974
_symmetry_space_group_name_H-M "P -1"
_symmetry_group_IT_number 2
_symmetry_cell_setting 'triclinic'
loop_
_space_group_symop_operation_xyz
x,y,z
-x,-y,-z
loop_
_atom_site_type_symbol
_atom_site_label
_atom_site_fract_x
_atom_site_fract_y
_atom_site_fract_z
Si Si1 0.289272 0.245990 0.270058
Si Si2 0.610336 0.335542 0.150783
Si Si3 0.844392 0.519193 0.935175
Si Si4 0.702118 0.940877 0.571102
Si Si5 0.046982 0.072933 0.502796
Si Si6 0.960382 0.252196 0.262490
Si Si7 0.216992 0.573253 0.941236
Si Si8 0.539022 0.233001 0.685665
O O1 0.318040 0.528604 0.585736
O O2 0.209315 0.326410 0.134955
O O3 0.271743 0.119126 0.282333
O O4 0.357698 0.005600 0.075778
O O5 0.529061 0.514123 0.268036
O O6 0.585505 0.384399 0.995652
O O7 0.879740 0.187034 0.664145
O O8 0.918005 0.658757 0.181459
O O9 0.791863 0.547242 0.023316
O O10 0.720073 0.657711 0.258597
O O11 0.606211 0.075399 0.535785
O O12 0.751246 0.146509 0.755078
O O13 0.978555 0.154398 0.360145
O O14 0.000000 0.000000 0.500000
O O15 0.865961 0.352839 0.195917
O O16 0.000000 0.500000 0.500000
O O17 0.000000 0.000000 0.000000
O O18 0.500000 0.000000 0.500000
#
# Coordination Sequence:
#
# PCOD8042796 Si02
#       8
#     2   2   2   2   2   2   2   2
#     4  11  23  39  62  95 126 163 215 258 319 371
#     4  10  19  35  61  94 123 164 204 257 318 371
#     4  12  26  46  63  89 136 174 198 260 335 384
#     4  11  24  37  65  98 123 162 218 267 305 372
#     4  12  26  44  67  97 121 165 221 266 314 376
#     4  12  23  45  69  89 126 171 214 257 318 388
#     4  12  25  42  63  93 131 168 212 258 324 378
#     4  10  19  36  64  95 135 158 209 270 323 361
#
# _framework density 20.480262
#
# number of rings (size 3 to 8) (size 9 to 14) (size 15 to 20)
#    0.000    0.750    5.000    4.125    5.250    0.000 
#    0.000    0.000    0.000    4.500    0.000    0.000 
#    0.000    0.000    0.000    0.000    0.000    0.000 
#
# Total GULP energy -198377.415426 kJ/mol
# GULP energy per Si atom -12398.588464 kJ/mol
# Density = 2.043365 g / cm^3
# Si number density = 20.480262 Si / 1000 Ang^3
#
#
#
# Elastic Constant Matrix: (Units=GPa)
#
#
# Indices 1 2 3 4 5 6 
#
# 1 94.0103 24.7730 18.5694 -2.9238 -7.9135 1.5066
# 2 24.7730 63.4695 15.2423 0.3420 -11.3292 11.6970
# 3 18.5694 15.2423 97.5059 6.4636 0.3331 -0.6053
# 4 -2.9238 0.3420 6.4636 32.1476 -5.6501 -7.0817
# 5 -7.9135 -11.3292 0.3331 -5.6501 37.0874 6.3246
# 6 1.5066 11.6970 -0.6053 -7.0817 6.3246 35.4306
#
#
#
# Elastic Compliance Matrix: (Units=1/GPa)
#
#
# Indices 1 2 3 4 5 6 
#
# 1 0.012296 -0.004303 -0.001801 0.002004 0.001459 0.001007
# 2 -0.004303 0.020698 -0.002442 -0.000714 0.006687 -0.008028
# 3 -0.001801 -0.002442 0.011157 -0.002495 -0.001762 0.000889
# 4 0.002004 -0.000714 -0.002495 0.033909 0.004356 0.006108
# 5 0.001459 0.006687 -0.001762 0.004356 0.031190 -0.006997
# 6 0.001007 -0.008028 0.000889 0.006108 -0.006997 0.033317
#
#
# Mechanical properties :
#
#
# Convention : Reuss Voigt Hill
#
# Bulk Modulus (GPa) = 36.95274 41.35056 39.15165
# Shear Modulus (GPa) = 29.64238 34.02653 31.83445
#
# Velocity S-wave (km/s) = 3.80855 4.08049 3.94686
# Velocity P-wave (km/s) = 6.11738 6.51420 6.31890
#
# Compressibility (1/GPa) = 0.02706159
#
# Stress axis : x y z
#
# Youngs Moduli (GPa) = 81.32974 48.31300 89.62747
#
# Poissons Ratio (x) = 0.20788 0.16138
# Poissons Ratio (y) = 0.34994 0.21883
# Poissons Ratio (z) = 0.14644 0.11796
#
# Static dielectric constant tensor:
#      x y z
#    x 6.329670 -2.389140 1.030830 
#    y -2.389140 5.528130 -0.811380 
#    z 1.030830 -0.811380 4.465860 
# 
# 
# High freq. dielectric constant tensor:
#      x y z
#    x 1.789100 -0.025870 0.000300 
#    y -0.025870 1.789480 0.014550 
#    z 0.000300 0.014550 1.822910 
# 
# From -- ./inp_files/352526.got.cif
#   From: 2010.06.25/outbox.cif.g09.slc.cpg/sg2_177_cif.got.tgz:352526.got - 2010.06.27 13:26:56.
