data_PCOD8042355
_publ_section_title
;
Structure prediction by ZEFSAII (Michael W. Deem and Ramdas Pophale) SiO2 
 PCOD8042355
Probable space group: P -1
;
_chemical_formula_sum "Si O2"
_cell_formula_units_Z 14
_cell_length_a 21.981621
_cell_length_b 12.117530
_cell_length_c 8.533683
_cell_angle_alpha 128.141775
_cell_angle_beta 144.280493
_cell_angle_gamma 28.735146
_cell_volume 600.914978
_symmetry_space_group_name_H-M "P -1"
_symmetry_group_IT_number 2
_symmetry_cell_setting 'triclinic'
loop_
_space_group_symop_operation_xyz
x,y,z
-x,-y,-z
loop_
_atom_site_type_symbol
_atom_site_label
_atom_site_fract_x
_atom_site_fract_y
_atom_site_fract_z
Si Si1 0.976899 0.137236 0.286051
Si Si2 0.677361 0.893513 0.331817
Si Si3 0.278751 0.009359 0.809011
Si Si4 0.494847 0.329522 0.488356
Si Si5 0.971570 0.513661 0.133951
Si Si6 0.890174 0.306483 0.916600
Si Si7 0.389922 0.500441 0.058376
O O1 0.162704 0.001457 0.612942
O O2 0.996854 0.951243 0.130506
O O3 0.921686 0.288884 0.152002
O O4 0.817114 0.321856 0.243959
O O5 0.754842 0.901923 0.360190
O O6 0.852367 0.613199 0.516284
O O7 0.625169 0.050733 0.507691
O O8 0.500000 0.000000 0.000000
O O9 0.217596 0.202791 0.964493
O O10 0.488011 0.727160 0.005644
O O11 0.323061 0.480926 0.369103
O O12 0.442385 0.419581 0.278230
O O13 0.589100 0.355791 0.797875
O O14 0.959722 0.363299 0.017606
O O15 0.000000 0.500000 0.000000
#
# Coordination Sequence:
#
# PCOD8042355 Si02
#       7
#     2   2   2   2   2   2   2
#     4  10  19  34  68  99 124 162 224 285 320 374
#     4  11  23  39  68  99 127 170 230 277 314 387
#     4  11  22  39  64  98 127 167 228 276 320 389
#     4   9  17  32  58  96 130 154 209 277 326 371
#     4  12  27  44  62  93 142 181 211 266 343 403
#     4  10  19  37  61  95 132 170 212 272 335 379
#     4   9  18  31  57  99 132 154 205 280 338 370
#
# _framework density 23.297805
#
# number of rings (size 3 to 8) (size 9 to 14) (size 15 to 20)
#    0.000    1.714    2.857    2.143   10.000    0.000 
#    0.000    3.571    0.000    1.714    0.000    0.000 
#    0.000    0.000    0.000    0.000    0.000    0.000 
#
# Total GULP energy -173469.455820 kJ/mol
# GULP energy per Si atom -12390.675416 kJ/mol
# Density = 2.324478 g / cm^3
# Si number density = 23.297805 Si / 1000 Ang^3
#
#
#
# Elastic Constant Matrix: (Units=GPa)
#
#
# Indices 1 2 3 4 5 6 
#
# 1 103.9464 64.3643 52.2302 -4.3363 31.5968 -7.2981
# 2 64.3643 138.8190 34.9387 -9.9536 17.0984 -20.5073
# 3 52.2302 34.9387 71.7240 -8.7593 34.9201 -9.2927
# 4 -4.3363 -9.9536 -8.7593 23.9649 -8.2384 23.2918
# 5 31.5968 17.0984 34.9201 -8.2384 35.2876 -2.9935
# 6 -7.2981 -20.5073 -9.2927 23.2918 -2.9935 34.4053
#
#
#
# Elastic Compliance Matrix: (Units=1/GPa)
#
#
# Indices 1 2 3 4 5 6 
#
# 1 0.019985 -0.006397 -0.007873 -0.007204 -0.008480 0.002440
# 2 -0.006397 0.011134 -0.000439 -0.004712 0.000378 0.008384
# 3 -0.007873 -0.000439 0.033316 -0.009641 -0.027004 0.011244
# 4 -0.007204 -0.004712 -0.009641 0.156412 0.045556 -0.108865
# 5 -0.008480 0.000378 -0.027004 0.045556 0.070256 -0.033595
# 6 0.002440 0.008384 0.011244 -0.108865 -0.033595 0.108394
#
#
# Mechanical properties :
#
#
# Convention : Reuss Voigt Hill
#
# Bulk Modulus (GPa) = 28.55634 68.61730 48.58682
# Shear Modulus (GPa) = 11.34848 29.59531 20.47189
#
# Velocity S-wave (km/s) = 2.20944 3.56800 2.96751
# Velocity P-wave (km/s) = 4.33504 6.81838 5.71327
#
# Compressibility (1/GPa) = 0.03501849
#
# Stress axis : x y z
#
# Youngs Moduli (GPa) = 50.03655 89.81501 30.01572
#
# Poissons Ratio (x) = 0.57451 0.23631
# Poissons Ratio (y) = 0.32006 0.01318
# Poissons Ratio (z) = 0.39393 0.03943
#
# Static dielectric constant tensor:
#      x y z
#    x 3.941470 -0.078580 0.563990 
#    y -0.078580 4.558950 -0.269950 
#    z 0.563990 -0.269950 3.890050 
# 
# 
# High freq. dielectric constant tensor:
#      x y z
#    x 1.896480 -0.005410 0.052480 
#    y -0.005410 1.938640 -0.012180 
#    z 0.052480 -0.012180 1.881800 
# 
# From -- ./inp_files/346296.got.cif
#   From: 2010.06.25/outbox.cif.g09.slc.cpg/sg2_174_cif.got.tgz:346296.got - 2010.06.27 13:26:56.
