data_PCOD8042515
_publ_section_title
;
Structure prediction by ZEFSAII (Michael W. Deem and Ramdas Pophale) SiO2 
 PCOD8042515
Probable space group: P -1
;
_chemical_formula_sum "Si O2"
_cell_formula_units_Z 14
_cell_length_a 15.301154
_cell_length_b 8.941425
_cell_length_c 14.832309
_cell_angle_alpha 101.704765
_cell_angle_beta 28.089213
_cell_angle_gamma 119.230134
_cell_volume 693.753554
_symmetry_space_group_name_H-M "P -1"
_symmetry_group_IT_number 2
_symmetry_cell_setting 'triclinic'
loop_
_space_group_symop_operation_xyz
x,y,z
-x,-y,-z
loop_
_atom_site_type_symbol
_atom_site_label
_atom_site_fract_x
_atom_site_fract_y
_atom_site_fract_z
Si Si1 0.397662 0.541572 0.333796
Si Si2 0.862665 0.298818 0.949602
Si Si3 0.946959 0.379171 0.328192
Si Si4 0.280753 0.341489 0.112119
Si Si5 0.581780 0.401647 0.471541
Si Si6 0.037155 0.106338 0.672311
Si Si7 0.369629 0.075839 0.486828
O O1 0.241552 0.603939 0.453127
O O2 0.496669 0.618357 0.355316
O O3 0.217334 0.293795 0.461210
O O4 0.627603 0.646624 0.070763
O O5 0.862751 0.431569 0.889797
O O6 0.119246 0.454482 0.791993
O O7 0.855133 0.127891 0.889028
O O8 0.621484 0.185264 0.215472
O O9 0.098171 0.385975 0.274089
O O10 0.788850 0.166304 0.390107
O O11 0.500000 0.500000 0.000000
O O12 0.128387 0.109511 0.257602
O O13 0.500000 0.500000 0.500000
O O14 0.444408 0.174892 0.530611
O O15 0.206438 0.116827 0.593789
#
# Coordination Sequence:
#
# PCOD8042515 Si02
#       7
#     2   2   2   2   2   2   2
#     4  10  21  40  57  80 124 143 184 240 275 325
#     4  10  20  35  59  81 119 152 184 226 277 326
#     4   9  22  37  57  88 111 145 193 233 274 336
#     4  11  23  40  62  84 107 148 193 235 292 338
#     4  10  19  35  57  87 115 156 188 219 273 337
#     4   9  20  38  58  83 116 146 187 233 282 333
#     4  11  18  35  57  81 118 154 187 222 270 333
#
# _framework density 20.180078999999999
#
# number of rings (size 3 to 8) (size 9 to 14) (size 15 to 20)
#    0.000    2.286    2.857    2.143    0.000    3.429 
#    0.000    8.571    0.000    0.000    0.000    0.000 
#    0.000    0.000    0.000    0.000    0.000    0.000 
#
# Total GULP energy -173564.429980 kJ/mol
# GULP energy per Si atom -12397.459284 kJ/mol
# Density = 2.013415 g / cm^3
# Si number density = 20.180079 Si / 1000 Ang^3
#
#
#
# Elastic Constant Matrix: (Units=GPa)
#
#
# Indices 1 2 3 4 5 6 
#
# 1 69.5179 51.0438 17.2216 -12.0158 -19.0503 -2.0537
# 2 51.0438 108.5118 21.1065 -14.0313 -22.8193 -19.6732
# 3 17.2216 21.1065 49.2706 -1.0465 -0.1848 -0.4934
# 4 -12.0158 -14.0313 -1.0465 22.3961 13.7695 -3.2298
# 5 -19.0503 -22.8193 -0.1848 13.7695 25.3440 -5.5487
# 6 -2.0537 -19.6732 -0.4934 -3.2298 -5.5487 30.6966
#
#
#
# Elastic Compliance Matrix: (Units=1/GPa)
#
#
# Indices 1 2 3 4 5 6 
#
# 1 0.024977 -0.009150 -0.004770 0.001449 0.009175 -0.002459
# 2 -0.009150 0.020399 -0.005313 0.001092 0.014151 0.015049
# 3 -0.004770 -0.005313 0.024161 0.000346 -0.009478 -0.005013
# 4 0.001449 0.001092 0.000346 0.067374 -0.034153 0.001718
# 5 0.009175 0.014151 -0.009478 -0.034153 0.082132 0.020784
# 6 -0.002459 0.015049 -0.005013 0.001718 0.020784 0.045914
#
#
# Mechanical properties :
#
#
# Convention : Reuss Voigt Hill
#
# Bulk Modulus (GPa) = 32.18522 45.11603 38.65062
# Shear Modulus (GPa) = 15.93463 24.88257 20.40860
#
# Velocity S-wave (km/s) = 2.81307 3.51526 3.18358
# Velocity P-wave (km/s) = 5.15119 6.23549 5.71909
#
# Compressibility (1/GPa) = 0.03107017
#
# Stress axis : x y z
#
# Youngs Moduli (GPa) = 40.03624 49.02208 41.38904
#
# Poissons Ratio (x) = 0.44858 0.19742
# Poissons Ratio (y) = 0.36635 0.21991
# Poissons Ratio (z) = 0.19097 0.26046
#
# Static dielectric constant tensor:
#      x y z
#    x 3.410110 -0.239820 -0.160160 
#    y -0.239820 4.111190 -0.107380 
#    z -0.160160 -0.107380 3.570820 
# 
# 
# High freq. dielectric constant tensor:
#      x y z
#    x 1.764910 -0.021350 -0.016090 
#    y -0.021350 1.804030 -0.002980 
#    z -0.016090 -0.002980 1.782580 
# 
# From -- ./inp_files/307556.got.cif
#   From: 2010.06.25/outbox.cif.g09.slc.cpg/sg2_154_cif.got.tgz:307556.got - 2010.06.27 13:26:56.
