data_PCOD8042500
_publ_section_title
;
Structure prediction by ZEFSAII (Michael W. Deem and Ramdas Pophale) SiO2 
 PCOD8042500
Probable space group: P -1
;
_chemical_formula_sum "Si O2"
_cell_formula_units_Z 16
_cell_length_a 21.977749
_cell_length_b 17.944043
_cell_length_c 8.643904
_cell_angle_alpha 142.451214
_cell_angle_beta 54.675800
_cell_angle_gamma 152.664134
_cell_volume 851.674466
_symmetry_space_group_name_H-M "P -1"
_symmetry_group_IT_number 2
_symmetry_cell_setting 'triclinic'
loop_
_space_group_symop_operation_xyz
x,y,z
-x,-y,-z
loop_
_atom_site_type_symbol
_atom_site_label
_atom_site_fract_x
_atom_site_fract_y
_atom_site_fract_z
Si Si1 0.813481 0.549898 0.722957
Si Si2 0.621420 0.922257 0.409039
Si Si3 0.901066 0.933574 0.917857
Si Si4 0.322369 0.242967 0.836239
Si Si5 0.326373 0.766136 0.325400
Si Si6 0.715909 0.531367 0.300237
Si Si7 0.576529 0.235204 0.305984
Si Si8 0.337881 0.435875 0.873133
O O1 0.764302 0.364057 0.594080
O O2 0.737533 0.438267 0.481292
O O3 0.759854 0.593845 0.963800
O O4 0.992543 0.804933 0.866071
O O5 0.730103 0.970449 0.398161
O O6 0.524625 0.830960 0.542364
O O7 0.708738 0.156795 0.584493
O O8 0.512349 0.705557 0.088768
O O9 0.863075 0.788312 0.593348
O O10 0.751209 0.771301 0.951708
O O11 0.000000 0.000000 0.000000
O O12 0.279544 0.228526 0.701675
O O13 0.500000 0.500000 0.000000
O O14 0.500000 0.000000 0.500000
O O15 0.266225 0.572245 0.985076
O O16 0.590645 0.331992 0.286426
O O17 0.676155 0.584186 0.325408
O O18 0.500000 0.000000 0.000000
#
# Coordination Sequence:
#
# PCOD8042500 Si02
#       8
#     2   2   2   2   2   2   2   2
#     4  10  20  34  56  84 118 150 196 244 292 341
#     4  10  19  35  57  82 119 155 186 244 304 347
#     4  12  22  39  58  88 120 159 201 246 291 349
#     4  10  21  40  60  80 119 166 194 234 303 362
#     4  11  18  35  59  90 117 149 195 251 298 346
#     4  11  20  31  59  90 116 148 200 249 288 340
#     4  11  18  31  57  91 116 144 200 246 288 341
#     4   9  18  33  55  86 113 149 192 240 291 345
#
# _framework density 18.786521
#
# number of rings (size 3 to 8) (size 9 to 14) (size 15 to 20)
#    0.000    1.500    7.500    1.500    0.000    2.000 
#    0.000    6.250    0.000    3.000    0.000    0.000 
#    0.000    0.000    0.000    0.000    0.000    0.000 
#
# Total GULP energy -198212.643301 kJ/mol
# GULP energy per Si atom -12388.290206 kJ/mol
# Density = 1.874376 g / cm^3
# Si number density = 18.786521 Si / 1000 Ang^3
#
#
#
# Elastic Constant Matrix: (Units=GPa)
#
#
# Indices 1 2 3 4 5 6 
#
# 1 150.7687 43.1946 47.0287 -2.4929 -9.6807 -42.3336
# 2 43.1946 88.1901 27.6973 11.0389 4.1618 -21.7105
# 3 47.0287 27.6973 107.3817 3.3241 11.1416 -7.4792
# 4 -2.4929 11.0389 3.3241 20.8777 -8.7307 0.6837
# 5 -9.6807 4.1618 11.1416 -8.7307 26.6077 -1.6472
# 6 -42.3336 -21.7105 -7.4792 0.6837 -1.6472 40.4875
#
#
#
# Elastic Compliance Matrix: (Units=1/GPa)
#
#
# Indices 1 2 3 4 5 6 
#
# 1 0.013569 -0.003705 -0.005660 0.008924 0.011524 0.011473
# 2 -0.003705 0.016540 -0.001203 -0.012127 -0.007120 0.004688
# 3 -0.005660 -0.001203 0.012963 -0.005941 -0.009524 -0.004455
# 4 0.008924 -0.012127 -0.005941 0.068963 0.030371 0.001801
# 5 0.011524 -0.007120 -0.009524 0.030371 0.057357 0.008293
# 6 0.011473 0.004688 -0.004455 0.001801 0.008293 0.038694
#
#
# Mechanical properties :
#
#
# Convention : Reuss Voigt Hill
#
# Bulk Modulus (GPa) = 45.58521 64.68686 55.13603
# Shear Modulus (GPa) = 21.13878 32.82257 26.98068
#
# Velocity S-wave (km/s) = 3.35805 4.18441 3.79380
# Velocity P-wave (km/s) = 6.27319 7.60612 6.97158
#
# Compressibility (1/GPa) = 0.02193694
#
# Stress axis : x y z
#
# Youngs Moduli (GPa) = 73.69993 60.46128 77.14013
#
# Poissons Ratio (x) = 0.22398 0.43660
# Poissons Ratio (y) = 0.27302 0.09280
# Poissons Ratio (z) = 0.41713 0.07273
#
# Static dielectric constant tensor:
#      x y z
#    x 3.979220 -0.567120 -0.048050 
#    y -0.567120 3.727740 0.146630 
#    z -0.048050 0.146630 3.438690 
# 
# 
# High freq. dielectric constant tensor:
#      x y z
#    x 1.725720 -0.043990 -0.000760 
#    y -0.043990 1.713240 0.003120 
#    z -0.000760 0.003120 1.710380 
# 
# From -- ./inp_files/252966.got.cif
#   From: 2010.06.25/outbox.cif.g09.slc.cpg/sg2_127_cif.got.tgz:252966.got - 2010.06.27 13:26:56.
