data_PCOD8042133
_publ_section_title
;
Structure prediction by ZEFSAII (Michael W. Deem and Ramdas Pophale) SiO2 
 PCOD8042133
Probable space group: P -1
;
_chemical_formula_sum "Si O2"
_cell_formula_units_Z 16
_cell_length_a 15.038772
_cell_length_b 14.666283
_cell_length_c 11.587223
_cell_angle_alpha 124.929449
_cell_angle_beta 28.766247
_cell_angle_gamma 138.569848
_cell_volume 784.541322
_symmetry_space_group_name_H-M "P -1"
_symmetry_group_IT_number 2
_symmetry_cell_setting 'triclinic'
loop_
_space_group_symop_operation_xyz
x,y,z
-x,-y,-z
loop_
_atom_site_type_symbol
_atom_site_label
_atom_site_fract_x
_atom_site_fract_y
_atom_site_fract_z
Si Si1 0.914304 0.364911 0.079659
Si Si2 0.753205 0.541655 0.777480
Si Si3 0.954069 0.506049 0.737925
Si Si4 0.370684 0.805549 0.047692
Si Si5 0.708819 0.664512 0.419030
Si Si6 0.936170 0.151669 0.442726
Si Si7 0.785014 0.844361 0.677938
Si Si8 0.588574 0.842742 0.583137
O O1 0.630814 0.245030 0.317237
O O2 0.967251 0.384598 0.169628
O O3 0.000000 0.500000 0.000000
O O4 0.039408 0.301885 0.843240
O O5 0.769212 0.502305 0.862006
O O6 0.819085 0.460936 0.563310
O O7 0.962890 0.713213 0.655361
O O8 0.500000 0.500000 0.000000
O O9 0.833589 0.362805 0.842813
O O10 0.253079 0.877434 0.267438
O O11 0.567668 0.846503 0.948608
O O12 0.490743 0.854426 0.822612
O O13 0.500000 0.500000 0.500000
O O14 0.690745 0.711828 0.601696
O O15 0.702002 0.763254 0.407808
O O16 0.157781 0.185549 0.285040
O O17 0.798099 0.005242 0.419274
O O18 0.000000 0.000000 0.500000
#
# Coordination Sequence:
#
# PCOD8042133 Si02
#       8
#     2   2   2   2   2   2   2   2
#     4  12  22  37  61  89 128 164 194 248 319 380
#     4  10  23  43  67  86 116 162 217 267 300 354
#     4  10  22  41  61  94 116 158 216 254 306 368
#     4  10  19  34  58  85 127 153 195 255 303 369
#     4  11  22  35  53  86 132 163 201 242 304 376
#     4  11  22  36  60  86 121 161 208 253 312 361
#     4  11  21  33  55  90 125 163 199 244 310 370
#     4  11  22  35  53  94 126 159 198 247 311 382
#
# _framework density 20.394081
#
# number of rings (size 3 to 8) (size 9 to 14) (size 15 to 20)
#    0.000    1.250    5.000    2.625    3.500    1.000 
#    0.000    0.625    0.000    1.500    0.000    0.000 
#    0.000    0.000    0.000    0.000    0.000    0.000 
#
# Total GULP energy -198272.491177 kJ/mol
# GULP energy per Si atom -12392.030699 kJ/mol
# Density = 2.034766 g / cm^3
# Si number density = 20.394081 Si / 1000 Ang^3
#
#
#
# Elastic Constant Matrix: (Units=GPa)
#
#
# Indices 1 2 3 4 5 6 
#
# 1 92.4160 18.5281 20.0329 2.0674 -12.3719 11.7807
# 2 18.5281 104.1866 1.0421 -0.6174 5.5455 6.5804
# 3 20.0329 1.0421 56.8392 0.4073 -19.3372 0.3680
# 4 2.0674 -0.6174 0.4073 13.4491 -0.6659 -7.7858
# 5 -12.3719 5.5455 -19.3372 -0.6659 33.7022 -4.0780
# 6 11.7807 6.5804 0.3680 -7.7858 -4.0780 31.1877
#
#
#
# Elastic Compliance Matrix: (Units=1/GPa)
#
#
# Indices 1 2 3 4 5 6 
#
# 1 0.013170 -0.002111 -0.003761 -0.005050 0.002265 -0.005450
# 2 -0.002111 0.010248 -0.000429 -0.000406 -0.002939 -0.001846
# 3 -0.003761 -0.000429 0.023113 0.002491 0.012422 0.003484
# 4 -0.005050 -0.000406 0.002491 0.089691 0.004431 0.024934
# 5 0.002265 -0.002939 0.012422 0.004431 0.038905 0.005811
# 6 -0.005450 -0.001846 0.003484 0.024934 0.005811 0.041455
#
#
# Mechanical properties :
#
#
# Convention : Reuss Voigt Hill
#
# Bulk Modulus (GPa) = 29.47273 36.96088 33.21680
# Shear Modulus (GPa) = 20.79065 29.92372 25.35718
#
# Velocity S-wave (km/s) = 3.19634 3.83466 3.52996
# Velocity P-wave (km/s) = 5.30142 6.14563 5.73907
#
# Compressibility (1/GPa) = 0.03392967
#
# Stress axis : x y z
#
# Youngs Moduli (GPa) = 75.93049 97.57632 43.26645
#
# Poissons Ratio (x) = 0.20596 0.16273
# Poissons Ratio (y) = 0.16027 0.01855
# Poissons Ratio (z) = 0.28558 0.04184
#
# Static dielectric constant tensor:
#      x y z
#    x 3.751420 0.057080 -0.412010 
#    y 0.057080 3.861770 0.049330 
#    z -0.412010 0.049330 3.793840 
# 
# 
# High freq. dielectric constant tensor:
#      x y z
#    x 1.784600 -0.001240 -0.036610 
#    y -0.001240 1.802600 0.002540 
#    z -0.036610 0.002540 1.782880 
# 
# From -- ./inp_files/454918.got.cif
#   From: 2010.06.25/outbox.cif.g09.slc.cpg/sg2_228_cif.got.tgz:454918.got - 2010.06.27 13:26:56.
