data_PCOD8042917
_publ_section_title
;
Structure prediction by ZEFSAII (Michael W. Deem and Ramdas Pophale) SiO2 
 PCOD8042917
Probable space group: P -1
;
_chemical_formula_sum "Si O2"
_cell_formula_units_Z 16
_cell_length_a 15.947273
_cell_length_b 11.527202
_cell_length_c 12.191930
_cell_angle_alpha 105.056730
_cell_angle_beta 28.737938
_cell_angle_gamma 124.210056
_cell_volume 721.779327
_symmetry_space_group_name_H-M "P -1"
_symmetry_group_IT_number 2
_symmetry_cell_setting 'triclinic'
loop_
_space_group_symop_operation_xyz
x,y,z
-x,-y,-z
loop_
_atom_site_type_symbol
_atom_site_label
_atom_site_fract_x
_atom_site_fract_y
_atom_site_fract_z
Si Si1 0.599183 0.772373 0.885780
Si Si2 0.913782 0.685494 0.934863
Si Si3 0.736920 0.180870 0.987204
Si Si4 0.004766 0.011706 0.126522
Si Si5 0.230294 0.885910 0.832899
Si Si6 0.254885 0.783835 0.388675
Si Si7 0.972371 0.172086 0.525077
Si Si8 0.487604 0.684550 0.754979
O O1 0.525138 0.665250 0.833745
O O2 0.754934 0.757045 0.780420
O O3 0.762886 0.965752 0.703339
O O4 0.359828 0.705989 0.210077
O O5 0.013272 0.748881 0.960217
O O6 0.092521 0.683983 0.660410
O O7 0.634963 0.490399 0.210345
O O8 0.912570 0.811048 0.898470
O O9 0.807337 0.215954 0.043489
O O10 0.710371 0.305148 0.014440
O O11 0.478160 0.984423 0.211529
O O12 0.956220 0.227514 0.676285
O O13 0.737588 0.848649 0.445892
O O14 0.206332 0.012075 0.935210
O O15 0.000000 0.000000 0.000000
O O16 0.500000 0.000000 0.500000
O O17 0.074658 0.751446 0.494363
#
# Coordination Sequence:
#
# PCOD8042917 Si02
#       8
#     2   2   2   2   2   2   2   2
#     4  10  20  35  63  96 131 175 217 276 325 391
#     4  11  25  41  67  99 129 178 220 268 331 398
#     4  11  19  37  66  92 131 170 219 276 326 391
#     4  10  22  43  67  90 126 172 217 272 326 392
#     4  11  22  42  67  95 128 172 219 270 336 392
#     4  11  19  40  63  92 131 173 222 267 331 388
#     4  10  19  35  64  97 120 177 229 263 334 392
#     4  12  22  42  67  97 136 172 218 272 336 389
#
# _framework density 22.167439999999999
#
# number of rings (size 3 to 8) (size 9 to 14) (size 15 to 20)
#    0.000    1.250    5.000    2.250    0.000    5.000 
#    0.000    3.125    0.000    0.000    0.000    0.000 
#    0.000    0.000    0.000    0.000    0.000    0.000 
#
# Total GULP energy -198364.849540 kJ/mol
# GULP energy per Si atom -12397.803096 kJ/mol
# Density = 2.211699 g / cm^3
# Si number density = 22.167440 Si / 1000 Ang^3
#
#
#
# Elastic Constant Matrix: (Units=GPa)
#
#
# Indices 1 2 3 4 5 6 
#
# 1 103.5979 20.0966 30.9832 13.9485 -8.0858 10.7032
# 2 20.0966 91.8485 51.8839 -3.5420 -7.9884 9.1133
# 3 30.9832 51.8839 82.7222 27.8099 -4.1366 -9.8402
# 4 13.9485 -3.5420 27.8099 35.3423 -3.0189 -0.7894
# 5 -8.0858 -7.9884 -4.1366 -3.0189 32.5249 11.9942
# 6 10.7032 9.1133 -9.8402 -0.7894 11.9942 28.3645
#
#
#
# Elastic Compliance Matrix: (Units=1/GPa)
#
#
# Indices 1 2 3 4 5 6 
#
# 1 0.013792 0.006943 -0.012903 0.005897 0.009919 -0.015942
# 2 0.006943 0.045488 -0.049123 0.041780 0.026941 -0.044507
# 3 -0.012903 -0.049123 0.072683 -0.058534 -0.032907 0.058154
# 4 0.005897 0.041780 -0.058534 0.077614 0.028374 -0.045794
# 5 0.009919 0.026941 -0.032907 0.028374 0.055409 -0.046456
# 6 -0.015942 -0.044507 0.058154 -0.045794 -0.046456 0.094115
#
#
# Mechanical properties :
#
#
# Convention : Reuss Voigt Hill
#
# Bulk Modulus (GPa) = 45.88212 53.78845 49.83528
# Shear Modulus (GPa) = 10.49244 30.92665 20.70955
#
# Velocity S-wave (km/s) = 2.17797 3.73921 3.05984
# Velocity P-wave (km/s) = 5.20266 6.55435 5.91723
#
# Compressibility (1/GPa) = 0.02179498
#
# Stress axis : x y z
#
# Youngs Moduli (GPa) = 72.50494 21.98390 13.75845
#
# Poissons Ratio (x) = -0.15264 0.17753
# Poissons Ratio (y) = -0.50341 0.67586
# Poissons Ratio (z) = 0.93556 1.07993
#
# Static dielectric constant tensor:
#      x y z
#    x 3.960000 0.002930 0.075740 
#    y 0.002930 4.146520 0.341340 
#    z 0.075740 0.341340 3.743940 
# 
# 
# High freq. dielectric constant tensor:
#      x y z
#    x 1.872380 0.004020 0.001450 
#    y 0.004020 1.859220 0.029860 
#    z 0.001450 0.029860 1.864670 
# 
# From -- ./inp_files/452453.got.cif
#   From: 2010.06.25/outbox.cif.g09.slc.cpg/sg2_227_cif.got.tgz:452453.got - 2010.06.27 13:26:56.
