data_PCOD8042468
_publ_section_title
;
Structure prediction by ZEFSAII (Michael W. Deem and Ramdas Pophale) SiO2 
 PCOD8042468
Probable space group: P -1
;
_chemical_formula_sum "Si O2"
_cell_formula_units_Z 14
_cell_length_a 6.848801
_cell_length_b 17.956653
_cell_length_c 13.842362
_cell_angle_alpha 32.719195
_cell_angle_beta 66.448865
_cell_angle_gamma 49.817780
_cell_volume 659.331260
_symmetry_space_group_name_H-M "P -1"
_symmetry_group_IT_number 2
_symmetry_cell_setting 'triclinic'
loop_
_space_group_symop_operation_xyz
x,y,z
-x,-y,-z
loop_
_atom_site_type_symbol
_atom_site_label
_atom_site_fract_x
_atom_site_fract_y
_atom_site_fract_z
Si Si1 0.695862 0.221063 0.310882
Si Si2 0.691699 0.915997 0.962499
Si Si3 0.706784 0.401890 0.807513
Si Si4 0.711306 0.200933 0.545504
Si Si5 0.828736 0.427995 0.967555
Si Si6 0.714808 0.999466 0.397753
Si Si7 0.421620 0.241168 0.010714
O O1 0.648118 0.180832 0.470667
O O2 0.388675 0.374994 0.163846
O O3 0.837855 0.055625 0.391894
O O4 0.871821 0.291830 0.189185
O O5 0.542060 0.881547 0.949979
O O6 0.743457 0.050215 0.767237
O O7 0.975865 0.730302 0.142238
O O8 0.500000 0.000000 0.000000
O O9 0.539435 0.602796 0.581241
O O10 0.700507 0.404676 0.922626
O O11 0.561571 0.330132 0.864311
O O12 0.999369 0.172813 0.516342
O O13 0.103455 0.396540 0.923196
O O14 0.551300 0.130444 0.201401
O O15 0.500000 0.000000 0.500000
#
# Coordination Sequence:
#
# PCOD8042468 Si02
#       7
#     2   2   2   2   2   2   2
#     4  10  19  35  56  88 133 170 208 244 296 368
#     4  11  25  48  70  89 120 164 212 272 331 372
#     4  10  22  43  64  96 128 160 209 264 313 379
#     4  11  23  42  63  91 137 165 209 263 304 373
#     4   9  19  35  58  89 130 172 201 248 303 367
#     4  12  22  33  58  97 129 170 211 242 301 376
#     4  11  21  40  65  90 129 164 208 261 316 369
#
# _framework density 21.233637999999999
#
# number of rings (size 3 to 8) (size 9 to 14) (size 15 to 20)
#    0.000    1.429    2.857    3.000    2.000    1.714 
#    2.571    0.714    0.000    0.000    0.000    0.000 
#    0.000    0.000    0.000    0.000    0.000    0.000 
#
# Total GULP energy -173447.437111 kJ/mol
# GULP energy per Si atom -12389.102651 kJ/mol
# Density = 2.118531 g / cm^3
# Si number density = 21.233638 Si / 1000 Ang^3
#
#
#
# Elastic Constant Matrix: (Units=GPa)
#
#
# Indices 1 2 3 4 5 6 
#
# 1 85.5116 24.4035 16.3044 -1.5832 -15.9432 -9.0031
# 2 24.4035 118.2511 39.5143 -10.3082 -5.0614 -19.6184
# 3 16.3044 39.5143 82.6268 -14.6435 -3.5148 -10.9256
# 4 -1.5832 -10.3082 -14.6435 31.0541 -1.9878 5.4612
# 5 -15.9432 -5.0614 -3.5148 -1.9878 12.4183 -5.6959
# 6 -9.0031 -19.6184 -10.9256 5.4612 -5.6959 26.7090
#
#
#
# Elastic Compliance Matrix: (Units=1/GPa)
#
#
# Indices 1 2 3 4 5 6 
#
# 1 0.018586 -0.000394 -0.000627 0.000295 0.029004 0.011844
# 2 -0.000394 0.011565 -0.003917 0.001003 0.006945 0.008035
# 3 -0.000627 -0.003917 0.015728 0.005822 0.004401 0.003093
# 4 0.000295 0.001003 0.005822 0.036217 0.006996 -0.002696
# 5 0.029004 0.006945 0.004401 0.006996 0.144043 0.045966
# 6 0.011844 0.008035 0.003093 -0.002696 0.045966 0.058954
#
#
# Mechanical properties :
#
#
# Convention : Reuss Voigt Hill
#
# Bulk Modulus (GPa) = 27.77585 49.64822 38.71203
# Shear Modulus (GPa) = 16.28822 27.78074 22.03448
#
# Velocity S-wave (km/s) = 2.77265 3.62102 3.22485
# Velocity P-wave (km/s) = 4.83318 6.39648 5.66898
#
# Compressibility (1/GPa) = 0.03600250
#
# Stress axis : x y z
#
# Youngs Moduli (GPa) = 53.80254 86.47078 63.58276
#
# Poissons Ratio (x) = 0.03407 0.03987
# Poissons Ratio (y) = 0.02120 0.24906
# Poissons Ratio (z) = 0.03373 0.33871
#
# Static dielectric constant tensor:
#      x y z
#    x 3.966210 -0.163770 0.126020 
#    y -0.163770 3.782830 -0.350000 
#    z 0.126020 -0.350000 3.885080 
# 
# 
# High freq. dielectric constant tensor:
#      x y z
#    x 1.828770 -0.020060 0.013990 
#    y -0.020060 1.821180 -0.023420 
#    z 0.013990 -0.023420 1.825210 
# 
# From -- ./inp_files/90306.got.cif
#   From: 2010.06.25/outbox.cif.g09.slc.cpg/sg2_46_cif.got.tgz:90306.got - 2010.06.27 13:26:56.
