data_PCOD8042694
_publ_section_title
;
Structure prediction by ZEFSAII (Michael W. Deem and Ramdas Pophale) SiO2 
 PCOD8042694
Probable space group: P -1
;
_chemical_formula_sum "Si O2"
_cell_formula_units_Z 16
_cell_length_a 12.063951
_cell_length_b 25.029616
_cell_length_c 8.521026
_cell_angle_alpha 65.484256
_cell_angle_beta 41.635404
_cell_angle_gamma 34.327108
_cell_volume 811.427946
_symmetry_space_group_name_H-M "P -1"
_symmetry_group_IT_number 2
_symmetry_cell_setting 'triclinic'
loop_
_space_group_symop_operation_xyz
x,y,z
-x,-y,-z
loop_
_atom_site_type_symbol
_atom_site_label
_atom_site_fract_x
_atom_site_fract_y
_atom_site_fract_z
Si Si1 0.357785 0.478993 0.856612
Si Si2 0.763989 0.966677 0.813697
Si Si3 0.850238 0.237485 0.152723
Si Si4 0.662349 0.811769 0.847233
Si Si5 0.248134 0.388284 0.775210
Si Si6 0.161632 0.738652 0.225339
Si Si7 0.687253 0.196611 0.797954
Si Si8 0.187546 0.651065 0.729143
O O1 0.537041 0.396829 0.916640
O O2 0.384129 0.541828 0.747483
O O3 0.546644 0.395159 0.605272
O O4 0.979932 0.581644 0.133295
O O5 0.981660 0.872517 0.834558
O O6 0.972684 0.921155 0.496150
O O7 0.500000 0.000000 0.000000
O O8 0.612536 0.071242 0.912544
O O9 0.473738 0.353530 0.453534
O O10 0.991244 0.250937 0.082758
O O11 0.911887 0.225864 0.919169
O O12 0.843670 0.803064 0.551709
O O13 0.916343 0.707857 0.828621
O O14 0.487281 0.810242 0.942694
O O15 0.460557 0.287401 0.790566
O O16 0.000000 0.500000 0.000000
O O17 0.254077 0.772547 0.167869
#
# Coordination Sequence:
#
# PCOD8042694 Si02
#       8
#     2   2   2   2   2   2   2   2
#     4  10  19  35  60  87 115 156 199 243 291 339
#     4  11  20  41  68  87 112 154 208 255 288 338
#     4  11  24  38  58  89 123 158 193 242 307 358
#     4  11  21  40  66  89 113 157 205 251 291 340
#     4  11  18  36  62  84 113 156 205 244 279 342
#     4  11  24  40  56  89 134 158 183 239 310 368
#     4  11  22  39  64  92 117 151 207 248 288 350
#     4  10  19  35  61  88 113 150 210 246 277 350
#
# _framework density 19.718325
#
# number of rings (size 3 to 8) (size 9 to 14) (size 15 to 20)
#    0.000    1.250    6.250    1.875    0.000    1.500 
#    2.250    0.625    0.000    0.000    0.000    0.000 
#    0.000    0.000    0.000    0.000    0.000    0.000 
#
# Total GULP energy -198293.054918 kJ/mol
# GULP energy per Si atom -12393.315932 kJ/mol
# Density = 1.967345 g / cm^3
# Si number density = 19.718325 Si / 1000 Ang^3
#
#
#
# Elastic Constant Matrix: (Units=GPa)
#
#
# Indices 1 2 3 4 5 6 
#
# 1 73.4217 18.4167 43.0474 -17.3795 -8.9795 4.8406
# 2 18.4167 73.7594 23.6068 3.9624 4.5317 5.8335
# 3 43.0474 23.6068 97.4467 1.4448 -16.8880 1.3161
# 4 -17.3795 3.9624 1.4448 30.5342 2.3756 -3.0618
# 5 -8.9795 4.5317 -16.8880 2.3756 30.1533 -6.0150
# 6 4.8406 5.8335 1.3161 -3.0618 -6.0150 29.2737
#
#
#
# Elastic Compliance Matrix: (Units=1/GPa)
#
#
# Indices 1 2 3 4 5 6 
#
# 1 0.023734 -0.003559 -0.009673 0.014251 0.000839 -0.001117
# 2 -0.003559 0.016409 -0.003310 -0.003957 -0.005898 -0.004158
# 3 -0.009673 -0.003310 0.016783 -0.006243 0.008007 0.002497
# 4 0.014251 -0.003957 -0.006243 0.042063 -0.001409 0.002823
# 5 0.000839 -0.005898 0.008007 -0.001409 0.040668 0.008885
# 6 -0.001117 -0.004158 0.002497 0.002823 0.008885 0.037183
#
#
# Mechanical properties :
#
#
# Convention : Reuss Voigt Hill
#
# Bulk Modulus (GPa) = 41.94270 46.08551 44.01410
# Shear Modulus (GPa) = 22.94927 28.62939 25.78933
#
# Velocity S-wave (km/s) = 3.41523 3.81454 3.62039
# Velocity P-wave (km/s) = 6.07197 6.54397 6.31239
#
# Compressibility (1/GPa) = 0.02384205
#
# Stress axis : x y z
#
# Youngs Moduli (GPa) = 42.13447 60.94041 59.58239
#
# Poissons Ratio (x) = 0.21688 0.57634
# Poissons Ratio (y) = 0.14995 0.19724
# Poissons Ratio (z) = 0.40756 0.20174
#
# Static dielectric constant tensor:
#      x y z
#    x 3.425900 0.117150 -0.233640 
#    y 0.117150 3.547210 0.035710 
#    z -0.233640 0.035710 3.379940 
# 
# 
# High freq. dielectric constant tensor:
#      x y z
#    x 1.745800 0.010900 -0.024750 
#    y 0.010900 1.768870 0.012020 
#    z -0.024750 0.012020 1.766260 
# 
# From -- ./inp_files/211675.got.cif
#   From: 2010.06.25/outbox.cif.g09.slc.cpg/sg2_106_cif.got.tgz:211675.got - 2010.06.27 13:26:56.
