data_PCOD8042284
_publ_section_title
;
Structure prediction by ZEFSAII (Michael W. Deem and Ramdas Pophale) SiO2 
 PCOD8042284
Probable space group: P -1
;
_chemical_formula_sum "Si O2"
_cell_formula_units_Z 16
_cell_length_a 11.295228
_cell_length_b 11.274654
_cell_length_c 16.496675
_cell_angle_alpha 60.919458
_cell_angle_beta 147.918915
_cell_angle_gamma 127.081522
_cell_volume 888.630274
_symmetry_space_group_name_H-M "P -1"
_symmetry_group_IT_number 2
_symmetry_cell_setting 'triclinic'
loop_
_space_group_symop_operation_xyz
x,y,z
-x,-y,-z
loop_
_atom_site_type_symbol
_atom_site_label
_atom_site_fract_x
_atom_site_fract_y
_atom_site_fract_z
Si Si1 0.900004 0.356007 0.654994
Si Si2 0.672374 0.641114 0.196524
Si Si3 0.601932 0.174197 0.991137
Si Si4 0.122908 0.820497 0.147326
Si Si5 0.376706 0.152091 0.156511
Si Si6 0.499511 0.358871 0.304357
Si Si7 0.696493 0.352209 0.136681
Si Si8 0.980542 0.337648 0.024949
O O1 0.795516 0.234047 0.705393
O O2 0.670049 0.367543 0.475669
O O3 0.051779 0.307211 0.692790
O O4 0.063044 0.515519 0.735298
O O5 0.627888 0.777739 0.166686
O O6 0.613855 0.510812 0.270061
O O7 0.489015 0.581760 0.032029
O O8 0.769542 0.216215 0.995456
O O9 0.762009 0.260490 0.133808
O O10 0.500000 0.000000 0.000000
O O11 0.082810 0.700001 0.093609
O O12 0.332733 0.979479 0.190631
O O13 0.871988 0.834831 0.016347
O O14 0.473275 0.221720 0.277192
O O15 0.576966 0.236683 0.177763
O O16 0.237000 0.332186 0.197438
O O17 0.000000 0.500000 0.000000
#
# Coordination Sequence:
#
# PCOD8042284 Si02
#       8
#     2   2   2   2   2   2   2   2
#     4  12  21  36  59  90 116 144 193 232 303 326
#     4  10  20  35  61  85 111 145 191 242 273 337
#     4  10  21  36  62  87 106 146 197 238 276 324
#     4  10  21  34  57  82 112 152 186 243 273 341
#     4  10  19  36  55  85 114 143 192 231 298 321
#     4  11  23  35  59  86 119 152 180 242 286 348
#     4  10  19  34  62  84 110 145 191 242 270 340
#     4  11  20  39  60  80 115 151 199 230 273 339
#
# _framework density 18.005237999999999
#
# number of rings (size 3 to 8) (size 9 to 14) (size 15 to 20)
#    0.750    0.750    3.750    3.750    0.000    1.500 
#    0.000    2.500    0.000    0.750    0.000    0.000 
#    0.000    0.000    0.000    0.000    0.000    0.000 
#
# Total GULP energy -198378.544761 kJ/mol
# GULP energy per Si atom -12398.659048 kJ/mol
# Density = 1.796426 g / cm^3
# Si number density = 18.005238 Si / 1000 Ang^3
#
#
#
# Elastic Constant Matrix: (Units=GPa)
#
#
# Indices 1 2 3 4 5 6 
#
# 1 96.8234 31.9062 41.1461 -13.9699 3.0922 7.9722
# 2 31.9062 103.3126 44.1141 -25.8230 -11.4277 4.3339
# 3 41.1461 44.1141 105.8453 -6.0319 -13.7744 0.9231
# 4 -13.9699 -25.8230 -6.0319 13.8835 1.6399 -3.3860
# 5 3.0922 -11.4277 -13.7744 1.6399 22.2188 -4.9848
# 6 7.9722 4.3339 0.9231 -3.3860 -4.9848 31.7065
#
#
#
# Elastic Compliance Matrix: (Units=1/GPa)
#
#
# Indices 1 2 3 4 5 6 
#
# 1 0.015393 0.000960 -0.006507 0.014495 -0.007526 -0.003447
# 2 0.000960 0.022957 -0.007031 0.040513 0.004751 0.001899
# 3 -0.006507 -0.007031 0.015180 -0.013505 0.008144 0.001993
# 4 0.014495 0.040513 -0.013505 0.158023 0.000620 0.008184
# 5 -0.007526 0.004751 0.008144 0.000620 0.055707 0.009830
# 6 -0.003447 0.001899 0.001993 0.008184 0.009830 0.034508
#
#
# Mechanical properties :
#
#
# Convention : Reuss Voigt Hill
#
# Bulk Modulus (GPa) = 35.24292 60.03492 47.63892
# Shear Modulus (GPa) = 14.86409 26.14940 20.50675
#
# Velocity S-wave (km/s) = 2.87634 3.81507 3.37847
# Velocity P-wave (km/s) = 5.53600 7.26786 6.46023
#
# Compressibility (1/GPa) = 0.02837449
#
# Stress axis : x y z
#
# Youngs Moduli (GPa) = 64.96667 43.55931 65.87422
#
# Poissons Ratio (x) = -0.04182 0.42865
# Poissons Ratio (y) = -0.06237 0.46315
# Poissons Ratio (z) = 0.42274 0.30626
#
# Static dielectric constant tensor:
#      x y z
#    x -1.356650 -0.370680 -0.340090 
#    y -0.370680 3.323330 -0.071530 
#    z -0.340090 -0.071530 3.049520 
# 
# 
# High freq. dielectric constant tensor:
#      x y z
#    x 1.705700 0.005360 -0.009380 
#    y 0.005360 1.701920 -0.007200 
#    z -0.009380 -0.007200 1.663310 
# 
# From -- ./inp_files/282237.got.cif
#   From: 2010.06.25/outbox.cif.g09.slc.cpg/sg2_142_cif.got.tgz:282237.got - 2010.06.27 13:26:56.
