data_PCOD8042677
_publ_section_title
;
Structure prediction by ZEFSAII (Michael W. Deem and Ramdas Pophale) SiO2 
 PCOD8042677
Probable space group: P -1
;
_chemical_formula_sum "Si O2"
_cell_formula_units_Z 12
_cell_length_a 8.190363
_cell_length_b 9.360442
_cell_length_c 9.045835
_cell_angle_alpha 102.299120
_cell_angle_beta 70.622967
_cell_angle_gamma 122.106279
_cell_volume 553.581806
_symmetry_space_group_name_H-M "P -1"
_symmetry_group_IT_number 2
_symmetry_cell_setting 'triclinic'
loop_
_space_group_symop_operation_xyz
x,y,z
-x,-y,-z
loop_
_atom_site_type_symbol
_atom_site_label
_atom_site_fract_x
_atom_site_fract_y
_atom_site_fract_z
Si Si1 0.973683 0.703411 0.355491
Si Si2 0.839761 0.449862 0.909668
Si Si3 0.694901 0.649984 0.148569
Si Si4 0.660068 0.957627 0.750854
Si Si5 0.429613 0.125047 0.924187
Si Si6 0.378230 0.387428 0.376964
O O1 0.837168 0.694475 0.256201
O O2 0.851334 0.658031 0.536687
O O3 0.059065 0.573514 0.275387
O O4 0.150931 0.895297 0.358424
O O5 0.640316 0.271606 0.959945
O O6 0.776216 0.594151 0.967853
O O7 0.000000 0.500000 0.000000
O O8 0.675318 0.810250 0.144762
O O9 0.472041 0.493369 0.221632
O O10 0.603166 0.779555 0.657665
O O11 0.471393 0.989085 0.798268
O O12 0.713133 0.960375 0.910230
O O13 0.500000 0.500000 0.500000
#
# Coordination Sequence:
#
# PCOD8042677 Si02
#       6
#     2   2   2   2   2   2
#     4   9  20  35  55  83 113 148 178 221 282 329
#     4   9  17  32  54  81 108 140 180 226 265 317
#     4  10  19  35  60  84 109 141 191 229 264 322
#     4  10  20  36  57  79 115 146 181 223 282 328
#     4  10  20  34  59  86 108 144 186 229 274 320
#     4  10  20  36  59  80 108 151 185 221 274 332
#
# _framework density 21.677014
#
# number of rings (size 3 to 8) (size 9 to 14) (size 15 to 20)
#    0.000    2.333    1.667    1.000    0.000    0.667 
#    0.000    6.667    3.667    0.000    0.000    0.000 
#    0.000    0.000    0.000    0.000    0.000    0.000 
#
# Total GULP energy -148658.922389 kJ/mol
# GULP energy per Si atom -12388.243532 kJ/mol
# Density = 2.162768 g / cm^3
# Si number density = 21.677014 Si / 1000 Ang^3
#
#
#
# Elastic Constant Matrix: (Units=GPa)
#
#
# Indices 1 2 3 4 5 6 
#
# 1 62.5579 22.0955 43.0736 -2.7603 -20.4107 -23.5377
# 2 22.0955 82.8241 39.5124 16.4313 -20.1525 -28.0100
# 3 43.0736 39.5124 72.7804 13.8731 -37.7119 -23.2580
# 4 -2.7603 16.4313 13.8731 34.0504 -4.1212 -5.9241
# 5 -20.4107 -20.1525 -37.7119 -4.1212 35.8387 8.4960
# 6 -23.5377 -28.0100 -23.2580 -5.9241 8.4960 42.8584
#
#
#
# Elastic Compliance Matrix: (Units=1/GPa)
#
#
# Indices 1 2 3 4 5 6 
#
# 1 0.033462 0.001462 -0.021829 0.012144 -0.004058 0.009970
# 2 0.001462 0.019196 -0.006416 -0.004733 0.002253 0.008766
# 3 -0.021829 -0.006416 0.053920 -0.015439 0.038120 0.003389
# 4 0.012144 -0.004733 -0.015439 0.038313 -0.008082 0.002096
# 5 -0.004058 0.002253 0.038120 -0.008082 0.064619 0.006004
# 6 0.009970 0.008766 0.003389 0.002096 0.006004 0.035476
#
#
# Mechanical properties :
#
#
# Convention : Reuss Voigt Hill
#
# Bulk Modulus (GPa) = 18.86313 47.50281 33.18297
# Shear Modulus (GPa) = 15.81160 30.11490 22.96325
#
# Velocity S-wave (km/s) = 2.70370 3.73131 3.25828
# Velocity P-wave (km/s) = 4.29738 6.36593 5.43105
#
# Compressibility (1/GPa) = 0.05301347
#
# Stress axis : x y z
#
# Youngs Moduli (GPa) = 29.88459 52.09324 18.54586
#
# Poissons Ratio (x) = -0.07616 0.40484
# Poissons Ratio (y) = -0.04369 0.11899
# Poissons Ratio (z) = 0.65235 0.33422
#
# Static dielectric constant tensor:
#      x y z
#    x 4.005220 0.021950 -0.894880 
#    y 0.021950 3.992150 0.000760 
#    z -0.894880 0.000760 4.308640 
# 
# 
# High freq. dielectric constant tensor:
#      x y z
#    x 1.835170 -0.003260 -0.041540 
#    y -0.003260 1.848390 0.011910 
#    z -0.041540 0.011910 1.838310 
# 
# From -- ./inp_files/146032.got.cif
#   From: 2010.06.25/outbox.cif.g09.slc.cpg/sg2_74_cif.got.tgz:146032.got - 2010.06.27 13:26:56.
