data_PCOD8042220
_publ_section_title
;
Structure prediction by ZEFSAII (Michael W. Deem and Ramdas Pophale) SiO2 
 PCOD8042220
Probable space group: P -1
;
_chemical_formula_sum "Si O2"
_cell_formula_units_Z 12
_cell_length_a 12.528570
_cell_length_b 8.672287
_cell_length_c 12.724517
_cell_angle_alpha 48.769214
_cell_angle_beta 145.956159
_cell_angle_gamma 116.970307
_cell_volume 567.826951
_symmetry_space_group_name_H-M "P -1"
_symmetry_group_IT_number 2
_symmetry_cell_setting 'triclinic'
loop_
_space_group_symop_operation_xyz
x,y,z
-x,-y,-z
loop_
_atom_site_type_symbol
_atom_site_label
_atom_site_fract_x
_atom_site_fract_y
_atom_site_fract_z
Si Si1 0.166635 0.252293 0.781817
Si Si2 0.250275 0.445479 0.027142
Si Si3 0.829662 0.303121 0.348833
Si Si4 0.509798 0.081357 0.265106
Si Si5 0.502462 0.638939 0.540879
Si Si6 0.064922 0.762460 0.194187
O O1 0.232654 0.476055 0.737224
O O2 0.062860 0.211921 0.605269
O O3 0.996316 0.261596 0.725149
O O4 0.360236 0.075091 0.047472
O O5 0.401066 0.252560 0.182156
O O6 0.337499 0.491652 0.189394
O O7 0.210083 0.653558 0.827214
O O8 0.044358 0.377255 0.906586
O O9 0.708720 0.136104 0.363005
O O10 0.564677 0.854835 0.465336
O O11 0.500000 0.500000 0.500000
O O12 0.295144 0.682435 0.409308
O O13 0.000000 0.000000 0.000000
#
# Coordination Sequence:
#
# PCOD8042220 Si02
#       6
#     2   2   2   2   2   2
#     4   9  17  31  58  88 114 138 191 244 281 329
#     4  10  21  36  61  85 115 151 195 236 287 342
#     4   9  18  32  56  90 113 142 187 245 284 330
#     4  10  19  34  60  86 110 150 192 236 282 340
#     4  12  25  38  56  87 122 154 190 240 290 336
#     4  10  19  36  59  87 112 148 192 236 281 338
#
# _framework density 21.133199999999999
#
# number of rings (size 3 to 8) (size 9 to 14) (size 15 to 20)
#    0.000    2.333    3.333    3.500    2.333    3.333 
#    0.000    0.833    0.000    5.000    0.000    0.000 
#    0.000    0.000    0.000    0.000    0.000    0.000 
#
# Total GULP energy -148728.356779 kJ/mol
# GULP energy per Si atom -12394.029732 kJ/mol
# Density = 2.108510 g / cm^3
# Si number density = 21.133200 Si / 1000 Ang^3
#
#
#
# Elastic Constant Matrix: (Units=GPa)
#
#
# Indices 1 2 3 4 5 6 
#
# 1 48.1378 49.3520 30.6257 6.7843 -11.4921 25.8599
# 2 49.3520 76.4025 33.7885 17.7432 -12.3255 29.3345
# 3 30.6257 33.7885 143.8075 41.3671 -27.3372 5.6738
# 4 6.7843 17.7432 41.3671 30.0551 -2.8967 1.5258
# 5 -11.4921 -12.3255 -27.3372 -2.8967 26.9084 8.1795
# 6 25.8599 29.3345 5.6738 1.5258 8.1795 36.2372
#
#
#
# Elastic Compliance Matrix: (Units=1/GPa)
#
#
# Indices 1 2 3 4 5 6 
#
# 1 0.094305 -0.044247 -0.010826 0.023719 0.022462 -0.035854
# 2 -0.044247 0.054111 0.010507 -0.033853 0.017933 -0.016496
# 3 -0.010826 0.010507 0.018031 -0.026552 0.017614 -0.006461
# 4 0.023719 -0.033853 -0.026552 0.080743 -0.029068 0.017796
# 5 0.022462 0.017933 0.017614 -0.029068 0.085344 -0.051345
# 6 -0.035854 -0.016496 -0.006461 0.017796 -0.051345 0.078388
#
#
# Mechanical properties :
#
#
# Convention : Reuss Voigt Hill
#
# Bulk Modulus (GPa) = 12.93396 55.09780 34.01588
# Shear Modulus (GPa) = 9.50886 28.94558 19.22722
#
# Velocity S-wave (km/s) = 2.12350 3.70493 3.01958
# Velocity P-wave (km/s) = 3.48509 6.66560 5.31865
#
# Compressibility (1/GPa) = 0.07731585
#
# Stress axis : x y z
#
# Youngs Moduli (GPa) = 10.60394 18.48037 55.45855
#
# Poissons Ratio (x) = 0.81770 0.60038
# Poissons Ratio (y) = 0.46919 -0.58270
# Poissons Ratio (z) = 0.11480 -0.19417
#
# Static dielectric constant tensor:
#      x y z
#    x 4.745470 1.054930 -0.388110 
#    y 1.054930 3.981020 0.149710 
#    z -0.388110 0.149710 4.325900 
# 
# 
# High freq. dielectric constant tensor:
#      x y z
#    x 1.784160 0.048190 -0.019130 
#    y 0.048190 1.805510 0.017520 
#    z -0.019130 0.017520 1.851720 
# 
# From -- ./inp_files/172596.got.cif
#   From: 2010.06.25/outbox.cif.g09.slc.cpg/sg2_87_cif.got.tgz:172596.got - 2010.06.27 13:26:56.
