data_PCOD8042003
_publ_section_title
;
Structure prediction by ZEFSAII (Michael W. Deem and Ramdas Pophale) SiO2 
 PCOD8042003
Probable space group: P -1
;
_chemical_formula_sum "Si O2"
_cell_formula_units_Z 14
_cell_length_a 11.926622
_cell_length_b 7.780438
_cell_length_c 9.247200
_cell_angle_alpha 85.343985
_cell_angle_beta 124.236864
_cell_angle_gamma 72.078874
_cell_volume 638.734033
_symmetry_space_group_name_H-M "P -1"
_symmetry_group_IT_number 2
_symmetry_cell_setting 'triclinic'
loop_
_space_group_symop_operation_xyz
x,y,z
-x,-y,-z
loop_
_atom_site_type_symbol
_atom_site_label
_atom_site_fract_x
_atom_site_fract_y
_atom_site_fract_z
Si Si1 0.954952 0.688808 0.623871
Si Si2 0.083286 0.116210 0.125602
Si Si3 0.507090 0.518037 0.754907
Si Si4 0.117376 0.039189 0.676647
Si Si5 0.654076 0.248080 0.627608
Si Si6 0.722562 0.388265 0.170955
Si Si7 0.933239 0.334297 0.757833
O O1 0.124987 0.587543 0.692051
O O2 0.898406 0.534697 0.644665
O O3 0.969058 0.820409 0.753968
O O4 0.841336 0.818873 0.406802
O O5 0.261914 0.979990 0.270650
O O6 0.034767 0.306143 0.978863
O O7 0.000000 0.000000 0.000000
O O8 0.558616 0.337556 0.696300
O O9 0.451054 0.704218 0.595885
O O10 0.374155 0.523373 0.761761
O O11 0.642371 0.504424 0.959434
O O12 0.037094 0.148414 0.754373
O O13 0.254927 0.832614 0.820428
O O14 0.000000 0.000000 0.500000
O O15 0.773635 0.336288 0.678394
#
# Coordination Sequence:
#
# PCOD8042003 Si02
#       7
#     2   2   2   2   2   2   2
#     4  11  21  34  57  85 111 133 168 231 282 310
#     4  10  19  34  56  80 107 138 179 223 261 313
#     4  10  20  32  56  76 104 142 184 220 234 314
#     4  10  19  34  56  80 107 138 179 223 261 313
#     4  10  19  35  55  79 103 140 184 211 260 311
#     4  10  19  35  55  79 103 140 184 211 260 311
#     4  11  21  34  57  85 111 133 168 231 282 310
#
# _framework density 21.918354999999998
#
# number of rings (size 3 to 8) (size 9 to 14) (size 15 to 20)
#    0.000    1.714    0.000    9.429    0.000    0.000 
#    0.000    0.000    0.000   34.286    0.000    0.000 
#    0.000    0.000    0.000    0.000    0.000    0.000 
#
# Total GULP energy -173455.950123 kJ/mol
# GULP energy per Si atom -12389.710723 kJ/mol
# Density = 2.186847 g / cm^3
# Si number density = 21.918355 Si / 1000 Ang^3
#
#
#
# Elastic Constant Matrix: (Units=GPa)
#
#
# Indices 1 2 3 4 5 6 
#
# 1 69.1998 37.5372 16.8456 -4.9130 -12.9872 -18.5408
# 2 37.5372 72.4790 21.2894 -7.0074 -7.1458 -18.8825
# 3 16.8456 21.2894 121.6225 -13.5497 -14.8100 -19.9161
# 4 -4.9130 -7.0074 -13.5497 40.6391 -8.8968 -11.1382
# 5 -12.9872 -7.1458 -14.8100 -8.8968 24.7121 4.4784
# 6 -18.5408 -18.8825 -19.9161 -11.1382 4.4784 35.7449
#
#
#
# Elastic Compliance Matrix: (Units=1/GPa)
#
#
# Indices 1 2 3 4 5 6 
#
# 1 0.024124 -0.008556 0.002160 0.007628 0.012429 0.010016
# 2 -0.008556 0.021019 -0.000481 0.004909 0.001661 0.007719
# 3 0.002160 -0.000481 0.011525 0.008470 0.009366 0.008753
# 4 0.007628 0.004909 0.008470 0.039528 0.020936 0.020963
# 5 0.012429 0.001661 0.009366 0.020936 0.058502 0.011737
# 6 0.010016 0.007719 0.008753 0.020963 0.011737 0.047188
#
#
# Mechanical properties :
#
#
# Convention : Reuss Voigt Hill
#
# Bulk Modulus (GPa) = 23.30276 46.07175 34.68725
# Shear Modulus (GPa) = 21.74435 32.72784 27.23610
#
# Velocity S-wave (km/s) = 3.15312 3.86835 3.52890
# Velocity P-wave (km/s) = 4.88988 6.40449 5.69774
#
# Compressibility (1/GPa) = 0.04291338
#
# Stress axis : x y z
#
# Youngs Moduli (GPa) = 41.45197 47.57606 86.77000
#
# Poissons Ratio (x) = 0.40707 -0.18741
# Poissons Ratio (y) = 0.35467 0.04173
# Poissons Ratio (z) = -0.08953 0.02288
#
# Static dielectric constant tensor:
#      x y z
#    x 3.685040 -0.179580 -0.578020 
#    y -0.179580 4.625500 -0.807130 
#    z -0.578020 -0.807130 5.237260 
# 
# 
# High freq. dielectric constant tensor:
#      x y z
#    x 1.820690 -0.037520 -0.033240 
#    y -0.037520 1.850160 -0.011670 
#    z -0.033240 -0.011670 1.889350 
# 
# From -- ./inp_files/167790.got.cif
#   From: 2010.06.25/outbox.cif.g09.slc.cpg/sg2_84_cif.got.tgz:167790.got - 2010.06.27 13:26:56.
