data_PCOD8042711
_publ_section_title
;
Structure prediction by ZEFSAII (Michael W. Deem and Ramdas Pophale) SiO2 
 PCOD8042711
Probable space group: P -1
;
_chemical_formula_sum "Si O2"
_cell_formula_units_Z 16
_cell_length_a 17.079501
_cell_length_b 11.729464
_cell_length_c 11.208371
_cell_angle_alpha 52.424386
_cell_angle_beta 144.789849
_cell_angle_gamma 140.232572
_cell_volume 827.144028
_symmetry_space_group_name_H-M "P -1"
_symmetry_group_IT_number 2
_symmetry_cell_setting 'triclinic'
loop_
_space_group_symop_operation_xyz
x,y,z
-x,-y,-z
loop_
_atom_site_type_symbol
_atom_site_label
_atom_site_fract_x
_atom_site_fract_y
_atom_site_fract_z
Si Si1 0.885388 0.035672 0.261441
Si Si2 0.510333 0.131509 0.762772
Si Si3 0.785638 0.518266 0.242512
Si Si4 0.100660 0.627082 0.935129
Si Si5 0.483846 0.186374 0.959676
Si Si6 0.936289 0.383329 0.664693
Si Si7 0.111686 0.108699 0.888126
Si Si8 0.213553 0.008831 0.302148
O O1 0.947666 0.237098 0.233786
O O2 0.699136 0.895103 0.167386
O O3 0.895577 0.013733 0.146801
O O4 0.000000 0.000000 0.500000
O O5 0.488489 0.207563 0.808918
O O6 0.392469 0.121767 0.519132
O O7 0.699589 0.259856 0.866940
O O8 0.453585 0.932807 0.847424
O O9 0.808115 0.433009 0.441963
O O10 0.797898 0.693623 0.179530
O O11 0.938586 0.574448 0.312132
O O12 0.607300 0.380382 0.046565
O O13 0.051533 0.499821 0.843520
O O14 0.000000 0.500000 0.000000
O O15 0.827393 0.172809 0.689270
O O16 0.923048 0.024592 0.750130
O O17 0.221876 0.122472 0.128412
#
# Coordination Sequence:
#
# PCOD8042711 Si02
#       8
#     2   2   2   2   2   2   2   2
#     4  11  23  40  59  84 121 160 190 232 301 349
#     4  10  20  38  62  89 114 148 202 241 291 333
#     4  10  19  35  60  89 110 149 195 245 282 329
#     4  11  23  40  60  88 118 152 193 245 287 345
#     4  10  20  36  62  88 116 147 199 251 277 338
#     4  10  19  35  63  86 113 145 199 241 286 333
#     4  10  22  37  57  85 124 154 190 227 295 360
#     4  10  20  39  62  84 116 159 189 237 289 348
#
# _framework density 19.343668999999998
#
# number of rings (size 3 to 8) (size 9 to 14) (size 15 to 20)
#    0.000    1.750    2.500    2.250    0.000    0.500 
#    4.500    2.500    0.000    0.000    0.000    0.000 
#    0.000    0.000    0.000    0.000    0.000    0.000 
#
# Total GULP energy -198440.177921 kJ/mol
# GULP energy per Si atom -12402.511120 kJ/mol
# Density = 1.929964 g / cm^3
# Si number density = 19.343669 Si / 1000 Ang^3
#
#
#
# Elastic Constant Matrix: (Units=GPa)
#
#
# Indices 1 2 3 4 5 6 
#
# 1 65.3056 18.5456 24.8366 -1.2940 1.3235 -5.2293
# 2 18.5456 76.9883 31.2161 2.9233 7.1889 3.7568
# 3 24.8366 31.2161 127.8291 2.7844 1.3915 2.2149
# 4 -1.2940 2.9233 2.7844 28.9826 -4.4154 -5.3177
# 5 1.3235 7.1889 1.3915 -4.4154 18.4947 1.0038
# 6 -5.2293 3.7568 2.2149 -5.3177 1.0038 22.8238
#
#
#
# Elastic Compliance Matrix: (Units=1/GPa)
#
#
# Indices 1 2 3 4 5 6 
#
# 1 0.017862 -0.003615 -0.002746 0.002535 0.000639 0.005517
# 2 -0.003615 0.015953 -0.002995 -0.003099 -0.006261 -0.003610
# 3 -0.002746 -0.002995 0.009122 -0.000842 0.000541 -0.001241
# 4 0.002535 -0.003099 -0.000842 0.038260 0.009696 0.009660
# 5 0.000639 -0.006261 0.000541 0.009696 0.058688 0.000802
# 6 0.005517 -0.003610 -0.001241 0.009660 0.000802 0.048008
#
#
# Mechanical properties :
#
#
# Convention : Reuss Voigt Hill
#
# Bulk Modulus (GPa) = 41.27838 46.59108 43.93473
# Shear Modulus (GPa) = 23.29061 27.09520 25.19290
#
# Velocity S-wave (km/s) = 3.47370 3.74669 3.61277
# Velocity P-wave (km/s) = 6.12165 6.54638 6.33757
#
# Compressibility (1/GPa) = 0.02422576
#
# Stress axis : x y z
#
# Youngs Moduli (GPa) = 55.98362 62.68572 109.62761
#
# Poissons Ratio (x) = 0.22659 0.30100
# Poissons Ratio (y) = 0.20237 0.32835
# Poissons Ratio (z) = 0.15371 0.18775
#
# Static dielectric constant tensor:
#      x y z
#    x 3.395400 -0.052730 0.042820 
#    y -0.052730 3.572510 -0.180870 
#    z 0.042820 -0.180870 3.482740 
# 
# 
# High freq. dielectric constant tensor:
#      x y z
#    x 1.743770 -0.007920 -0.005050 
#    y -0.007920 1.753280 0.001830 
#    z -0.005050 0.001830 1.754830 
# 
# From -- ./inp_files/209070.got.cif
#   From: 2010.06.25/outbox.cif.g09.slc.cpg/sg2_105_cif.got.tgz:209070.got - 2010.06.27 13:26:56.
