data_PCOD8042317
_publ_section_title
;
Structure prediction by ZEFSAII (Michael W. Deem and Ramdas Pophale) SiO2 
 PCOD8042317
Probable space group: P -1
;
_chemical_formula_sum "Si O2"
_cell_formula_units_Z 16
_cell_length_a 5.524649
_cell_length_b 18.632744
_cell_length_c 8.480455
_cell_angle_alpha 122.657362
_cell_angle_beta 71.152734
_cell_angle_gamma 77.854135
_cell_volume 609.103916
_symmetry_space_group_name_H-M "P -1"
_symmetry_group_IT_number 2
_symmetry_cell_setting 'triclinic'
loop_
_space_group_symop_operation_xyz
x,y,z
-x,-y,-z
loop_
_atom_site_type_symbol
_atom_site_label
_atom_site_fract_x
_atom_site_fract_y
_atom_site_fract_z
Si Si1 0.477770 0.425355 0.799980
Si Si2 0.419960 0.245618 0.622296
Si Si3 0.892450 0.713216 0.572865
Si Si4 0.015110 0.121734 0.162617
Si Si5 0.142960 0.963543 0.177020
Si Si6 0.762078 0.609114 0.723258
Si Si7 0.585908 0.081692 0.620511
Si Si8 0.725954 0.434097 0.243679
O O1 0.404545 0.346570 0.804869
O O2 0.234967 0.494990 0.806759
O O3 0.772832 0.366767 0.566414
O O4 0.500000 0.500000 0.000000
O O5 0.154109 0.275959 0.592807
O O6 0.706705 0.179379 0.382834
O O7 0.379195 0.186903 0.707718
O O8 0.690463 0.677732 0.665024
O O9 0.813550 0.817251 0.789149
O O10 0.215122 0.017814 0.084065
O O11 0.965295 0.105869 0.969133
O O12 0.411861 0.904542 0.172736
O O13 0.902544 0.046718 0.437091
O O14 0.446824 0.621163 0.860890
O O15 0.000000 0.500000 0.500000
O O16 0.942430 0.637775 0.849379
O O17 0.500000 0.000000 0.500000
O O18 0.500000 0.500000 0.500000
#
# Coordination Sequence:
#
# PCOD8042317 Si02
#       8
#     2   2   2   2   2   2   2   2
#     4  11  24  41  60  83 121 166 208 263 320 382
#     4  10  22  39  59  88 118 160 209 254 313 377
#     4  11  21  37  63  87 120 157 211 263 317 373
#     4   9  20  37  62  91 117 158 201 258 303 374
#     4   9  19  39  62  88 125 157 200 243 312 371
#     4  10  19  34  63  87 114 157 206 264 313 372
#     4  10  20  37  64  89 126 163 194 244 310 382
#     4  10  19  38  61  85 111 159 210 257 319 369
#
# _framework density 26.268097000000001
#
# number of rings (size 3 to 8) (size 9 to 14) (size 15 to 20)
#    0.000    2.000    2.500    2.250    1.750    2.500 
#    2.250    5.000    0.000    0.000    0.000    0.000 
#    0.000    0.000    0.000    0.000    0.000    0.000 
#
# Total GULP energy -198238.839017 kJ/mol
# GULP energy per Si atom -12389.927439 kJ/mol
# Density = 2.620831 g / cm^3
# Si number density = 26.268097 Si / 1000 Ang^3
#
#
#
# Elastic Constant Matrix: (Units=GPa)
#
#
# Indices 1 2 3 4 5 6 
#
# 1 108.9116 46.6420 20.6295 0.7356 43.2517 -6.0635
# 2 46.6420 213.1203 54.1422 0.3582 47.9192 -9.8688
# 3 20.6295 54.1422 107.4000 10.3589 42.0851 -3.8757
# 4 0.7356 0.3582 10.3589 33.9716 1.7334 20.6904
# 5 43.2517 47.9192 42.0851 1.7334 52.7504 -4.0060
# 6 -6.0635 -9.8688 -3.8757 20.6904 -4.0060 37.9707
#
#
#
# Elastic Compliance Matrix: (Units=1/GPa)
#
#
# Indices 1 2 3 4 5 6 
#
# 1 0.014346 -0.000855 0.003113 -0.001759 -0.013264 0.001945
# 2 -0.000855 0.006105 -0.001473 0.000040 -0.003603 0.000898
# 3 0.003113 -0.001473 0.015254 -0.006339 -0.012889 0.003765
# 4 -0.001759 0.000040 -0.006339 0.047343 0.002901 -0.026409
# 5 -0.013264 -0.003603 -0.012889 0.002901 0.043187 -0.001395
# 6 0.001945 0.000898 0.003765 -0.026409 -0.001395 0.041507
#
#
# Mechanical properties :
#
#
# Convention : Reuss Voigt Hill
#
# Bulk Modulus (GPa) = 26.82848 74.69548 50.76198
# Shear Modulus (GPa) = 27.99581 45.47311 36.73446
#
# Velocity S-wave (km/s) = 3.26816 4.16518 3.74363
# Velocity P-wave (km/s) = 4.94739 7.18535 6.16871
#
# Compressibility (1/GPa) = 0.03727382
#
# Stress axis : x y z
#
# Youngs Moduli (GPa) = 69.70606 163.79641 65.55748
#
# Poissons Ratio (x) = 0.14006 -0.20407
# Poissons Ratio (y) = 0.05961 0.09658
# Poissons Ratio (z) = -0.21698 0.24131
#
# Static dielectric constant tensor:
#      x y z
#    x 4.340950 0.126930 0.316940 
#    y 0.126930 6.064920 0.024510 
#    z 0.316940 0.024510 4.617730 
# 
# 
# High freq. dielectric constant tensor:
#      x y z
#    x 2.038140 -0.006880 0.016110 
#    y -0.006880 2.060490 -0.003370 
#    z 0.016110 -0.003370 2.037970 
# 
# From -- ./inp_files/139557.got.cif
#   From: 2010.06.25/outbox.cif.g09.slc.cpg/sg2_70_cif.got.tgz:139557.got - 2010.06.27 13:26:56.
