data_PCOD8042896
_publ_section_title
;
Structure prediction by ZEFSAII (Michael W. Deem and Ramdas Pophale) SiO2 
 PCOD8042896
Probable space group: P -1
;
_chemical_formula_sum "Si O2"
_cell_formula_units_Z 16
_cell_length_a 8.947526
_cell_length_b 5.604177
_cell_length_c 14.780167
_cell_angle_alpha 87.913533
_cell_angle_beta 68.968019
_cell_angle_gamma 74.064765
_cell_volume 663.577929
_symmetry_space_group_name_H-M "P -1"
_symmetry_group_IT_number 2
_symmetry_cell_setting 'triclinic'
loop_
_space_group_symop_operation_xyz
x,y,z
-x,-y,-z
loop_
_atom_site_type_symbol
_atom_site_label
_atom_site_fract_x
_atom_site_fract_y
_atom_site_fract_z
Si Si1 0.522904 0.039544 0.388889
Si Si2 0.121437 0.020196 0.258571
Si Si3 0.066378 0.625844 0.565102
Si Si4 0.127473 0.251272 0.709012
Si Si5 0.596103 0.409520 0.572087
Si Si6 0.747113 0.442775 0.016255
Si Si7 0.973931 0.372319 0.128883
Si Si8 0.586114 0.168971 0.921188
O O1 0.718329 0.998086 0.323391
O O2 0.464856 0.807443 0.358974
O O3 0.500000 0.000000 0.500000
O O4 0.428343 0.323910 0.371962
O O5 0.087724 0.164542 0.359418
O O6 0.003229 0.172373 0.203605
O O7 0.316122 0.960415 0.188502
O O8 0.051865 0.780572 0.283590
O O9 0.163256 0.437621 0.623899
O O10 0.210022 0.731555 0.488971
O O11 0.000000 0.500000 0.500000
O O12 0.113519 0.358435 0.812354
O O13 0.500000 0.500000 0.500000
O O14 0.851247 0.306223 0.081976
O O15 0.559487 0.593547 0.083704
O O16 0.728309 0.240501 0.949505
O O17 0.847017 0.627940 0.951896
O O18 0.500000 0.000000 0.000000
#
# Coordination Sequence:
#
# PCOD8042896 Si02
#       8
#     2   2   2   2   2   2   2   2
#     4  10  19  35  64  89 121 165 217 271 333 388
#     4  11  23  41  67  94 129 176 225 269 336 412
#     4  11  25  42  64  92 130 174 220 276 337 405
#     4  11  22  40  65  94 128 168 222 278 334 399
#     4  10  19  39  63  90 118 170 217 271 335 396
#     4  10  22  41  65  95 134 166 216 270 341 397
#     4  10  22  40  65  98 125 168 221 278 325 404
#     4  11  22  41  66  95 136 179 209 268 342 405
#
# _framework density 24.111713000000002
#
# number of rings (size 3 to 8) (size 9 to 14) (size 15 to 20)
#    0.000    1.500    5.000    1.500    1.750    2.000 
#    2.250    1.250    0.000    0.000    0.000    0.000 
#    0.000    0.000    0.000    0.000    0.000    0.000 
#
# Total GULP energy -198269.139805 kJ/mol
# GULP energy per Si atom -12391.821238 kJ/mol
# Density = 2.405683 g / cm^3
# Si number density = 24.111713 Si / 1000 Ang^3
#
#
#
# Elastic Constant Matrix: (Units=GPa)
#
#
# Indices 1 2 3 4 5 6 
#
# 1 109.4211 15.4081 48.1526 12.5485 -12.6769 12.7622
# 2 15.4081 98.6158 18.8074 17.2544 -8.5295 15.0017
# 3 48.1526 18.8074 89.5904 33.0156 -20.8947 -9.8098
# 4 12.5485 17.2544 33.0156 36.0349 -6.4573 -7.0186
# 5 -12.6769 -8.5295 -20.8947 -6.4573 50.7480 3.4807
# 6 12.7622 15.0017 -9.8098 -7.0186 3.4807 31.4856
#
#
#
# Elastic Compliance Matrix: (Units=1/GPa)
#
#
# Indices 1 2 3 4 5 6 
#
# 1 0.013854 0.000604 -0.008898 0.001521 0.000669 -0.008410
# 2 0.000604 0.012837 -0.001100 -0.006697 0.001578 -0.008371
# 3 -0.008898 -0.001100 0.024079 -0.016089 0.004945 0.007500
# 4 0.001521 -0.006697 -0.016089 0.046389 -0.002025 0.008126
# 5 0.000669 0.001578 0.004945 -0.002025 0.022079 -0.002374
# 6 -0.008410 -0.008371 0.007500 0.008126 -0.002374 0.043569
#
#
# Mechanical properties :
#
#
# Convention : Reuss Voigt Hill
#
# Bulk Modulus (GPa) = 31.26868 51.37371 41.32119
# Shear Modulus (GPa) = 26.00697 38.00432 32.00565
#
# Velocity S-wave (km/s) = 3.28777 3.97442 3.64729
# Velocity P-wave (km/s) = 5.23536 6.51261 5.90860
#
# Compressibility (1/GPa) = 0.03198089
#
# Stress axis : x y z
#
# Youngs Moduli (GPa) = 72.18252 77.89683 41.52990
#
# Poissons Ratio (x) = -0.04701 0.36954
# Poissons Ratio (y) = -0.04356 0.04568
# Poissons Ratio (z) = 0.64229 0.08569
#
# Static dielectric constant tensor:
#      x y z
#    x 4.914590 -0.233470 -0.781270 
#    y -0.233470 4.064550 0.675520 
#    z -0.781270 0.675520 4.725950 
# 
# 
# High freq. dielectric constant tensor:
#      x y z
#    x 1.950540 0.010840 -0.025450 
#    y 0.010840 1.947970 0.015700 
#    z -0.025450 0.015700 1.944610 
# 
# From -- ./inp_files/140515.got.cif
#   From: 2010.06.25/outbox.cif.g09.slc.cpg/sg2_71_cif.got.tgz:140515.got - 2010.06.27 13:26:56.
