data_PCOD8042928
_publ_section_title
;
Structure prediction by ZEFSAII (Michael W. Deem and Ramdas Pophale) SiO2 
 PCOD8042928
Probable space group: P -1
;
_chemical_formula_sum "Si O2"
_cell_formula_units_Z 16
_cell_length_a 11.567511
_cell_length_b 9.332620
_cell_length_c 14.718996
_cell_angle_alpha 129.595819
_cell_angle_beta 42.917768
_cell_angle_gamma 102.968342
_cell_volume 739.499959
_symmetry_space_group_name_H-M "P -1"
_symmetry_group_IT_number 2
_symmetry_cell_setting 'triclinic'
loop_
_space_group_symop_operation_xyz
x,y,z
-x,-y,-z
loop_
_atom_site_type_symbol
_atom_site_label
_atom_site_fract_x
_atom_site_fract_y
_atom_site_fract_z
Si Si1 0.383087 0.230686 0.844860
Si Si2 0.605530 0.749880 0.495401
Si Si3 0.903900 0.320038 0.386840
Si Si4 0.219240 0.230204 0.297363
Si Si5 0.329092 0.790046 0.822482
Si Si6 0.044066 0.672641 0.846824
Si Si7 0.442022 0.124884 0.955777
Si Si8 0.496614 0.398360 0.682049
O O1 0.415533 0.283933 0.952332
O O2 0.415962 0.386827 0.822726
O O3 0.551507 0.992962 0.636021
O O4 0.168971 0.258594 0.965064
O O5 0.473721 0.692490 0.614808
O O6 0.825630 0.580694 0.322420
O O7 0.569283 0.722530 0.400379
O O8 0.873423 0.557724 0.506740
O O9 0.965725 0.249755 0.219715
O O10 0.725124 0.287484 0.506018
O O11 0.065238 0.183154 0.312758
O O12 0.336775 0.043806 0.225052
O O13 0.360076 0.248267 0.146498
O O14 0.128647 0.798334 0.910769
O O15 0.415047 0.640728 0.799856
O O16 0.314202 0.011530 0.950247
#
# Coordination Sequence:
#
# PCOD8042928 Si02
#       8
#     2   2   2   2   2   2   2   2
#     4  11  24  36  59  91 128 155 193 242 311 355
#     4  10  20  37  60  87 127 162 187 245 290 364
#     4  11  19  37  63  88 109 157 211 238 289 358
#     4  10  21  35  64  82 111 156 211 247 280 346
#     4  10  19  35  65  88 120 153 198 247 290 351
#     4  11  20  38  64  92 119 157 199 241 298 361
#     4  10  20  39  57  90 117 151 200 256 289 344
#     4  11  20  38  58  90 124 158 188 248 303 352
#
# _framework density 21.636241999999999
#
# number of rings (size 3 to 8) (size 9 to 14) (size 15 to 20)
#    0.000    1.500    5.000    1.875    0.000    5.000 
#    0.000    2.500    0.000    0.000    0.000    0.000 
#    0.000    0.000    0.000    0.000    0.000    0.000 
#
# Total GULP energy -198308.776535 kJ/mol
# GULP energy per Si atom -12394.298533 kJ/mol
# Density = 2.158700 g / cm^3
# Si number density = 21.636242 Si / 1000 Ang^3
#
#
#
# Elastic Constant Matrix: (Units=GPa)
#
#
# Indices 1 2 3 4 5 6 
#
# 1 88.8201 20.5706 21.0095 -9.5521 -19.7023 -29.3115
# 2 20.5706 82.0553 22.3782 -25.8287 -3.7132 -31.1671
# 3 21.0095 22.3782 63.9527 -7.0210 -16.4941 -10.8343
# 4 -9.5521 -25.8287 -7.0210 35.5095 -4.5937 6.6417
# 5 -19.7023 -3.7132 -16.4941 -4.5937 38.0207 2.5066
# 6 -29.3115 -31.1671 -10.8343 6.6417 2.5066 30.0421
#
#
#
# Elastic Compliance Matrix: (Units=1/GPa)
#
#
# Indices 1 2 3 4 5 6 
#
# 1 0.021559 0.007823 -0.001939 0.007592 0.010304 0.025913
# 2 0.007823 0.029245 -0.004148 0.017177 0.005059 0.032257
# 3 -0.001939 -0.004148 0.019762 0.001310 0.007319 0.000032
# 4 0.007592 0.017177 0.001310 0.041329 0.010137 0.015718
# 5 0.010304 0.005059 0.007319 0.010137 0.035696 0.012722
# 6 0.025913 0.032257 0.000032 0.015718 0.012722 0.087510
#
#
# Mechanical properties :
#
#
# Convention : Reuss Voigt Hill
#
# Bulk Modulus (GPa) = 13.50653 40.30498 26.90575
# Shear Modulus (GPa) = 19.50771 32.10579 25.80675
#
# Velocity S-wave (km/s) = 3.00596 3.85631 3.45738
# Velocity P-wave (km/s) = 4.27830 6.20460 5.32921
#
# Compressibility (1/GPa) = 0.07403826
#
# Stress axis : x y z
#
# Youngs Moduli (GPa) = 46.38348 34.19362 50.60255
#
# Poissons Ratio (x) = -0.26749 0.09812
# Poissons Ratio (y) = -0.36285 0.20990
# Poissons Ratio (z) = 0.08993 0.14183
#
# Static dielectric constant tensor:
#      x y z
#    x 4.178080 -0.369470 -0.079560 
#    y -0.369470 3.499760 0.026310 
#    z -0.079560 0.026310 3.926300 
# 
# 
# High freq. dielectric constant tensor:
#      x y z
#    x 1.865520 -0.029050 -0.002970 
#    y -0.029050 1.800640 0.013090 
#    z -0.002970 0.013090 1.850020 
# 
# From -- ./inp_files/178251.got.cif
#   From: 2010.06.25/outbox.cif.g09.slc.cpg/sg2_90_cif.got.tgz:178251.got - 2010.06.27 13:26:56.
