data_PCOD8042371
_publ_section_title
;
Structure prediction by ZEFSAII (Michael W. Deem and Ramdas Pophale) SiO2 
 PCOD8042371
Probable space group: P -1
;
_chemical_formula_sum "Si O2"
_cell_formula_units_Z 16
_cell_length_a 12.203702
_cell_length_b 25.242177
_cell_length_c 9.817134
_cell_angle_alpha 37.363864
_cell_angle_beta 117.710938
_cell_angle_gamma 146.280600
_cell_volume 828.478327
_symmetry_space_group_name_H-M "P -1"
_symmetry_group_IT_number 2
_symmetry_cell_setting 'triclinic'
loop_
_space_group_symop_operation_xyz
x,y,z
-x,-y,-z
loop_
_atom_site_type_symbol
_atom_site_label
_atom_site_fract_x
_atom_site_fract_y
_atom_site_fract_z
Si Si1 0.712190 0.238163 0.937215
Si Si2 0.819680 0.389485 0.425705
Si Si3 0.049183 0.793910 0.805665
Si Si4 0.845505 0.502477 0.786569
Si Si5 0.631455 0.600969 0.150000
Si Si6 0.587999 0.859578 0.820519
Si Si7 0.438831 0.345213 0.737142
Si Si8 0.260342 0.491115 0.007939
O O1 0.661586 0.240063 0.749739
O O2 0.931682 0.427314 0.737613
O O3 0.768034 0.169517 0.110512
O O4 0.476360 0.113660 0.147923
O O5 0.897031 0.371996 0.382666
O O6 0.666452 0.380248 0.304288
O O7 0.904039 0.675198 0.831347
O O8 0.200495 0.971645 0.493174
O O9 0.870459 0.708336 0.999909
O O10 0.723101 0.505971 0.619639
O O11 0.895292 0.566842 0.836179
O O12 0.646824 0.302286 0.080725
O O13 0.447294 0.409312 0.474448
O O14 0.704414 0.694248 0.141572
O O15 0.502972 0.589337 0.994918
O O16 0.679189 0.821897 0.015249
#
# Coordination Sequence:
#
# PCOD8042371 Si02
#       8
#     2   2   2   2   2   2   2   2
#     4   9  18  31  53  79 103 128 173 220 251 302
#     4   9  16  29  54  79  96 136 178 209 250 299
#     4  11  21  32  54  82 104 134 167 214 264 301
#     4   8  16  33  53  76  99 135 171 211 251 304
#     4  10  19  35  53  78 104 134 180 209 242 306
#     4   9  19  35  55  78 103 132 169 217 264 295
#     4   8  18  34  57  74  99 136 174 215 245 293
#     4  10  20  31  50  78 106 136 169 212 250 304
#
# _framework density 19.312514
#
# number of rings (size 3 to 8) (size 9 to 14) (size 15 to 20)
#    0.750    2.000    0.000    1.875    3.500    0.500 
#    0.000    0.625    0.000    4.500    0.000    0.000 
#    0.000    0.000    0.000    0.000    0.000    0.000 
#
# Total GULP energy -198274.909621 kJ/mol
# GULP energy per Si atom -12392.181851 kJ/mol
# Density = 1.926856 g / cm^3
# Si number density = 19.312514 Si / 1000 Ang^3
#
#
#
# Elastic Constant Matrix: (Units=GPa)
#
#
# Indices 1 2 3 4 5 6 
#
# 1 140.9466 21.8108 66.2172 6.0017 -6.7203 -2.4135
# 2 21.8108 26.3146 26.5844 11.3517 -5.1277 2.0646
# 3 66.2172 26.5844 117.1643 12.4752 -1.2780 -1.5873
# 4 6.0017 11.3517 12.4752 19.5038 3.2328 7.5684
# 5 -6.7203 -5.1277 -1.2780 3.2328 29.4754 10.6577
# 6 -2.4135 2.0646 -1.5873 7.5684 10.6577 10.2911
#
#
#
# Elastic Compliance Matrix: (Units=1/GPa)
#
#
# Indices 1 2 3 4 5 6 
#
# 1 0.010017 -0.003972 -0.005039 0.002637 0.001486 -0.001110
# 2 -0.003972 0.069683 -0.010292 -0.030554 0.019124 -0.013833
# 3 -0.005039 -0.010292 0.014542 -0.006515 -0.007125 0.015296
# 4 0.002637 -0.030554 -0.006515 0.102971 0.014412 -0.084910
# 5 0.001486 0.019124 -0.007125 0.014412 0.065853 -0.083385
# 6 -0.001110 -0.013833 0.015296 -0.084910 -0.083385 0.250846
#
#
# Mechanical properties :
#
#
# Convention : Reuss Voigt Hill
#
# Bulk Modulus (GPa) = 17.97429 57.07227 37.52328
# Shear Modulus (GPa) = 8.75560 23.17495 15.96528
#
# Velocity S-wave (km/s) = 2.13154 3.46785 2.87832
# Velocity P-wave (km/s) = 3.92240 6.75654 5.52431
#
# Compressibility (1/GPa) = 0.05563503
#
# Stress axis : x y z
#
# Youngs Moduli (GPa) = 99.83364 14.35061 68.76865
#
# Poissons Ratio (x) = 0.05700 0.34656
# Poissons Ratio (y) = 0.39656 0.70775
# Poissons Ratio (z) = 0.50311 0.14769
#
# Static dielectric constant tensor:
#      x y z
#    x 3.758530 0.005150 0.040690 
#    y 0.005150 2.995670 0.346210 
#    z 0.040690 0.346210 3.400200 
# 
# 
# High freq. dielectric constant tensor:
#      x y z
#    x 1.773240 0.001000 0.001970 
#    y 0.001000 1.689510 0.034580 
#    z 0.001970 0.034580 1.739780 
# 
# From -- ./inp_files/285471.got.cif
#   From: 2010.06.25/outbox.cif.g09.slc.cpg/sg2_143_cif.got.tgz:285471.got - 2010.06.27 13:26:56.
