data_PCOD8042340
_publ_section_title
;
Structure prediction by ZEFSAII (Michael W. Deem and Ramdas Pophale) SiO2 
 PCOD8042340
Probable space group: P -1
;
_chemical_formula_sum "Si O2"
_cell_formula_units_Z 16
_cell_length_a 14.148008
_cell_length_b 11.217630
_cell_length_c 8.616390
_cell_angle_alpha 42.507315
_cell_angle_beta 118.145057
_cell_angle_gamma 98.335761
_cell_volume 766.097062
_symmetry_space_group_name_H-M "P -1"
_symmetry_group_IT_number 2
_symmetry_cell_setting 'triclinic'
loop_
_space_group_symop_operation_xyz
x,y,z
-x,-y,-z
loop_
_atom_site_type_symbol
_atom_site_label
_atom_site_fract_x
_atom_site_fract_y
_atom_site_fract_z
Si Si1 0.682802 0.643909 0.682241
Si Si2 0.320601 0.453824 0.577121
Si Si3 0.398342 0.998953 0.531352
Si Si4 0.074865 0.751585 0.128608
Si Si5 0.230077 0.226128 0.945413
Si Si6 0.909869 0.541955 0.125722
Si Si7 0.459705 0.576019 0.064859
Si Si8 0.969958 0.840746 0.297121
O O1 0.663097 0.633564 0.496133
O O2 0.640306 0.496438 0.885619
O O3 0.612066 0.854551 0.478548
O O4 0.816951 0.599304 0.862189
O O5 0.208811 0.637953 0.322535
O O6 0.319076 0.292421 0.852827
O O7 0.432744 0.503482 0.659323
O O8 0.500000 0.000000 0.500000
O O9 0.409895 0.801377 0.806417
O O10 0.287189 0.066629 0.269953
O O11 0.002795 0.645489 0.081720
O O12 0.046390 0.785599 0.255098
O O13 0.039882 0.959517 0.827841
O O14 0.147667 0.408602 0.796441
O O15 0.158896 0.147466 0.848135
O O16 0.974533 0.318863 0.379119
O O17 0.500000 0.500000 0.000000
#
# Coordination Sequence:
#
# PCOD8042340 Si02
#       8
#     2   2   2   2   2   2   2   2
#     4  11  27  42  63  94 133 170 201 266 319 378
#     4  12  23  43  62  96 137 162 204 262 333 370
#     4  11  22  43  67  94 116 168 224 259 307 372
#     4  10  21  35  63  95 119 166 209 264 307 369
#     4  10  19  38  64  93 125 162 208 266 309 367
#     4  10  19  41  61  88 125 164 219 250 302 367
#     4  12  25  44  71  91 124 168 216 263 307 381
#     4  10  19  34  64  92 120 162 217 260 300 364
#
# _framework density 20.885082000000001
#
# number of rings (size 3 to 8) (size 9 to 14) (size 15 to 20)
#    0.000    1.250    5.000    1.875    1.750    4.000 
#    2.250    0.625    0.000    0.000    0.000    0.000 
#    0.000    0.000    0.000    0.000    0.000    0.000 
#
# Total GULP energy -198420.030474 kJ/mol
# GULP energy per Si atom -12401.251905 kJ/mol
# Density = 2.083755 g / cm^3
# Si number density = 20.885082 Si / 1000 Ang^3
#
#
#
# Elastic Constant Matrix: (Units=GPa)
#
#
# Indices 1 2 3 4 5 6 
#
# 1 48.4685 27.0024 33.9675 -5.6930 11.8090 5.0992
# 2 27.0024 112.0362 70.6904 -9.2566 6.4736 2.9719
# 3 33.9675 70.6904 110.4986 -19.7528 15.5862 9.2745
# 4 -5.6930 -9.2566 -19.7528 45.2985 4.9302 -4.1974
# 5 11.8090 6.4736 15.5862 4.9302 32.9084 2.2859
# 6 5.0992 2.9719 9.2745 -4.1974 2.2859 32.0038
#
#
#
# Elastic Compliance Matrix: (Units=1/GPa)
#
#
# Indices 1 2 3 4 5 6 
#
# 1 0.028061 -0.002722 -0.005538 0.001129 -0.006943 -0.001969
# 2 -0.002722 0.015473 -0.009866 -0.001648 0.002753 0.001443
# 3 -0.005538 -0.009866 0.019193 0.006062 -0.005893 -0.002547
# 4 0.001129 -0.001648 0.006062 0.025466 -0.006910 0.002050
# 5 -0.006943 0.002753 -0.005893 -0.006910 0.036229 -0.000935
# 6 -0.001969 0.001443 -0.002547 0.002050 -0.000935 0.032500
#
#
# Mechanical properties :
#
#
# Convention : Reuss Voigt Hill
#
# Bulk Modulus (GPa) = 37.77207 59.36932 48.57069
# Shear Modulus (GPa) = 24.75237 31.33166 28.04202
#
# Velocity S-wave (km/s) = 3.44636 3.87744 3.66824
# Velocity P-wave (km/s) = 5.82765 6.96666 6.42246
#
# Compressibility (1/GPa) = 0.02647459
#
# Stress axis : x y z
#
# Youngs Moduli (GPa) = 35.63639 64.62689 52.10235
#
# Poissons Ratio (x) = 0.17592 0.28855
# Poissons Ratio (y) = 0.09701 0.51405
# Poissons Ratio (z) = 0.19736 0.63762
#
# Static dielectric constant tensor:
#      x y z
#    x 3.882050 0.240730 0.247390 
#    y 0.240730 3.808670 -0.163090 
#    z 0.247390 -0.163090 3.926480 
# 
# 
# High freq. dielectric constant tensor:
#      x y z
#    x 1.811130 0.013790 0.015420 
#    y 0.013790 1.811900 -0.008460 
#    z 0.015420 -0.008460 1.817640 
# 
# From -- ./inp_files/306318.got.cif
#   From: 2010.06.25/outbox.cif.g09.slc.cpg/sg2_154_cif.got.tgz:306318.got - 2010.06.27 13:26:56.
