data_PCOD8042766
_publ_section_title
;
Structure prediction by ZEFSAII (Michael W. Deem and Ramdas Pophale) SiO2 
 PCOD8042766
Probable space group: P -1
;
_chemical_formula_sum "Si O2"
_cell_formula_units_Z 14
_cell_length_a 10.746490
_cell_length_b 11.785527
_cell_length_c 10.121627
_cell_angle_alpha 128.279104
_cell_angle_beta 39.849995
_cell_angle_gamma 129.950992
_cell_volume 608.466568
_symmetry_space_group_name_H-M "P -1"
_symmetry_group_IT_number 2
_symmetry_cell_setting 'triclinic'
loop_
_space_group_symop_operation_xyz
x,y,z
-x,-y,-z
loop_
_atom_site_type_symbol
_atom_site_label
_atom_site_fract_x
_atom_site_fract_y
_atom_site_fract_z
Si Si1 0.414857 0.090806 0.530517
Si Si2 0.859491 0.756697 0.475536
Si Si3 0.725075 0.397207 0.581961
Si Si4 0.475840 0.368710 0.155048
Si Si5 0.114857 0.567906 0.244228
Si Si6 0.007374 0.060294 0.747595
Si Si7 0.434384 0.025264 0.923395
O O1 0.535719 0.269961 0.576649
O O2 0.169557 0.055754 0.726436
O O3 0.500000 0.000000 0.500000
O O4 0.427351 0.034751 0.330507
O O5 0.623745 0.651616 0.630162
O O6 0.029320 0.677720 0.307415
O O7 0.870018 0.796510 0.341849
O O8 0.917562 0.905787 0.626205
O O9 0.665768 0.553435 0.756152
O O10 0.768365 0.347488 0.657284
O O11 0.926419 0.421407 0.342443
O O12 0.717869 0.472602 0.016616
O O13 0.463901 0.201463 0.990282
O O14 0.802046 0.081173 0.990755
O O15 0.500000 0.000000 0.000000
#
# Coordination Sequence:
#
# PCOD8042766 Si02
#       7
#     2   2   2   2   2   2   2
#     4  12  25  41  62  95 131 161 204 264 318 365
#     4   9  18  34  59  88 111 156 207 251 301 362
#     4  10  23  37  57  89 123 162 207 257 313 368
#     4  10  19  35  61  87 115 158 206 247 301 369
#     4  10  19  37  60  83 121 165 210 253 305 373
#     4  10  20  36  59  87 126 157 199 258 308 362
#     4  11  23  41  68  95 122 168 215 250 309 380
#
# _framework density 23.008659999999999
#
# number of rings (size 3 to 8) (size 9 to 14) (size 15 to 20)
#    0.000    1.714    0.000    6.429    0.000    2.857 
#    0.000    6.429    0.000    8.571    0.000    0.000 
#    0.000    0.000    0.000    0.000    0.000    0.000 
#
# Total GULP energy -173489.244718 kJ/mol
# GULP energy per Si atom -12392.088908 kJ/mol
# Density = 2.295629 g / cm^3
# Si number density = 23.008660 Si / 1000 Ang^3
#
#
#
# Elastic Constant Matrix: (Units=GPa)
#
#
# Indices 1 2 3 4 5 6 
#
# 1 116.1473 35.8143 34.0894 -6.6615 -24.4026 -6.3006
# 2 35.8143 74.4692 31.4957 -12.3851 -9.7789 -3.1473
# 3 34.0894 31.4957 81.8037 -26.1009 -32.9667 5.0738
# 4 -6.6615 -12.3851 -26.1009 40.5953 13.4321 -2.4691
# 5 -24.4026 -9.7789 -32.9667 13.4321 40.8342 -6.4128
# 6 -6.3006 -3.1473 5.0738 -2.4691 -6.4128 32.0351
#
#
#
# Elastic Compliance Matrix: (Units=1/GPa)
#
#
# Indices 1 2 3 4 5 6 
#
# 1 0.011737 -0.004369 -0.001818 -0.002286 0.005745 0.003141
# 2 -0.004369 0.017989 -0.005934 0.002234 -0.003625 0.001295
# 3 -0.001818 -0.005934 0.023464 0.008447 0.013451 -0.001313
# 4 -0.002286 0.002234 0.008447 0.031857 -0.004492 -0.000012
# 5 0.005745 -0.003625 0.013451 -0.004492 0.040394 0.006383
# 6 0.003141 0.001295 -0.001313 -0.000012 0.006383 0.033446
#
#
# Mechanical properties :
#
#
# Convention : Reuss Voigt Hill
#
# Bulk Modulus (GPa) = 34.54294 52.80211 43.67253
# Shear Modulus (GPa) = 25.93675 34.09429 30.01552
#
# Velocity S-wave (km/s) = 3.36111 3.85360 3.61575
# Velocity P-wave (km/s) = 5.48711 6.54209 6.03768
#
# Compressibility (1/GPa) = 0.02894947
#
# Stress axis : x y z
#
# Youngs Moduli (GPa) = 85.20256 55.58850 42.61881
#
# Poissons Ratio (x) = 0.24285 0.07747
# Poissons Ratio (y) = 0.37222 0.25290
# Poissons Ratio (z) = 0.15487 0.32986
#
# Static dielectric constant tensor:
#      x y z
#    x 3.957910 -0.140220 -0.433750 
#    y -0.140220 4.241650 -0.457740 
#    z -0.433750 -0.457740 4.338290 
# 
# 
# High freq. dielectric constant tensor:
#      x y z
#    x 1.898290 -0.019510 -0.036950 
#    y -0.019510 1.903610 -0.030970 
#    z -0.036950 -0.030970 1.901730 
# 
# From -- ./inp_files/189719.got.cif
#   From: 2010.06.25/outbox.cif.g09.slc.cpg/sg2_95_cif.got.tgz:189719.got - 2010.06.27 13:26:56.
