data_PCOD8042923
_publ_section_title
;
Structure prediction by ZEFSAII (Michael W. Deem and Ramdas Pophale) SiO2 
 PCOD8042923
Probable space group: P -1
;
_chemical_formula_sum "Si O2"
_cell_formula_units_Z 14
_cell_length_a 20.334273
_cell_length_b 20.714856
_cell_length_c 9.768953
_cell_angle_alpha 25.392127
_cell_angle_beta 33.379424
_cell_angle_gamma 19.473993
_cell_volume 584.238802
_symmetry_space_group_name_H-M "P -1"
_symmetry_group_IT_number 2
_symmetry_cell_setting 'triclinic'
loop_
_space_group_symop_operation_xyz
x,y,z
-x,-y,-z
loop_
_atom_site_type_symbol
_atom_site_label
_atom_site_fract_x
_atom_site_fract_y
_atom_site_fract_z
Si Si1 0.262380 0.274593 0.741504
Si Si2 0.290015 0.176449 0.188366
Si Si3 0.551766 0.380411 0.493573
Si Si4 0.147717 0.652898 0.584411
Si Si5 0.991795 0.799555 0.290442
Si Si6 0.910954 0.185924 0.172419
Si Si7 0.092403 0.188921 0.048182
O O1 0.189578 0.517094 0.429411
O O2 0.482349 0.057278 0.713342
O O3 0.264870 0.180374 0.061278
O O4 0.115314 0.337422 0.771465
O O5 0.187636 0.137887 0.514054
O O6 0.186851 0.434398 0.920101
O O7 0.500000 0.500000 0.500000
O O8 0.353563 0.536556 0.458066
O O9 0.678018 0.379436 0.190688
O O10 0.686765 0.096001 0.819977
O O11 0.036328 0.825863 0.310563
O O12 0.006128 0.815994 0.649852
O O13 0.966184 0.952796 0.921467
O O14 0.952052 0.314820 0.914972
O O15 0.000000 0.000000 0.500000
#
# Coordination Sequence:
#
# PCOD8042923 Si02
#       7
#     2   2   2   2   2   2   2
#     4  10  19  35  65 100 129 161 199 257 325 391
#     4  10  19  36  62 102 135 154 195 263 333 376
#     4  11  23  41  65  87 124 175 216 255 311 371
#     4  11  20  37  70  95 125 166 206 261 322 377
#     4  11  22  40  63  99 131 159 210 266 316 375
#     4  10  25  45  61  84 131 175 215 262 309 369
#     4  11  20  40  66  91 124 169 207 251 324 383
#
# _framework density 23.962803999999998
#
# number of rings (size 3 to 8) (size 9 to 14) (size 15 to 20)
#    0.000    1.429    5.714    0.857    0.000    1.143 
#    5.143    3.571    0.000    0.000    0.000    0.000 
#    0.000    0.000    0.000    0.000    0.000    0.000 
#
# Total GULP energy -173539.179032 kJ/mol
# GULP energy per Si atom -12395.655645 kJ/mol
# Density = 2.390826 g / cm^3
# Si number density = 23.962804 Si / 1000 Ang^3
#
#
#
# Elastic Constant Matrix: (Units=GPa)
#
#
# Indices 1 2 3 4 5 6 
#
# 1 150.5387 20.1867 25.6129 37.3419 -2.5390 -7.5633
# 2 20.1867 101.2282 20.1016 31.5855 2.8246 -0.4189
# 3 25.6129 20.1016 87.9562 36.8961 10.1450 -8.0665
# 4 37.3419 31.5855 36.8961 40.2043 2.5839 -6.1082
# 5 -2.5390 2.8246 10.1450 2.5839 26.0585 14.9840
# 6 -7.5633 -0.4189 -8.0665 -6.1082 14.9840 40.1084
#
#
#
# Elastic Compliance Matrix: (Units=1/GPa)
#
#
# Indices 1 2 3 4 5 6 
#
# 1 0.008889 0.001225 0.001430 -0.010634 0.001306 -0.000131
# 2 0.001225 0.013585 0.002394 -0.014185 -0.000162 -0.001245
# 3 0.001430 0.002394 0.020552 -0.020834 -0.008631 0.004480
# 4 -0.010634 -0.014185 -0.020834 0.065564 0.000022 0.003633
# 5 0.001306 -0.000162 -0.008631 0.000022 0.054425 -0.021821
# 6 -0.000131 -0.001245 0.004480 0.003633 -0.021821 0.034501
#
#
# Mechanical properties :
#
#
# Convention : Reuss Voigt Hill
#
# Bulk Modulus (GPa) = 18.82501 52.39173 35.60837
# Shear Modulus (GPa) = 24.37528 39.52904 31.95216
#
# Velocity S-wave (km/s) = 3.19284 4.06593 3.65555
# Velocity P-wave (km/s) = 4.63306 6.62975 5.71922
#
# Compressibility (1/GPa) = 0.05312083
#
# Stress axis : x y z
#
# Youngs Moduli (GPa) = 112.50444 73.61244 48.65798
#
# Poissons Ratio (x) = -0.09014 -0.06957
# Poissons Ratio (y) = -0.13776 -0.11648
# Poissons Ratio (z) = -0.16085 -0.17621
#
# Static dielectric constant tensor:
#      x y z
#    x 5.035540 -0.004070 -0.278250 
#    y -0.004070 4.370860 0.271230 
#    z -0.278250 0.271230 4.265420 
# 
# 
# High freq. dielectric constant tensor:
#      x y z
#    x 1.972570 0.012990 -0.020770 
#    y 0.012990 1.948270 0.016670 
#    z -0.020770 0.016670 1.934290 
# 
# From -- ./inp_files/349643.got.cif
#   From: 2010.06.25/outbox.cif.g09.slc.cpg/sg2_175_cif.got.tgz:349643.got - 2010.06.27 13:26:56.
