data_PCOD8042291
_publ_section_title
;
Structure prediction by ZEFSAII (Michael W. Deem and Ramdas Pophale) SiO2 
 PCOD8042291
Probable space group: P -1
;
_chemical_formula_sum "Si O2"
_cell_formula_units_Z 14
_cell_length_a 29.625502
_cell_length_b 14.231964
_cell_length_c 14.159570
_cell_angle_alpha 158.276831
_cell_angle_beta 160.871516
_cell_angle_gamma 21.688507
_cell_volume 655.514191
_symmetry_space_group_name_H-M "P -1"
_symmetry_group_IT_number 2
_symmetry_cell_setting 'triclinic'
loop_
_space_group_symop_operation_xyz
x,y,z
-x,-y,-z
loop_
_atom_site_type_symbol
_atom_site_label
_atom_site_fract_x
_atom_site_fract_y
_atom_site_fract_z
Si Si1 0.227852 0.682169 0.493728
Si Si2 0.401040 0.326633 0.128682
Si Si3 0.491004 0.820192 0.145094
Si Si4 0.777600 0.659889 0.671110
Si Si5 0.099091 0.900847 0.734195
Si Si6 0.332814 0.581753 0.043327
Si Si7 0.364217 0.356993 0.288473
O O1 0.210244 0.429136 0.278265
O O2 0.252444 0.631595 0.381603
O O3 0.383716 0.680571 0.843230
O O4 0.081258 0.975034 0.490605
O O5 0.500000 0.500000 0.500000
O O6 0.293681 0.460701 0.950202
O O7 0.303878 0.360524 0.065140
O O8 0.500000 0.000000 0.000000
O O9 0.599898 0.843067 0.463905
O O10 0.366554 0.107226 0.124358
O O11 0.603734 0.660657 0.134518
O O12 0.850668 0.371779 0.486447
O O13 0.865154 0.856501 0.017344
O O14 0.181198 0.828769 0.931636
O O15 0.460783 0.691095 0.418399
#
# Coordination Sequence:
#
# PCOD8042291 Si02
#       7
#     2   2   2   2   2   2   2
#     4  11  25  37  58  89 123 159 193 252 295 348
#     4  10  19  34  62  89 113 149 195 242 289 347
#     4  10  20  37  60  87 119 152 200 247 294 341
#     4  11  24  42  61  84 118 164 206 238 288 355
#     4  11  24  41  61  86 120 161 201 239 294 357
#     4   9  19  38  59  88 115 154 198 242 287 355
#     4  10  20  36  59  87 119 149 197 245 298 342
#
# _framework density 21.357279999999999
#
# number of rings (size 3 to 8) (size 9 to 14) (size 15 to 20)
#    0.000    1.714    2.857    1.286    4.000    0.571 
#    0.000    0.714    0.000    0.857    0.000    0.000 
#    0.000    0.000    0.000    0.000    0.000    0.000 
#
# Total GULP energy -173480.453215 kJ/mol
# GULP energy per Si atom -12391.460944 kJ/mol
# Density = 2.130867 g / cm^3
# Si number density = 21.357280 Si / 1000 Ang^3
#
#
#
# Elastic Constant Matrix: (Units=GPa)
#
#
# Indices 1 2 3 4 5 6 
#
# 1 118.4003 51.9183 8.4155 -13.0856 -4.2047 8.6927
# 2 51.9183 74.8366 25.9618 -2.8971 9.5129 1.2013
# 3 8.4155 25.9618 47.3824 8.9816 -0.3997 -12.5489
# 4 -13.0856 -2.8971 8.9816 36.3941 4.9604 0.8645
# 5 -4.2047 9.5129 -0.3997 4.9604 16.0742 0.1658
# 6 8.6927 1.2013 -12.5489 0.8645 0.1658 32.0624
#
#
#
# Elastic Compliance Matrix: (Units=1/GPa)
#
#
# Indices 1 2 3 4 5 6 
#
# 1 0.014397 -0.012385 0.003353 0.001972 0.010594 -0.002235
# 2 -0.012385 0.031385 -0.017538 0.005753 -0.023977 -0.004713
# 3 0.003353 -0.017538 0.036192 -0.011582 0.015585 0.014145
# 4 0.001972 0.005753 -0.011582 0.033480 -0.013446 -0.006117
# 5 0.010594 -0.023977 0.015585 -0.013446 0.083667 0.004056
# 6 -0.002235 -0.004713 0.014145 -0.006117 0.004056 0.037652
#
#
# Mechanical properties :
#
#
# Convention : Reuss Voigt Hill
#
# Bulk Modulus (GPa) = 34.68256 45.91227 40.29741
# Shear Modulus (GPa) = 16.69305 27.19439 21.94372
#
# Velocity S-wave (km/s) = 2.79876 3.57221 3.20888
# Velocity P-wave (km/s) = 5.16900 6.20953 5.71300
#
# Compressibility (1/GPa) = 0.02883294
#
# Stress axis : x y z
#
# Youngs Moduli (GPa) = 69.45958 31.86207 27.63046
#
# Poissons Ratio (x) = 0.39463 -0.09264
# Poissons Ratio (y) = 0.86029 0.48458
# Poissons Ratio (z) = -0.23289 0.55880
#
# Static dielectric constant tensor:
#      x y z
#    x 4.354100 0.301810 -0.102050 
#    y 0.301810 3.946920 0.064680 
#    z -0.102050 0.064680 3.673810 
# 
# 
# High freq. dielectric constant tensor:
#      x y z
#    x 1.843760 0.010850 -0.006430 
#    y 0.010850 1.823900 0.019810 
#    z -0.006430 0.019810 1.821950 
# 
# From -- ./inp_files/29745.got.cif
#   From: 2010.06.25/outbox.cif.g09.slc.cpg/sg2_15_cif.got.tgz:29745.got - 2010.06.27 13:26:56.
