data_PCOD8042882
_publ_section_title
;
Structure prediction by ZEFSAII (Michael W. Deem and Ramdas Pophale) SiO2 
 PCOD8042882
Probable space group: P -1
;
_chemical_formula_sum "Si O2"
_cell_formula_units_Z 14
_cell_length_a 7.369703
_cell_length_b 11.799522
_cell_length_c 14.614859
_cell_angle_alpha 149.144340
_cell_angle_beta 70.114178
_cell_angle_gamma 94.916198
_cell_volume 554.038370
_symmetry_space_group_name_H-M "P -1"
_symmetry_group_IT_number 2
_symmetry_cell_setting 'triclinic'
loop_
_space_group_symop_operation_xyz
x,y,z
-x,-y,-z
loop_
_atom_site_type_symbol
_atom_site_label
_atom_site_fract_x
_atom_site_fract_y
_atom_site_fract_z
Si Si1 0.985865 0.835332 0.468723
Si Si2 0.488332 0.132539 0.868077
Si Si3 0.004769 0.647054 0.868430
Si Si4 0.391093 0.413054 0.536316
Si Si5 0.445234 0.598280 0.297863
Si Si6 0.659922 0.768648 0.237192
Si Si7 0.916902 0.233613 0.870924
O O1 0.204163 0.661855 0.361094
O O2 0.902476 0.641069 0.314368
O O3 0.000000 0.000000 0.500000
O O4 0.837047 0.028377 0.706161
O O5 0.489743 0.161071 0.777666
O O6 0.610182 0.844025 0.670955
O O7 0.572579 0.321615 0.036325
O O8 0.246637 0.207888 0.999989
O O9 0.144762 0.622953 0.735963
O O10 0.096842 0.749376 0.005553
O O11 0.500000 0.500000 0.500000
O O12 0.519006 0.396611 0.597326
O O13 0.518215 0.798024 0.374919
O O14 0.828032 0.891210 0.290051
O O15 0.806698 0.478671 0.001095
#
# Coordination Sequence:
#
# PCOD8042882 Si02
#       7
#     2   2   2   2   2   2   2
#     4  11  23  36  64 100 134 174 204 249 336 409
#     4  10  24  42  64  98 132 164 212 274 332 394
#     4  10  23  43  62  94 132 167 218 272 320 382
#     4  12  28  46  68  93 123 179 238 271 316 374
#     4  11  23  41  64  98 133 168 215 264 327 394
#     4  10  19  35  63  96 135 165 197 260 333 400
#     4  10  19  36  57  95 140 165 199 253 325 400
#
# _framework density 25.269005
#
# number of rings (size 3 to 8) (size 9 to 14) (size 15 to 20)
#    0.000    1.429    1.429    5.571    4.000    2.286 
#    0.000    2.857    0.000    0.000    0.000    0.000 
#    0.000    0.000    0.000    0.000    0.000    0.000 
#
# Total GULP energy -173519.123294 kJ/mol
# GULP energy per Si atom -12394.223092 kJ/mol
# Density = 2.521149 g / cm^3
# Si number density = 25.269005 Si / 1000 Ang^3
#
#
#
# Elastic Constant Matrix: (Units=GPa)
#
#
# Indices 1 2 3 4 5 6 
#
# 1 80.8450 29.2452 2.3170 -5.7848 8.1941 4.1937
# 2 29.2452 133.3836 28.8596 -26.1409 6.2346 23.9132
# 3 2.3170 28.8596 95.9768 -15.6334 5.7069 4.0440
# 4 -5.7848 -26.1409 -15.6334 33.0770 11.5292 -5.8120
# 5 8.1941 6.2346 5.7069 11.5292 44.6215 -5.2926
# 6 4.1937 23.9132 4.0440 -5.8120 -5.2926 28.8353
#
#
#
# Elastic Compliance Matrix: (Units=1/GPa)
#
#
# Indices 1 2 3 4 5 6 
#
# 1 0.013729 -0.002779 0.000916 0.001564 -0.002653 0.000008
# 2 -0.002779 0.011642 -0.001568 0.007909 -0.003927 -0.008157
# 3 0.000916 -0.001568 0.011950 0.005600 -0.002914 0.000085
# 4 0.001564 0.007909 0.005600 0.043931 -0.013603 -0.001214
# 5 -0.002653 -0.003927 -0.002914 -0.013603 0.028101 0.006467
# 6 0.000008 -0.008157 0.000085 -0.001214 0.006467 0.042374
#
#
# Mechanical properties :
#
#
# Convention : Reuss Voigt Hill
#
# Bulk Modulus (GPa) = 32.83095 47.89434 40.36264
# Shear Modulus (GPa) = 29.63097 37.95900 33.79499
#
# Velocity S-wave (km/s) = 3.42807 3.88002 3.66103
# Velocity P-wave (km/s) = 5.35627 6.25042 5.82054
#
# Compressibility (1/GPa) = 0.03045907
#
# Stress axis : x y z
#
# Youngs Moduli (GPa) = 72.83907 85.89754 83.67881
#
# Poissons Ratio (x) = 0.23874 -0.07669
# Poissons Ratio (y) = 0.20245 0.13122
# Poissons Ratio (z) = -0.06675 0.13470
#
# Static dielectric constant tensor:
#      x y z
#    x 5.313130 0.452640 -0.225940 
#    y 0.452640 3.935070 -0.099230 
#    z -0.225940 -0.099230 5.492120 
# 
# 
# High freq. dielectric constant tensor:
#      x y z
#    x 2.047410 0.030840 -0.014050 
#    y 0.030840 1.936130 -0.013730 
#    z -0.014050 -0.013730 2.062580 
# 
# From -- ./inp_files/225425.got.cif
#   From: 2010.06.25/outbox.cif.g09.slc.cpg/sg2_113_cif.got.tgz:225425.got - 2010.06.27 13:26:56.
