data_PCOD8042028
_publ_section_title
;
Structure prediction by ZEFSAII (Michael W. Deem and Ramdas Pophale) SiO2 
 PCOD8042028
Probable space group: P -1
;
_chemical_formula_sum "Si O2"
_cell_formula_units_Z 16
_cell_length_a 12.607154
_cell_length_b 23.136086
_cell_length_c 12.844172
_cell_angle_alpha 38.192029
_cell_angle_beta 147.688682
_cell_angle_gamma 156.387251
_cell_volume 800.946803
_symmetry_space_group_name_H-M "P -1"
_symmetry_group_IT_number 2
_symmetry_cell_setting 'triclinic'
loop_
_space_group_symop_operation_xyz
x,y,z
-x,-y,-z
loop_
_atom_site_type_symbol
_atom_site_label
_atom_site_fract_x
_atom_site_fract_y
_atom_site_fract_z
Si Si1 0.199038 0.753161 0.591779
Si Si2 0.189068 0.091739 0.202696
Si Si3 0.398850 0.435191 0.170802
Si Si4 0.075830 0.604865 0.257321
Si Si5 0.851576 0.783068 0.340478
Si Si6 0.130691 0.253028 0.821128
Si Si7 0.396878 0.579209 0.433358
Si Si8 0.600742 0.322751 0.378665
O O1 0.152964 0.822548 0.538047
O O2 0.147228 0.776259 0.397893
O O3 0.930183 0.583544 0.635666
O O4 0.541116 0.835223 0.760960
O O5 0.321590 0.163387 0.325204
O O6 0.012613 0.119518 0.973620
O O7 0.948442 0.922365 0.253512
O O8 0.628358 0.605707 0.105606
O O9 0.405612 0.409147 0.334901
O O10 0.496213 0.383731 0.253888
O O11 0.070498 0.354396 0.971618
O O12 0.328661 0.657757 0.311130
O O13 0.238577 0.684959 0.389852
O O14 0.836116 0.433041 0.324135
O O15 0.714911 0.725781 0.190888
O O16 0.590220 0.654712 0.382519
#
# Coordination Sequence:
#
# PCOD8042028 Si02
#       8
#     2   2   2   2   2   2   2   2
#     4   9  20  35  57  78 110 144 188 226 259 322
#     4  12  20  39  55  86 113 148 183 222 283 331
#     4  10  19  35  58  87 110 139 190 233 276 313
#     4  10  19  34  56  86 109 139 184 237 273 317
#     4  10  23  37  57  79 121 150 174 227 280 331
#     4   9  21  34  57  84 111 143 183 233 268 327
#     4  10  19  39  54  85 113 143 186 228 273 325
#     4  10  21  31  59  86 110 140 184 240 269 320
#
# _framework density 19.976358999999999
#
# number of rings (size 3 to 8) (size 9 to 14) (size 15 to 20)
#    0.750    1.250    2.500    1.500    1.750    0.000 
#    2.250    3.750    0.000    1.500    0.000    0.000 
#    0.000    0.000    0.000    0.000    0.000    0.000 
#
# Total GULP energy -198246.567206 kJ/mol
# GULP energy per Si atom -12390.410450 kJ/mol
# Density = 1.993089 g / cm^3
# Si number density = 19.976359 Si / 1000 Ang^3
#
#
#
# Elastic Constant Matrix: (Units=GPa)
#
#
# Indices 1 2 3 4 5 6 
#
# 1 44.7581 10.7323 3.0821 -6.4391 0.9029 -10.9068
# 2 10.7323 56.6890 17.5350 -17.2200 4.5911 -10.3823
# 3 3.0821 17.5350 75.5441 2.0363 4.3797 4.3705
# 4 -6.4391 -17.2200 2.0363 23.6307 -1.4028 3.4111
# 5 0.9029 4.5911 4.3797 -1.4028 21.8083 -2.2444
# 6 -10.9068 -10.3823 4.3705 3.4111 -2.2444 26.5028
#
#
#
# Elastic Compliance Matrix: (Units=1/GPa)
#
#
# Indices 1 2 3 4 5 6 
#
# 1 0.025825 -0.001178 -0.001531 0.004937 0.000818 0.009853
# 2 -0.001178 0.027735 -0.007296 0.019099 -0.002176 0.008941
# 3 -0.001531 -0.007296 0.015628 -0.006443 -0.002514 -0.005449
# 4 0.004937 0.019099 -0.006443 0.057735 0.001116 0.003240
# 5 0.000818 -0.002176 -0.002514 0.001116 0.047242 0.003756
# 6 0.009853 0.008941 -0.005449 0.003240 0.003756 0.046089
#
#
# Mechanical properties :
#
#
# Convention : Reuss Voigt Hill
#
# Bulk Modulus (GPa) = 20.33365 26.63223 23.48294
# Shear Modulus (GPa) = 19.48148 24.09782 21.78965
#
# Velocity S-wave (km/s) = 3.12625 3.47698 3.30627
# Velocity P-wave (km/s) = 4.81998 5.42954 5.13382
#
# Compressibility (1/GPa) = 0.04917956
#
# Stress axis : x y z
#
# Youngs Moduli (GPa) = 38.72244 36.05550 63.98830
#
# Poissons Ratio (x) = 0.04246 0.09795
# Poissons Ratio (y) = 0.04560 0.46683
# Poissons Ratio (z) = 0.05927 0.26305
#
# Static dielectric constant tensor:
#      x y z
#    x 3.540490 -0.248910 0.121210 
#    y -0.248910 3.165440 0.056140 
#    z 0.121210 0.056140 3.675420 
# 
# 
# High freq. dielectric constant tensor:
#      x y z
#    x 1.772980 -0.029120 0.012910 
#    y -0.029120 1.733330 0.003190 
#    z 0.012910 0.003190 1.781180 
# 
# From -- ./inp_files/432347.got.cif
#   From: 2010.06.25/outbox.cif.g09.slc.cpg/sg2_217_cif.got.tgz:432347.got - 2010.06.27 13:26:56.
