data_PCOD8042261
_publ_section_title
;
Structure prediction by ZEFSAII (Michael W. Deem and Ramdas Pophale) SiO2 
 PCOD8042261
Probable space group: P -1
;
_chemical_formula_sum "Si O2"
_cell_formula_units_Z 12
_cell_length_a 6.927559
_cell_length_b 19.528536
_cell_length_c 8.662062
_cell_angle_alpha 139.596462
_cell_angle_beta 54.353061
_cell_angle_gamma 139.152448
_cell_volume 496.721587
_symmetry_space_group_name_H-M "P -1"
_symmetry_group_IT_number 2
_symmetry_cell_setting 'triclinic'
loop_
_space_group_symop_operation_xyz
x,y,z
-x,-y,-z
loop_
_atom_site_type_symbol
_atom_site_label
_atom_site_fract_x
_atom_site_fract_y
_atom_site_fract_z
Si Si1 0.750278 0.182478 0.236695
Si Si2 0.240780 0.977973 0.300989
Si Si3 0.046314 0.279985 0.859167
Si Si4 0.076864 0.527254 0.835910
Si Si5 0.674669 0.579622 0.712148
Si Si6 0.429215 0.651802 0.467785
O O1 0.573362 0.222424 0.277011
O O2 0.071191 0.318096 0.352199
O O3 0.568471 0.116897 0.370550
O O4 0.802969 0.084808 0.957123
O O5 0.205226 0.875506 0.266623
O O6 0.000000 0.000000 0.500000
O O7 0.251154 0.304566 0.660668
O O8 0.258112 0.347779 0.028654
O O9 0.861360 0.335776 0.005974
O O10 0.373756 0.535214 0.691506
O O11 0.794430 0.410814 0.678194
O O12 0.000000 0.500000 0.000000
O O13 0.684211 0.453528 0.520533
#
# Coordination Sequence:
#
# PCOD8042261 Si02
#       6
#     2   2   2   2   2   2
#     4  10  22  36  60  91 116 153 200 242 292 345
#     4  10  20  39  63  85 113 159 202 239 290 348
#     4  10  19  34  61  88 115 155 201 237 284 351
#     4  11  19  33  59  92 120 158 193 229 301 355
#     4  10  20  36  57  88 125 152 188 242 293 350
#     4  11  19  34  59  90 121 150 192 245 289 349
#
# _framework density 24.158401000000001
#
# number of rings (size 3 to 8) (size 9 to 14) (size 15 to 20)
#    0.000    1.667    5.000    1.500    0.000    0.667 
#    0.000    0.833    0.000   13.000    0.000    0.000 
#    0.000    0.000    0.000    0.000    0.000    0.000 
#
# Total GULP energy -148660.685848 kJ/mol
# GULP energy per Si atom -12388.390487 kJ/mol
# Density = 2.410342 g / cm^3
# Si number density = 24.158401 Si / 1000 Ang^3
#
#
#
# Elastic Constant Matrix: (Units=GPa)
#
#
# Indices 1 2 3 4 5 6 
#
# 1 122.3884 54.4734 42.9902 -1.7243 -23.3202 -0.6464
# 2 54.4734 202.9685 46.8926 4.0836 -17.9328 6.7283
# 3 42.9902 46.8926 104.8004 -3.1835 -42.2170 -2.1176
# 4 -1.7243 4.0836 -3.1835 34.3204 -3.4814 -16.4196
# 5 -23.3202 -17.9328 -42.2170 -3.4814 49.2835 -7.1545
# 6 -0.6464 6.7283 -2.1176 -16.4196 -7.1545 35.0597
#
#
#
# Elastic Compliance Matrix: (Units=1/GPa)
#
#
# Indices 1 2 3 4 5 6 
#
# 1 0.010434 -0.002166 -0.002124 0.001748 0.002722 0.001854
# 2 -0.002166 0.006131 -0.002692 -0.002695 -0.001725 -0.002993
# 3 -0.002124 -0.002692 0.018153 0.007331 0.015262 0.008122
# 4 0.001748 -0.002695 0.007331 0.042792 0.012575 0.023599
# 5 0.002722 -0.001725 0.015262 0.012575 0.037055 0.014754
# 6 0.001854 -0.002993 0.008122 0.023599 0.014754 0.043685
#
#
# Mechanical properties :
#
#
# Convention : Reuss Voigt Hill
#
# Bulk Modulus (GPa) = 48.18261 79.87440 64.02850
# Shear Modulus (GPa) = 27.91251 42.78612 35.34931
#
# Velocity S-wave (km/s) = 3.40280 4.21297 3.82937
# Velocity P-wave (km/s) = 5.95201 7.53658 6.79067
#
# Compressibility (1/GPa) = 0.02075438
#
# Stress axis : x y z
#
# Youngs Moduli (GPa) = 95.84255 163.10166 55.08810
#
# Poissons Ratio (x) = 0.35323 0.11699
# Poissons Ratio (y) = 0.20756 0.14831
# Poissons Ratio (z) = 0.20355 0.43910
#
# Static dielectric constant tensor:
#      x y z
#    x 4.826650 -0.194990 -0.814540 
#    y -0.194990 5.154470 0.179470 
#    z -0.814540 0.179470 4.953800 
# 
# 
# High freq. dielectric constant tensor:
#      x y z
#    x 1.919790 -0.008510 -0.038060 
#    y -0.008510 1.986320 -0.013080 
#    z -0.038060 -0.013080 1.974420 
# 
# From -- ./inp_files/199904.got.cif
#   From: 2010.06.25/outbox.cif.g09.slc.cpg/sg2_100_cif.got.tgz:199904.got - 2010.06.27 13:26:56.
