data_PCOD8042158
_publ_section_title
;
Structure prediction by ZEFSAII (Michael W. Deem and Ramdas Pophale) SiO2 
 PCOD8042158
Probable space group: P -1
;
_chemical_formula_sum "Si O2"
_cell_formula_units_Z 14
_cell_length_a 8.333235
_cell_length_b 8.597156
_cell_length_c 9.862830
_cell_angle_alpha 81.324975
_cell_angle_beta 97.756583
_cell_angle_gamma 75.328153
_cell_volume 664.563169
_symmetry_space_group_name_H-M "P -1"
_symmetry_group_IT_number 2
_symmetry_cell_setting 'triclinic'
loop_
_space_group_symop_operation_xyz
x,y,z
-x,-y,-z
loop_
_atom_site_type_symbol
_atom_site_label
_atom_site_fract_x
_atom_site_fract_y
_atom_site_fract_z
Si Si1 0.681532 0.023503 0.997680
Si Si2 0.752831 0.346224 0.022239
Si Si3 0.882631 0.971707 0.293078
Si Si4 0.336462 0.701417 0.683973
Si Si5 0.105242 0.172150 0.182231
Si Si6 0.094761 0.627974 0.447312
Si Si7 0.719242 0.572464 0.745801
O O1 0.667976 0.215920 0.961305
O O2 0.745760 0.938388 0.875273
O O3 0.500000 0.000000 0.000000
O O4 0.810436 0.939904 0.142855
O O5 0.709486 0.510279 0.906925
O O6 0.683220 0.382918 0.162606
O O7 0.954911 0.274252 0.055707
O O8 0.953159 0.801641 0.400135
O O9 0.732644 0.100138 0.341031
O O10 0.035132 0.055655 0.288062
O O11 0.235624 0.629534 0.572442
O O12 0.529462 0.656265 0.663959
O O13 0.177155 0.293587 0.265652
O O14 0.187707 0.578081 0.320478
O O15 0.000000 0.500000 0.500000
#
# Coordination Sequence:
#
# PCOD8042158 Si02
#       7
#     2   2   2   2   2   2   2
#     4  10  19  34  58  92 124 158 200 248 301 355
#     4  10  21  38  62  91 122 158 201 251 299 357
#     4  10  22  42  62  83 119 165 204 243 296 369
#     4  10  23  42  62  91 123 159 202 250 301 356
#     4  10  19  36  59  88 120 161 200 240 301 367
#     4  12  25  43  63  88 121 164 205 247 301 364
#     4  12  23  39  63  95 125 155 199 257 305 348
#
# _framework density 21.066472000000001
#
# number of rings (size 3 to 8) (size 9 to 14) (size 15 to 20)
#    0.000    1.714    0.000    8.571    0.000    2.286 
#    0.000    5.714    0.000    0.000    0.000    0.000 
#    0.000    0.000    0.000    0.000    0.000    0.000 
#
# Total GULP energy -173636.182847 kJ/mol
# GULP energy per Si atom -12402.584489 kJ/mol
# Density = 2.101852 g / cm^3
# Si number density = 21.066472 Si / 1000 Ang^3
#
#
#
# Elastic Constant Matrix: (Units=GPa)
#
#
# Indices 1 2 3 4 5 6 
#
# 1 120.6300 49.3502 20.9244 -13.4264 10.1279 2.9001
# 2 49.3502 103.8666 45.5281 -10.2317 8.7631 8.6054
# 3 20.9244 45.5281 71.8861 -0.5969 4.1244 5.0693
# 4 -13.4264 -10.2317 -0.5969 40.6369 -0.0316 -1.6429
# 5 10.1279 8.7631 4.1244 -0.0316 22.0520 8.3502
# 6 2.9001 8.6054 5.0693 -1.6429 8.3502 33.4865
#
#
#
# Elastic Compliance Matrix: (Units=1/GPa)
#
#
# Indices 1 2 3 4 5 6 
#
# 1 0.010737 -0.004648 -0.000048 0.002426 -0.003556 0.001277
# 2 -0.004648 0.016164 -0.008622 0.002332 -0.001977 -0.001839
# 3 -0.000048 -0.008622 0.019422 -0.001936 0.000134 -0.000849
# 4 0.002426 0.002332 -0.001936 0.026019 -0.002130 0.001291
# 5 -0.003556 -0.001977 0.000134 -0.002130 0.052426 -0.012382
# 6 0.001277 -0.001839 -0.000849 0.001291 -0.012382 0.033504
#
#
# Mechanical properties :
#
#
# Convention : Reuss Voigt Hill
#
# Bulk Modulus (GPa) = 50.79240 58.66535 54.72887
# Shear Modulus (GPa) = 26.11381 31.27374 28.69377
#
# Velocity S-wave (km/s) = 3.52460 3.85714 3.69461
# Velocity P-wave (km/s) = 6.38174 6.90976 6.65100
#
# Compressibility (1/GPa) = 0.01968799
#
# Stress axis : x y z
#
# Youngs Moduli (GPa) = 93.13398 61.86574 51.48923
#
# Poissons Ratio (x) = 0.28752 0.00246
# Poissons Ratio (y) = 0.43284 0.44394
# Poissons Ratio (z) = 0.00446 0.53341
#
# Static dielectric constant tensor:
#      x y z
#    x 3.870600 0.007460 0.035810 
#    y 0.007460 4.014220 0.152680 
#    z 0.035810 0.152680 3.636310 
# 
# 
# High freq. dielectric constant tensor:
#      x y z
#    x 1.834580 -0.001890 0.003690 
#    y -0.001890 1.826880 0.013920 
#    z 0.003690 0.013920 1.812050 
# 
# From -- ./inp_files/154194.got.cif
#   From: 2010.06.25/outbox.cif.g09.slc.cpg/sg2_78_cif.got.tgz:154194.got - 2010.06.27 13:26:56.
