data_PCOD8042610
_publ_section_title
;
Structure prediction by ZEFSAII (Michael W. Deem and Ramdas Pophale) SiO2 
 PCOD8042610
Probable space group: P -1
;
_chemical_formula_sum "Si O2"
_cell_formula_units_Z 16
_cell_length_a 14.387113
_cell_length_b 21.383418
_cell_length_c 18.862337
_cell_angle_alpha 157.694010
_cell_angle_beta 158.872900
_cell_angle_gamma 31.396774
_cell_volume 791.992267
_symmetry_space_group_name_H-M "P -1"
_symmetry_group_IT_number 2
_symmetry_cell_setting 'triclinic'
loop_
_space_group_symop_operation_xyz
x,y,z
-x,-y,-z
loop_
_atom_site_type_symbol
_atom_site_label
_atom_site_fract_x
_atom_site_fract_y
_atom_site_fract_z
Si Si1 0.778077 0.329241 0.370047
Si Si2 0.706891 0.259310 0.402644
Si Si3 0.214619 0.477153 0.736169
Si Si4 0.304776 0.538308 0.261898
Si Si5 0.274270 0.961918 0.072307
Si Si6 0.955474 0.243536 0.193004
Si Si7 0.776982 0.954685 0.210329
Si Si8 0.302527 0.858814 0.515242
O O1 0.837989 0.323127 0.490055
O O2 0.487830 0.391813 0.218985
O O3 0.000593 0.448144 0.615506
O O4 0.787332 0.143877 0.153413
O O5 0.653703 0.413815 0.576309
O O6 0.882967 0.125789 0.425792
O O7 0.432921 0.157262 0.097848
O O8 0.159344 0.642798 0.828852
O O9 0.174193 0.332650 0.495416
O O10 0.500000 0.500000 0.000000
O O11 0.396446 0.685965 0.428468
O O12 0.000000 0.500000 0.000000
O O13 0.537640 0.075912 0.371133
O O14 0.282867 0.831198 0.006038
O O15 0.054670 0.088135 0.059555
O O16 0.005714 0.834227 0.256092
O O17 0.659176 0.000485 0.250091
#
# Coordination Sequence:
#
# PCOD8042610 Si02
#       8
#     2   2   2   2   2   2   2   2
#     4  11  22  39  62  88 122 162 204 252 304 365
#     4  10  20  37  55  84 123 155 202 251 299 348
#     4  10  22  44  67  92 128 157 201 258 320 373
#     4  11  24  38  59  87 127 167 201 249 303 362
#     4  10  20  38  67  85 119 159 206 254 305 362
#     4   9  21  43  65  93 121 158 201 264 313 364
#     4   9  19  34  56  83 116 153 196 251 292 347
#     4  10  19  35  59  83 113 157 201 238 299 365
#
# _framework density 20.202217999999998
#
# number of rings (size 3 to 8) (size 9 to 14) (size 15 to 20)
#    0.000    2.000    1.250    1.875    3.500    1.000 
#    9.000    5.625    0.000    0.000    0.000    0.000 
#    0.000    0.000    0.000    0.000    0.000    0.000 
#
# Total GULP energy -198252.863971 kJ/mol
# GULP energy per Si atom -12390.803998 kJ/mol
# Density = 2.015624 g / cm^3
# Si number density = 20.202218 Si / 1000 Ang^3
#
#
#
# Elastic Constant Matrix: (Units=GPa)
#
#
# Indices 1 2 3 4 5 6 
#
# 1 126.7029 57.9071 50.9320 6.4097 20.0076 8.5293
# 2 57.9071 94.4783 35.4351 4.3801 -4.0761 2.1142
# 3 50.9320 35.4351 88.7536 -1.6954 5.0102 -2.4308
# 4 6.4097 4.3801 -1.6954 29.6866 3.4804 -0.2854
# 5 20.0076 -4.0761 5.0102 3.4804 39.1744 7.6867
# 6 8.5293 2.1142 -2.4308 -0.2854 7.6867 33.3350
#
#
#
# Elastic Compliance Matrix: (Units=1/GPa)
#
#
# Indices 1 2 3 4 5 6 
#
# 1 0.014579 -0.007168 -0.005197 -0.001588 -0.006982 -0.002058
# 2 -0.007168 0.016400 -0.002832 -0.001751 0.006046 -0.000822
# 3 -0.005197 -0.002832 0.015525 0.002498 -0.000388 0.002752
# 4 -0.001588 -0.001751 0.002498 0.034811 -0.003120 0.001717
# 5 -0.006982 0.006046 -0.000388 -0.003120 0.031196 -0.005845
# 6 -0.002058 -0.000822 0.002752 0.001717 -0.005845 0.032141
#
#
# Mechanical properties :
#
#
# Convention : Reuss Voigt Hill
#
# Bulk Modulus (GPa) = 62.06968 66.49812 64.28390
# Shear Modulus (GPa) = 27.71373 31.48325 29.59849
#
# Velocity S-wave (km/s) = 3.70782 3.95195 3.83183
# Velocity P-wave (km/s) = 7.00867 7.33564 7.17402
#
# Compressibility (1/GPa) = 0.01611093
#
# Stress axis : x y z
#
# Youngs Moduli (GPa) = 68.59163 60.97444 64.41201
#
# Poissons Ratio (x) = 0.43707 0.33475
# Poissons Ratio (y) = 0.49167 0.18239
# Poissons Ratio (z) = 0.35647 0.17266
#
# Static dielectric constant tensor:
#      x y z
#    x 3.913610 0.137660 0.109430 
#    y 0.137660 3.719570 0.218790 
#    z 0.109430 0.218790 3.594490 
# 
# 
# High freq. dielectric constant tensor:
#      x y z
#    x 1.796120 0.008930 0.010390 
#    y 0.008930 1.783550 0.021700 
#    z 0.010390 0.021700 1.780080 
# 
# From -- ./inp_files/598540.got.cif
#   From: 2010.06.25/outbox.cif.g09.slc.cpg/sg2_300_cif.got.tgz:598540.got - 2010.06.27 13:26:56.
