data_PCOD8042402
_publ_section_title
;
Structure prediction by ZEFSAII (Michael W. Deem and Ramdas Pophale) SiO2 
 PCOD8042402
Probable space group: P -1
;
_chemical_formula_sum "Si O2"
_cell_formula_units_Z 14
_cell_length_a 13.072291
_cell_length_b 9.783464
_cell_length_c 13.926560
_cell_angle_alpha 79.411844
_cell_angle_beta 148.373348
_cell_angle_gamma 116.106522
_cell_volume 766.645169
_symmetry_space_group_name_H-M "P -1"
_symmetry_group_IT_number 2
_symmetry_cell_setting 'triclinic'
loop_
_space_group_symop_operation_xyz
x,y,z
-x,-y,-z
loop_
_atom_site_type_symbol
_atom_site_label
_atom_site_fract_x
_atom_site_fract_y
_atom_site_fract_z
Si Si1 0.225085 0.892796 0.198193
Si Si2 0.054411 0.165465 0.205342
Si Si3 0.865072 0.578762 0.607874
Si Si4 0.798655 0.510051 0.190527
Si Si5 0.589409 0.496082 0.215760
Si Si6 0.111058 0.196837 0.884476
Si Si7 0.510975 0.238831 0.473832
O O1 0.371076 0.809553 0.342848
O O2 0.009213 0.820085 0.107877
O O3 0.392244 0.092375 0.318452
O O4 0.123049 0.850068 0.015592
O O5 0.036361 0.262605 0.266642
O O6 0.319222 0.263741 0.365589
O O7 0.977397 0.983662 0.205115
O O8 0.721340 0.593450 0.404823
O O9 0.707973 0.410156 0.562653
O O10 0.085860 0.586798 0.738121
O O11 0.771770 0.500727 0.285421
O O12 0.953878 0.704469 0.254961
O O13 0.539596 0.420676 0.946118
O O14 0.391676 0.303833 0.110483
#
# Coordination Sequence:
#
# PCOD8042402 Si02
#       7
#     2   2   2   2   2   2   2
#     4  10  19  35  55  77 106 142 180 204 245 320
#     4  11  23  32  51  84 113 134 166 218 265 301
#     4  12  21  34  54  83 108 133 171 220 265 302
#     4   9  20  37  60  75  97 139 185 212 255 309
#     4   9  19  37  62  73  98 138 184 214 253 312
#     4   9  17  39  56  73 104 140 177 211 251 308
#     4  10  20  34  54  77 106 145 178 200 251 320
#
# _framework density 18.261382000000001
#
# number of rings (size 3 to 8) (size 9 to 14) (size 15 to 20)
#    0.857    1.143    1.429    4.286    0.000    1.714 
#    0.000    1.429    0.000    0.000    0.000    0.000 
#    0.000    0.000    0.000    0.000    0.000    0.000 
#
# Total GULP energy -173551.592360 kJ/mol
# GULP energy per Si atom -12396.542311 kJ/mol
# Density = 1.821982 g / cm^3
# Si number density = 18.261382 Si / 1000 Ang^3
#
#
#
# Elastic Constant Matrix: (Units=GPa)
#
#
# Indices 1 2 3 4 5 6 
#
# 1 61.6317 21.6136 39.6757 13.2254 -3.1077 -13.3427
# 2 21.6136 42.2918 34.6331 6.1859 -7.9920 -9.9342
# 3 39.6757 34.6331 93.9636 1.8714 -10.5902 -14.1676
# 4 13.2254 6.1859 1.8714 22.3904 -5.8642 1.5217
# 5 -3.1077 -7.9920 -10.5902 -5.8642 22.0620 -0.7085
# 6 -13.3427 -9.9342 -14.1676 1.5217 -0.7085 20.3420
#
#
#
# Elastic Compliance Matrix: (Units=1/GPa)
#
#
# Indices 1 2 3 4 5 6 
#
# 1 0.030105 -0.002482 -0.010214 -0.018705 -0.006128 0.012606
# 2 -0.002482 0.038427 -0.010606 -0.007169 0.006912 0.010528
# 3 -0.010214 -0.010606 0.019630 0.008950 0.006564 0.001351
# 4 -0.018705 -0.007169 0.008950 0.061813 0.015057 -0.013636
# 5 -0.006128 0.006912 0.006564 0.015057 0.054271 0.004692
# 6 0.012606 0.010528 0.001351 -0.013636 0.004692 0.064694
#
#
# Mechanical properties :
#
#
# Convention : Reuss Voigt Hill
#
# Bulk Modulus (GPa) = 24.06331 43.30355 33.68343
# Shear Modulus (GPa) = 15.17920 19.75653 17.46787
#
# Velocity S-wave (km/s) = 2.88621 3.29276 3.09616
# Velocity P-wave (km/s) = 4.93080 6.18231 5.59168
#
# Compressibility (1/GPa) = 0.04155703
#
# Stress axis : x y z
#
# Youngs Moduli (GPa) = 33.21672 26.02338 50.94249
#
# Poissons Ratio (x) = 0.06459 0.52035
# Poissons Ratio (y) = 0.08244 0.54031
# Poissons Ratio (z) = 0.33929 0.27601
#
# Static dielectric constant tensor:
#      x y z
#    x 3.290470 0.036140 0.150750 
#    y 0.036140 3.251230 -0.121350 
#    z 0.150750 -0.121350 3.305240 
# 
# 
# High freq. dielectric constant tensor:
#      x y z
#    x 1.702800 0.006660 0.011900 
#    y 0.006660 1.690400 -0.014960 
#    z 0.011900 -0.014960 1.703220 
# 
# From -- ./inp_files/169390.got.cif
#   From: 2010.06.25/outbox.cif.g09.slc.cpg/sg2_85_cif.got.tgz:169390.got - 2010.06.27 13:26:56.
