data_PCOD8042683
_publ_section_title
;
Structure prediction by ZEFSAII (Michael W. Deem and Ramdas Pophale) SiO2 
 PCOD8042683
Probable space group: P -1
;
_chemical_formula_sum "Si O2"
_cell_formula_units_Z 16
_cell_length_a 12.262505
_cell_length_b 8.534997
_cell_length_c 11.107730
_cell_angle_alpha 128.092450
_cell_angle_beta 108.964382
_cell_angle_gamma 62.527618
_cell_volume 810.405145
_symmetry_space_group_name_H-M "P -1"
_symmetry_group_IT_number 2
_symmetry_cell_setting 'triclinic'
loop_
_space_group_symop_operation_xyz
x,y,z
-x,-y,-z
loop_
_atom_site_type_symbol
_atom_site_label
_atom_site_fract_x
_atom_site_fract_y
_atom_site_fract_z
Si Si1 0.305219 0.421696 0.475006
Si Si2 0.719034 0.558977 0.795328
Si Si3 0.353208 0.067200 0.884482
Si Si4 0.511269 0.392880 0.724520
Si Si5 0.161978 0.906665 0.623267
Si Si6 0.429984 0.800894 0.013360
Si Si7 0.294638 0.983841 0.280707
Si Si8 0.893447 0.127506 0.679575
O O1 0.335238 0.360226 0.317454
O O2 0.425471 0.411429 0.587472
O O3 0.203710 0.657835 0.557355
O O4 0.259486 0.234214 0.417012
O O5 0.629383 0.448703 0.761838
O O6 0.855663 0.381211 0.765750
O O7 0.727751 0.749005 0.968423
O O8 0.449495 0.142673 0.877061
O O9 0.266413 0.004957 0.732252
O O10 0.417225 0.866104 0.898078
O O11 0.571314 0.149734 0.676592
O O12 0.446381 0.549464 0.888247
O O13 0.137653 0.960567 0.499506
O O14 0.038528 0.024747 0.711195
O O15 0.314178 0.921690 0.115227
O O16 0.179885 0.927364 0.262237
#
# Coordination Sequence:
#
# PCOD8042683 Si02
#       8
#     2   2   2   2   2   2   2   2
#     4  11  20  32  56  81 112 147 186 226 271 330
#     4   9  19  35  57  82 110 144 185 229 271 325
#     4  10  19  35  60  85 108 147 184 225 272 333
#     4  10  20  34  53  83 114 148 180 222 281 330
#     4  10  21  40  62  77 109 148 195 223 271 326
#     4  10  20  35  56  85 117 142 179 225 281 333
#     4  11  22  36  54  82 120 142 179 233 278 323
#     4   9  22  41  57  82 108 148 187 236 267 320
#
# _framework density 19.743212
#
# number of rings (size 3 to 8) (size 9 to 14) (size 15 to 20)
#    0.000    2.000    2.500    1.125    0.000    5.000 
#    0.000    0.625    0.000    0.000    0.000    0.000 
#    0.000    0.000    0.000    0.000    0.000    0.000 
#
# Total GULP energy -198245.407870 kJ/mol
# GULP energy per Si atom -12390.337992 kJ/mol
# Density = 1.969828 g / cm^3
# Si number density = 19.743212 Si / 1000 Ang^3
#
#
#
# Elastic Constant Matrix: (Units=GPa)
#
#
# Indices 1 2 3 4 5 6 
#
# 1 76.4313 15.3210 28.5188 2.2307 -9.9401 -1.0182
# 2 15.3210 64.6649 17.1117 6.3731 1.6104 0.6873
# 3 28.5188 17.1117 57.5309 13.6164 0.0881 6.3957
# 4 2.2307 6.3731 13.6164 26.3526 1.2905 -3.1444
# 5 -9.9401 1.6104 0.0881 1.2905 27.7627 -0.4866
# 6 -1.0182 0.6873 6.3957 -3.1444 -0.4866 23.0065
#
#
#
# Elastic Compliance Matrix: (Units=1/GPa)
#
#
# Indices 1 2 3 4 5 6 
#
# 1 0.017938 -0.002309 -0.009694 0.004243 0.006465 0.004274
# 2 -0.002309 0.017178 -0.003474 -0.002076 -0.001715 0.000030
# 3 -0.009694 -0.003474 0.027548 -0.013614 -0.002898 -0.009906
# 4 0.004243 -0.002076 -0.013614 0.046375 -0.000291 0.010366
# 5 0.006465 -0.001715 -0.002898 -0.000291 0.038490 0.001917
# 6 0.004274 0.000030 -0.009906 0.010366 0.001917 0.047865
#
#
# Mechanical properties :
#
#
# Convention : Reuss Voigt Hill
#
# Bulk Modulus (GPa) = 31.53670 35.61447 33.57559
# Shear Modulus (GPa) = 21.10428 24.60274 22.85351
#
# Velocity S-wave (km/s) = 3.27301 3.53390 3.40595
# Velocity P-wave (km/s) = 5.50378 5.89315 5.70179
#
# Compressibility (1/GPa) = 0.03170909
#
# Stress axis : x y z
#
# Youngs Moduli (GPa) = 55.74865 58.21493 36.29964
#
# Poissons Ratio (x) = 0.13443 0.35190
# Poissons Ratio (y) = 0.12874 0.12610
# Poissons Ratio (z) = 0.54044 0.20223
#
# Static dielectric constant tensor:
#      x y z
#    x 3.358910 -0.090750 -0.176700 
#    y -0.090750 3.991940 0.306510 
#    z -0.176700 0.306510 3.628400 
# 
# 
# High freq. dielectric constant tensor:
#      x y z
#    x 1.736450 0.004660 -0.012310 
#    y 0.004660 1.779680 0.016070 
#    z -0.012310 0.016070 1.770160 
# 
# From -- ./inp_files/170479.got.cif
#   From: 2010.06.25/outbox.cif.g09.slc.cpg/sg2_86_cif.got.tgz:170479.got - 2010.06.27 13:26:56.
