data_PCOD8042410
_publ_section_title
;
Structure prediction by ZEFSAII (Michael W. Deem and Ramdas Pophale) SiO2 
 PCOD8042410
Probable space group: P -1
;
_chemical_formula_sum "Si O2"
_cell_formula_units_Z 14
_cell_length_a 10.668202
_cell_length_b 13.720787
_cell_length_c 10.140375
_cell_angle_alpha 46.503882
_cell_angle_beta 103.670965
_cell_angle_gamma 135.636465
_cell_volume 650.174259
_symmetry_space_group_name_H-M "P -1"
_symmetry_group_IT_number 2
_symmetry_cell_setting 'triclinic'
loop_
_space_group_symop_operation_xyz
x,y,z
-x,-y,-z
loop_
_atom_site_type_symbol
_atom_site_label
_atom_site_fract_x
_atom_site_fract_y
_atom_site_fract_z
Si Si1 0.384852 0.708631 0.810232
Si Si2 0.802073 0.121229 0.980633
Si Si3 0.184131 0.065214 0.327828
Si Si4 0.008097 0.756314 0.355915
Si Si5 0.979966 0.782722 0.790043
Si Si6 0.647381 0.275510 0.743812
Si Si7 0.624650 0.137835 0.589080
O O1 0.576350 0.761489 0.809903
O O2 0.339565 0.716206 0.643451
O O3 0.434433 0.882139 0.746419
O O4 0.180830 0.470031 0.039370
O O5 0.871769 0.120576 0.138582
O O6 0.575515 0.882605 0.094552
O O7 0.961851 0.200375 0.834113
O O8 0.788313 0.272589 0.845109
O O9 0.154478 0.193629 0.242490
O O10 0.044989 0.920939 0.297111
O O11 0.120039 0.912228 0.573629
O O12 0.161794 0.768021 0.436319
O O13 0.773277 0.516512 0.547583
O O14 0.569815 0.166995 0.681895
#
# Coordination Sequence:
#
# PCOD8042410 Si02
#       7
#     2   2   2   2   2   2   2
#     4  10  19  36  58  81 112 145 176 225 276 320
#     4  10  21  34  57  82 105 142 185 214 270 336
#     4  10  24  38  54  81 110 143 193 225 258 321
#     4  10  20  37  55  80 113 141 173 226 272 317
#     4  11  22  39  57  78 109 149 185 226 267 312
#     4  10  19  35  55  81 113 139 170 227 276 320
#     4   9  18  33  57  88 112 136 179 220 274 339
#
# _framework density 21.532689000000001
#
# number of rings (size 3 to 8) (size 9 to 14) (size 15 to 20)
#    0.000    2.000    0.000    4.714    0.000    5.143 
#    0.000    8.571    0.000    0.000    0.000    0.000 
#    0.000    0.000    0.000    0.000    0.000    0.000 
#
# Total GULP energy -173601.742547 kJ/mol
# GULP energy per Si atom -12400.124468 kJ/mol
# Density = 2.148368 g / cm^3
# Si number density = 21.532689 Si / 1000 Ang^3
#
#
#
# Elastic Constant Matrix: (Units=GPa)
#
#
# Indices 1 2 3 4 5 6 
#
# 1 18.9967 3.4505 1.0101 -1.0596 -0.7490 -2.5482
# 2 3.4505 75.8136 24.8636 5.5341 3.8741 2.5354
# 3 1.0101 24.8636 97.3197 -13.6922 -5.2822 4.4982
# 4 -1.0596 5.5341 -13.6922 37.8942 5.1854 1.3241
# 5 -0.7490 3.8741 -5.2822 5.1854 22.5700 -0.9114
# 6 -2.5482 2.5354 4.4982 1.3241 -0.9114 20.9288
#
#
#
# Elastic Compliance Matrix: (Units=1/GPa)
#
#
# Indices 1 2 3 4 5 6 
#
# 1 0.054277 -0.002998 0.000215 0.001475 0.002307 0.006933
# 2 -0.002998 0.015235 -0.004458 -0.003467 -0.003008 -0.001164
# 3 0.000215 -0.004458 0.012334 0.004858 0.002451 -0.002285
# 4 0.001475 -0.003467 0.004858 0.029478 -0.005093 -0.002531
# 5 0.002307 -0.003008 0.002451 -0.005093 0.046743 0.002476
# 6 0.006933 -0.001164 -0.002285 -0.002531 0.002476 0.049525
#
#
# Mechanical properties :
#
#
# Convention : Reuss Voigt Hill
#
# Bulk Modulus (GPa) = 14.84496 27.86427 21.35461
# Shear Modulus (GPa) = 20.44738 27.13232 23.78985
#
# Velocity S-wave (km/s) = 3.08490 3.55357 3.32750
# Velocity P-wave (km/s) = 4.42695 5.45946 4.97009
#
# Compressibility (1/GPa) = 0.06736295
#
# Stress axis : x y z
#
# Youngs Moduli (GPa) = 18.42395 65.63994 81.07397
#
# Poissons Ratio (x) = 0.19681 -0.01744
# Poissons Ratio (y) = 0.05524 0.36146
# Poissons Ratio (z) = -0.00396 0.29265
#
# Static dielectric constant tensor:
#      x y z
#    x 3.640990 -0.095730 -0.153140 
#    y -0.095730 3.982570 0.037900 
#    z -0.153140 0.037900 3.960810 
# 
# 
# High freq. dielectric constant tensor:
#      x y z
#    x 1.818440 0.001130 -0.015690 
#    y 0.001130 1.850630 0.001170 
#    z -0.015690 0.001170 1.846090 
# 
# From -- ./inp_files/432458.got.cif
#   From: 2010.06.25/outbox.cif.g09.slc.cpg/sg2_217_cif.got.tgz:432458.got - 2010.06.27 13:26:56.
