data_PCOD8042225
_publ_section_title
;
Structure prediction by ZEFSAII (Michael W. Deem and Ramdas Pophale) SiO2 
 PCOD8042225
Probable space group: P -1
;
_chemical_formula_sum "Si O2"
_cell_formula_units_Z 16
_cell_length_a 15.754372
_cell_length_b 12.698569
_cell_length_c 14.978287
_cell_angle_alpha 121.601710
_cell_angle_beta 138.106593
_cell_angle_gamma 25.179989
_cell_volume 723.653616
_symmetry_space_group_name_H-M "P -1"
_symmetry_group_IT_number 2
_symmetry_cell_setting 'triclinic'
loop_
_space_group_symop_operation_xyz
x,y,z
-x,-y,-z
loop_
_atom_site_type_symbol
_atom_site_label
_atom_site_fract_x
_atom_site_fract_y
_atom_site_fract_z
Si Si1 0.578482 0.251118 0.704745
Si Si2 0.090381 0.627128 0.793765
Si Si3 0.462497 0.119291 0.150414
Si Si4 0.098470 0.477968 0.378152
Si Si5 0.778210 0.541655 0.724666
Si Si6 0.376044 0.928651 0.922223
Si Si7 0.668565 0.252809 0.583062
Si Si8 0.306623 0.609136 0.818515
O O1 0.349589 0.337572 0.560296
O O2 0.570351 0.345112 0.651804
O O3 0.514482 0.397228 0.802463
O O4 0.901741 0.902427 0.815696
O O5 0.164711 0.605583 0.742050
O O6 0.900380 0.667793 0.657905
O O7 0.410236 0.338897 0.966434
O O8 0.227177 0.371847 0.151873
O O9 0.494401 0.195185 0.131589
O O10 0.783698 0.812624 0.311051
O O11 0.346819 0.096536 0.005234
O O12 0.130041 0.452357 0.284148
O O13 0.447508 0.777661 0.556570
O O14 0.018716 0.213556 0.773752
O O15 0.500000 0.500000 0.500000
O O16 0.030251 0.940917 0.718836
O O17 0.500000 0.500000 0.000000
#
# Coordination Sequence:
#
# PCOD8042225 Si02
#       8
#     2   2   2   2   2   2   2   2
#     4  10  22  43  66  88 127 162 200 261 314 359
#     4  10  22  37  58  93 125 160 207 247 302 383
#     4   9  17  32  53  85 127 161 196 245 297 365
#     4   9  19  36  60  92 124 153 202 254 309 368
#     4  10  19  34  60  86 123 162 198 256 308 355
#     4   9  19  32  51  87 126 161 201 240 296 368
#     4  10  24  44  65  94 116 154 219 258 303 367
#     4  11  26  45  65  89 126 167 209 254 308 368
#
# _framework density 22.110026999999999
#
# number of rings (size 3 to 8) (size 9 to 14) (size 15 to 20)
#    0.000    2.250    0.000    2.250    1.750    6.000 
#    2.250    0.000    0.000    0.000    0.000    0.000 
#    0.000    0.000    0.000    0.000    0.000    0.000 
#
# Total GULP energy -198285.877826 kJ/mol
# GULP energy per Si atom -12392.867364 kJ/mol
# Density = 2.205970 g / cm^3
# Si number density = 22.110027 Si / 1000 Ang^3
#
#
#
# Elastic Constant Matrix: (Units=GPa)
#
#
# Indices 1 2 3 4 5 6 
#
# 1 91.8829 69.0068 18.1927 3.8430 -19.9772 -1.1281
# 2 69.0068 109.7626 40.0062 -8.1666 -21.5524 -7.3357
# 3 18.1927 40.0062 89.5819 -8.6888 -12.5294 -5.7201
# 4 3.8430 -8.1666 -8.6888 35.7381 -4.0071 -11.8634
# 5 -19.9772 -21.5524 -12.5294 -4.0071 28.2010 -1.1966
# 6 -1.1281 -7.3357 -5.7201 -11.8634 -1.1966 38.8263
#
#
#
# Elastic Compliance Matrix: (Units=1/GPa)
#
#
# Indices 1 2 3 4 5 6 
#
# 1 0.022878 -0.014815 0.001806 -0.006071 0.004672 -0.003579
# 2 -0.014815 0.022362 -0.005037 0.008005 0.005735 0.005675
# 3 0.001806 -0.005037 0.014117 0.003341 0.004276 0.002333
# 4 -0.006071 0.008005 0.003341 0.036718 0.009085 0.013328
# 5 0.004672 0.005735 0.004276 0.009085 0.046600 0.006061
# 6 -0.003579 0.005675 0.002333 0.013328 0.006061 0.031327
#
#
# Mechanical properties :
#
#
# Convention : Reuss Voigt Hill
#
# Bulk Modulus (GPa) = 42.98281 60.62652 51.80466
# Shear Modulus (GPa) = 22.95177 31.48788 27.21983
#
# Velocity S-wave (km/s) = 3.22541 3.77788 3.51252
# Velocity P-wave (km/s) = 5.77526 6.81980 6.31915
#
# Compressibility (1/GPa) = 0.02326511
#
# Stress axis : x y z
#
# Youngs Moduli (GPa) = 43.70975 44.71967 70.83902
#
# Poissons Ratio (x) = 0.66253 -0.12795
# Poissons Ratio (y) = 0.64756 0.35679
# Poissons Ratio (z) = -0.07895 0.22524
#
# Static dielectric constant tensor:
#      x y z
#    x 4.068680 -0.182330 0.146870 
#    y -0.182330 3.809340 -0.411630 
#    z 0.146870 -0.411630 4.077680 
# 
# 
# High freq. dielectric constant tensor:
#      x y z
#    x 1.866400 -0.009710 0.003960 
#    y -0.009710 1.855310 -0.026790 
#    z 0.003960 -0.026790 1.875260 
# 
# From -- ./inp_files/532626.got.cif
#   From: 2010.06.25/outbox.cif.g09.slc.cpg/sg2_267_cif.got.tgz:532626.got - 2010.06.27 13:26:56.
