data_PCOD8042721
_publ_section_title
;
Structure prediction by ZEFSAII (Michael W. Deem and Ramdas Pophale) SiO2 
 PCOD8042721
Probable space group: P -1
;
_chemical_formula_sum "Si O2"
_cell_formula_units_Z 16
_cell_length_a 12.413288
_cell_length_b 7.833879
_cell_length_c 12.424956
_cell_angle_alpha 57.735132
_cell_angle_beta 64.408284
_cell_angle_gamma 104.942432
_cell_volume 707.664355
_symmetry_space_group_name_H-M "P -1"
_symmetry_group_IT_number 2
_symmetry_cell_setting 'triclinic'
loop_
_space_group_symop_operation_xyz
x,y,z
-x,-y,-z
loop_
_atom_site_type_symbol
_atom_site_label
_atom_site_fract_x
_atom_site_fract_y
_atom_site_fract_z
Si Si1 0.644472 0.031598 0.824013
Si Si2 0.652689 0.386177 0.021650
Si Si3 0.750547 0.571989 0.680837
Si Si4 0.959856 0.222176 0.621406
Si Si5 0.880534 0.299288 0.030388
Si Si6 0.955398 0.772302 0.178391
Si Si7 0.328126 0.304442 0.686684
Si Si8 0.557859 0.614203 0.155471
O O1 0.713968 0.322276 0.721626
O O2 0.779762 0.020994 0.729260
O O3 0.511398 0.900491 0.835259
O O4 0.572531 0.860983 0.022781
O O5 0.764038 0.354127 0.043647
O O6 0.621218 0.535555 0.064072
O O7 0.736113 0.554945 0.821181
O O8 0.930726 0.804171 0.490890
O O9 0.630493 0.610602 0.670429
O O10 0.965923 0.140575 0.767956
O O11 0.000000 0.500000 0.500000
O O12 0.774047 0.992619 0.215132
O O13 0.000000 0.500000 0.000000
O O14 0.986151 0.369536 0.855550
O O15 0.767140 0.591615 0.334616
O O16 0.000000 0.000000 0.000000
O O17 0.500000 0.500000 0.500000
O O18 0.340514 0.299453 0.811495
#
# Coordination Sequence:
#
# PCOD8042721 Si02
#       8
#     2   2   2   2   2   2   2   2
#     4  10  19  35  61  87 117 162 208 257 315 384
#     4  11  22  38  59  88 120 162 211 259 315 387
#     4  10  19  35  60  90 122 159 204 262 320 377
#     4  10  20  35  59  93 124 156 201 262 322 373
#     4  11  23  42  65  91 123 166 215 265 320 388
#     4  10  21  39  63  92 126 173 218 257 316 398
#     4  11  23  42  66  92 122 165 215 270 320 378
#     4  11  21  38  59  85 122 165 210 258 316 387
#
# _framework density 22.609590000000001
#
# number of rings (size 3 to 8) (size 9 to 14) (size 15 to 20)
#    0.000    1.500    0.000    9.000    0.000    2.000 
#    0.000    8.750    0.000    3.000    0.000    0.000 
#    0.000    0.000    0.000    0.000    0.000    0.000 
#
# Total GULP energy -198256.035084 kJ/mol
# GULP energy per Si atom -12391.002193 kJ/mol
# Density = 2.255813 g / cm^3
# Si number density = 22.609590 Si / 1000 Ang^3
#
#
#
# Elastic Constant Matrix: (Units=GPa)
#
#
# Indices 1 2 3 4 5 6 
#
# 1 166.8984 38.1432 42.1625 11.0828 -33.5675 16.4047
# 2 38.1432 99.1630 41.7681 18.3934 -9.6075 14.6631
# 3 42.1625 41.7681 94.3913 13.3696 -30.5412 3.3192
# 4 11.0828 18.3934 13.3696 25.5367 -4.3233 -5.8653
# 5 -33.5675 -9.6075 -30.5412 -4.3233 53.0423 3.8202
# 6 16.4047 14.6631 3.3192 -5.8653 3.8202 36.9472
#
#
#
# Elastic Compliance Matrix: (Units=1/GPa)
#
#
# Indices 1 2 3 4 5 6 
#
# 1 0.007917 -0.001190 -0.001233 -0.002074 0.004182 -0.003694
# 2 -0.001190 0.015273 -0.005036 -0.009537 -0.001198 -0.006471
# 3 -0.001233 -0.005036 0.016216 -0.003113 0.007403 -0.000170
# 4 -0.002074 -0.009537 -0.003113 0.051342 -0.001605 0.013302
# 5 0.004182 -0.001198 0.007403 -0.001605 0.025771 -0.004966
# 6 -0.003694 -0.006471 -0.000170 0.013302 -0.004966 0.033914
#
#
# Mechanical properties :
#
#
# Convention : Reuss Voigt Hill
#
# Bulk Modulus (GPa) = 40.83720 67.17779 54.00749
# Shear Modulus (GPa) = 28.81626 38.99717 33.90671
#
# Velocity S-wave (km/s) = 3.57391 4.15758 3.87675
# Velocity P-wave (km/s) = 5.92719 7.26801 6.63157
#
# Compressibility (1/GPa) = 0.02448748
#
# Stress axis : x y z
#
# Youngs Moduli (GPa) = 126.31172 65.47493 61.66914
#
# Poissons Ratio (x) = 0.07791 0.07605
# Poissons Ratio (y) = 0.15029 0.31056
# Poissons Ratio (z) = 0.15577 0.32973
#
# Static dielectric constant tensor:
#      x y z
#    x 4.963740 -0.005520 -0.833530 
#    y -0.005520 3.792390 0.018890 
#    z -0.833530 0.018890 5.544870 
# 
# 
# High freq. dielectric constant tensor:
#      x y z
#    x 1.922800 0.002850 -0.035880 
#    y 0.002850 1.866900 0.015160 
#    z -0.035880 0.015160 1.881870 
# 
# From -- ./inp_files/416546.got.cif
#   From: 2010.06.25/outbox.cif.g09.slc.cpg/sg2_209_cif.got.tgz:416546.got - 2010.06.27 13:26:56.
