data_PCOD8042649
_publ_section_title
;
Structure prediction by ZEFSAII (Michael W. Deem and Ramdas Pophale) SiO2 
 PCOD8042649
Probable space group: P -1
;
_chemical_formula_sum "Si O2"
_cell_formula_units_Z 14
_cell_length_a 18.988739
_cell_length_b 22.289667
_cell_length_c 12.815647
_cell_angle_alpha 153.686835
_cell_angle_beta 27.550192
_cell_angle_gamma 161.729926
_cell_volume 728.906488
_symmetry_space_group_name_H-M "P -1"
_symmetry_group_IT_number 2
_symmetry_cell_setting 'triclinic'
loop_
_space_group_symop_operation_xyz
x,y,z
-x,-y,-z
loop_
_atom_site_type_symbol
_atom_site_label
_atom_site_fract_x
_atom_site_fract_y
_atom_site_fract_z
Si Si1 0.019203 0.568700 0.889820
Si Si2 0.529682 0.179150 0.189324
Si Si3 0.931666 0.618985 0.863277
Si Si4 0.849408 0.871759 0.396717
Si Si5 0.082819 0.838557 0.363241
Si Si6 0.641139 0.177422 0.504753
Si Si7 0.698505 0.135679 0.702639
O O1 0.245154 0.647290 0.763758
O O2 0.060874 0.665215 0.873208
O O3 0.829243 0.323020 0.742404
O O4 0.917069 0.614634 0.177364
O O5 0.413257 0.249949 0.433166
O O6 0.332683 0.960010 0.169771
O O7 0.572125 0.145425 0.967640
O O8 0.704784 0.372479 0.760026
O O9 0.115239 0.731861 0.703284
O O10 0.838661 0.708632 0.127070
O O11 0.973990 0.044269 0.408588
O O12 0.000000 0.000000 0.500000
O O13 0.113749 0.837142 0.444021
O O14 0.500000 0.000000 0.500000
O O15 0.481092 0.077980 0.457035
#
# Coordination Sequence:
#
# PCOD8042649 Si02
#       7
#     2   2   2   2   2   2   2
#     4  11  18  33  59  89 117 150 194 244 289 346
#     4   9  19  32  58  88 114 148 187 235 302 344
#     4  11  22  40  63  86 117 151 198 241 293 344
#     4  10  19  35  59  88 120 149 185 238 308 353
#     4   9  18  31  57  84 117 147 186 232 298 344
#     4  11  23  40  60  86 112 159 203 243 275 340
#     4  11  19  34  57  88 119 150 204 238 278 349
#
# _framework density 19.206854
#
# number of rings (size 3 to 8) (size 9 to 14) (size 15 to 20)
#    0.857    0.857    2.857    6.000    0.000    0.000 
#    0.000    4.286    0.000    1.714    0.000    0.000 
#    0.000    0.000    0.000    0.000    0.000    0.000 
#
# Total GULP energy -173472.639655 kJ/mol
# GULP energy per Si atom -12390.902832 kJ/mol
# Density = 1.916314 g / cm^3
# Si number density = 19.206854 Si / 1000 Ang^3
#
#
#
# Elastic Constant Matrix: (Units=GPa)
#
#
# Indices 1 2 3 4 5 6 
#
# 1 103.9777 36.0756 55.9343 14.3470 -11.4681 -1.8260
# 2 36.0756 82.7212 37.9740 23.3850 -4.0538 -1.7663
# 3 55.9343 37.9740 105.9176 26.6225 -15.6122 4.0512
# 4 14.3470 23.3850 26.6225 32.0084 -1.6053 6.5288
# 5 -11.4681 -4.0538 -15.6122 -1.6053 28.4771 6.0986
# 6 -1.8260 -1.7663 4.0512 6.5288 6.0986 33.8265
#
#
#
# Elastic Compliance Matrix: (Units=1/GPa)
#
#
# Indices 1 2 3 4 5 6 
#
# 1 0.014320 -0.003621 -0.006427 0.001499 0.001648 0.000767
# 2 -0.003621 0.017511 -0.002156 -0.010095 -0.001397 0.003177
# 3 -0.006427 -0.002156 0.016820 -0.008836 0.006234 -0.001892
# 4 0.001499 -0.010095 -0.008836 0.046905 -0.001275 -0.008211
# 5 0.001648 -0.001397 0.006234 -0.001275 0.040598 -0.007804
# 6 0.000767 0.003177 -0.001892 -0.008211 -0.007804 0.032988
#
#
# Mechanical properties :
#
#
# Convention : Reuss Voigt Hill
#
# Bulk Modulus (GPa) = 41.24889 61.39825 51.32357
# Shear Modulus (GPa) = 24.79776 29.70457 27.25116
#
# Velocity S-wave (km/s) = 3.59707 3.93690 3.77082
# Velocity P-wave (km/s) = 6.22693 7.25960 6.76300
#
# Compressibility (1/GPa) = 0.02424307
#
# Stress axis : x y z
#
# Youngs Moduli (GPa) = 69.83435 57.10703 59.45197
#
# Poissons Ratio (x) = 0.20679 0.38210
# Poissons Ratio (y) = 0.25288 0.12817
# Poissons Ratio (z) = 0.44882 0.12311
#
# Static dielectric constant tensor:
#      x y z
#    x 3.583890 -0.041560 -0.024820 
#    y -0.041560 3.477820 0.198060 
#    z -0.024820 0.198060 3.281100 
# 
# 
# High freq. dielectric constant tensor:
#      x y z
#    x 1.755930 -0.004020 0.000440 
#    y -0.004020 1.744330 0.022480 
#    z 0.000440 0.022480 1.710210 
# 
# From -- ./inp_files/467156.got.cif
#   From: 2010.06.25/outbox.cif.g09.slc.cpg/sg2_234_cif.got.tgz:467156.got - 2010.06.27 13:26:56.
