data_PCOD8042231
_publ_section_title
;
Structure prediction by ZEFSAII (Michael W. Deem and Ramdas Pophale) SiO2 
 PCOD8042231
Probable space group: P -1
;
_chemical_formula_sum "Si O2"
_cell_formula_units_Z 16
_cell_length_a 6.639828
_cell_length_b 18.063567
_cell_length_c 7.373207
_cell_angle_alpha 111.926761
_cell_angle_beta 76.644339
_cell_angle_gamma 70.311985
_cell_volume 705.018980
_symmetry_space_group_name_H-M "P -1"
_symmetry_group_IT_number 2
_symmetry_cell_setting 'triclinic'
loop_
_space_group_symop_operation_xyz
x,y,z
-x,-y,-z
loop_
_atom_site_type_symbol
_atom_site_label
_atom_site_fract_x
_atom_site_fract_y
_atom_site_fract_z
Si Si1 0.201844 0.464919 0.073454
Si Si2 0.619446 0.855541 0.263883
Si Si3 0.734898 0.371808 0.809255
Si Si4 0.888922 0.930029 0.050842
Si Si5 0.975248 0.663921 0.922697
Si Si6 0.574798 0.907098 0.715338
Si Si7 0.174413 0.981815 0.286216
Si Si8 0.985018 0.765335 0.669829
O O1 0.216260 0.551824 0.232967
O O2 0.113564 0.410070 0.174634
O O3 0.461194 0.398524 0.880966
O O4 0.000000 0.500000 0.000000
O O5 0.795393 0.896426 0.213213
O O6 0.503932 0.887120 0.514216
O O7 0.413620 0.890717 0.191127
O O8 0.752805 0.748105 0.133230
O O9 0.871945 0.278612 0.584027
O O10 0.816873 0.365797 0.997534
O O11 0.060645 0.969442 0.112443
O O12 0.656621 0.010309 0.071821
O O13 0.038026 0.844259 0.810656
O O14 0.051722 0.688582 0.738769
O O15 0.701857 0.816609 0.731432
O O16 0.784842 0.931834 0.663763
O O17 0.000000 0.000000 0.500000
#
# Coordination Sequence:
#
# PCOD8042231 Si02
#       8
#     2   2   2   2   2   2   2   2
#     4   9  21  44  73  97 123 163 207 252 323 395
#     4  10  19  34  60  87 119 167 217 260 313 363
#     4  10  21  45  70  94 130 162 202 267 316 379
#     4  10  21  38  55  85 127 170 218 265 310 363
#     4  10  22  41  64  97 130 166 208 256 319 388
#     4  11  20  37  57  86 127 171 217 265 309 365
#     4  11  19  33  59  83 115 173 223 263 314 361
#     4  11  24  39  65  96 133 171 211 266 320 372
#
# _framework density 22.694424999999999
#
# number of rings (size 3 to 8) (size 9 to 14) (size 15 to 20)
#    0.000    1.750    3.750    1.125    0.000    4.000 
#    0.000   16.875    0.000    0.000    0.000    0.000 
#    0.000    0.000    0.000    0.000    0.000    0.000 
#
# Total GULP energy -198270.952953 kJ/mol
# GULP energy per Si atom -12391.934560 kJ/mol
# Density = 2.264277 g / cm^3
# Si number density = 22.694425 Si / 1000 Ang^3
#
#
#
# Elastic Constant Matrix: (Units=GPa)
#
#
# Indices 1 2 3 4 5 6 
#
# 1 123.7207 37.7742 25.3032 -0.6633 2.7905 -16.7350
# 2 37.7742 97.0142 13.8793 2.3413 -0.5337 -23.2333
# 3 25.3032 13.8793 81.6513 2.7283 1.2498 -10.2814
# 4 -0.6633 2.3413 2.7283 34.0573 -5.7169 -1.2130
# 5 2.7905 -0.5337 1.2498 -5.7169 31.1334 -1.2565
# 6 -16.7350 -23.2333 -10.2814 -1.2130 -1.2565 25.6552
#
#
#
# Elastic Compliance Matrix: (Units=1/GPa)
#
#
# Indices 1 2 3 4 5 6 
#
# 1 0.009809 -0.002811 -0.002197 0.000563 -0.000616 0.002969
# 2 -0.002811 0.014035 -0.000147 -0.000480 0.000848 0.010836
# 3 -0.002197 -0.000147 0.013468 -0.001042 -0.000386 0.003762
# 4 0.000563 -0.000480 -0.001042 0.030479 0.005630 0.001232
# 5 -0.000616 0.000848 -0.000386 0.005630 0.033324 0.002110
# 6 0.002969 0.010836 0.003762 0.001232 0.002110 0.052397
#
#
# Mechanical properties :
#
#
# Convention : Reuss Voigt Hill
#
# Bulk Modulus (GPa) = 37.03670 50.69994 43.86832
# Shear Modulus (GPa) = 28.93153 33.19780 31.06467
#
# Velocity S-wave (km/s) = 3.57435 3.82883 3.70378
# Velocity P-wave (km/s) = 5.77839 6.47575 6.13698
#
# Compressibility (1/GPa) = 0.02700024
#
# Stress axis : x y z
#
# Youngs Moduli (GPa) = 101.94916 71.25273 74.25187
#
# Poissons Ratio (x) = 0.20028 0.16316
# Poissons Ratio (y) = 0.28657 0.01092
# Poissons Ratio (z) = 0.22403 0.01048
#
# Static dielectric constant tensor:
#      x y z
#    x 4.349780 -0.040720 0.108150 
#    y -0.040720 4.571950 0.027730 
#    z 0.108150 0.027730 3.971150 
# 
# 
# High freq. dielectric constant tensor:
#      x y z
#    x 1.890880 -0.009470 0.002380 
#    y -0.009470 1.908290 -0.003260 
#    z 0.002380 -0.003260 1.882090 
# 
# From -- ./inp_files/141500.got.cif
#   From: 2010.06.25/outbox.cif.g09.slc.cpg/sg2_71_cif.got.tgz:141500.got - 2010.06.27 13:26:56.
