data_PCOD8042368
_publ_section_title
;
Structure prediction by ZEFSAII (Michael W. Deem and Ramdas Pophale) SiO2 
 PCOD8042368
Probable space group: P -1
;
_chemical_formula_sum "Si O2"
_cell_formula_units_Z 16
_cell_length_a 9.771531
_cell_length_b 11.199468
_cell_length_c 11.671773
_cell_angle_alpha 69.065189
_cell_angle_beta 126.948636
_cell_angle_gamma 118.877602
_cell_volume 889.755126
_symmetry_space_group_name_H-M "P -1"
_symmetry_group_IT_number 2
_symmetry_cell_setting 'triclinic'
loop_
_space_group_symop_operation_xyz
x,y,z
-x,-y,-z
loop_
_atom_site_type_symbol
_atom_site_label
_atom_site_fract_x
_atom_site_fract_y
_atom_site_fract_z
Si Si1 0.805263 0.016708 0.390114
Si Si2 0.769073 0.667228 0.046898
Si Si3 0.180872 0.788617 0.251673
Si Si4 0.665841 0.907136 0.834605
Si Si5 0.465590 0.793546 0.209520
Si Si6 0.638117 0.130332 0.463087
Si Si7 0.598042 0.131460 0.090978
Si Si8 0.553362 0.393980 0.926874
O O1 0.780363 0.090304 0.468595
O O2 0.779311 0.102132 0.235394
O O3 0.646681 0.866111 0.351562
O O4 0.000000 0.000000 0.500000
O O5 0.782244 0.813155 0.952474
O O6 0.692503 0.549647 0.952473
O O7 0.643901 0.623887 0.111944
O O8 0.974098 0.684351 0.176585
O O9 0.288872 0.749947 0.216265
O O10 0.252606 0.761228 0.422171
O O11 0.201637 0.949157 0.202381
O O12 0.495007 0.816623 0.698794
O O13 0.574380 0.949698 0.885151
O O14 0.474406 0.654838 0.203506
O O15 0.455766 0.897795 0.062980
O O16 0.500000 0.000000 0.500000
O O17 0.637755 0.294476 0.071993
#
# Coordination Sequence:
#
# PCOD8042368 Si02
#       8
#     2   2   2   2   2   2   2   2
#     4  11  20  30  55  80 104 134 172 218 251 305
#     4  10  19  35  54  80  99 132 186 214 244 304
#     4  11  20  31  54  81 105 135 170 211 267 305
#     4   9  17  33  54  75 107 135 165 215 265 298
#     4  10  19  35  53  75 106 139 165 213 264 303
#     4   9  18  35  46  73 112 139 154 200 278 313
#     4   8  17  34  54  72 104 136 172 202 268 299
#     4   8  20  35  56  70 107 140 168 217 252 300
#
# _framework density 17.982475999999998
#
# number of rings (size 3 to 8) (size 9 to 14) (size 15 to 20)
#    0.750    1.750    3.750    0.750    1.750    0.500 
#    4.500    0.000    2.750    3.750    0.000    0.000 
#    0.000    0.000    0.000    0.000    0.000    0.000 
#
# Total GULP energy -198233.391454 kJ/mol
# GULP energy per Si atom -12389.586966 kJ/mol
# Density = 1.794155 g / cm^3
# Si number density = 17.982476 Si / 1000 Ang^3
#
#
#
# Elastic Constant Matrix: (Units=GPa)
#
#
# Indices 1 2 3 4 5 6 
#
# 1 93.8059 21.9818 58.5828 19.1195 4.4833 1.0271
# 2 21.9818 49.7571 14.7731 21.6617 1.1087 1.2139
# 3 58.5828 14.7731 86.4136 19.8899 -3.3069 2.1962
# 4 19.1195 21.6617 19.8899 25.3579 -1.9291 0.7550
# 5 4.4833 1.1087 -3.3069 -1.9291 36.2630 7.4087
# 6 1.0271 1.2139 2.1962 0.7550 7.4087 19.3334
#
#
#
# Elastic Compliance Matrix: (Units=1/GPa)
#
#
# Indices 1 2 3 4 5 6 
#
# 1 0.020161 -0.004226 -0.012697 -0.002012 -0.004095 0.002284
# 2 -0.004226 0.033163 0.003614 -0.028078 -0.001536 -0.000583
# 3 -0.012697 0.003614 0.022208 -0.010574 0.003539 -0.003018
# 4 -0.002012 -0.028078 -0.010574 0.073606 0.004360 -0.001474
# 5 -0.004095 -0.001536 0.003539 0.004360 0.031178 -0.012206
# 6 0.002284 -0.000583 -0.003018 -0.001474 -0.012206 0.056717
#
#
# Mechanical properties :
#
#
# Convention : Reuss Voigt Hill
#
# Bulk Modulus (GPa) = 20.44375 46.73911 33.59143
# Shear Modulus (GPa) = 17.85996 25.16678 21.51337
#
# Velocity S-wave (km/s) = 3.15491 3.74507 3.46258
# Velocity P-wave (km/s) = 4.96635 6.68944 5.89123
#
# Compressibility (1/GPa) = 0.04891471
#
# Stress axis : x y z
#
# Youngs Moduli (GPa) = 49.60175 30.15364 45.02863
#
# Poissons Ratio (x) = 0.12742 0.57173
# Poissons Ratio (y) = 0.20960 -0.16272
# Poissons Ratio (z) = 0.62979 -0.10897
#
# Static dielectric constant tensor:
#      x y z
#    x 3.281030 -0.180370 -0.292290 
#    y -0.180370 3.073100 0.138170 
#    z -0.292290 0.138170 3.849770 
# 
# 
# High freq. dielectric constant tensor:
#      x y z
#    x 1.691240 -0.011180 -0.012590 
#    y -0.011180 1.668190 0.014620 
#    z -0.012590 0.014620 1.688950 
# 
# From -- ./inp_files/390074.got.cif
#   From: 2010.06.25/outbox.cif.g09.slc.cpg/sg2_196_cif.got.tgz:390074.got - 2010.06.27 13:26:56.
