data_PCOD8042586
_publ_section_title
;
Structure prediction by ZEFSAII (Michael W. Deem and Ramdas Pophale) SiO2 
 PCOD8042586
Probable space group: P -1
;
_chemical_formula_sum "Si O2"
_cell_formula_units_Z 16
_cell_length_a 15.146604
_cell_length_b 12.864901
_cell_length_c 15.360369
_cell_angle_alpha 42.942135
_cell_angle_beta 151.306760
_cell_angle_gamma 117.263537
_cell_volume 809.278313
_symmetry_space_group_name_H-M "P -1"
_symmetry_group_IT_number 2
_symmetry_cell_setting 'triclinic'
loop_
_space_group_symop_operation_xyz
x,y,z
-x,-y,-z
loop_
_atom_site_type_symbol
_atom_site_label
_atom_site_fract_x
_atom_site_fract_y
_atom_site_fract_z
Si Si1 0.744442 0.515143 0.137394
Si Si2 0.639307 0.658988 0.472547
Si Si3 0.155401 0.489324 0.442197
Si Si4 0.988858 0.129929 0.984133
Si Si5 0.191603 0.731314 0.081834
Si Si6 0.444766 0.920701 0.580266
Si Si7 0.488339 0.346180 0.969697
Si Si8 0.295206 0.059400 0.543632
O O1 0.693757 0.553690 0.172295
O O2 0.001996 0.433845 0.390702
O O3 0.592635 0.701960 0.837337
O O4 0.686915 0.374325 0.138784
O O5 0.747855 0.623631 0.493448
O O6 0.376896 0.743205 0.184036
O O7 0.752773 0.475056 0.742334
O O8 0.683110 0.798890 0.469631
O O9 0.005836 0.708924 0.158346
O O10 0.360223 0.438296 0.712800
O O11 0.794545 0.218394 0.834856
O O12 0.000000 0.000000 0.000000
O O13 0.191404 0.992866 0.305657
O O14 0.959746 0.857618 0.753246
O O15 0.500000 0.000000 0.500000
O O16 0.454758 0.002798 0.631262
O O17 0.606984 0.126948 0.202212
#
# Coordination Sequence:
#
# PCOD8042586 Si02
#       8
#     2   2   2   2   2   2   2   2
#     4  10  21  40  60  82 123 150 185 243 289 337
#     4  10  22  39  60  84 115 154 192 237 287 339
#     4  11  22  38  57  86 115 154 196 232 284 341
#     4  10  20  33  58  89 116 144 187 241 294 343
#     4   9  21  40  57  85 119 148 189 238 292 341
#     4  10  19  35  58  90 111 140 191 236 294 345
#     4  10  23  39  58  87 114 156 194 230 287 344
#     4  10  22  39  60  82 115 154 192 232 286 342
#
# _framework density 19.770702
#
# number of rings (size 3 to 8) (size 9 to 14) (size 15 to 20)
#    0.000    2.000    1.250    1.500    1.750    3.500 
#    2.250    1.250    0.000    0.000    0.000    0.000 
#    0.000    0.000    0.000    0.000    0.000    0.000 
#
# Total GULP energy -198317.055098 kJ/mol
# GULP energy per Si atom -12394.815944 kJ/mol
# Density = 1.972570 g / cm^3
# Si number density = 19.770702 Si / 1000 Ang^3
#
#
#
# Elastic Constant Matrix: (Units=GPa)
#
#
# Indices 1 2 3 4 5 6 
#
# 1 87.3099 53.8041 15.5235 -1.7581 9.7905 1.6002
# 2 53.8041 142.9283 33.1456 -9.3335 7.6036 -18.8959
# 3 15.5235 33.1456 75.0659 0.8015 -2.4317 -6.1412
# 4 -1.7581 -9.3335 0.8015 27.4629 0.7615 5.5158
# 5 9.7905 7.6036 -2.4317 0.7615 30.8154 5.6342
# 6 1.6002 -18.8959 -6.1412 5.5158 5.6342 25.0324
#
#
#
# Elastic Compliance Matrix: (Units=1/GPa)
#
#
# Indices 1 2 3 4 5 6 
#
# 1 0.015938 -0.006347 -0.001027 0.000069 -0.002575 -0.005497
# 2 -0.006347 0.011518 -0.003187 0.001971 -0.002677 0.008487
# 3 -0.001027 -0.003187 0.015138 -0.001914 0.002113 0.001320
# 4 0.000069 0.001971 -0.001914 0.038645 -0.000253 -0.007445
# 5 -0.002575 -0.002677 0.002113 -0.000253 0.035811 -0.009342
# 6 -0.005497 0.008487 0.001320 -0.007445 -0.009342 0.050773
#
#
# Mechanical properties :
#
#
# Convention : Reuss Voigt Hill
#
# Bulk Modulus (GPa) = 46.57180 56.69451 51.63315
# Shear Modulus (GPa) = 25.49685 30.18422 27.84053
#
# Velocity S-wave (km/s) = 3.59504 3.91156 3.75663
# Velocity P-wave (km/s) = 6.39058 7.00990 6.70739
#
# Compressibility (1/GPa) = 0.02147222
#
# Stress axis : x y z
#
# Youngs Moduli (GPa) = 62.74217 86.82194 66.05848
#
# Poissons Ratio (x) = 0.55104 0.06787
# Poissons Ratio (y) = 0.39821 0.21051
# Poissons Ratio (z) = 0.06446 0.27668
#
# Static dielectric constant tensor:
#      x y z
#    x 3.969030 -0.078160 1.281790 
#    y -0.078160 3.494390 -0.464530 
#    z 1.281790 -0.464530 4.084680 
# 
# 
# High freq. dielectric constant tensor:
#      x y z
#    x 1.772230 -0.004980 0.002620 
#    y -0.004980 1.762910 -0.004380 
#    z 0.002620 -0.004380 1.773250 
# 
# From -- ./inp_files/299665.got.cif
#   From: 2010.06.25/outbox.cif.g09.slc.cpg/sg2_150_cif.got.tgz:299665.got - 2010.06.27 13:26:56.
