data_PCOD8042862
_publ_section_title
;
Structure prediction by ZEFSAII (Michael W. Deem and Ramdas Pophale) SiO2 
 PCOD8042862
Probable space group: P -1
;
_chemical_formula_sum "Si O2"
_cell_formula_units_Z 16
_cell_length_a 17.645782
_cell_length_b 9.456593
_cell_length_c 21.026417
_cell_angle_alpha 28.410741
_cell_angle_beta 152.214095
_cell_angle_gamma 146.387863
_cell_volume 754.210422
_symmetry_space_group_name_H-M "P -1"
_symmetry_group_IT_number 2
_symmetry_cell_setting 'triclinic'
loop_
_space_group_symop_operation_xyz
x,y,z
-x,-y,-z
loop_
_atom_site_type_symbol
_atom_site_label
_atom_site_fract_x
_atom_site_fract_y
_atom_site_fract_z
Si Si1 0.309405 0.384510 0.138182
Si Si2 0.500481 0.341103 0.710597
Si Si3 0.308406 0.689957 0.779553
Si Si4 0.000663 0.627331 0.779622
Si Si5 0.332527 0.585800 0.317911
Si Si6 0.038818 0.203311 0.511256
Si Si7 0.405566 0.276774 0.114424
Si Si8 0.226523 0.679888 0.376740
O O1 0.438880 0.606338 0.192957
O O2 0.395123 0.431742 0.113675
O O3 0.278779 0.043552 0.278974
O O4 0.132155 0.473901 0.972446
O O5 0.660735 0.408769 0.755942
O O6 0.383069 0.561548 0.513268
O O7 0.400296 0.989559 0.768869
O O8 0.122826 0.702106 0.618343
O O9 0.404392 0.659891 0.796613
O O10 0.297111 0.401510 0.931715
O O11 0.841575 0.642357 0.699981
O O12 0.932953 0.425952 0.746332
O O13 0.093938 0.980929 0.691975
O O14 0.500000 0.500000 0.500000
O O15 0.325919 0.917925 0.208546
O O16 0.180181 0.514178 0.477111
O O17 0.000000 0.000000 0.500000
#
# Coordination Sequence:
#
# PCOD8042862 Si02
#       8
#     2   2   2   2   2   2   2   2
#     4  12  25  37  61  97 126 153 201 259 312 355
#     4  11  23  40  61  89 127 163 193 251 320 361
#     4  10  20  39  63  91 116 164 206 252 295 362
#     4  11  21  37  64  89 115 162 211 249 294 358
#     4  11  20  39  66  87 118 161 214 246 292 367
#     4  10  19  35  63  89 116 153 214 246 294 353
#     4  10  21  36  60  93 119 155 207 256 292 356
#     4  11  21  39  62  89 120 164 205 250 295 367
#
# _framework density 21.214237000000001
#
# number of rings (size 3 to 8) (size 9 to 14) (size 15 to 20)
#    0.000    1.250    5.000    3.000    1.750    1.000 
#    0.000    0.000    0.000    1.500    0.000    0.000 
#    0.000    0.000    0.000    0.000    0.000    0.000 
#
# Total GULP energy -198377.163911 kJ/mol
# GULP energy per Si atom -12398.572744 kJ/mol
# Density = 2.116595 g / cm^3
# Si number density = 21.214237 Si / 1000 Ang^3
#
#
#
# Elastic Constant Matrix: (Units=GPa)
#
#
# Indices 1 2 3 4 5 6 
#
# 1 115.9914 25.2411 22.8389 -5.6257 6.1969 10.0882
# 2 25.2411 45.6960 20.8902 -2.7181 -1.6465 1.8817
# 3 22.8389 20.8902 112.9327 -13.3923 11.8101 4.0163
# 4 -5.6257 -2.7181 -13.3923 26.8440 7.2560 -9.6214
# 5 6.1969 -1.6465 11.8101 7.2560 33.7047 -3.0862
# 6 10.0882 1.8817 4.0163 -9.6214 -3.0862 28.3044
#
#
#
# Elastic Compliance Matrix: (Units=1/GPa)
#
#
# Indices 1 2 3 4 5 6 
#
# 1 0.010358 -0.005331 -0.000647 0.000798 -0.002406 -0.003236
# 2 -0.005331 0.026950 -0.004569 -0.001584 0.004302 0.000687
# 3 -0.000647 -0.004569 0.011161 0.006650 -0.005390 0.000624
# 4 0.000798 -0.001584 0.006650 0.048847 -0.011770 0.014198
# 5 -0.002406 0.004302 -0.005390 -0.011770 0.034848 0.001135
# 6 -0.003236 0.000687 0.000624 0.014198 0.001135 0.041300
#
#
# Mechanical properties :
#
#
# Convention : Reuss Voigt Hill
#
# Bulk Modulus (GPa) = 36.53197 45.84006 41.18602
# Shear Modulus (GPa) = 24.54787 31.48061 28.01424
#
# Velocity S-wave (km/s) = 3.40537 3.85637 3.63787
# Velocity P-wave (km/s) = 5.72013 6.44080 6.09113
#
# Compressibility (1/GPa) = 0.02737328
#
# Stress axis : x y z
#
# Youngs Moduli (GPa) = 96.54679 37.10578 89.59798
#
# Poissons Ratio (x) = 0.19783 0.05797
# Poissons Ratio (y) = 0.51473 0.40939
# Poissons Ratio (z) = 0.06247 0.16954
#
# Static dielectric constant tensor:
#      x y z
#    x 4.183030 0.235020 0.019740 
#    y 0.235020 3.408140 -0.307370 
#    z 0.019740 -0.307370 3.958410 
# 
# 
# High freq. dielectric constant tensor:
#      x y z
#    x 1.846000 0.021620 0.003170 
#    y 0.021620 1.780170 -0.024150 
#    z 0.003170 -0.024150 1.843450 
# 
# From -- ./inp_files/599676.got.cif
#   From: 2010.06.25/outbox.cif.g09.slc.cpg/sg2_300_cif.got.tgz:599676.got - 2010.06.27 13:26:56.
