data_PCOD8042170
_publ_section_title
;
Structure prediction by ZEFSAII (Michael W. Deem and Ramdas Pophale) SiO2 
 PCOD8042170
Probable space group: P -1
;
_chemical_formula_sum "Si O2"
_cell_formula_units_Z 14
_cell_length_a 10.929411
_cell_length_b 13.584629
_cell_length_c 19.605821
_cell_angle_alpha 31.333590
_cell_angle_beta 145.100956
_cell_angle_gamma 146.492478
_cell_volume 774.312170
_symmetry_space_group_name_H-M "P -1"
_symmetry_group_IT_number 2
_symmetry_cell_setting 'triclinic'
loop_
_space_group_symop_operation_xyz
x,y,z
-x,-y,-z
loop_
_atom_site_type_symbol
_atom_site_label
_atom_site_fract_x
_atom_site_fract_y
_atom_site_fract_z
Si Si1 0.699492 0.457245 0.030243
Si Si2 0.448209 0.743013 0.775896
Si Si3 0.467152 0.195593 0.947028
Si Si4 0.366584 0.395751 0.661914
Si Si5 0.432144 0.831348 0.476740
Si Si6 0.156514 0.792731 0.502112
Si Si7 0.244024 0.732746 0.089472
O O1 0.625262 0.644085 0.896338
O O2 0.658099 0.319747 0.160490
O O3 0.543127 0.300561 0.992730
O O4 0.975774 0.556514 0.078650
O O5 0.227318 0.663394 0.668031
O O6 0.597488 0.999375 0.687451
O O7 0.286734 0.947277 0.021606
O O8 0.335433 0.311580 0.775959
O O9 0.696136 0.215087 0.995010
O O10 0.438762 0.644426 0.546104
O O11 0.577196 0.357651 0.744564
O O12 0.122220 0.267530 0.584209
O O13 0.212489 0.734770 0.486610
O O14 0.682527 0.954048 0.561070
#
# Coordination Sequence:
#
# PCOD8042170 Si02
#       7
#     2   2   2   2   2   2   2
#     4  11  20  41  56  77 123 142 185 228 272 336
#     4   9  22  37  56  86 108 154 182 219 281 333
#     4   9  21  35  59  88 102 146 187 229 277 316
#     4  10  19  34  59  85 107 136 187 233 279 312
#     4   9  19  33  56  86 106 149 176 226 284 309
#     4   9  19  35  54  84 114 136 188 229 263 338
#     4   9  22  36  58  88 104 148 189 228 276 319
#
# _framework density 18.080563999999999
#
# number of rings (size 3 to 8) (size 9 to 14) (size 15 to 20)
#    1.714    0.857    0.000    1.714    2.000    1.143 
#    2.571    2.857    0.000    0.000    0.000    0.000 
#    0.000    0.000    0.000    0.000    0.000    0.000 
#
# Total GULP energy -173482.399859 kJ/mol
# GULP energy per Si atom -12391.599990 kJ/mol
# Density = 1.803941 g / cm^3
# Si number density = 18.080564 Si / 1000 Ang^3
#
#
#
# Elastic Constant Matrix: (Units=GPa)
#
#
# Indices 1 2 3 4 5 6 
#
# 1 41.4409 15.0708 28.2967 0.8221 -9.1156 -4.3302
# 2 15.0708 69.1761 30.9405 3.5139 4.7020 -4.7210
# 3 28.2967 30.9405 110.9995 -1.6195 -3.8622 -5.9558
# 4 0.8221 3.5139 -1.6195 31.5720 -4.7666 15.2081
# 5 -9.1156 4.7020 -3.8622 -4.7666 24.9969 0.0574
# 6 -4.3302 -4.7210 -5.9558 15.2081 0.0574 14.4604
#
#
#
# Elastic Compliance Matrix: (Units=1/GPa)
#
#
# Indices 1 2 3 4 5 6 
#
# 1 0.033789 -0.004338 -0.006528 -0.003829 0.011376 0.009995
# 2 -0.004338 0.019147 -0.003894 -0.010167 -0.007756 0.014071
# 3 -0.006528 -0.003894 0.011819 0.000961 0.000360 0.000630
# 4 -0.003829 -0.010167 0.000961 0.075490 0.015251 -0.083524
# 5 0.011376 -0.007756 0.000360 0.015251 0.048611 -0.015210
# 6 0.009995 0.014071 0.000630 -0.083524 -0.015210 0.164903
#
#
# Mechanical properties :
#
#
# Convention : Reuss Voigt Hill
#
# Bulk Modulus (GPa) = 28.38218 41.13693 34.75955
# Shear Modulus (GPa) = 12.65746 24.02644 18.34195
#
# Velocity S-wave (km/s) = 2.64873 3.64930 3.18851
# Velocity P-wave (km/s) = 5.00860 6.36851 5.72905
#
# Compressibility (1/GPa) = 0.03523337
#
# Stress axis : x y z
#
# Youngs Moduli (GPa) = 29.59585 52.22825 84.60869
#
# Poissons Ratio (x) = 0.22656 0.55234
# Poissons Ratio (y) = 0.12839 0.32950
# Poissons Ratio (z) = 0.19321 0.20340
#
# Static dielectric constant tensor:
#      x y z
#    x 3.023540 -0.011220 0.044160 
#    y -0.011220 3.102900 -0.036650 
#    z 0.044160 -0.036650 3.261480 
# 
# 
# High freq. dielectric constant tensor:
#      x y z
#    x 1.672760 0.000010 0.010580 
#    y 0.000010 1.692960 -0.005490 
#    z 0.010580 -0.005490 1.694860 
# 
# From -- ./inp_files/595351.got.cif
#   From: 2010.06.25/outbox.cif.g09.slc.cpg/sg2_298_cif.got.tgz:595351.got - 2010.06.27 13:26:56.
