data_PCOD8042496
_publ_section_title
;
Structure prediction by ZEFSAII (Michael W. Deem and Ramdas Pophale) SiO2 
 PCOD8042496
Probable space group: P -1
;
_chemical_formula_sum "Si O2"
_cell_formula_units_Z 16
_cell_length_a 17.368095
_cell_length_b 9.011057
_cell_length_c 11.871827
_cell_angle_alpha 122.402235
_cell_angle_beta 53.661398
_cell_angle_gamma 77.999964
_cell_volume 802.321493
_symmetry_space_group_name_H-M "P -1"
_symmetry_group_IT_number 2
_symmetry_cell_setting 'triclinic'
loop_
_space_group_symop_operation_xyz
x,y,z
-x,-y,-z
loop_
_atom_site_type_symbol
_atom_site_label
_atom_site_fract_x
_atom_site_fract_y
_atom_site_fract_z
Si Si1 0.515439 0.251933 0.062339
Si Si2 0.131994 0.201013 0.866868
Si Si3 0.676590 0.690183 0.589546
Si Si4 0.013937 0.639069 0.723238
Si Si5 0.755096 0.201054 0.584329
Si Si6 0.820047 0.958063 0.665157
Si Si7 0.963633 0.980042 0.722304
Si Si8 0.823316 0.525145 0.171755
O O1 0.413785 0.348567 0.298679
O O2 0.416435 0.489607 0.148768
O O3 0.587860 0.985271 0.827533
O O4 0.655157 0.170843 0.951807
O O5 0.214823 0.273757 0.808424
O O6 0.217071 0.932839 0.613207
O O7 0.128647 0.162235 0.986911
O O8 0.954145 0.445999 0.091442
O O9 0.846761 0.439269 0.386777
O O10 0.686774 0.677329 0.438756
O O11 0.070714 0.361415 0.536171
O O12 0.945444 0.829688 0.750553
O O13 0.861194 0.219579 0.518216
O O14 0.789285 0.018985 0.582630
O O15 0.896688 0.024436 0.676046
O O16 0.872803 0.274017 0.969867
#
# Coordination Sequence:
#
# PCOD8042496 Si02
#       8
#     2   2   2   2   2   2   2   2
#     4  10  20  35  58  81 107 144 184 223 270 317
#     4   9  18  32  56  87 106 133 181 238 273 300
#     4   9  18  34  57  83 107 138 185 233 262 309
#     4  10  19  35  57  82 112 140 181 228 270 317
#     4  11  21  36  60  84 107 140 185 229 269 319
#     4  11  23  37  53  81 118 145 176 222 271 327
#     4  11  22  35  57  83 110 148 179 217 275 329
#     4   9  18  33  55  80 110 141 178 228 273 313
#
# _framework density 19.942129000000001
#
# number of rings (size 3 to 8) (size 9 to 14) (size 15 to 20)
#    0.000    2.000    1.250    4.875    1.750    1.500 
#    0.000    0.625    0.000    1.500    0.000    0.000 
#    0.000    0.000    0.000    0.000    0.000    0.000 
#
# Total GULP energy -198295.441111 kJ/mol
# GULP energy per Si atom -12393.465069 kJ/mol
# Density = 1.989674 g / cm^3
# Si number density = 19.942129 Si / 1000 Ang^3
#
#
#
# Elastic Constant Matrix: (Units=GPa)
#
#
# Indices 1 2 3 4 5 6 
#
# 1 75.1126 25.0640 34.5260 3.5936 1.8857 12.8202
# 2 25.0640 91.6819 26.1347 -4.6762 -0.3166 10.0926
# 3 34.5260 26.1347 79.2660 -11.4483 2.1146 2.1289
# 4 3.5936 -4.6762 -11.4483 30.3903 -1.5895 -2.6457
# 5 1.8857 -0.3166 2.1146 -1.5895 12.0187 -0.8950
# 6 12.8202 10.0926 2.1289 -2.6457 -0.8950 19.7510
#
#
#
# Elastic Compliance Matrix: (Units=1/GPa)
#
#
# Indices 1 2 3 4 5 6 
#
# 1 0.020740 -0.002120 -0.008975 -0.007445 -0.003652 -0.012575
# 2 -0.002120 0.012946 -0.003143 0.000694 0.000964 -0.004764
# 3 -0.008975 -0.003143 0.018569 0.008119 -0.000384 0.006500
# 4 -0.007445 0.000694 0.008119 0.038014 0.005451 0.008942
# 5 -0.003652 0.000964 -0.000384 0.005451 0.085075 0.006505
# 6 -0.012575 -0.004764 0.006500 0.008942 0.006505 0.062019
#
#
# Mechanical properties :
#
#
# Convention : Reuss Voigt Hill
#
# Bulk Modulus (GPa) = 42.05075 46.38996 44.22036
# Shear Modulus (GPa) = 18.26380 23.12104 20.69242
#
# Velocity S-wave (km/s) = 3.02957 3.40870 3.22471
# Velocity P-wave (km/s) = 5.77667 6.22937 6.00729
#
# Compressibility (1/GPa) = 0.02378079
#
# Stress axis : x y z
#
# Youngs Moduli (GPa) = 48.21537 77.24561 53.85187
#
# Poissons Ratio (x) = 0.16373 0.48333
# Poissons Ratio (y) = 0.10220 0.16923
# Poissons Ratio (z) = 0.43274 0.24275
#
# Static dielectric constant tensor:
#      x y z
#    x 3.241960 0.165330 -0.107010 
#    y 0.165330 3.815870 -0.367810 
#    z -0.107010 -0.367810 3.704720 
# 
# 
# High freq. dielectric constant tensor:
#      x y z
#    x 1.730750 0.018100 0.009230 
#    y 0.018100 1.790170 -0.016290 
#    z 0.009230 -0.016290 1.774050 
# 
# From -- ./inp_files/271174.got.cif
#   From: 2010.06.25/outbox.cif.g09.slc.cpg/sg2_136_cif.got.tgz:271174.got - 2010.06.27 13:26:56.
