data_PCOD8042696
_publ_section_title
;
Structure prediction by ZEFSAII (Michael W. Deem and Ramdas Pophale) SiO2 
 PCOD8042696
Probable space group: P -1
;
_chemical_formula_sum "Si O2"
_cell_formula_units_Z 16
_cell_length_a 20.023792
_cell_length_b 10.158016
_cell_length_c 5.631895
_cell_angle_alpha 44.024504
_cell_angle_beta 119.604931
_cell_angle_gamma 124.065076
_cell_volume 651.161498
_symmetry_space_group_name_H-M "P -1"
_symmetry_group_IT_number 2
_symmetry_cell_setting 'triclinic'
loop_
_space_group_symop_operation_xyz
x,y,z
-x,-y,-z
loop_
_atom_site_type_symbol
_atom_site_label
_atom_site_fract_x
_atom_site_fract_y
_atom_site_fract_z
Si Si1 0.066780 0.696150 0.593358
Si Si2 0.688724 0.879876 0.318103
Si Si3 0.799828 0.280526 0.860765
Si Si4 0.504451 0.728832 0.221241
Si Si5 0.275608 0.419180 0.545411
Si Si6 0.554889 0.359052 0.268578
Si Si7 0.895512 0.597721 0.275206
Si Si8 0.177790 0.096578 0.130387
O O1 0.070009 0.480046 0.793879
O O2 0.972552 0.676641 0.492742
O O3 0.110474 0.877269 0.247018
O O4 0.118271 0.751138 0.854887
O O5 0.597861 0.875804 0.210388
O O6 0.687239 0.660801 0.509967
O O7 0.741621 0.933532 0.580760
O O8 0.732010 0.062299 0.971767
O O9 0.761772 0.406383 0.814592
O O10 0.820862 0.411257 0.489910
O O11 0.500000 0.500000 0.500000
O O12 0.461797 0.767951 0.343166
O O13 0.465822 0.771782 0.845140
O O14 0.349351 0.507981 0.749071
O O15 0.202284 0.227331 0.766171
O O16 0.500000 0.500000 0.000000
O O17 0.862187 0.779534 0.920939
#
# Coordination Sequence:
#
# PCOD8042696 Si02
#       8
#     2   2   2   2   2   2   2   2
#     4  10  20  37  58  81 115 150 189 240 293 355
#     4  11  21  36  60  80 118 152 193 247 296 356
#     4  10  23  38  54  90 112 150 196 238 300 356
#     4  10  19  35  60  87 117 163 207 247 309 365
#     4  11  21  36  60  80 118 152 193 247 296 356
#     4  10  19  35  60  87 117 163 207 247 309 365
#     4  10  20  37  58  81 115 150 189 240 293 355
#     4  10  21  34  56  86 110 150 196 236 294 358
#
# _framework density 24.571476000000001
#
# number of rings (size 3 to 8) (size 9 to 14) (size 15 to 20)
#    0.000    1.750    2.500    3.750    0.000    0.000 
#    0.000    1.250    0.000   12.000    0.000    0.000 
#    0.000    0.000    0.000    0.000    0.000    0.000 
#
# Total GULP energy -198271.346220 kJ/mol
# GULP energy per Si atom -12391.959139 kJ/mol
# Density = 2.451555 g / cm^3
# Si number density = 24.571476 Si / 1000 Ang^3
#
#
#
# Elastic Constant Matrix: (Units=GPa)
#
#
# Indices 1 2 3 4 5 6 
#
# 1 67.2394 29.3365 20.7764 -3.4499 -5.4499 9.7352
# 2 29.3365 90.5384 30.8375 -6.5777 -6.8802 14.9953
# 3 20.7764 30.8375 67.6837 6.8456 -2.3021 6.1450
# 4 -3.4499 -6.5777 6.8456 23.7310 -10.4874 -8.7266
# 5 -5.4499 -6.8802 -2.3021 -10.4874 31.3942 -0.3406
# 6 9.7352 14.9953 6.1450 -8.7266 -0.3406 44.1639
#
#
#
# Elastic Compliance Matrix: (Units=1/GPa)
#
#
# Indices 1 2 3 4 5 6 
#
# 1 0.018467 -0.003846 -0.004049 0.003710 0.003290 -0.001443
# 2 -0.003846 0.015630 -0.006270 0.006773 0.004536 -0.002214
# 3 -0.004049 -0.006270 0.019979 -0.010635 -0.004185 -0.001892
# 4 0.003710 0.006773 -0.010635 0.061215 0.021913 0.010627
# 5 0.003290 0.004536 -0.004185 0.021913 0.040464 0.002959
# 6 -0.001443 -0.002214 -0.001892 0.010627 0.002959 0.026099
#
#
# Mechanical properties :
#
#
# Convention : Reuss Voigt Hill
#
# Bulk Modulus (GPa) = 38.84061 43.04024 40.94043
# Shear Modulus (GPa) = 22.85529 29.49191 26.17360
#
# Velocity S-wave (km/s) = 3.05315 3.46822 3.26728
# Velocity P-wave (km/s) = 5.31700 5.79590 5.56161
#
# Compressibility (1/GPa) = 0.02574625
#
# Stress axis : x y z
#
# Youngs Moduli (GPa) = 54.14990 63.97757 50.05152
#
# Poissons Ratio (x) = 0.24608 0.20264
# Poissons Ratio (y) = 0.20828 0.31385
# Poissons Ratio (z) = 0.21923 0.40117
#
# Static dielectric constant tensor:
#      x y z
#    x 4.581450 0.071370 -0.063600 
#    y 0.071370 4.632300 0.011190 
#    z -0.063600 0.011190 4.494980 
# 
# 
# High freq. dielectric constant tensor:
#      x y z
#    x 1.968510 0.020650 0.005710 
#    y 0.020650 1.972470 -0.010840 
#    z 0.005710 -0.010840 1.952430 
# 
# From -- ./inp_files/47157.got.cif
#   From: 2010.06.25/outbox.cif.g09.slc.cpg/sg2_24_cif.got.tgz:47157.got - 2010.06.27 13:26:56.
