data_PCOD8042373
_publ_section_title
;
Structure prediction by ZEFSAII (Michael W. Deem and Ramdas Pophale) SiO2 
 PCOD8042373
Probable space group: P -1
;
_chemical_formula_sum "Si O2"
_cell_formula_units_Z 14
_cell_length_a 11.480949
_cell_length_b 5.171612
_cell_length_c 11.948765
_cell_angle_alpha 109.682275
_cell_angle_beta 75.072210
_cell_angle_gamma 70.113260
_cell_volume 569.986190
_symmetry_space_group_name_H-M "P -1"
_symmetry_group_IT_number 2
_symmetry_cell_setting 'triclinic'
loop_
_space_group_symop_operation_xyz
x,y,z
-x,-y,-z
loop_
_atom_site_type_symbol
_atom_site_label
_atom_site_fract_x
_atom_site_fract_y
_atom_site_fract_z
Si Si1 0.571062 0.664204 0.381379
Si Si2 0.011819 0.826395 0.185010
Si Si3 0.631225 0.548512 0.592010
Si Si4 0.318711 0.455709 0.090051
Si Si5 0.085818 0.645249 0.555433
Si Si6 0.578350 0.071888 0.829545
Si Si7 0.856986 0.470425 0.233277
O O1 0.630609 0.452729 0.448212
O O2 0.461381 0.576366 0.335929
O O3 0.698351 0.585538 0.254025
O O4 0.500000 0.000000 0.500000
O O5 0.169608 0.584167 0.089897
O O6 0.922935 0.644132 0.170991
O O7 0.000714 0.991507 0.333548
O O8 0.951537 0.095115 0.143473
O O9 0.791615 0.388284 0.563024
O O10 0.567898 0.920409 0.690962
O O11 0.336129 0.741262 0.178513
O O12 0.339151 0.213174 0.147407
O O13 0.425937 0.294725 0.940719
O O14 0.149288 0.435010 0.620405
O O15 0.000000 0.500000 0.500000
#
# Coordination Sequence:
#
# PCOD8042373 Si02
#       7
#     2   2   2   2   2   2   2
#     4  10  21  37  57  80 114 155 192 238 277 336
#     4  10  19  35  53  79 107 151 173 230 279 339
#     4  10  21  36  56  84 115 150 191 234 283 331
#     4  10  21  38  60  81 121 146 192 226 287 336
#     4   9  19  32  49  83 110 142 174 224 280 346
#     4  10  22  38  57  88 110 156 187 235 274 342
#     4   9  21  34  52  78 107 146 186 221 281 329
#
# _framework density 24.561997000000002
#
# number of rings (size 3 to 8) (size 9 to 14) (size 15 to 20)
#    0.857    1.429    0.000    2.571    6.000    0.571 
#    0.000    0.000    0.000    1.714    0.000    0.000 
#    0.000    0.000    0.000    0.000    0.000    0.000 
#
# Total GULP energy -173474.337864 kJ/mol
# GULP energy per Si atom -12391.024133 kJ/mol
# Density = 2.450609 g / cm^3
# Si number density = 24.561997 Si / 1000 Ang^3
#
#
#
# Elastic Constant Matrix: (Units=GPa)
#
#
# Indices 1 2 3 4 5 6 
#
# 1 157.0103 44.9907 28.1300 10.9774 -42.5493 36.7592
# 2 44.9907 101.4442 9.1414 32.1127 -9.7270 24.4312
# 3 28.1300 9.1414 54.6934 10.2187 -15.9461 7.4023
# 4 10.9774 32.1127 10.2187 27.2446 -6.9315 -1.1291
# 5 -42.5493 -9.7270 -15.9461 -6.9315 40.6415 1.6247
# 6 36.7592 24.4312 7.4023 -1.1291 1.6247 36.8147
#
#
#
# Elastic Compliance Matrix: (Units=1/GPa)
#
#
# Indices 1 2 3 4 5 6 
#
# 1 0.014080 -0.001193 -0.000775 -0.000843 0.014558 -0.013779
# 2 -0.001193 0.023116 0.004866 -0.028766 0.001929 -0.016094
# 3 -0.000775 0.004866 0.023561 -0.012613 0.007763 -0.007922
# 4 -0.000843 -0.028766 -0.012613 0.076544 -0.000655 0.024844
# 5 0.014558 0.001929 0.007763 -0.000655 0.044016 -0.019340
# 6 -0.013779 -0.016094 -0.007922 0.024844 -0.019340 0.054811
#
#
# Mechanical properties :
#
#
# Convention : Reuss Voigt Hill
#
# Bulk Modulus (GPa) = 15.02615 53.07469 34.05042
# Shear Modulus (GPa) = 19.80060 36.33253 28.06656
#
# Velocity S-wave (km/s) = 2.84235 3.85023 3.38403
# Velocity P-wave (km/s) = 4.11131 6.43592 5.40018
#
# Compressibility (1/GPa) = 0.06655064
#
# Stress axis : x y z
#
# Youngs Moduli (GPa) = 71.02223 43.26099 42.44259
#
# Poissons Ratio (x) = 0.05163 0.03290
# Poissons Ratio (y) = 0.08476 -0.20651
# Poissons Ratio (z) = 0.05506 -0.21049
#
# Static dielectric constant tensor:
#      x y z
#    x 4.701650 0.056680 -0.067440 
#    y 0.056680 4.310780 -0.029000 
#    z -0.067440 -0.029000 4.382250 
# 
# 
# High freq. dielectric constant tensor:
#      x y z
#    x 1.982210 0.016270 -0.017120 
#    y 0.016270 1.968690 0.013860 
#    z -0.017120 0.013860 1.951750 
# 
# From -- ./inp_files/511301.got.cif
#   From: 2010.06.25/outbox.cif.g09.slc.cpg/sg2_256_cif.got.tgz:511301.got - 2010.06.27 13:26:56.
