data_PCOD8042746
_publ_section_title
;
Structure prediction by ZEFSAII (Michael W. Deem and Ramdas Pophale) SiO2 
 PCOD8042746
Probable space group: P -1
;
_chemical_formula_sum "Si O2"
_cell_formula_units_Z 14
_cell_length_a 8.386501
_cell_length_b 14.357343
_cell_length_c 14.700912
_cell_angle_alpha 30.415986
_cell_angle_beta 128.730580
_cell_angle_gamma 111.767005
_cell_volume 632.089103
_symmetry_space_group_name_H-M "P -1"
_symmetry_group_IT_number 2
_symmetry_cell_setting 'triclinic'
loop_
_space_group_symop_operation_xyz
x,y,z
-x,-y,-z
loop_
_atom_site_type_symbol
_atom_site_label
_atom_site_fract_x
_atom_site_fract_y
_atom_site_fract_z
Si Si1 0.609477 0.274190 0.764244
Si Si2 0.123162 0.061048 0.174656
Si Si3 0.301471 0.663488 0.666608
Si Si4 0.356274 0.325274 0.091530
Si Si5 0.560949 0.421484 0.807180
Si Si6 0.758427 0.094914 0.290356
Si Si7 0.526867 0.827168 0.378463
O O1 0.500000 0.500000 0.500000
O O2 0.511897 0.292707 0.816778
O O3 0.537362 0.145307 0.775375
O O4 0.880824 0.184100 0.940124
O O5 0.118487 0.891994 0.386969
O O6 0.300774 0.956399 0.246007
O O7 0.191575 0.214558 0.128504
O O8 0.220394 0.555260 0.808359
O O9 0.339743 0.532034 0.698113
O O10 0.542627 0.667242 0.778712
O O11 0.573151 0.209146 0.203763
O O12 0.633906 0.591030 0.648263
O O13 0.758329 0.254252 0.079173
O O14 0.712006 0.912941 0.384270
O O15 0.000000 0.000000 0.500000
#
# Coordination Sequence:
#
# PCOD8042746 Si02
#       7
#     2   2   2   2   2   2   2
#     4  10  21  39  57  85 116 147 193 237 278 332
#     4  10  19  35  61  80 108 152 191 227 280 335
#     4   9  18  36  56  82 114 148 187 226 279 341
#     4   9  19  36  55  83 116 145 188 232 273 338
#     4   9  20  38  54  83 116 145 185 234 278 333
#     4  10  21  36  58  87 116 143 187 235 283 338
#     4   9  20  40  59  80 111 154 187 231 280 331
#
# _framework density 22.148776999999999
#
# number of rings (size 3 to 8) (size 9 to 14) (size 15 to 20)
#    0.000    2.571    0.000    0.857    2.000    1.143 
#   15.429    2.857    0.000   14.571    0.000    0.000 
#    0.000    0.000    0.000    0.000    0.000    0.000 
#
# Total GULP energy -173465.609634 kJ/mol
# GULP energy per Si atom -12390.400688 kJ/mol
# Density = 2.209837 g / cm^3
# Si number density = 22.148777 Si / 1000 Ang^3
#
#
#
# Elastic Constant Matrix: (Units=GPa)
#
#
# Indices 1 2 3 4 5 6 
#
# 1 36.9538 32.9830 40.5068 3.6195 -2.9028 3.3740
# 2 32.9830 100.3466 37.6877 7.0932 -0.0512 -3.5279
# 3 40.5068 37.6877 166.2457 7.2500 -8.2642 15.8487
# 4 3.6195 7.0932 7.2500 32.0768 4.3748 -6.1937
# 5 -2.9028 -0.0512 -8.2642 4.3748 19.6865 4.3106
# 6 3.3740 -3.5279 15.8487 -6.1937 4.3106 31.3048
#
#
#
# Elastic Compliance Matrix: (Units=1/GPa)
#
#
# Indices 1 2 3 4 5 6 
#
# 1 0.048415 -0.012802 -0.008213 -0.002144 0.004924 -0.003605
# 2 -0.012802 0.014581 -0.000647 -0.000553 -0.002792 0.003625
# 3 -0.008213 -0.000647 0.008926 -0.002427 0.004115 -0.004754
# 4 -0.002144 -0.000553 -0.002427 0.035581 -0.011435 0.010012
# 5 0.004924 -0.002792 0.004115 -0.011435 0.058690 -0.013272
# 6 -0.003605 0.003625 -0.004754 0.010012 -0.013272 0.038956
#
#
# Mechanical properties :
#
#
# Convention : Reuss Voigt Hill
#
# Bulk Modulus (GPa) = 34.96418 58.43345 46.69882
# Shear Modulus (GPa) = 19.37949 29.43820 24.40884
#
# Velocity S-wave (km/s) = 2.96120 3.64965 3.32330
# Velocity P-wave (km/s) = 5.24518 6.64827 5.98796
#
# Compressibility (1/GPa) = 0.02860070
#
# Stress axis : x y z
#
# Youngs Moduli (GPa) = 20.65473 68.58106 112.02753
#
# Poissons Ratio (x) = 0.87797 0.92003
# Poissons Ratio (y) = 0.26442 0.07244
# Poissons Ratio (z) = 0.16963 0.04435
#
# Static dielectric constant tensor:
#      x y z
#    x 3.885060 -0.656390 -0.387080 
#    y -0.656390 4.838680 0.004420 
#    z -0.387080 0.004420 4.269210 
# 
# 
# High freq. dielectric constant tensor:
#      x y z
#    x 1.827680 -0.028060 -0.017060 
#    y -0.028060 1.883480 -0.010760 
#    z -0.017060 -0.010760 1.884520 
# 
# From -- ./inp_files/177185.got.cif
#   From: 2010.06.25/outbox.cif.g09.slc.cpg/sg2_89_cif.got.tgz:177185.got - 2010.06.27 13:26:56.
