data_PCOD8042631
_publ_section_title
;
Structure prediction by ZEFSAII (Michael W. Deem and Ramdas Pophale) SiO2 
 PCOD8042631
Probable space group: P -1
;
_chemical_formula_sum "Si O2"
_cell_formula_units_Z 14
_cell_length_a 10.626198
_cell_length_b 8.180639
_cell_length_c 9.975720
_cell_angle_alpha 108.548719
_cell_angle_beta 131.539198
_cell_angle_gamma 84.695103
_cell_volume 606.728765
_symmetry_space_group_name_H-M "P -1"
_symmetry_group_IT_number 2
_symmetry_cell_setting 'triclinic'
loop_
_space_group_symop_operation_xyz
x,y,z
-x,-y,-z
loop_
_atom_site_type_symbol
_atom_site_label
_atom_site_fract_x
_atom_site_fract_y
_atom_site_fract_z
Si Si1 0.896421 0.308888 0.008599
Si Si2 0.249980 0.467381 0.618620
Si Si3 0.381875 0.464557 0.145164
Si Si4 0.920567 0.236528 0.305011
Si Si5 0.354925 0.060759 0.000237
Si Si6 0.347495 0.021354 0.298063
Si Si7 0.260781 0.395075 0.315482
O O1 0.772379 0.446078 0.990614
O O2 0.802037 0.142220 0.814628
O O3 0.957358 0.246924 0.177224
O O4 0.083158 0.387509 0.099369
O O5 0.443764 0.439411 0.778754
O O6 0.210045 0.637616 0.708733
O O7 0.250850 0.512441 0.470865
O O8 0.109256 0.298815 0.519869
O O9 0.401075 0.482491 0.327283
O O10 0.347636 0.262796 0.027718
O O11 0.827280 0.038795 0.213097
O O12 0.390408 0.011814 0.167337
O O13 0.500000 0.000000 0.000000
O O14 0.500000 0.000000 0.500000
O O15 0.287763 0.203912 0.334348
#
# Coordination Sequence:
#
# PCOD8042631 Si02
#       7
#     2   2   2   2   2   2   2
#     4  10  21  38  58  88 120 161 205 243 297 368
#     4  10  19  35  59  86 115 153 205 243 295 353
#     4  11  21  35  62  90 118 156 204 250 301 353
#     4   9  20  38  60  82 117 165 198 241 303 361
#     4  10  20  40  61  90 125 162 197 250 310 362
#     4  10  21  38  61  92 120 159 207 246 304 364
#     4  10  21  37  58  86 124 161 191 253 307 353
#
# _framework density 23.074562
#
# number of rings (size 3 to 8) (size 9 to 14) (size 15 to 20)
#    0.000    2.000    1.429    2.143    0.000    2.857 
#    2.571    0.000    0.000   11.143    0.000    0.000 
#    0.000    0.000    0.000    0.000    0.000    0.000 
#
# Total GULP energy -173452.779264 kJ/mol
# GULP energy per Si atom -12389.484233 kJ/mol
# Density = 2.302204 g / cm^3
# Si number density = 23.074562 Si / 1000 Ang^3
#
#
#
# Elastic Constant Matrix: (Units=GPa)
#
#
# Indices 1 2 3 4 5 6 
#
# 1 78.1290 -0.9593 12.9564 1.5065 17.7600 -9.6557
# 2 -0.9593 72.9834 20.7238 -6.0567 14.6873 -12.2146
# 3 12.9564 20.7238 80.1773 4.2783 14.6567 0.7918
# 4 1.5065 -6.0567 4.2783 33.3918 -9.8475 8.3066
# 5 17.7600 14.6873 14.6567 -9.8475 42.4617 3.3157
# 6 -9.6557 -12.2146 0.7918 8.3066 3.3157 21.0324
#
#
#
# Elastic Compliance Matrix: (Units=1/GPa)
#
#
# Indices 1 2 3 4 5 6 
#
# 1 0.017866 0.005149 -0.001914 -0.006930 -0.011435 0.015804
# 2 0.005149 0.019327 -0.004105 -0.003067 -0.009417 0.016439
# 3 -0.001914 -0.004105 0.014639 -0.003005 -0.003366 -0.002096
# 4 -0.006930 -0.003067 -0.003005 0.040737 0.016280 -0.023505
# 5 -0.011435 -0.009417 -0.003366 0.016280 0.038329 -0.023064
# 6 0.015804 0.016439 -0.002096 -0.023505 -0.023064 0.077346
#
#
# Mechanical properties :
#
#
# Convention : Reuss Voigt Hill
#
# Bulk Modulus (GPa) = 19.96298 32.97017 26.46658
# Shear Modulus (GPa) = 22.05745 32.61508 27.33626
#
# Velocity S-wave (km/s) = 3.09515 3.76369 3.44567
# Velocity P-wave (km/s) = 4.63072 5.76252 5.22734
#
# Compressibility (1/GPa) = 0.05009272
#
# Stress axis : x y z
#
# Youngs Moduli (GPa) = 55.97183 51.74187 68.31079
#
# Poissons Ratio (x) = -0.26644 0.13075
# Poissons Ratio (y) = -0.28822 0.28040
# Poissons Ratio (z) = 0.10714 0.21239
#
# Static dielectric constant tensor:
#      x y z
#    x 4.555900 -0.026260 0.413880 
#    y -0.026260 3.856020 0.329380 
#    z 0.413880 0.329380 4.564570 
# 
# 
# High freq. dielectric constant tensor:
#      x y z
#    x 1.928120 -0.015900 0.019180 
#    y -0.015900 1.878940 0.024140 
#    z 0.019180 0.024140 1.917290 
# 
# From -- ./inp_files/212819.got.cif
#   From: 2010.06.25/outbox.cif.g09.slc.cpg/sg2_107_cif.got.tgz:212819.got - 2010.06.27 13:26:56.
