data_PCOD8042296
_publ_section_title
;
Structure prediction by ZEFSAII (Michael W. Deem and Ramdas Pophale) SiO2 
 PCOD8042296
Probable space group: P -1
;
_chemical_formula_sum "Si O2"
_cell_formula_units_Z 14
_cell_length_a 18.800225
_cell_length_b 11.498608
_cell_length_c 9.106456
_cell_angle_alpha 81.348970
_cell_angle_beta 97.935709
_cell_angle_gamma 157.816363
_cell_volume 734.836639
_symmetry_space_group_name_H-M "P -1"
_symmetry_group_IT_number 2
_symmetry_cell_setting 'triclinic'
loop_
_space_group_symop_operation_xyz
x,y,z
-x,-y,-z
loop_
_atom_site_type_symbol
_atom_site_label
_atom_site_fract_x
_atom_site_fract_y
_atom_site_fract_z
Si Si1 0.659094 0.077054 0.988568
Si Si2 0.146843 0.708433 0.726359
Si Si3 0.797319 0.639843 0.531332
Si Si4 0.450710 0.290037 0.511113
Si Si5 0.292856 0.727332 0.592207
Si Si6 0.624932 0.267034 0.811620
Si Si7 0.726898 0.121715 0.686205
O O1 0.714409 0.294287 0.920306
O O2 0.633760 0.969339 0.849350
O O3 0.826873 0.277070 0.095909
O O4 0.466547 0.783246 0.085012
O O5 0.133673 0.565630 0.657947
O O6 0.951981 0.481994 0.693200
O O7 0.327012 0.057910 0.657942
O O8 0.640237 0.502563 0.501254
O O9 0.774911 0.505184 0.425768
O O10 0.790288 0.578386 0.707023
O O11 0.000000 0.000000 0.500000
O O12 0.500000 0.500000 0.500000
O O13 0.322815 0.075864 0.370648
O O14 0.355104 0.892137 0.429682
O O15 0.467725 0.985686 0.703977
#
# Coordination Sequence:
#
# PCOD8042296 Si02
#       7
#     2   2   2   2   2   2   2
#     4  10  19  34  62  90 119 148 203 242 304 348
#     4  10  22  37  61  90 121 154 198 251 294 356
#     4  12  23  35  61  91 119 153 199 253 295 350
#     4  11  24  40  58  88 126 160 197 247 302 351
#     4  10  19  37  60  90 112 150 212 248 291 336
#     4  10  19  37  61  87 118 151 195 261 290 348
#     4  11  20  36  65  86 117 159 200 249 293 356
#
# _framework density 19.051853999999999
#
# number of rings (size 3 to 8) (size 9 to 14) (size 15 to 20)
#    0.000    1.429    5.714    3.429    4.000    0.000 
#    0.000    0.714    0.000   15.429    0.000    0.000 
#    0.000    0.000    0.000    0.000    0.000    0.000 
#
# Total GULP energy -173489.851503 kJ/mol
# GULP energy per Si atom -12392.132250 kJ/mol
# Density = 1.900849 g / cm^3
# Si number density = 19.051854 Si / 1000 Ang^3
#
#
#
# Elastic Constant Matrix: (Units=GPa)
#
#
# Indices 1 2 3 4 5 6 
#
# 1 77.8827 39.0942 28.3189 -1.3904 -4.0162 -22.6084
# 2 39.0942 111.7968 44.3109 -11.6083 -1.8234 -8.3699
# 3 28.3189 44.3109 144.5570 -0.6256 -8.2606 -7.4232
# 4 -1.3904 -11.6083 -0.6256 23.6338 3.3465 -4.8690
# 5 -4.0162 -1.8234 -8.2606 3.3465 26.8393 1.8541
# 6 -22.6084 -8.3699 -7.4232 -4.8690 1.8541 30.2404
#
#
#
# Elastic Compliance Matrix: (Units=1/GPa)
#
#
# Indices 1 2 3 4 5 6 
#
# 1 0.019938 -0.005233 -0.001557 0.001123 0.001098 0.013189
# 2 -0.005233 0.012499 -0.002875 0.005954 -0.001554 -0.000105
# 3 -0.001557 -0.002875 0.008211 -0.001691 0.002335 -0.000359
# 4 0.001123 0.005954 -0.001691 0.048318 -0.006681 0.010262
# 5 0.001098 -0.001554 0.002335 -0.006681 0.039042 -0.002506
# 6 0.013189 -0.000105 -0.000359 0.010262 -0.002506 0.044618
#
#
# Mechanical properties :
#
#
# Convention : Reuss Voigt Hill
#
# Bulk Modulus (GPa) = 46.90552 61.96495 54.43523
# Shear Modulus (GPa) = 25.11777 30.97687 28.04732
#
# Velocity S-wave (km/s) = 3.63490 4.03665 3.84103
# Velocity P-wave (km/s) = 6.50308 7.37028 6.95022
#
# Compressibility (1/GPa) = 0.02131945
#
# Stress axis : x y z
#
# Youngs Moduli (GPa) = 50.15543 80.00566 121.78078
#
# Poissons Ratio (x) = 0.41868 0.18960
# Poissons Ratio (y) = 0.26247 0.35007
# Poissons Ratio (z) = 0.07809 0.22998
#
# Static dielectric constant tensor:
#      x y z
#    x 3.653160 0.117810 -0.139360 
#    y 0.117810 3.182470 0.054380 
#    z -0.139360 0.054380 3.928400 
# 
# 
# High freq. dielectric constant tensor:
#      x y z
#    x 1.750840 0.020940 -0.007600 
#    y 0.020940 1.695770 0.001160 
#    z -0.007600 0.001160 1.753440 
# 
# From -- ./inp_files/180196.got.cif
#   From: 2010.06.25/outbox.cif.g09.slc.cpg/sg2_91_cif.got.tgz:180196.got - 2010.06.27 13:26:56.
