data_PCOD8042248
_publ_section_title
;
Structure prediction by ZEFSAII (Michael W. Deem and Ramdas Pophale) SiO2 
 PCOD8042248
Probable space group: P -1
;
_chemical_formula_sum "Si O2"
_cell_formula_units_Z 16
_cell_length_a 11.221100
_cell_length_b 14.163003
_cell_length_c 14.037589
_cell_angle_alpha 127.313141
_cell_angle_beta 147.344664
_cell_angle_gamma 39.938037
_cell_volume 767.761068
_symmetry_space_group_name_H-M "P -1"
_symmetry_group_IT_number 2
_symmetry_cell_setting 'triclinic'
loop_
_space_group_symop_operation_xyz
x,y,z
-x,-y,-z
loop_
_atom_site_type_symbol
_atom_site_label
_atom_site_fract_x
_atom_site_fract_y
_atom_site_fract_z
Si Si1 0.158704 0.103460 0.408481
Si Si2 0.227221 0.022468 0.696926
Si Si3 0.457002 0.165489 0.375245
Si Si4 0.804676 0.700084 0.172982
Si Si5 0.984416 0.847863 0.876416
Si Si6 0.624226 0.587698 0.646149
Si Si7 0.520348 0.172646 0.782367
Si Si8 0.376815 0.785655 0.784494
O O1 0.034511 0.124860 0.233708
O O2 0.350954 0.161589 0.576207
O O3 0.910227 0.189666 0.371019
O O4 0.349583 0.929439 0.461974
O O5 0.108656 0.193322 0.734259
O O6 0.459305 0.948749 0.725917
O O7 0.337781 0.936187 0.819109
O O8 0.000000 0.000000 0.500000
O O9 0.134416 0.243943 0.232280
O O10 0.487078 0.292341 0.440856
O O11 0.713629 0.726083 0.236624
O O12 0.048567 0.529675 0.213971
O O13 0.548655 0.732257 0.962879
O O14 0.770798 0.006162 0.882304
O O15 0.299138 0.764320 0.077472
O O16 0.500000 0.500000 0.500000
O O17 0.541877 0.664963 0.739862
#
# Coordination Sequence:
#
# PCOD8042248 Si02
#       8
#     2   2   2   2   2   2   2   2
#     4  11  19  37  66  91 127 150 204 261 309 355
#     4  11  19  36  60  90 117 155 204 257 303 358
#     4  10  20  37  62  91 120 157 205 254 302 362
#     4  12  21  39  59  90 123 166 199 252 311 368
#     4  10  20  36  62  95 123 149 207 260 304 355
#     4  11  25  40  62  84 126 171 204 243 311 377
#     4  10  19  34  60  92 118 157 196 248 317 352
#     4  11  23  37  61  91 123 156 209 257 305 365
#
# _framework density 20.839818000000001
#
# number of rings (size 3 to 8) (size 9 to 14) (size 15 to 20)
#    0.000    1.250    5.000    4.500    0.000    0.000 
#    0.000    0.625   13.750    3.750    0.000    0.000 
#    0.000    0.000    0.000    0.000    0.000    0.000 
#
# Total GULP energy -198219.612662 kJ/mol
# GULP energy per Si atom -12388.725791 kJ/mol
# Density = 2.079239 g / cm^3
# Si number density = 20.839818 Si / 1000 Ang^3
#
#
#
# Elastic Constant Matrix: (Units=GPa)
#
#
# Indices 1 2 3 4 5 6 
#
# 1 92.3890 33.1212 25.8076 1.8208 19.6077 -6.0330
# 2 33.1212 84.6595 23.9247 2.7310 7.1879 -6.6114
# 3 25.8076 23.9247 104.0808 2.2366 20.0414 4.6599
# 4 1.8208 2.7310 2.2366 25.0301 -1.2397 6.8304
# 5 19.6077 7.1879 20.0414 -1.2397 36.4650 -5.1337
# 6 -6.0330 -6.6114 4.6599 6.8304 -5.1337 28.2325
#
#
#
# Elastic Compliance Matrix: (Units=1/GPa)
#
#
# Indices 1 2 3 4 5 6 
#
# 1 0.014178 -0.004513 -0.001401 -0.001086 -0.005802 0.001412
# 2 -0.004513 0.014540 -0.002621 -0.001936 0.001443 0.003604
# 3 -0.001401 -0.002621 0.011848 0.000120 -0.005794 -0.003951
# 4 -0.001086 -0.001936 0.000120 0.043281 0.000818 -0.011028
# 5 -0.005802 0.001443 -0.005794 0.000818 0.034330 0.006099
# 6 0.001412 0.003604 -0.003951 -0.011028 0.006099 0.040995
#
#
# Mechanical properties :
#
#
# Convention : Reuss Voigt Hill
#
# Bulk Modulus (GPa) = 42.55958 49.64846 46.10402
# Shear Modulus (GPa) = 27.16321 31.16391 29.16356
#
# Velocity S-wave (km/s) = 3.61422 3.87124 3.74493
# Velocity P-wave (km/s) = 6.15495 6.62250 6.39300
#
# Compressibility (1/GPa) = 0.02349647
#
# Stress axis : x y z
#
# Youngs Moduli (GPa) = 70.53158 68.77742 84.40519
#
# Poissons Ratio (x) = 0.31040 0.11823
# Poissons Ratio (y) = 0.31831 0.22120
# Poissons Ratio (z) = 0.09879 0.18024
#
# Static dielectric constant tensor:
#      x y z
#    x 4.170180 -0.583850 0.276840 
#    y -0.583850 5.761700 0.342590 
#    z 0.276840 0.342590 3.960610 
# 
# 
# High freq. dielectric constant tensor:
#      x y z
#    x 1.825860 -0.016720 0.022440 
#    y -0.016720 1.774200 0.002170 
#    z 0.022440 0.002170 1.817460 
# 
# From -- ./inp_files/320299.got.cif
#   From: 2010.06.25/outbox.cif.g09.slc.cpg/sg2_161_cif.got.tgz:320299.got - 2010.06.27 13:26:56.
