data_PCOD8042145
_publ_section_title
;
Structure prediction by ZEFSAII (Michael W. Deem and Ramdas Pophale) SiO2 
 PCOD8042145
Probable space group: P -1
;
_chemical_formula_sum "Si O2"
_cell_formula_units_Z 14
_cell_length_a 12.646199
_cell_length_b 10.874128
_cell_length_c 14.035409
_cell_angle_alpha 105.502202
_cell_angle_beta 148.269338
_cell_angle_gamma 53.368177
_cell_volume 669.786539
_symmetry_space_group_name_H-M "P -1"
_symmetry_group_IT_number 2
_symmetry_cell_setting 'triclinic'
loop_
_space_group_symop_operation_xyz
x,y,z
-x,-y,-z
loop_
_atom_site_type_symbol
_atom_site_label
_atom_site_fract_x
_atom_site_fract_y
_atom_site_fract_z
Si Si1 0.583616 0.791645 0.301615
Si Si2 0.790486 0.538208 0.243146
Si Si3 0.509832 0.517749 0.878349
Si Si4 0.543185 0.268586 0.495682
Si Si5 0.573939 0.480400 0.697465
Si Si6 0.964036 0.112792 0.121015
Si Si7 0.770809 0.837073 0.817253
O O1 0.670664 0.719720 0.243392
O O2 0.859780 0.619830 0.543446
O O3 0.493499 0.983263 0.282369
O O4 0.295828 0.843243 0.124981
O O5 0.763092 0.428363 0.271863
O O6 0.590563 0.615911 0.010394
O O7 0.470389 0.544410 0.740330
O O8 0.797432 0.302964 0.087569
O O9 0.455605 0.404024 0.543395
O O10 0.554575 0.339809 0.420168
O O11 0.308418 0.263157 0.308307
O O12 0.867357 0.060112 0.715130
O O13 0.927244 0.317724 0.925399
O O14 0.195924 0.071569 0.220032
#
# Coordination Sequence:
#
# PCOD8042145 Si02
#       7
#     2   2   2   2   2   2   2
#     4  10  19  34  58  87 123 147 197 244 295 345
#     4   9  19  34  59  87 115 159 192 250 289 333
#     4   9  19  38  59  85 119 150 203 243 289 346
#     4  11  22  37  60  90 123 157 187 236 316 349
#     4  10  23  40  58  91 120 155 192 245 295 366
#     4  10  20  35  59  90 118 147 191 253 293 345
#     4  11  21  37  60  91 118 152 195 248 298 350
#
# _framework density 20.902182
#
# number of rings (size 3 to 8) (size 9 to 14) (size 15 to 20)
#    0.000    2.000    1.429    2.143    4.000    1.143 
#    5.143    0.000    0.000   15.429    0.000    0.000 
#    0.000    0.000    0.000    0.000    0.000    0.000 
#
# Total GULP energy -173446.098007 kJ/mol
# GULP energy per Si atom -12389.007000 kJ/mol
# Density = 2.085461 g / cm^3
# Si number density = 20.902182 Si / 1000 Ang^3
#
#
#
# Elastic Constant Matrix: (Units=GPa)
#
#
# Indices 1 2 3 4 5 6 
#
# 1 82.2759 43.3216 50.6790 4.8871 -15.0279 2.5325
# 2 43.3216 106.1237 53.8615 17.0432 -2.6773 4.8935
# 3 50.6790 53.8615 100.1341 14.2852 -4.0015 9.0727
# 4 4.8871 17.0432 14.2852 46.0658 2.1289 -9.1130
# 5 -15.0279 -2.6773 -4.0015 2.1289 35.8475 2.6170
# 6 2.5325 4.8935 9.0727 -9.1130 2.6170 20.0648
#
#
#
# Elastic Compliance Matrix: (Units=1/GPa)
#
#
# Indices 1 2 3 4 5 6 
#
# 1 0.020760 -0.004537 -0.008299 0.002174 0.007141 0.002295
# 2 -0.004537 0.014361 -0.004706 -0.003805 -0.000953 -0.002406
# 3 -0.008299 -0.004706 0.018031 -0.004481 -0.000977 -0.007865
# 4 0.002174 -0.003805 -0.004481 0.027462 -0.002635 0.015496
# 5 0.007141 -0.000953 -0.000977 -0.002635 0.031267 -0.005502
# 6 0.002295 -0.002406 -0.007865 0.015496 -0.005502 0.061448
#
#
# Mechanical properties :
#
#
# Convention : Reuss Voigt Hill
#
# Bulk Modulus (GPa) = 55.34673 64.91756 60.13214
# Shear Modulus (GPa) = 23.31704 29.77371 26.54538
#
# Velocity S-wave (km/s) = 3.34358 3.77826 3.56755
# Velocity P-wave (km/s) = 6.43758 7.08229 6.76762
#
# Compressibility (1/GPa) = 0.01806792
#
# Stress axis : x y z
#
# Youngs Moduli (GPa) = 48.17052 69.63070 55.46064
#
# Poissons Ratio (x) = 0.31594 0.46025
# Poissons Ratio (y) = 0.21856 0.26100
# Poissons Ratio (z) = 0.39975 0.32768
#
# Static dielectric constant tensor:
#      x y z
#    x 3.418080 -0.133680 0.122010 
#    y -0.133680 4.083150 0.209410 
#    z 0.122010 0.209410 3.896640 
# 
# 
# High freq. dielectric constant tensor:
#      x y z
#    x 1.776010 -0.018520 0.014470 
#    y -0.018520 1.823440 0.027060 
#    z 0.014470 0.027060 1.822580 
# 
# From -- ./inp_files/531901.got.cif
#   From: 2010.06.25/outbox.cif.g09.slc.cpg/sg2_266_cif.got.tgz:531901.got - 2010.06.27 13:26:56.
