data_PCOD8042264
_publ_section_title
;
Structure prediction by ZEFSAII (Michael W. Deem and Ramdas Pophale) SiO2 
 PCOD8042264
Probable space group: P -1
;
_chemical_formula_sum "Si O2"
_cell_formula_units_Z 16
_cell_length_a 24.316040
_cell_length_b 6.482650
_cell_length_c 18.554134
_cell_angle_alpha 88.681229
_cell_angle_beta 160.496319
_cell_angle_gamma 80.716611
_cell_volume 816.388207
_symmetry_space_group_name_H-M "P -1"
_symmetry_group_IT_number 2
_symmetry_cell_setting 'triclinic'
loop_
_space_group_symop_operation_xyz
x,y,z
-x,-y,-z
loop_
_atom_site_type_symbol
_atom_site_label
_atom_site_fract_x
_atom_site_fract_y
_atom_site_fract_z
Si Si1 0.884725 0.333881 0.220965
Si Si2 0.418188 0.109452 0.140597
Si Si3 0.676756 0.038405 0.223653
Si Si4 0.123883 0.877861 0.937240
Si Si5 0.349997 0.774221 0.964233
Si Si6 0.357612 0.410453 0.309462
Si Si7 0.322069 0.760836 0.624638
Si Si8 0.533392 0.041546 0.643490
O O1 0.837653 0.219769 0.096233
O O2 0.817242 0.261695 0.210512
O O3 0.769569 0.627454 0.068839
O O4 0.116665 0.226561 0.512541
O O5 0.593056 0.122391 0.323463
O O6 0.505275 0.931875 0.319228
O O7 0.339524 0.004907 0.985150
O O8 0.686171 0.182449 0.165737
O O9 0.644245 0.202205 0.251355
O O10 0.500000 0.000000 0.000000
O O11 0.155048 0.657645 0.030559
O O12 0.905357 0.114329 0.676723
O O13 0.270297 0.965052 0.134562
O O14 0.565776 0.530611 0.248275
O O15 0.500000 0.500000 0.500000
O O16 0.442923 0.208723 0.352523
O O17 0.346800 0.278811 0.370250
#
# Coordination Sequence:
#
# PCOD8042264 Si02
#       8
#     2   2   2   2   2   2   2   2
#     4  10  22  37  59  83 112 151 195 236 283 334
#     4  11  21  38  59  87 114 151 189 236 282 341
#     4  11  22  41  57  82 116 153 193 243 284 330
#     4  10  19  37  58  86 115 149 190 235 280 337
#     4  11  22  40  56  81 114 155 193 235 287 336
#     4   9  19  34  60  90 116 144 186 234 278 336
#     4  10  24  38  57  82 119 154 189 236 289 331
#     4  10  19  34  61  89 113 148 190 228 282 339
#
# _framework density 19.598517999999999
#
# number of rings (size 3 to 8) (size 9 to 14) (size 15 to 20)
#    0.000    1.750    3.750    0.750    0.000    2.500 
#    2.250    0.625    0.000    7.500    0.000    0.000 
#    0.000    0.000    0.000    0.000    0.000    0.000 
#
# Total GULP energy -198388.837526 kJ/mol
# GULP energy per Si atom -12399.302345 kJ/mol
# Density = 1.955391 g / cm^3
# Si number density = 19.598518 Si / 1000 Ang^3
#
#
#
# Elastic Constant Matrix: (Units=GPa)
#
#
# Indices 1 2 3 4 5 6 
#
# 1 97.9821 18.4876 39.9952 -6.9357 -9.2230 9.6158
# 2 18.4876 84.1345 30.6021 -2.8836 4.2141 -4.0586
# 3 39.9952 30.6021 88.8953 -3.4632 -0.4817 -2.1458
# 4 -6.9357 -2.8836 -3.4632 25.3310 -0.8111 -2.1520
# 5 -9.2230 4.2141 -0.4817 -0.8111 28.9328 -8.5180
# 6 9.6158 -4.0586 -2.1458 -2.1520 -8.5180 23.5004
#
#
#
# Elastic Compliance Matrix: (Units=1/GPa)
#
#
# Indices 1 2 3 4 5 6 
#
# 1 0.013753 -0.001233 -0.005770 0.002507 0.003057 -0.005030
# 2 -0.001233 0.013883 -0.004159 0.000775 -0.001902 0.001904
# 3 -0.005770 -0.004159 0.015362 0.000303 -0.000072 0.003047
# 4 0.002507 0.000775 0.000303 0.040725 0.002996 0.003951
# 5 0.003057 -0.001902 -0.000072 0.002996 0.039753 0.013097
# 6 -0.005030 0.001904 0.003047 0.003951 0.013097 0.050327
#
#
# Mechanical properties :
#
#
# Convention : Reuss Voigt Hill
#
# Bulk Modulus (GPa) = 48.37031 49.90908 49.13970
# Shear Modulus (GPa) = 24.62844 27.68131 26.15488
#
# Velocity S-wave (km/s) = 3.54877 3.76229 3.65709
# Velocity P-wave (km/s) = 6.44406 6.66289 6.55439
#
# Compressibility (1/GPa) = 0.02067384
#
# Stress axis : x y z
#
# Youngs Moduli (GPa) = 72.71277 72.03077 65.09629
#
# Poissons Ratio (x) = 0.08882 0.37562
# Poissons Ratio (y) = 0.08966 0.27071
# Poissons Ratio (z) = 0.41957 0.29955
#
# Static dielectric constant tensor:
#      x y z
#    x 3.730160 0.082530 -0.293120 
#    y 0.082530 3.576640 -0.214170 
#    z -0.293120 -0.214170 3.637050 
# 
# 
# High freq. dielectric constant tensor:
#      x y z
#    x 1.763520 0.003300 -0.021220 
#    y 0.003300 1.767560 -0.006550 
#    z -0.021220 -0.006550 1.755010 
# 
# From -- ./inp_files/37814.got.cif
#   From: 2010.06.25/outbox.cif.g09.slc.cpg/sg2_19_cif.got.tgz:37814.got - 2010.06.27 13:26:56.
