data_PCOD8042857
_publ_section_title
;
Structure prediction by ZEFSAII (Michael W. Deem and Ramdas Pophale) SiO2 
 PCOD8042857
Probable space group: P -1
;
_chemical_formula_sum "Si O2"
_cell_formula_units_Z 16
_cell_length_a 7.249118
_cell_length_b 5.678851
_cell_length_c 21.255823
_cell_angle_alpha 63.533541
_cell_angle_beta 122.194823
_cell_angle_gamma 121.203659
_cell_volume 615.721572
_symmetry_space_group_name_H-M "P -1"
_symmetry_group_IT_number 2
_symmetry_cell_setting 'triclinic'
loop_
_space_group_symop_operation_xyz
x,y,z
-x,-y,-z
loop_
_atom_site_type_symbol
_atom_site_label
_atom_site_fract_x
_atom_site_fract_y
_atom_site_fract_z
Si Si1 0.338838 0.129986 0.202336
Si Si2 0.261248 0.806875 0.514768
Si Si3 0.398382 0.507302 0.680982
Si Si4 0.632960 0.186527 0.059372
Si Si5 0.779281 0.628993 0.541150
Si Si6 0.774805 0.047292 0.225993
Si Si7 0.797727 0.740318 0.964470
Si Si8 0.820009 0.445617 0.702830
O O1 0.443712 0.369398 0.244289
O O2 0.539868 0.055991 0.213079
O O3 0.191183 0.234517 0.112456
O O4 0.163144 0.852754 0.239714
O O5 0.301990 0.725587 0.603601
O O6 0.129565 0.507932 0.486151
O O7 0.500000 0.000000 0.500000
O O8 0.124139 0.023793 0.475486
O O9 0.556240 0.434533 0.665802
O O10 0.191654 0.227258 0.704228
O O11 0.751200 0.029002 0.147413
O O12 0.458766 0.280337 0.058811
O O13 0.830619 0.458201 0.029808
O O14 0.500000 0.000000 0.000000
O O15 0.500000 0.500000 0.500000
O O16 0.877997 0.511727 0.632431
O O17 0.999911 0.320205 0.248713
O O18 0.000000 0.000000 0.000000
#
# Coordination Sequence:
#
# PCOD8042857 Si02
#       8
#     2   2   2   2   2   2   2   2
#     4  10  22  39  60  87 123 160 199 255 314 371
#     4  10  19  35  63  88 121 165 213 260 319 377
#     4  11  22  38  63  85 120 160 204 256 311 376
#     4  10  21  39  61  83 125 160 195 255 308 367
#     4  10  19  36  62  90 121 167 214 260 322 379
#     4  10  24  40  56  93 121 156 205 253 314 373
#     4  10  21  37  60  90 118 157 205 249 305 373
#     4  11  22  38  63  85 122 160 205 258 310 376
#
# _framework density 25.985771
#
# number of rings (size 3 to 8) (size 9 to 14) (size 15 to 20)
#    0.000    1.750    2.500    3.000    1.750    2.500 
#    0.000    1.250    0.000    0.000    0.000    0.000 
#    0.000    0.000    0.000    0.000    0.000    0.000 
#
# Total GULP energy -198358.415882 kJ/mol
# GULP energy per Si atom -12397.400993 kJ/mol
# Density = 2.592663 g / cm^3
# Si number density = 25.985771 Si / 1000 Ang^3
#
#
#
# Elastic Constant Matrix: (Units=GPa)
#
#
# Indices 1 2 3 4 5 6 
#
# 1 43.1349 11.7125 33.0753 -11.6553 -17.7750 -11.2404
# 2 11.7125 162.6536 42.6050 -14.4157 -9.4052 -7.7320
# 3 33.0753 42.6050 186.8214 -17.9691 -24.1654 -4.0549
# 4 -11.6553 -14.4157 -17.9691 61.1915 -1.4409 -3.3269
# 5 -17.7750 -9.4052 -24.1654 -1.4409 28.1814 9.3279
# 6 -11.2404 -7.7320 -4.0549 -3.3269 9.3279 29.2548
#
#
#
# Elastic Compliance Matrix: (Units=1/GPa)
#
#
# Indices 1 2 3 4 5 6 
#
# 1 0.037535 0.000322 -0.003488 0.007120 0.018162 0.009042
# 2 0.000322 0.006715 -0.001311 0.001365 0.000861 0.001597
# 3 -0.003488 -0.001311 0.006830 0.001023 0.003888 -0.001864
# 4 0.007120 0.001365 0.001023 0.018646 0.005594 0.003575
# 5 0.018162 0.000861 0.003888 0.005594 0.053745 -0.008756
# 6 0.009042 0.001597 -0.001864 0.003575 -0.008756 0.041019
#
#
# Mechanical properties :
#
#
# Convention : Reuss Voigt Hill
#
# Bulk Modulus (GPa) = 23.73880 63.04394 43.39137
# Shear Modulus (GPa) = 26.66851 44.07334 35.37093
#
# Velocity S-wave (km/s) = 3.20703 4.12279 3.69340
# Velocity P-wave (km/s) = 4.78210 6.85396 5.90954
#
# Compressibility (1/GPa) = 0.04212512
#
# Stress axis : x y z
#
# Youngs Moduli (GPa) = 26.64197 148.92067 146.41058
#
# Poissons Ratio (x) = -0.04794 0.51073
# Poissons Ratio (y) = -0.00858 0.19194
# Poissons Ratio (z) = 0.09294 0.19523
#
# Static dielectric constant tensor:
#      x y z
#    x 4.782670 -0.101100 -0.352450 
#    y -0.101100 4.857050 -0.230190 
#    z -0.352450 -0.230190 5.000550 
# 
# 
# High freq. dielectric constant tensor:
#      x y z
#    x 2.044020 0.007240 -0.019620 
#    y 0.007240 2.045800 -0.012200 
#    z -0.019620 -0.012200 2.054760 
# 
# From -- ./inp_files/112398.got.cif
#   From: 2010.06.25/outbox.cif.g09.slc.cpg/sg2_57_cif.got.tgz:112398.got - 2010.06.27 13:26:56.
