data_PCOD8042429
_publ_section_title
;
Structure prediction by ZEFSAII (Michael W. Deem and Ramdas Pophale) SiO2 
 PCOD8042429
Probable space group: P -1
;
_chemical_formula_sum "Si O2"
_cell_formula_units_Z 16
_cell_length_a 12.876251
_cell_length_b 22.525533
_cell_length_c 10.059904
_cell_angle_alpha 153.769907
_cell_angle_beta 40.410852
_cell_angle_gamma 131.200659
_cell_volume 832.992250
_symmetry_space_group_name_H-M "P -1"
_symmetry_group_IT_number 2
_symmetry_cell_setting 'triclinic'
loop_
_space_group_symop_operation_xyz
x,y,z
-x,-y,-z
loop_
_atom_site_type_symbol
_atom_site_label
_atom_site_fract_x
_atom_site_fract_y
_atom_site_fract_z
Si Si1 0.718639 0.826886 0.578772
Si Si2 0.293046 0.369697 0.295625
Si Si3 0.659235 0.117809 0.935941
Si Si4 0.701698 0.614834 0.379003
Si Si5 0.816356 0.113809 0.052849
Si Si6 0.672306 0.316781 0.816172
Si Si7 0.677481 0.332596 0.142679
Si Si8 0.177792 0.170508 0.802663
O O1 0.781325 0.708230 0.380936
O O2 0.751338 0.773157 0.289606
O O3 0.531527 0.870376 0.868666
O O4 0.816542 0.956143 0.771445
O O5 0.240796 0.346972 0.453270
O O6 0.247410 0.526331 0.617378
O O7 0.480864 0.327707 0.006040
O O8 0.187580 0.280112 0.127791
O O9 0.721798 0.967584 0.529985
O O10 0.705052 0.150700 0.108012
O O11 0.739433 0.221453 0.967360
O O12 0.511877 0.638779 0.605538
O O13 0.745932 0.457035 0.987056
O O14 0.750268 0.198716 0.412599
O O15 0.994973 0.143611 0.901932
O O16 0.721538 0.280039 0.846091
#
# Coordination Sequence:
#
# PCOD8042429 Si02
#       8
#     2   2   2   2   2   2   2   2
#     4  10  19  35  56  77  98 131 173 214 252 294
#     4   9  17  35  57  78 102 131 165 209 254 300
#     4  10  19  35  56  77  98 131 173 214 252 294
#     4   8  17  33  57  81 100 125 169 216 253 292
#     4  11  22  35  49  74 107 139 169 205 250 302
#     4   9  17  35  57  78 102 131 165 209 254 300
#     4   8  17  33  57  81 100 125 169 216 253 292
#     4  11  22  35  49  74 107 139 169 205 250 302
#
# _framework density 19.207861000000001
#
# number of rings (size 3 to 8) (size 9 to 14) (size 15 to 20)
#    0.000    2.500    0.000    6.000    0.000    2.000 
#    0.000   17.500    0.000    0.000    0.000    0.000 
#    0.000    0.000    0.000    0.000    0.000    0.000 
#
# Total GULP energy -198389.369633 kJ/mol
# GULP energy per Si atom -12399.335602 kJ/mol
# Density = 1.916414 g / cm^3
# Si number density = 19.207861 Si / 1000 Ang^3
#
#
#
# Elastic Constant Matrix: (Units=GPa)
#
#
# Indices 1 2 3 4 5 6 
#
# 1 54.1915 51.5044 33.3513 12.8334 26.6335 -6.6466
# 2 51.5044 115.5669 19.6910 20.3841 7.5076 -26.4366
# 3 33.3513 19.6910 39.6521 8.6490 26.8013 -0.3796
# 4 12.8334 20.3841 8.6490 18.0470 9.9159 -1.6316
# 5 26.6335 7.5076 26.8013 9.9159 27.7923 0.5613
# 6 -6.6466 -26.4366 -0.3796 -1.6316 0.5613 31.7292
#
#
#
# Elastic Compliance Matrix: (Units=1/GPa)
#
#
# Indices 1 2 3 4 5 6 
#
# 1 0.105567 -0.048094 -0.014159 0.031670 -0.085516 -0.014985
# 2 -0.048094 0.038245 -0.008752 -0.033787 0.055869 0.018960
# 3 -0.014159 -0.008752 0.088962 0.018662 -0.076375 -0.006883
# 4 0.031670 -0.033787 0.018662 0.102200 -0.075386 -0.014704
# 5 -0.085516 0.055869 -0.076375 -0.075386 0.202979 0.020254
# 6 -0.014985 0.018960 -0.006883 -0.014704 0.020254 0.042979
#
#
# Mechanical properties :
#
#
# Convention : Reuss Voigt Hill
#
# Bulk Modulus (GPa) = 11.01765 46.50044 28.75904
# Shear Modulus (GPa) = 6.63839 22.50462 14.57151
#
# Velocity S-wave (km/s) = 1.86107 3.42663 2.75730
# Velocity P-wave (km/s) = 3.21972 6.31802 5.01418
#
# Compressibility (1/GPa) = 0.09076345
#
# Stress axis : x y z
#
# Youngs Moduli (GPa) = 9.47270 26.14706 11.24082
#
# Poissons Ratio (x) = 1.25750 0.15916
# Poissons Ratio (y) = 0.45558 0.09838
# Poissons Ratio (z) = 0.13413 0.22884
#
# Static dielectric constant tensor:
#      x y z
#    x 3.405130 -0.275540 0.059750 
#    y -0.275540 3.927590 0.160530 
#    z 0.059750 0.160530 3.416040 
# 
# 
# High freq. dielectric constant tensor:
#      x y z
#    x 1.734560 -0.006400 0.011630 
#    y -0.006400 1.752470 0.003750 
#    z 0.011630 0.003750 1.738780 
# 
# From -- ./inp_files/177916.got.cif
#   From: 2010.06.25/outbox.cif.g09.slc.cpg/sg2_89_cif.got.tgz:177916.got - 2010.06.27 13:26:56.
