data_PCOD8042147
_publ_section_title
;
Structure prediction by ZEFSAII (Michael W. Deem and Ramdas Pophale) SiO2 
 PCOD8042147
Probable space group: P -1
;
_chemical_formula_sum "Si O2"
_cell_formula_units_Z 16
_cell_length_a 10.366079
_cell_length_b 10.985542
_cell_length_c 14.604229
_cell_angle_alpha 138.941450
_cell_angle_beta 48.927257
_cell_angle_gamma 114.678239
_cell_volume 813.254355
_symmetry_space_group_name_H-M "P -1"
_symmetry_group_IT_number 2
_symmetry_cell_setting 'triclinic'
loop_
_space_group_symop_operation_xyz
x,y,z
-x,-y,-z
loop_
_atom_site_type_symbol
_atom_site_label
_atom_site_fract_x
_atom_site_fract_y
_atom_site_fract_z
Si Si1 0.360138 0.535376 0.455234
Si Si2 0.260571 0.927655 0.033809
Si Si3 0.271394 0.849367 0.315977
Si Si4 0.748853 0.406869 0.264521
Si Si5 0.491546 0.188837 0.986459
Si Si6 0.896559 0.736815 0.595356
Si Si7 0.287393 0.597634 0.334589
Si Si8 0.083806 0.236531 0.606098
O O1 0.553076 0.461160 0.353236
O O2 0.249770 0.628575 0.646288
O O3 0.266610 0.366108 0.362753
O O4 0.355688 0.665335 0.440141
O O5 0.386371 0.019530 0.959896
O O6 0.110415 0.085496 0.233196
O O7 0.169253 0.783038 0.933355
O O8 0.363940 0.811728 0.002642
O O9 0.338895 0.736316 0.311656
O O10 0.122689 0.751588 0.278969
O O11 0.190722 0.058618 0.508159
O O12 0.427789 0.852312 0.175053
O O13 0.859718 0.568770 0.277911
O O14 0.371570 0.388736 0.150053
O O15 0.865327 0.812222 0.550228
O O16 0.079898 0.602060 0.441014
#
# Coordination Sequence:
#
# PCOD8042147 Si02
#       8
#     2   2   2   2   2   2   2   2
#     4  10  19  34  58  88 115 153 189 241 291 348
#     4  11  20  35  62  93 112 149 193 251 286 341
#     4  10  21  37  62  84 118 155 203 238 278 348
#     4  10  21  35  61  87 121 149 191 246 300 337
#     4  11  21  35  61  93 117 145 203 242 287 341
#     4  10  19  36  64  87 116 149 201 244 286 336
#     4  11  21  36  60  87 119 157 194 240 289 342
#     4   9  20  39  62  87 111 158 202 237 283 348
#
# _framework density 19.674040999999999
#
# number of rings (size 3 to 8) (size 9 to 14) (size 15 to 20)
#    0.000    1.750    3.750    1.500    3.500    0.000 
#    0.000    1.875    0.000    0.000    0.000    0.000 
#    0.000    0.000    0.000    0.000    0.000    0.000 
#
# Total GULP energy -198346.753196 kJ/mol
# GULP energy per Si atom -12396.672075 kJ/mol
# Density = 1.962926 g / cm^3
# Si number density = 19.674041 Si / 1000 Ang^3
#
#
#
# Elastic Constant Matrix: (Units=GPa)
#
#
# Indices 1 2 3 4 5 6 
#
# 1 68.4370 40.3319 35.7683 12.0575 8.3720 -11.2197
# 2 40.3319 99.3330 39.0413 -0.0441 9.2172 -15.6705
# 3 35.7683 39.0413 97.2112 15.2585 5.3489 2.9297
# 4 12.0575 -0.0441 15.2585 29.5856 6.1095 1.0242
# 5 8.3720 9.2172 5.3489 6.1095 34.0492 7.1774
# 6 -11.2197 -15.6705 2.9297 1.0242 7.1774 37.3239
#
#
#
# Elastic Compliance Matrix: (Units=1/GPa)
#
#
# Indices 1 2 3 4 5 6 
#
# 1 0.023454 -0.006358 -0.005047 -0.006484 -0.003266 0.005583
# 2 -0.006358 0.015881 -0.004893 0.005811 -0.004231 0.005795
# 3 -0.005047 -0.004893 0.015079 -0.006037 0.002342 -0.005040
# 4 -0.006484 0.005811 -0.006037 0.040890 -0.006602 0.001112
# 5 -0.003266 -0.004231 0.002342 -0.006602 0.034099 -0.009318
# 6 0.005583 0.005795 -0.005040 0.001112 -0.009318 0.033061
#
#
# Mechanical properties :
#
#
# Convention : Reuss Voigt Hill
#
# Bulk Modulus (GPa) = 45.83215 55.02936 50.43076
# Shear Modulus (GPa) = 24.71182 30.18103 27.44642
#
# Velocity S-wave (km/s) = 3.54794 3.92095 3.73910
# Velocity P-wave (km/s) = 6.33484 6.96633 6.65807
#
# Compressibility (1/GPa) = 0.02181874
#
# Stress axis : x y z
#
# Youngs Moduli (GPa) = 42.63625 62.96785 66.31593
#
# Poissons Ratio (x) = 0.40038 0.33470
# Poissons Ratio (y) = 0.27110 0.32445
# Poissons Ratio (z) = 0.21519 0.30807
#
# Static dielectric constant tensor:
#      x y z
#    x 3.535080 -0.218820 0.092560 
#    y -0.218820 3.814010 -0.108680 
#    z 0.092560 -0.108680 3.507590 
# 
# 
# High freq. dielectric constant tensor:
#      x y z
#    x 1.742050 -0.018270 -0.000760 
#    y -0.018270 1.768370 -0.007180 
#    z -0.000760 -0.007180 1.760560 
# 
# From -- ./inp_files/269037.got.cif
#   From: 2010.06.25/outbox.cif.g09.slc.cpg/sg2_135_cif.got.tgz:269037.got - 2010.06.27 13:26:56.
