data_PCOD8042737
_publ_section_title
;
Structure prediction by ZEFSAII (Michael W. Deem and Ramdas Pophale) SiO2 
 PCOD8042737
Probable space group: P -1
;
_chemical_formula_sum "Si O2"
_cell_formula_units_Z 16
_cell_length_a 12.250763
_cell_length_b 21.412415
_cell_length_c 11.812913
_cell_angle_alpha 28.449968
_cell_angle_beta 43.692512
_cell_angle_gamma 29.968114
_cell_volume 727.617035
_symmetry_space_group_name_H-M "P -1"
_symmetry_group_IT_number 2
_symmetry_cell_setting 'triclinic'
loop_
_space_group_symop_operation_xyz
x,y,z
-x,-y,-z
loop_
_atom_site_type_symbol
_atom_site_label
_atom_site_fract_x
_atom_site_fract_y
_atom_site_fract_z
Si Si1 0.947345 0.118749 0.244227
Si Si2 0.290132 0.390290 0.990201
Si Si3 0.558733 0.211274 0.275375
Si Si4 0.196589 0.446159 0.585247
Si Si5 0.603671 0.042386 0.942337
Si Si6 0.567139 0.006696 0.281336
Si Si7 0.989387 0.664686 0.606738
Si Si8 0.189681 0.524131 0.213125
O O1 0.804918 0.116513 0.266260
O O2 0.813153 0.322568 0.066851
O O3 0.000000 0.000000 0.500000
O O4 0.163388 0.042293 0.140501
O O5 0.470543 0.340444 0.023568
O O6 0.110002 0.421847 0.154328
O O7 0.405190 0.222003 0.084167
O O8 0.169220 0.579886 0.709510
O O9 0.560205 0.054809 0.496856
O O10 0.403189 0.328891 0.312790
O O11 0.442221 0.258832 0.731182
O O12 0.117345 0.592336 0.507560
O O13 0.202540 0.517925 0.348601
O O14 0.036117 0.413701 0.754833
O O15 0.500000 0.000000 0.000000
O O16 0.638737 0.958070 0.173853
O O17 0.786989 0.885872 0.390948
#
# Coordination Sequence:
#
# PCOD8042737 Si02
#       8
#     2   2   2   2   2   2   2   2
#     4  12  26  41  60  95 135 172 205 265 338 387
#     4  10  21  38  62  96 128 167 220 267 318 380
#     4  11  23  41  62  94 132 168 213 266 330 385
#     4  11  20  37  66  95 123 162 222 270 316 370
#     4  12  23  38  63  94 126 168 217 266 315 387
#     4  11  21  40  66  98 125 168 224 270 314 378
#     4  10  19  35  60  93 124 158 211 271 316 362
#     4  11  22  39  64  94 126 171 212 268 324 389
#
# _framework density 21.989591999999998
#
# number of rings (size 3 to 8) (size 9 to 14) (size 15 to 20)
#    0.000    1.000    5.000    4.875    0.000    0.000 
#    2.250    0.625    0.000    1.500    0.000    0.000 
#    0.000    0.000    0.000    0.000    0.000    0.000 
#
# Total GULP energy -198358.468506 kJ/mol
# GULP energy per Si atom -12397.404282 kJ/mol
# Density = 2.193954 g / cm^3
# Si number density = 21.989592 Si / 1000 Ang^3
#
#
#
# Elastic Constant Matrix: (Units=GPa)
#
#
# Indices 1 2 3 4 5 6 
#
# 1 121.1908 37.3244 34.6921 15.8000 30.6792 -22.1962
# 2 37.3244 106.8804 17.7721 3.8882 4.1679 -6.4055
# 3 34.6921 17.7721 76.4901 -1.2289 19.7622 -8.5850
# 4 15.8000 3.8882 -1.2289 30.6803 4.0440 9.8471
# 5 30.6792 4.1679 19.7622 4.0440 36.9740 0.9342
# 6 -22.1962 -6.4055 -8.5850 9.8471 0.9342 40.0638
#
#
#
# Elastic Compliance Matrix: (Units=1/GPa)
#
#
# Indices 1 2 3 4 5 6 
#
# 1 0.016053 -0.003771 -0.002639 -0.009823 -0.010673 0.010389
# 2 -0.003771 0.010762 -0.001590 0.000436 0.002740 -0.000880
# 3 -0.002639 -0.001590 0.016598 0.002697 -0.006831 0.001337
# 4 -0.009823 0.000436 0.002697 0.042279 0.002421 -0.015242
# 5 -0.010673 0.002740 -0.006831 0.002421 0.039193 -0.008447
# 6 0.010389 -0.000880 0.001337 -0.015242 -0.008447 0.034805
#
#
# Mechanical properties :
#
#
# Convention : Reuss Voigt Hill
#
# Bulk Modulus (GPa) = 36.47866 53.79318 45.13592
# Shear Modulus (GPa) = 27.05210 35.86179 31.45695
#
# Velocity S-wave (km/s) = 3.51126 4.04276 3.78635
# Velocity P-wave (km/s) = 5.75010 6.80500 6.29967
#
# Compressibility (1/GPa) = 0.02741329
#
# Stress axis : x y z
#
# Youngs Moduli (GPa) = 62.29174 92.91868 60.24705
#
# Poissons Ratio (x) = 0.35041 0.15901
# Poissons Ratio (y) = 0.23491 0.09579
# Poissons Ratio (z) = 0.16440 0.14773
#
# Static dielectric constant tensor:
#      x y z
#    x 4.158290 -0.102390 0.512520 
#    y -0.102390 4.066610 -0.077760 
#    z 0.512520 -0.077760 3.912240 
# 
# 
# High freq. dielectric constant tensor:
#      x y z
#    x 1.855370 0.001310 0.042670 
#    y 0.001310 1.876900 -0.007970 
#    z 0.042670 -0.007970 1.839910 
# 
# From -- ./inp_files/438571.got.cif
#   From: 2010.06.25/outbox.cif.g09.slc.cpg/sg2_220_cif.got.tgz:438571.got - 2010.06.27 13:26:56.
