data_PCOD8042222
_publ_section_title
;
Structure prediction by ZEFSAII (Michael W. Deem and Ramdas Pophale) SiO2 
 PCOD8042222
Probable space group: P -1
;
_chemical_formula_sum "Si O2"
_cell_formula_units_Z 10
_cell_length_a 9.251671
_cell_length_b 10.088161
_cell_length_c 15.930670
_cell_angle_alpha 143.283724
_cell_angle_beta 36.901559
_cell_angle_gamma 136.183775
_cell_volume 520.133331
_symmetry_space_group_name_H-M "P -1"
_symmetry_group_IT_number 2
_symmetry_cell_setting 'triclinic'
loop_
_space_group_symop_operation_xyz
x,y,z
-x,-y,-z
loop_
_atom_site_type_symbol
_atom_site_label
_atom_site_fract_x
_atom_site_fract_y
_atom_site_fract_z
Si Si1 0.588550 0.407510 0.997043
Si Si2 0.622040 0.764130 0.574926
Si Si3 0.062675 0.284707 0.904993
Si Si4 0.218755 0.976874 0.946457
Si Si5 0.984306 0.107804 0.678203
O O1 0.665016 0.625206 0.134667
O O2 0.500000 0.500000 0.000000
O O3 0.827547 0.294913 0.818850
O O4 0.358402 0.219100 0.044325
O O5 0.500000 0.500000 0.500000
O O6 0.402450 0.890903 0.754634
O O7 0.751177 0.829401 0.458484
O O8 0.831469 0.854468 0.594965
O O9 0.046124 0.099515 0.744678
O O10 0.000000 0.500000 0.000000
O O11 0.866907 0.190082 0.020862
O O12 0.000000 0.000000 0.000000
#
# Coordination Sequence:
#
# PCOD8042222 Si02
#       5
#     2   2   2   2   2
#     4  10  19  34  60  86 116 149 187 240 287 332
#     4  10  20  36  59  82 117 152 189 231 288 342
#     4  10  20  36  59  89 116 145 195 241 281 335
#     4  11  22  36  60  90 113 150 197 233 284 345
#     4   9  21  36  56  87 111 150 194 233 281 342
#
# _framework density 19.225838
#
# number of rings (size 3 to 8) (size 9 to 14) (size 15 to 20)
#    0.000    2.000    2.000    2.400    0.000    8.800 
#    0.000    1.000    0.000    2.400    0.000    0.000 
#    0.000    0.000    0.000    0.000    0.000    0.000 
#
# Total GULP energy -123893.913489 kJ/mol
# GULP energy per Si atom -12389.391349 kJ/mol
# Density = 1.918208 g / cm^3
# Si number density = 19.225838 Si / 1000 Ang^3
#
#
#
# Elastic Constant Matrix: (Units=GPa)
#
#
# Indices 1 2 3 4 5 6 
#
# 1 143.9627 68.0644 50.2646 -8.7420 21.9811 12.4237
# 2 68.0644 154.6594 42.9506 -11.0823 7.3714 19.5866
# 3 50.2646 42.9506 76.8542 -22.1067 11.4591 8.1419
# 4 -8.7420 -11.0823 -22.1067 32.6509 5.6778 6.1372
# 5 21.9811 7.3714 11.4591 5.6778 29.8898 4.3158
# 6 12.4237 19.5866 8.1419 6.1372 4.3158 41.6037
#
#
#
# Elastic Compliance Matrix: (Units=1/GPa)
#
#
# Indices 1 2 3 4 5 6 
#
# 1 0.010909 -0.003269 -0.004572 -0.000308 -0.005373 -0.000221
# 2 -0.003269 0.008982 -0.002566 0.000747 0.001466 -0.003013
# 3 -0.004572 -0.002566 0.023463 0.015762 -0.007479 -0.003568
# 4 -0.000308 0.000747 0.015762 0.045424 -0.013379 -0.008657
# 5 -0.005373 0.001466 -0.007479 -0.013379 0.042462 -0.000053
# 6 -0.000221 -0.003013 -0.003568 -0.008657 -0.000053 0.027501
#
#
# Mechanical properties :
#
#
# Convention : Reuss Voigt Hill
#
# Bulk Modulus (GPa) = 44.36639 77.55951 60.96295
# Shear Modulus (GPa) = 26.72809 35.10868 30.91839
#
# Velocity S-wave (km/s) = 3.73261 4.27795 4.01455
# Velocity P-wave (km/s) = 6.45779 8.05171 7.29839
#
# Compressibility (1/GPa) = 0.02253958
#
# Stress axis : x y z
#
# Youngs Moduli (GPa) = 91.66817 111.32765 42.62088
#
# Poissons Ratio (x) = 0.36397 0.19486
# Poissons Ratio (y) = 0.29969 0.10937
# Poissons Ratio (z) = 0.41909 0.28568
#
# Static dielectric constant tensor:
#      x y z
#    x 3.679750 -0.464860 0.704180 
#    y -0.464860 2.201800 0.449630 
#    z 0.704180 0.449630 3.708420 
# 
# 
# High freq. dielectric constant tensor:
#      x y z
#    x 1.751890 0.027500 0.017510 
#    y 0.027500 1.760950 -0.000790 
#    z 0.017510 -0.000790 1.719990 
# 
# From -- ./inp_files/144070.got.cif
#   From: 2010.06.25/outbox.cif.g09.slc.cpg/sg2_73_cif.got.tgz:144070.got - 2010.06.27 13:26:56.
