data_PCOD8042292
_publ_section_title
;
Structure prediction by ZEFSAII (Michael W. Deem and Ramdas Pophale) SiO2 
 PCOD8042292
Probable space group: P -1
;
_chemical_formula_sum "Si O2"
_cell_formula_units_Z 16
_cell_length_a 11.351036
_cell_length_b 20.960910
_cell_length_c 16.127062
_cell_angle_alpha 28.585755
_cell_angle_beta 49.229960
_cell_angle_gamma 28.601248
_cell_volume 753.455538
_symmetry_space_group_name_H-M "P -1"
_symmetry_group_IT_number 2
_symmetry_cell_setting 'triclinic'
loop_
_space_group_symop_operation_xyz
x,y,z
-x,-y,-z
loop_
_atom_site_type_symbol
_atom_site_label
_atom_site_fract_x
_atom_site_fract_y
_atom_site_fract_z
Si Si1 0.493606 0.166925 0.421013
Si Si2 0.297194 0.252551 0.755440
Si Si3 0.748256 0.076546 0.252149
Si Si4 0.176245 0.763021 0.089338
Si Si5 0.598234 0.168988 0.976734
Si Si6 0.072884 0.572538 0.638061
Si Si7 0.667263 0.631786 0.559970
Si Si8 0.322738 0.243554 0.162075
O O1 0.686662 0.128087 0.320296
O O2 0.521145 0.192933 0.473710
O O3 0.166040 0.373762 0.304872
O O4 0.657625 0.910323 0.625503
O O5 0.235845 0.426569 0.642578
O O6 0.432383 0.209089 0.655875
O O7 0.999908 0.400104 0.697043
O O8 0.500000 0.000000 0.000000
O O9 0.427344 0.286687 0.124382
O O10 0.871225 0.126633 0.103014
O O11 0.939189 0.816843 0.424317
O O12 0.321449 0.752928 0.102074
O O13 0.386191 0.485848 0.299784
O O14 0.861822 0.937150 0.062321
O O15 0.303322 0.401839 0.798980
O O16 0.532284 0.094865 0.154514
O O17 0.000000 0.500000 0.000000
#
# Coordination Sequence:
#
# PCOD8042292 Si02
#       8
#     2   2   2   2   2   2   2   2
#     4  10  21  37  61  88 119 158 201 255 302 351
#     4  10  22  38  63  90 121 156 201 254 310 362
#     4  10  21  38  57  89 121 159 206 242 304 357
#     4  10  23  38  57  87 126 167 193 240 307 369
#     4  10  21  35  61  88 122 156 203 249 308 356
#     4  10  20  36  63  93 115 149 205 263 297 348
#     4  10  23  40  59  86 126 162 198 250 303 363
#     4  10  19  34  62  89 115 152 200 262 302 346
#
# _framework density 21.235492000000001
#
# number of rings (size 3 to 8) (size 9 to 14) (size 15 to 20)
#    0.000    2.000    0.000    3.750   12.250    1.000 
#    2.250    0.000    0.000    6.750    0.000    0.000 
#    0.000    0.000    0.000    0.000    0.000    0.000 
#
# Total GULP energy -198235.170955 kJ/mol
# GULP energy per Si atom -12389.698185 kJ/mol
# Density = 2.118716 g / cm^3
# Si number density = 21.235492 Si / 1000 Ang^3
#
#
#
# Elastic Constant Matrix: (Units=GPa)
#
#
# Indices 1 2 3 4 5 6 
#
# 1 43.1366 22.3146 29.9831 0.7880 7.7479 11.6212
# 2 22.3146 119.3864 45.0623 27.7880 5.2562 22.8976
# 3 29.9831 45.0623 105.0476 17.4017 12.1617 10.2099
# 4 0.7880 27.7880 17.4017 40.2142 -2.4203 9.1907
# 5 7.7479 5.2562 12.1617 -2.4203 33.8151 -1.7904
# 6 11.6212 22.8976 10.2099 9.1907 -1.7904 22.5838
#
#
#
# Elastic Compliance Matrix: (Units=1/GPa)
#
#
# Indices 1 2 3 4 5 6 
#
# 1 0.034939 -0.001910 -0.008286 0.007519 -0.005025 -0.015755
# 2 -0.001910 0.012905 -0.003069 -0.005688 -0.001322 -0.008504
# 3 -0.008286 -0.003069 0.014029 -0.004569 -0.002856 0.002665
# 4 0.007519 -0.005688 -0.004569 0.032893 0.002671 -0.009211
# 5 -0.005025 -0.001322 -0.002856 0.002671 0.032503 0.006707
# 6 -0.015755 -0.008504 0.002665 -0.009211 0.006707 0.064084
#
#
# Mechanical properties :
#
#
# Convention : Reuss Voigt Hill
#
# Bulk Modulus (GPa) = 28.29364 51.36561 39.82963
# Shear Modulus (GPa) = 21.77109 30.66997 26.22053
#
# Velocity S-wave (km/s) = 3.20538 3.80449 3.51771
# Velocity P-wave (km/s) = 5.20115 6.59848 5.94104
#
# Compressibility (1/GPa) = 0.03534363
#
# Stress axis : x y z
#
# Youngs Moduli (GPa) = 28.62129 77.49234 71.27957
#
# Poissons Ratio (x) = 0.14804 0.59059
# Poissons Ratio (y) = 0.05468 0.21873
# Poissons Ratio (z) = 0.23714 0.23780
#
# Static dielectric constant tensor:
#      x y z
#    x 3.759550 0.182750 0.171460 
#    y 0.182750 4.002770 0.211980 
#    z 0.171460 0.211980 3.807490 
# 
# 
# High freq. dielectric constant tensor:
#      x y z
#    x 1.815850 0.014870 0.011410 
#    y 0.014870 1.832530 0.011850 
#    z 0.011410 0.011850 1.826200 
# 
# From -- ./inp_files/524042.got.cif
#   From: 2010.06.25/outbox.cif.g09.slc.cpg/sg2_263_cif.got.tgz:524042.got - 2010.06.27 13:26:56.
