data_PCOD8042814
_publ_section_title
;
Structure prediction by ZEFSAII (Michael W. Deem and Ramdas Pophale) SiO2 
 PCOD8042814
Probable space group: P -1
;
_chemical_formula_sum "Si O2"
_cell_formula_units_Z 16
_cell_length_a 23.682259
_cell_length_b 14.492754
_cell_length_c 7.431619
_cell_angle_alpha 101.187966
_cell_angle_beta 92.038882
_cell_angle_gamma 19.183585
_cell_volume 730.860854
_symmetry_space_group_name_H-M "P -1"
_symmetry_group_IT_number 2
_symmetry_cell_setting 'triclinic'
loop_
_space_group_symop_operation_xyz
x,y,z
-x,-y,-z
loop_
_atom_site_type_symbol
_atom_site_label
_atom_site_fract_x
_atom_site_fract_y
_atom_site_fract_z
Si Si1 0.925409 0.174044 0.889458
Si Si2 0.233375 0.599395 0.492825
Si Si3 0.323449 0.263056 0.210801
Si Si4 0.946059 0.834459 0.201963
Si Si5 0.554190 0.284010 0.741705
Si Si6 0.551845 0.759154 0.249827
Si Si7 0.421032 0.495543 0.418621
Si Si8 0.304471 0.853195 0.969222
O O1 0.017753 0.129661 0.896403
O O2 0.693804 0.544558 0.011715
O O3 0.009164 0.986777 0.651563
O O4 0.000000 0.000000 0.000000
O O5 0.230022 0.514483 0.331648
O O6 0.337315 0.399257 0.612140
O O7 0.356994 0.489102 0.386008
O O8 0.145789 0.486598 0.189544
O O9 0.389226 0.098930 0.331346
O O10 0.500000 0.000000 0.000000
O O11 0.766384 0.139245 0.432995
O O12 0.891678 0.837857 0.054770
O O13 0.537116 0.202260 0.755450
O O14 0.568949 0.272309 0.522332
O O15 0.370325 0.639231 0.920198
O O16 0.729547 0.044905 0.798604
O O17 0.528831 0.354784 0.197365
#
# Coordination Sequence:
#
# PCOD8042814 Si02
#       8
#     2   2   2   2   2   2   2   2
#     4   9  17  34  58  84 111 143 190 246 290 336
#     4   9  21  37  60  85 112 153 197 242 293 343
#     4  12  24  37  56  81 123 163 190 229 293 358
#     4  10  20  35  51  87 118 148 193 238 284 358
#     4   9  19  34  59  89 110 150 191 237 298 346
#     4  10  20  39  59  82 121 151 192 241 295 349
#     4   9  19  37  63  87 117 142 195 254 293 336
#     4  10  19  35  62  87 117 146 191 250 300 332
#
# _framework density 21.891991000000001
#
# number of rings (size 3 to 8) (size 9 to 14) (size 15 to 20)
#    0.000    2.250    1.250    4.125    1.750    3.000 
#    0.000    4.375    0.000    3.750    0.000    0.000 
#    0.000    0.000    0.000    0.000    0.000    0.000 
#
# Total GULP energy -198231.437576 kJ/mol
# GULP energy per Si atom -12389.464849 kJ/mol
# Density = 2.184216 g / cm^3
# Si number density = 21.891991 Si / 1000 Ang^3
#
#
#
# Elastic Constant Matrix: (Units=GPa)
#
#
# Indices 1 2 3 4 5 6 
#
# 1 59.8621 9.9501 12.7500 7.2262 4.0699 3.7670
# 2 9.9501 76.2311 20.8058 9.2339 -3.2601 -13.5365
# 3 12.7500 20.8058 53.7553 -4.7092 -0.7317 -1.6113
# 4 7.2262 9.2339 -4.7092 22.7975 -1.3715 9.6856
# 5 4.0699 -3.2601 -0.7317 -1.3715 29.4968 -10.3003
# 6 3.7670 -13.5365 -1.6113 9.6856 -10.3003 36.3885
#
#
#
# Elastic Compliance Matrix: (Units=1/GPa)
#
#
# Indices 1 2 3 4 5 6 
#
# 1 0.018992 -0.000983 -0.004761 -0.005970 -0.003837 -0.002040
# 2 -0.000983 0.019688 -0.008188 -0.014325 0.005815 0.012522
# 3 -0.004761 -0.008188 0.023774 0.011751 -0.000808 -0.004857
# 4 -0.005970 -0.014325 0.011751 0.063243 -0.005403 -0.022554
# 5 -0.003837 0.005815 -0.000808 -0.005403 0.040156 0.015330
# 6 -0.002040 0.012522 -0.004857 -0.022554 0.015330 0.042478
#
#
# Mechanical properties :
#
#
# Convention : Reuss Voigt Hill
#
# Bulk Modulus (GPa) = 28.90816 30.76224 29.83520
# Shear Modulus (GPa) = 20.18371 27.49273 23.83822
#
# Velocity S-wave (km/s) = 3.03969 3.54762 3.30343
# Velocity P-wave (km/s) = 5.05501 5.55546 5.31113
#
# Compressibility (1/GPa) = 0.03459231
#
# Stress axis : x y z
#
# Youngs Moduli (GPa) = 52.65306 50.79135 42.06309
#
# Poissons Ratio (x) = 0.04992 0.20025
# Poissons Ratio (y) = 0.05175 0.34440
# Poissons Ratio (z) = 0.25066 0.41586
#
# Static dielectric constant tensor:
#      x y z
#    x 3.954340 -0.173680 -0.099180 
#    y -0.173680 4.096400 -0.245350 
#    z -0.099180 -0.245350 3.888470 
# 
# 
# High freq. dielectric constant tensor:
#      x y z
#    x 1.860500 -0.001900 -0.006380 
#    y -0.001900 1.863350 -0.034760 
#    z -0.006380 -0.034760 1.832140 
# 
# From -- ./inp_files/354369.got.cif
#   From: 2010.06.25/outbox.cif.g09.slc.cpg/sg2_178_cif.got.tgz:354369.got - 2010.06.27 13:26:56.
