data_PCOD8042839
_publ_section_title
;
Structure prediction by ZEFSAII (Michael W. Deem and Ramdas Pophale) SiO2 
 PCOD8042839
Probable space group: P -1
;
_chemical_formula_sum "Si O2"
_cell_formula_units_Z 16
_cell_length_a 9.508037
_cell_length_b 16.786119
_cell_length_c 13.516433
_cell_angle_alpha 146.760676
_cell_angle_beta 119.283341
_cell_angle_gamma 84.980505
_cell_volume 763.136996
_symmetry_space_group_name_H-M "P -1"
_symmetry_group_IT_number 2
_symmetry_cell_setting 'triclinic'
loop_
_space_group_symop_operation_xyz
x,y,z
-x,-y,-z
loop_
_atom_site_type_symbol
_atom_site_label
_atom_site_fract_x
_atom_site_fract_y
_atom_site_fract_z
Si Si1 0.670136 0.248813 0.404452
Si Si2 0.308465 0.795329 0.855495
Si Si3 0.873815 0.865675 0.661747
Si Si4 0.627374 0.796507 0.084768
Si Si5 0.981267 0.798481 0.822971
Si Si6 0.565275 0.535104 0.946981
Si Si7 0.017617 0.783735 0.429134
Si Si8 0.483417 0.524883 0.406771
O O1 0.739972 0.304902 0.371752
O O2 0.874007 0.301521 0.587714
O O3 0.610260 0.374219 0.548783
O O4 0.459703 0.025217 0.122571
O O5 0.092234 0.708533 0.752599
O O6 0.418967 0.746780 0.914508
O O7 0.033325 0.906558 0.846998
O O8 0.615542 0.671707 0.387074
O O9 0.961754 0.853839 0.576893
O O10 0.909687 0.060983 0.894823
O O11 0.828344 0.029278 0.395895
O O12 0.574452 0.704821 0.081689
O O13 0.681432 0.686082 0.923121
O O14 0.723258 0.636677 0.566090
O O15 0.500000 0.500000 0.000000
O O16 0.808597 0.614647 0.114809
O O17 0.500000 0.500000 0.500000
#
# Coordination Sequence:
#
# PCOD8042839 Si02
#       8
#     2   2   2   2   2   2   2   2
#     4  10  20  37  59  94 124 163 201 249 312 370
#     4  10  21  36  61  91 127 158 203 253 309 377
#     4  10  19  35  62  93 117 162 207 248 302 370
#     4  11  22  39  62  93 124 160 209 255 311 365
#     4  11  21  35  61  89 129 161 195 249 321 364
#     4  10  22  41  63  88 118 165 219 255 294 365
#     4  10  21  40  66  84 125 168 208 249 304 366
#     4  12  23  37  58  97 133 159 195 259 315 376
#
# _framework density 20.966092
#
# number of rings (size 3 to 8) (size 9 to 14) (size 15 to 20)
#    0.000    1.500    3.750    2.625    1.750    0.500 
#    4.500    0.625    2.750    1.500    0.000    0.000 
#    0.000    0.000    0.000    0.000    0.000    0.000 
#
# Total GULP energy -198217.644765 kJ/mol
# GULP energy per Si atom -12388.602798 kJ/mol
# Density = 2.091837 g / cm^3
# Si number density = 20.966092 Si / 1000 Ang^3
#
#
#
# Elastic Constant Matrix: (Units=GPa)
#
#
# Indices 1 2 3 4 5 6 
#
# 1 114.6579 45.4558 27.2188 -0.1483 4.3383 -21.9171
# 2 45.4558 132.3907 29.0340 -5.1260 11.0637 -6.4080
# 3 27.2188 29.0340 81.9079 -12.4568 8.5349 -16.5542
# 4 -0.1483 -5.1260 -12.4568 24.6275 -4.0434 0.0359
# 5 4.3383 11.0637 8.5349 -4.0434 27.0597 -4.0644
# 6 -21.9171 -6.4080 -16.5542 0.0359 -4.0644 35.6063
#
#
#
# Elastic Compliance Matrix: (Units=1/GPa)
#
#
# Indices 1 2 3 4 5 6 
#
# 1 0.011571 -0.003426 -0.001758 -0.001417 0.000756 0.005776
# 2 -0.003426 0.009374 -0.002193 0.000364 -0.002802 -0.001762
# 3 -0.001758 -0.002193 0.016049 0.007326 -0.001924 0.005758
# 4 -0.001417 0.000364 0.007326 0.045192 0.004990 0.003124
# 5 0.000756 -0.002802 -0.001924 0.004990 0.039875 0.003613
# 6 0.005776 -0.001762 0.005758 0.003124 0.003613 0.034410
#
#
# Mechanical properties :
#
#
# Convention : Reuss Voigt Hill
#
# Bulk Modulus (GPa) = 44.96341 59.15264 52.05802
# Shear Modulus (GPa) = 27.98994 32.60856 30.29925
#
# Velocity S-wave (km/s) = 3.65774 3.94801 3.80564
# Velocity P-wave (km/s) = 6.27145 7.00408 6.64786
#
# Compressibility (1/GPa) = 0.02224031
#
# Stress axis : x y z
#
# Youngs Moduli (GPa) = 86.42555 106.68363 62.31076
#
# Poissons Ratio (x) = 0.36547 0.10951
# Poissons Ratio (y) = 0.29607 0.13665
# Poissons Ratio (z) = 0.15189 0.23396
#
# Static dielectric constant tensor:
#      x y z
#    x 3.904880 0.016180 0.137630 
#    y 0.016180 4.088030 -0.172750 
#    z 0.137630 -0.172750 4.106570 
# 
# 
# High freq. dielectric constant tensor:
#      x y z
#    x 1.811800 0.000990 0.012210 
#    y 0.000990 1.823410 0.001220 
#    z 0.012210 0.001220 1.811000 
# 
# From -- ./inp_files/507109.got.cif
#   From: 2010.06.25/outbox.cif.g09.slc.cpg/sg2_254_cif.got.tgz:507109.got - 2010.06.27 13:26:56.
