data_PCOD8042458
_publ_section_title
;
Structure prediction by ZEFSAII (Michael W. Deem and Ramdas Pophale) SiO2 
 PCOD8042458
Probable space group: P -1
;
_chemical_formula_sum "Si O2"
_cell_formula_units_Z 16
_cell_length_a 14.197220
_cell_length_b 14.048292
_cell_length_c 10.485427
_cell_angle_alpha 47.056802
_cell_angle_beta 151.540518
_cell_angle_gamma 138.120315
_cell_volume 662.934417
_symmetry_space_group_name_H-M "P -1"
_symmetry_group_IT_number 2
_symmetry_cell_setting 'triclinic'
loop_
_space_group_symop_operation_xyz
x,y,z
-x,-y,-z
loop_
_atom_site_type_symbol
_atom_site_label
_atom_site_fract_x
_atom_site_fract_y
_atom_site_fract_z
Si Si1 0.108272 0.287756 0.408431
Si Si2 0.561983 0.790681 0.000190
Si Si3 0.728954 0.852449 0.490159
Si Si4 0.031793 0.797464 0.285406
Si Si5 0.307409 0.868158 0.803941
Si Si6 0.853622 0.002693 0.975667
Si Si7 0.455969 0.561472 0.521758
Si Si8 0.658398 0.506887 0.067362
O O1 0.146144 0.200800 0.415853
O O2 0.201661 0.459720 0.341060
O O3 0.855808 0.234171 0.191248
O O4 0.236129 0.256238 0.708401
O O5 0.508098 0.823459 0.053177
O O6 0.357571 0.655931 0.816991
O O7 0.645051 0.936351 0.882766
O O8 0.520240 0.728324 0.422612
O O9 0.916514 0.933997 0.737836
O O10 0.628248 0.967004 0.226157
O O11 0.203263 0.836562 0.567539
O O12 0.168699 0.873842 0.250414
O O13 0.855521 0.866873 0.023419
O O14 0.902030 0.624948 0.277163
O O15 0.500000 0.500000 0.500000
O O16 0.596421 0.547407 0.818906
O O17 0.500000 0.500000 0.000000
#
# Coordination Sequence:
#
# PCOD8042458 Si02
#       8
#     2   2   2   2   2   2   2   2
#     4  10  20  40  60  84 115 152 194 240 288 347
#     4  11  23  37  56  88 122 148 193 242 288 347
#     4  10  19  37  63  83 113 156 196 233 292 351
#     4  10  19  35  57  80 114 151 192 234 286 342
#     4  11  23  37  57  90 116 152 191 242 293 342
#     4  10  19  35  56  85 114 148 191 239 284 341
#     4   9  19  35  62  87 112 154 198 237 291 350
#     4  11  19  35  61  87 113 157 194 238 295 343
#
# _framework density 24.135117999999999
#
# number of rings (size 3 to 8) (size 9 to 14) (size 15 to 20)
#    0.000    1.750    5.000    1.125    0.000    1.500 
#    0.000    1.250    0.000    6.750    0.000    0.000 
#    0.000    0.000    0.000    0.000    0.000    0.000 
#
# Total GULP energy -198242.299533 kJ/mol
# GULP energy per Si atom -12390.143721 kJ/mol
# Density = 2.408019 g / cm^3
# Si number density = 24.135118 Si / 1000 Ang^3
#
#
#
# Elastic Constant Matrix: (Units=GPa)
#
#
# Indices 1 2 3 4 5 6 
#
# 1 122.3835 65.2485 12.1127 6.2112 9.1764 18.5832
# 2 65.2485 203.1451 11.8054 30.7144 13.0813 27.4818
# 3 12.1127 11.8054 35.0323 4.1824 3.2493 -0.0393
# 4 6.2112 30.7144 4.1824 16.1956 1.9324 -4.9774
# 5 9.1764 13.0813 3.2493 1.9324 34.7601 8.9123
# 6 18.5832 27.4818 -0.0393 -4.9774 8.9123 51.4524
#
#
#
# Elastic Compliance Matrix: (Units=1/GPa)
#
#
# Indices 1 2 3 4 5 6 
#
# 1 0.010374 -0.003292 -0.002697 0.002598 -0.000990 -0.001567
# 2 -0.003292 0.009578 0.000156 -0.018660 -0.000254 -0.005688
# 3 -0.002697 0.000156 0.030408 -0.006691 -0.001973 0.000609
# 4 0.002598 -0.018660 -0.006691 0.104418 -0.003921 0.019803
# 5 -0.000990 -0.000254 -0.001973 -0.003921 0.030870 -0.005235
# 6 -0.001567 -0.005688 0.000609 0.019803 -0.005235 0.025862
#
#
# Mechanical properties :
#
#
# Convention : Reuss Voigt Hill
#
# Bulk Modulus (GPa) = 25.84562 59.87713 42.86137
# Shear Modulus (GPa) = 21.17971 38.57458 29.87715
#
# Velocity S-wave (km/s) = 2.96556 4.00218 3.52221
# Velocity P-wave (km/s) = 4.73899 6.79850 5.85993
#
# Compressibility (1/GPa) = 0.03869128
#
# Stress axis : x y z
#
# Youngs Moduli (GPa) = 96.39838 104.40574 32.88634
#
# Poissons Ratio (x) = 0.34372 0.08871
# Poissons Ratio (y) = 0.31736 -0.00512
# Poissons Ratio (z) = 0.26003 -0.01624
#
# Static dielectric constant tensor:
#      x y z
#    x 4.508430 0.103660 -0.186170 
#    y 0.103660 5.120400 0.140600 
#    z -0.186170 0.140600 4.032910 
# 
# 
# High freq. dielectric constant tensor:
#      x y z
#    x 1.965620 0.004410 -0.023690 
#    y 0.004410 1.979170 0.025440 
#    z -0.023690 0.025440 1.931630 
# 
# From -- ./inp_files/305192.got.cif
#   From: 2010.06.25/outbox.cif.g09.slc.cpg/sg2_153_cif.got.tgz:305192.got - 2010.06.27 13:26:56.
