data_PCOD8042531
_publ_section_title
;
Structure prediction by ZEFSAII (Michael W. Deem and Ramdas Pophale) SiO2 
 PCOD8042531
Probable space group: P -1
;
_chemical_formula_sum "Si O2"
_cell_formula_units_Z 16
_cell_length_a 14.291568
_cell_length_b 11.862356
_cell_length_c 20.841006
_cell_angle_alpha 150.919062
_cell_angle_beta 150.917448
_cell_angle_gamma 48.790173
_cell_volume 747.876249
_symmetry_space_group_name_H-M "P -1"
_symmetry_group_IT_number 2
_symmetry_cell_setting 'triclinic'
loop_
_space_group_symop_operation_xyz
x,y,z
-x,-y,-z
loop_
_atom_site_type_symbol
_atom_site_label
_atom_site_fract_x
_atom_site_fract_y
_atom_site_fract_z
Si Si1 0.150341 0.915530 0.587648
Si Si2 0.850367 0.777883 0.718249
Si Si3 0.608533 0.221501 0.437054
Si Si4 0.787249 0.206712 0.967439
Si Si5 0.915876 0.141227 0.222815
Si Si6 0.608471 0.625878 0.718590
Si Si7 0.110453 0.348977 0.573674
Si Si8 0.561903 0.524396 0.975110
O O1 0.210919 0.738103 0.487041
O O2 0.039166 0.752586 0.503259
O O3 0.000000 0.000000 0.500000
O O4 0.362657 0.183321 0.862111
O O5 0.627851 0.531331 0.472891
O O6 0.881196 0.804688 0.673827
O O7 0.849468 0.045063 0.872839
O O8 0.046218 0.732515 0.843793
O O9 0.710601 0.431641 0.661094
O O10 0.408732 0.251400 0.298585
O O11 0.470016 0.936127 0.239670
O O12 0.768959 0.460866 0.055947
O O13 0.835042 0.355909 0.264332
O O14 0.981986 0.154884 0.343110
O O15 0.740026 0.845917 0.958005
O O16 0.339236 0.342464 0.714854
O O17 0.500000 0.500000 0.000000
#
# Coordination Sequence:
#
# PCOD8042531 Si02
#       8
#     2   2   2   2   2   2   2   2
#     4  12  24  38  64  94 128 165 207 264 317 374
#     4  10  21  37  63  95 126 164 209 263 321 366
#     4  10  19  35  57  94 130 151 208 265 311 364
#     4  10  20  37  62  96 130 161 208 266 319 367
#     4  11  23  44  65  88 133 169 213 262 314 389
#     4  10  21  34  62  93 122 162 204 266 316 370
#     4  11  26  44  63  93 126 176 212 257 324 380
#     4  12  22  40  64  93 129 163 213 265 313 377
#
# _framework density 21.393913000000001
#
# number of rings (size 3 to 8) (size 9 to 14) (size 15 to 20)
#    0.000    1.250    3.750    2.250    3.500    1.000 
#    0.000    3.750    0.000    9.000    0.000    0.000 
#    0.000    0.000    0.000    0.000    0.000    0.000 
#
# Total GULP energy -198210.687882 kJ/mol
# GULP energy per Si atom -12388.167993 kJ/mol
# Density = 2.134522 g / cm^3
# Si number density = 21.393913 Si / 1000 Ang^3
#
#
#
# Elastic Constant Matrix: (Units=GPa)
#
#
# Indices 1 2 3 4 5 6 
#
# 1 119.3290 44.3271 57.7681 -10.6502 -9.9973 -9.7994
# 2 44.3271 85.2357 44.2249 -7.6292 -7.3025 -14.3350
# 3 57.7681 44.2249 150.3987 3.9934 -14.0104 -5.1437
# 4 -10.6502 -7.6292 3.9934 26.1998 1.9135 -0.1350
# 5 -9.9973 -7.3025 -14.0104 1.9135 35.4859 2.6044
# 6 -9.7994 -14.3350 -5.1437 -0.1350 2.6044 31.0701
#
#
#
# Elastic Compliance Matrix: (Units=1/GPa)
#
#
# Indices 1 2 3 4 5 6 
#
# 1 0.012043 -0.003742 -0.003506 0.004282 0.000902 0.001434
# 2 -0.003742 0.016819 -0.003367 0.003889 0.000427 0.006004
# 3 -0.003506 -0.003367 0.009259 -0.003991 0.002288 -0.001335
# 4 0.004282 0.003889 -0.003991 0.041813 -0.002032 0.002836
# 5 0.000902 0.000427 0.002288 -0.002032 0.029655 -0.001634
# 6 0.001434 0.006004 -0.001335 0.002836 -0.001634 0.035336
#
#
# Mechanical properties :
#
#
# Convention : Reuss Voigt Hill
#
# Bulk Modulus (GPa) = 59.19868 71.95595 65.57732
# Shear Modulus (GPa) = 29.10607 32.46070 30.78339
#
# Velocity S-wave (km/s) = 3.69248 3.89946 3.79738
# Velocity P-wave (km/s) = 6.77569 7.34719 7.06722
#
# Compressibility (1/GPa) = 0.01689227
#
# Stress axis : x y z
#
# Youngs Moduli (GPa) = 83.03520 59.45484 108.00288
#
# Poissons Ratio (x) = 0.22249 0.37865
# Poissons Ratio (y) = 0.31073 0.36360
# Poissons Ratio (z) = 0.29111 0.20016
#
# Static dielectric constant tensor:
#      x y z
#    x 5.218930 -0.476240 0.851260 
#    y -0.476240 4.133390 0.362330 
#    z 0.851260 0.362330 4.702580 
# 
# 
# High freq. dielectric constant tensor:
#      x y z
#    x 1.830460 -0.023990 0.015170 
#    y -0.023990 1.819380 0.029240 
#    z 0.015170 0.029240 1.850940 
# 
# From -- ./inp_files/598044.got.cif
#   From: 2010.06.25/outbox.cif.g09.slc.cpg/sg2_300_cif.got.tgz:598044.got - 2010.06.27 13:26:56.
