data_PCOD8042332
_publ_section_title
;
Structure prediction by ZEFSAII (Michael W. Deem and Ramdas Pophale) SiO2 
 PCOD8042332
Probable space group: P -1
;
_chemical_formula_sum "Si O2"
_cell_formula_units_Z 14
_cell_length_a 11.373318
_cell_length_b 21.572947
_cell_length_c 13.732786
_cell_angle_alpha 20.395520
_cell_angle_beta 139.173972
_cell_angle_gamma 146.496306
_cell_volume 642.726249
_symmetry_space_group_name_H-M "P -1"
_symmetry_group_IT_number 2
_symmetry_cell_setting 'triclinic'
loop_
_space_group_symop_operation_xyz
x,y,z
-x,-y,-z
loop_
_atom_site_type_symbol
_atom_site_label
_atom_site_fract_x
_atom_site_fract_y
_atom_site_fract_z
Si Si1 0.868706 0.081087 0.854191
Si Si2 0.148416 0.921278 0.934910
Si Si3 0.579953 0.764333 0.510683
Si Si4 0.824787 0.984331 0.526111
Si Si5 0.104970 0.523042 0.646308
Si Si6 0.829238 0.575925 0.962255
Si Si7 0.587308 0.112104 0.489642
O O1 0.983677 0.337152 0.569613
O O2 0.663472 0.996737 0.779684
O O3 0.803562 0.983226 0.066125
O O4 0.000000 0.000000 0.000000
O O5 0.947318 0.916271 0.773030
O O6 0.364640 0.077864 0.778604
O O7 0.070039 0.667224 0.257120
O O8 0.780225 0.897500 0.515808
O O9 0.342238 0.687518 0.507298
O O10 0.618833 0.575544 0.793319
O O11 0.590962 0.875094 0.584971
O O12 0.955452 0.240775 0.226546
O O13 0.138397 0.399326 0.936573
O O14 0.786468 0.349059 0.240039
O O15 0.500000 0.000000 0.500000
#
# Coordination Sequence:
#
# PCOD8042332 Si02
#       7
#     2   2   2   2   2   2   2
#     4  11  25  43  59  88 127 170 207 250 309 365
#     4  11  22  38  66  95 129 156 198 257 316 367
#     4  11  19  35  66 101 123 150 202 258 311 361
#     4  11  19  37  66  96 123 154 198 260 307 362
#     4  11  20  37  65  92 124 164 205 250 306 365
#     4  10  19  34  63  98 122 148 200 262 307 355
#     4  11  24  42  64  85 120 170 212 248 297 372
#
# _framework density 21.782212999999999
#
# number of rings (size 3 to 8) (size 9 to 14) (size 15 to 20)
#    0.000    1.143    5.714    3.429    0.000    1.143 
#    0.000    1.429    0.000   12.000    0.000    0.000 
#    0.000    0.000    0.000    0.000    0.000    0.000 
#
# Total GULP energy -173472.395376 kJ/mol
# GULP energy per Si atom -12390.885384 kJ/mol
# Density = 2.173264 g / cm^3
# Si number density = 21.782213 Si / 1000 Ang^3
#
#
#
# Elastic Constant Matrix: (Units=GPa)
#
#
# Indices 1 2 3 4 5 6 
#
# 1 82.0965 35.8668 53.0976 7.4081 0.1495 -24.0526
# 2 35.8668 108.5130 39.3067 9.9857 -0.3791 -25.3721
# 3 53.0976 39.3067 111.0813 0.5578 -10.5871 2.3424
# 4 7.4081 9.9857 0.5578 31.1726 2.0510 -4.0873
# 5 0.1495 -0.3791 -10.5871 2.0510 29.7034 4.5358
# 6 -24.0526 -25.3721 2.3424 -4.0873 4.5358 41.7678
#
#
#
# Elastic Compliance Matrix: (Units=1/GPa)
#
#
# Indices 1 2 3 4 5 6 
#
# 1 0.025857 0.000484 -0.013548 -0.003433 -0.007219 0.016392
# 2 0.000484 0.013294 -0.005378 -0.002951 -0.002871 0.008679
# 3 -0.013548 -0.005378 0.018435 0.002387 0.008356 -0.012776
# 4 -0.003433 -0.002951 0.002387 0.033835 -0.001439 -0.000436
# 5 -0.007219 -0.002871 0.008356 -0.001439 0.038374 -0.010678
# 6 0.016392 0.008679 -0.012776 -0.000436 -0.010678 0.040487
#
#
# Mechanical properties :
#
#
# Convention : Reuss Voigt Hill
#
# Bulk Modulus (GPa) = 48.29899 62.02587 55.16243
# Shear Modulus (GPa) = 23.35735 32.09007 27.72371
#
# Velocity S-wave (km/s) = 3.27817 3.84242 3.57146
# Velocity P-wave (km/s) = 6.04568 6.94427 6.51050
#
# Compressibility (1/GPa) = 0.02070437
#
# Stress axis : x y z
#
# Youngs Moduli (GPa) = 38.67459 75.22114 54.24483
#
# Poissons Ratio (x) = -0.03643 0.73488
# Poissons Ratio (y) = -0.01873 0.29170
# Poissons Ratio (z) = 0.52394 0.40451
#
# Static dielectric constant tensor:
#      x y z
#    x 3.437160 -0.136190 -0.161020 
#    y -0.136190 4.010390 0.176410 
#    z -0.161020 0.176410 4.172010 
# 
# 
# High freq. dielectric constant tensor:
#      x y z
#    x 1.828320 -0.007700 -0.009930 
#    y -0.007700 1.860580 0.022180 
#    z -0.009930 0.022180 1.873970 
# 
# From -- ./inp_files/522194.got.cif
#   From: 2010.06.25/outbox.cif.g09.slc.cpg/sg2_262_cif.got.tgz:522194.got - 2010.06.27 13:26:56.
