data_PCOD8042828
_publ_section_title
;
Structure prediction by ZEFSAII (Michael W. Deem and Ramdas Pophale) SiO2 
 PCOD8042828
Probable space group: P -1
;
_chemical_formula_sum "Si O2"
_cell_formula_units_Z 16
_cell_length_a 10.040352
_cell_length_b 15.347125
_cell_length_c 12.589532
_cell_angle_alpha 27.883648
_cell_angle_beta 107.380009
_cell_angle_gamma 95.409907
_cell_volume 800.775345
_symmetry_space_group_name_H-M "P -1"
_symmetry_group_IT_number 2
_symmetry_cell_setting 'triclinic'
loop_
_space_group_symop_operation_xyz
x,y,z
-x,-y,-z
loop_
_atom_site_type_symbol
_atom_site_label
_atom_site_fract_x
_atom_site_fract_y
_atom_site_fract_z
Si Si1 0.008716 0.189072 0.537909
Si Si2 0.895818 0.522975 0.609321
Si Si3 0.796208 0.749392 0.125926
Si Si4 0.285948 0.814244 0.425822
Si Si5 0.761886 0.259477 0.981407
Si Si6 0.547048 0.615448 0.126809
Si Si7 0.581014 0.156919 0.353635
Si Si8 0.862015 0.182001 0.308697
O O1 0.882107 0.173071 0.603116
O O2 0.915977 0.291660 0.297892
O O3 0.081576 0.337823 0.442323
O O4 0.139086 0.970001 0.781901
O O5 0.815516 0.663691 0.340818
O O6 0.052368 0.348755 0.801081
O O7 0.784404 0.416009 0.736183
O O8 0.665140 0.716280 0.067184
O O9 0.743523 0.988840 0.863374
O O10 0.371690 0.623448 0.577226
O O11 0.401263 0.786939 0.581181
O O12 0.800795 0.323420 0.039316
O O13 0.586622 0.291549 0.918516
O O14 0.505070 0.655263 0.948006
O O15 0.751055 0.072462 0.440221
O O16 0.500000 0.000000 0.500000
O O17 0.000000 0.000000 0.500000
#
# Coordination Sequence:
#
# PCOD8042828 Si02
#       8
#     2   2   2   2   2   2   2   2
#     4  10  20  39  65  88 120 162 207 248 302 365
#     4  11  24  41  64  91 116 166 218 251 297 360
#     4  11  24  41  64  91 119 161 218 256 295 355
#     4  11  21  39  64  91 122 162 204 251 303 365
#     4  10  22  41  60  90 130 154 196 259 312 358
#     4  11  23  40  61  95 127 157 197 256 315 360
#     4  10  19  35  62  90 124 157 197 249 303 364
#     4   8  18  35  58  89 121 157 193 240 308 364
#
# _framework density 19.980634999999999
#
# number of rings (size 3 to 8) (size 9 to 14) (size 15 to 20)
#    0.000    1.750    3.750    0.375    0.000    3.500 
#    2.250    1.250    0.000    0.000    0.000    0.000 
#    0.000    0.000    0.000    0.000    0.000    0.000 
#
# Total GULP energy -198241.967506 kJ/mol
# GULP energy per Si atom -12390.122969 kJ/mol
# Density = 1.993516 g / cm^3
# Si number density = 19.980635 Si / 1000 Ang^3
#
#
#
# Elastic Constant Matrix: (Units=GPa)
#
#
# Indices 1 2 3 4 5 6 
#
# 1 62.3786 -1.4147 25.2911 3.6684 5.8861 -12.0305
# 2 -1.4147 38.5115 14.2787 -3.4215 1.3484 -10.1691
# 3 25.2911 14.2787 99.8234 -10.0009 -2.5316 -11.9548
# 4 3.6684 -3.4215 -10.0009 31.8391 -3.1097 -0.4068
# 5 5.8861 1.3484 -2.5316 -3.1097 29.7555 -0.1720
# 6 -12.0305 -10.1691 -11.9548 -0.4068 -0.1720 22.4308
#
#
#
# Elastic Compliance Matrix: (Units=1/GPa)
#
#
# Indices 1 2 3 4 5 6 
#
# 1 0.021146 0.005467 -0.005364 -0.003906 -0.005233 0.010850
# 2 0.005467 0.031916 -0.004043 0.001468 -0.002630 0.015253
# 3 -0.005364 -0.004043 0.012737 0.004487 0.002810 0.002181
# 4 -0.003906 0.001468 0.004487 0.033899 0.004640 0.001612
# 5 -0.005233 -0.002630 0.002810 0.004640 0.035473 -0.002145
# 6 0.010850 0.015253 0.002181 0.001612 -0.002145 0.058491
#
#
# Mechanical properties :
#
#
# Convention : Reuss Voigt Hill
#
# Bulk Modulus (GPa) = 17.26580 30.78040 24.02310
# Shear Modulus (GPa) = 22.63983 27.64231 25.14107
#
# Velocity S-wave (km/s) = 3.36979 3.72352 3.55106
# Velocity P-wave (km/s) = 4.87859 5.82449 5.37240
#
# Compressibility (1/GPa) = 0.05791797
#
# Stress axis : x y z
#
# Youngs Moduli (GPa) = 47.29024 31.33194 78.51097
#
# Poissons Ratio (x) = -0.17128 0.42115
# Poissons Ratio (y) = -0.25852 0.31745
# Poissons Ratio (z) = 0.25367 0.12669
#
# Static dielectric constant tensor:
#      x y z
#    x 3.718140 -0.043560 0.104200 
#    y -0.043560 3.543600 -0.003610 
#    z 0.104200 -0.003610 3.493510 
# 
# 
# High freq. dielectric constant tensor:
#      x y z
#    x 1.787310 0.001530 0.006840 
#    y 0.001530 1.769590 0.008960 
#    z 0.006840 0.008960 1.772570 
# 
# From -- ./inp_files/398212.got.cif
#   From: 2010.06.25/outbox.cif.g09.slc.cpg/sg2_200_cif.got.tgz:398212.got - 2010.06.27 13:26:56.
