data_PCOD8042205
_publ_section_title
;
Structure prediction by ZEFSAII (Michael W. Deem and Ramdas Pophale) SiO2 
 PCOD8042205
Probable space group: P -1
;
_chemical_formula_sum "Si O2"
_cell_formula_units_Z 16
_cell_length_a 11.907907
_cell_length_b 19.759874
_cell_length_c 13.784885
_cell_angle_alpha 30.204410
_cell_angle_beta 150.080423
_cell_angle_gamma 149.118945
_cell_volume 732.835298
_symmetry_space_group_name_H-M "P -1"
_symmetry_group_IT_number 2
_symmetry_cell_setting 'triclinic'
loop_
_space_group_symop_operation_xyz
x,y,z
-x,-y,-z
loop_
_atom_site_type_symbol
_atom_site_label
_atom_site_fract_x
_atom_site_fract_y
_atom_site_fract_z
Si Si1 0.625132 0.658468 0.167821
Si Si2 0.198100 0.012667 0.344125
Si Si3 0.701831 0.167417 0.053202
Si Si4 0.259155 0.344787 0.324503
Si Si5 0.714176 0.732235 0.351753
Si Si6 0.984743 0.783241 0.121519
Si Si7 0.344692 0.023444 0.227785
Si Si8 0.412244 0.826357 0.258297
O O1 0.369946 0.507045 0.155787
O O2 0.747802 0.662996 0.360461
O O3 0.817094 0.656478 0.229992
O O4 0.561489 0.798556 0.930248
O O5 0.426904 0.018946 0.573651
O O6 0.941441 0.892190 0.346772
O O7 0.239394 0.961140 0.332010
O O8 0.188011 0.174124 0.135035
O O9 0.974037 0.252775 0.196475
O O10 0.578842 0.995450 0.208454
O O11 0.538599 0.247439 0.872591
O O12 0.716671 0.175443 0.938412
O O13 0.293683 0.370995 0.434633
O O14 0.414191 0.257971 0.510054
O O15 0.182264 0.740058 0.267837
O O16 0.124336 0.940332 0.089606
#
# Coordination Sequence:
#
# PCOD8042205 Si02
#       8
#     2   2   2   2   2   2   2   2
#     4  11  22  42  59  91 133 157 191 248 304 371
#     4  10  19  34  59  94 118 148 201 245 299 352
#     4  10  22  43  62  86 119 158 208 257 293 345
#     4  11  26  40  59  89 124 169 202 236 301 362
#     4  11  21  39  61  91 123 157 199 248 301 359
#     4  11  20  40  66  89 123 155 197 258 300 345
#     4  10  20  36  61  92 121 156 195 245 306 359
#     4  10  22  41  64  87 114 160 210 255 292 346
#
# _framework density 21.833009000000001
#
# number of rings (size 3 to 8) (size 9 to 14) (size 15 to 20)
#    0.000    1.500    3.750    1.500    3.500    2.000 
#    4.500    0.625    0.000    0.000    0.000    0.000 
#    0.000    0.000    0.000    0.000    0.000    0.000 
#
# Total GULP energy -198390.466567 kJ/mol
# GULP energy per Si atom -12399.404160 kJ/mol
# Density = 2.178332 g / cm^3
# Si number density = 21.833009 Si / 1000 Ang^3
#
#
#
# Elastic Constant Matrix: (Units=GPa)
#
#
# Indices 1 2 3 4 5 6 
#
# 1 102.3810 31.4864 21.6278 5.4849 -3.0253 34.2706
# 2 31.4864 83.6236 44.8530 5.4808 -8.9225 22.4542
# 3 21.6278 44.8530 96.8265 14.1980 1.2821 18.1537
# 4 5.4849 5.4808 14.1980 31.0358 10.8716 0.0683
# 5 -3.0253 -8.9225 1.2821 10.8716 21.3288 0.7572
# 6 34.2706 22.4542 18.1537 0.0683 0.7572 29.8264
#
#
#
# Elastic Compliance Matrix: (Units=1/GPa)
#
#
# Indices 1 2 3 4 5 6 
#
# 1 0.016681 -0.000668 0.000874 -0.005040 0.005289 -0.019319
# 2 -0.000668 0.020143 -0.006715 -0.004304 0.011305 -0.010587
# 3 0.000874 -0.006715 0.015029 -0.005647 -0.000530 -0.005070
# 4 -0.005040 -0.004304 -0.005647 0.045469 -0.025814 0.013020
# 5 0.005289 0.011305 -0.000530 -0.025814 0.066118 -0.015884
# 6 -0.019319 -0.010587 -0.005070 0.013020 -0.015884 0.067154
#
#
# Mechanical properties :
#
#
# Convention : Reuss Voigt Hill
#
# Bulk Modulus (GPa) = 25.74984 53.19616 39.47300
# Shear Modulus (GPa) = 19.48897 28.76247 24.12572
#
# Velocity S-wave (km/s) = 2.99095 3.63352 3.32778
# Velocity P-wave (km/s) = 4.87312 6.48237 5.73448
#
# Compressibility (1/GPa) = 0.03883520
#
# Stress axis : x y z
#
# Youngs Moduli (GPa) = 59.94793 49.64623 66.53907
#
# Poissons Ratio (x) = 0.03315 -0.05818
# Poissons Ratio (y) = 0.04003 0.44683
# Poissons Ratio (z) = -0.05242 0.33339
#
# Static dielectric constant tensor:
#      x y z
#    x 4.179020 0.272260 -0.089770 
#    y 0.272260 3.680770 0.141330 
#    z -0.089770 0.141330 3.822590 
# 
# 
# High freq. dielectric constant tensor:
#      x y z
#    x 1.870170 0.023490 -0.007230 
#    y 0.023490 1.830550 0.012630 
#    z -0.007230 0.012630 1.848600 
# 
# From -- ./inp_files/433203.got.cif
#   From: 2010.06.25/outbox.cif.g09.slc.cpg/sg2_217_cif.got.tgz:433203.got - 2010.06.27 13:26:56.
