data_PCOD8042888
_publ_section_title
;
Structure prediction by ZEFSAII (Michael W. Deem and Ramdas Pophale) SiO2 
 PCOD8042888
Probable space group: P -1
;
_chemical_formula_sum "Si O2"
_cell_formula_units_Z 16
_cell_length_a 8.655996
_cell_length_b 11.376562
_cell_length_c 21.948038
_cell_angle_alpha 144.195043
_cell_angle_beta 140.256811
_cell_angle_gamma 63.563526
_cell_volume 710.544642
_symmetry_space_group_name_H-M "P -1"
_symmetry_group_IT_number 2
_symmetry_cell_setting 'triclinic'
loop_
_space_group_symop_operation_xyz
x,y,z
-x,-y,-z
loop_
_atom_site_type_symbol
_atom_site_label
_atom_site_fract_x
_atom_site_fract_y
_atom_site_fract_z
Si Si1 0.280875 0.257651 0.760527
Si Si2 0.147971 0.166985 0.247018
Si Si3 0.428573 0.224668 0.920213
Si Si4 0.167600 0.024130 0.327437
Si Si5 0.574872 0.926824 0.928046
Si Si6 0.249050 0.658480 0.502096
Si Si7 0.165649 0.426930 0.564486
Si Si8 0.684280 0.029330 0.454369
O O1 0.447803 0.216866 0.849058
O O2 0.952831 0.105905 0.609927
O O3 0.366090 0.183987 0.692849
O O4 0.359435 0.522073 0.886821
O O5 0.123463 0.038393 0.248337
O O6 0.112515 0.386807 0.344084
O O7 0.440234 0.236028 0.332120
O O8 0.901053 0.009526 0.060380
O O9 0.489643 0.036975 0.892204
O O10 0.118599 0.176741 0.819524
O O11 0.261515 0.263898 0.491395
O O12 0.413710 0.959748 0.384313
O O13 0.428717 0.652957 0.763532
O O14 0.500000 0.000000 0.000000
O O15 0.259395 0.751360 0.476928
O O16 0.049983 0.717869 0.508042
O O17 0.000000 0.500000 0.500000
#
# Coordination Sequence:
#
# PCOD8042888 Si02
#       8
#     2   2   2   2   2   2   2   2
#     4  10  24  43  65  90 119 171 208 261 310 354
#     4  10  20  36  59  94 122 164 202 244 316 382
#     4  11  22  41  66  90 130 158 209 262 306 361
#     4  11  22  40  64  91 127 161 205 260 304 375
#     4  12  21  38  65  98 126 163 206 250 312 383
#     4  10  19  35  64  83 129 158 201 253 307 374
#     4  12  21  37  61  96 127 167 197 250 326 367
#     4  10  23  42  65  90 118 167 219 247 312 364
#
# _framework density 22.517938999999998
#
# number of rings (size 3 to 8) (size 9 to 14) (size 15 to 20)
#    0.000    1.250    5.000    1.500    0.000    1.000 
#    0.000    6.875    0.000    0.000    0.000    0.000 
#    0.000    0.000    0.000    0.000    0.000    0.000 
#
# Total GULP energy -198407.717043 kJ/mol
# GULP energy per Si atom -12400.482315 kJ/mol
# Density = 2.246669 g / cm^3
# Si number density = 22.517939 Si / 1000 Ang^3
#
#
#
# Elastic Constant Matrix: (Units=GPa)
#
#
# Indices 1 2 3 4 5 6 
#
# 1 86.1592 8.6886 56.9138 -7.5259 10.5759 -18.0487
# 2 8.6886 50.2977 19.2309 -9.6358 -1.5632 -2.8581
# 3 56.9138 19.2309 162.7384 -3.7447 9.2159 -16.5979
# 4 -7.5259 -9.6358 -3.7447 24.7252 0.1094 3.1353
# 5 10.5759 -1.5632 9.2159 0.1094 26.8196 -1.5164
# 6 -18.0487 -2.8581 -16.5979 3.1353 -1.5164 33.4518
#
#
#
# Elastic Compliance Matrix: (Units=1/GPa)
#
#
# Indices 1 2 3 4 5 6 
#
# 1 0.017104 -0.000149 -0.004983 0.003630 -0.004706 0.006190
# 2 -0.000149 0.022549 -0.002556 0.008359 0.002211 -0.000105
# 3 -0.004983 -0.002556 0.008347 -0.001412 -0.000972 0.001323
# 4 0.003630 0.008359 -0.001412 0.044884 -0.000770 -0.002270
# 5 -0.004706 0.002211 -0.000972 -0.000770 0.039553 -0.000967
# 6 0.006190 -0.000105 0.001323 -0.002270 -0.000967 0.034050
#
#
# Mechanical properties :
#
#
# Convention : Reuss Voigt Hill
#
# Bulk Modulus (GPa) = 30.65188 52.09576 41.37382
# Shear Modulus (GPa) = 25.94197 31.29011 28.61604
#
# Velocity S-wave (km/s) = 3.39788 3.73173 3.56871
# Velocity P-wave (km/s) = 5.38849 6.46167 5.94933
#
# Compressibility (1/GPa) = 0.03262443
#
# Stress axis : x y z
#
# Youngs Moduli (GPa) = 58.46472 44.34841 119.80337
#
# Poissons Ratio (x) = 0.00660 0.59697
# Poissons Ratio (y) = 0.00869 0.30624
# Poissons Ratio (z) = 0.29132 0.11336
#
# Static dielectric constant tensor:
#      x y z
#    x 2.636930 0.498660 1.178060 
#    y 0.498660 3.769880 -0.369460 
#    z 1.178060 -0.369460 3.854110 
# 
# 
# High freq. dielectric constant tensor:
#      x y z
#    x 1.875040 0.004390 0.007460 
#    y 0.004390 1.879070 -0.002910 
#    z 0.007460 -0.002910 1.895330 
# 
# From -- ./inp_files/589657.got.cif
#   From: 2010.06.25/outbox.cif.g09.slc.cpg/sg2_295_cif.got.tgz:589657.got - 2010.06.27 13:26:56.
