data_PCOD8042704
_publ_section_title
;
Structure prediction by ZEFSAII (Michael W. Deem and Ramdas Pophale) SiO2 
 PCOD8042704
Probable space group: P -1
;
_chemical_formula_sum "Si O2"
_cell_formula_units_Z 16
_cell_length_a 9.192642
_cell_length_b 10.802355
_cell_length_c 10.324991
_cell_angle_alpha 55.965618
_cell_angle_beta 120.981720
_cell_angle_gamma 106.957483
_cell_volume 728.433950
_symmetry_space_group_name_H-M "P -1"
_symmetry_group_IT_number 2
_symmetry_cell_setting 'triclinic'
loop_
_space_group_symop_operation_xyz
x,y,z
-x,-y,-z
loop_
_atom_site_type_symbol
_atom_site_label
_atom_site_fract_x
_atom_site_fract_y
_atom_site_fract_z
Si Si1 0.840071 0.062047 0.500216
Si Si2 0.338392 0.648934 0.999489
Si Si3 0.500955 0.816784 0.758754
Si Si4 0.806329 0.663949 0.859982
Si Si5 0.544186 0.644278 0.350875
Si Si6 0.400200 0.954389 0.112264
Si Si7 0.140427 0.228881 0.461574
Si Si8 0.911917 0.136861 0.106086
O O1 0.654169 0.110251 0.437160
O O2 0.942089 0.215151 0.419508
O O3 0.808650 0.947730 0.430984
O O4 0.948785 0.974254 0.706901
O O5 0.215937 0.506857 0.011588
O O6 0.484101 0.616624 0.192698
O O7 0.430524 0.675268 0.890042
O O8 0.226137 0.794530 0.896551
O O9 0.640432 0.762730 0.753904
O O10 0.577046 0.931049 0.829714
O O11 0.842239 0.676451 0.716442
O O12 0.972419 0.726173 0.976995
O O13 0.500000 0.500000 0.500000
O O14 0.448615 0.788660 0.279817
O O15 0.744917 0.688504 0.425168
O O16 0.196199 0.952101 0.997413
O O17 0.500000 0.000000 0.000000
#
# Coordination Sequence:
#
# PCOD8042704 Si02
#       8
#     2   2   2   2   2   2   2   2
#     4  10  21  37  62  94 115 158 211 254 307 357
#     4  11  22  40  63  89 122 167 211 250 307 371
#     4  12  23  39  64  89 127 166 198 260 310 380
#     4  11  24  38  58  92 129 160 201 252 321 366
#     4  11  20  36  63  92 123 157 209 264 299 357
#     4  11  21  40  64  92 120 164 215 251 306 366
#     4  10  19  35  60  88 117 152 207 252 294 357
#     4  10  22  39  65  91 118 161 211 261 297 362
#
# _framework density 21.964928
#
# number of rings (size 3 to 8) (size 9 to 14) (size 15 to 20)
#    0.000    1.250    5.000    3.750    0.000    2.500 
#    0.000    0.000    0.000    0.750    0.000    0.000 
#    0.000    0.000    0.000    0.000    0.000    0.000 
#
# Total GULP energy -198281.370343 kJ/mol
# GULP energy per Si atom -12392.585646 kJ/mol
# Density = 2.191493 g / cm^3
# Si number density = 21.964928 Si / 1000 Ang^3
#
#
#
# Elastic Constant Matrix: (Units=GPa)
#
#
# Indices 1 2 3 4 5 6 
#
# 1 61.4302 27.1741 14.0795 5.7023 19.4221 21.0351
# 2 27.1741 111.5918 41.7829 -3.3823 1.2209 42.7231
# 3 14.0795 41.7829 92.6561 -2.2120 12.4461 12.6204
# 4 5.7023 -3.3823 -2.2120 31.9075 11.0002 7.6524
# 5 19.4221 1.2209 12.4461 11.0002 27.7242 0.3309
# 6 21.0351 42.7231 12.6204 7.6524 0.3309 41.2686
#
#
#
# Elastic Compliance Matrix: (Units=1/GPa)
#
#
# Indices 1 2 3 4 5 6 
#
# 1 0.027963 -0.001589 0.001535 0.006037 -0.022436 -0.014017
# 2 -0.001589 0.018318 -0.005592 0.005789 0.000729 -0.017523
# 3 0.001535 -0.005592 0.014261 0.002985 -0.008417 0.000160
# 4 0.006037 0.005789 0.002985 0.043198 -0.022751 -0.017811
# 5 -0.022436 0.000729 -0.008417 -0.022751 0.064358 0.016958
# 6 -0.014017 -0.017523 0.000160 -0.017811 0.016958 0.052635
#
#
# Mechanical properties :
#
#
# Convention : Reuss Voigt Hill
#
# Bulk Modulus (GPa) = 20.30494 47.97234 34.13864
# Shear Modulus (GPa) = 20.12537 32.35617 26.24077
#
# Velocity S-wave (km/s) = 3.03025 3.84224 3.46015
# Velocity P-wave (km/s) = 4.63762 6.44760 5.61601
#
# Compressibility (1/GPa) = 0.04924909
#
# Stress axis : x y z
#
# Youngs Moduli (GPa) = 35.76205 54.59018 70.11970
#
# Poissons Ratio (x) = 0.08675 -0.10761
# Poissons Ratio (y) = 0.05683 0.39211
# Poissons Ratio (z) = -0.05488 0.30527
#
# Static dielectric constant tensor:
#      x y z
#    x 4.074960 0.627990 0.188280 
#    y 0.627990 4.310210 0.034710 
#    z 0.188280 0.034710 3.931170 
# 
# 
# High freq. dielectric constant tensor:
#      x y z
#    x 1.838140 0.049480 0.014050 
#    y 0.049480 1.862710 -0.007570 
#    z 0.014050 -0.007570 1.862650 
# 
# From -- ./inp_files/389178.got.cif
#   From: 2010.06.25/outbox.cif.g09.slc.cpg/sg2_195_cif.got.tgz:389178.got - 2010.06.27 13:26:56.
