data_PCOD8042408
_publ_section_title
;
Structure prediction by ZEFSAII (Michael W. Deem and Ramdas Pophale) SiO2 
 PCOD8042408
Probable space group: P -1
;
_chemical_formula_sum "Si O2"
_cell_formula_units_Z 16
_cell_length_a 16.833460
_cell_length_b 24.863096
_cell_length_c 13.624393
_cell_angle_alpha 157.998931
_cell_angle_beta 31.768531
_cell_angle_gamma 159.916697
_cell_volume 724.057676
_symmetry_space_group_name_H-M "P -1"
_symmetry_group_IT_number 2
_symmetry_cell_setting 'triclinic'
loop_
_space_group_symop_operation_xyz
x,y,z
-x,-y,-z
loop_
_atom_site_type_symbol
_atom_site_label
_atom_site_fract_x
_atom_site_fract_y
_atom_site_fract_z
Si Si1 0.166833 0.657826 0.820491
Si Si2 0.983718 0.927397 0.786874
Si Si3 0.243267 0.030074 0.058245
Si Si4 0.436460 0.124490 0.386436
Si Si5 0.194867 0.663561 0.490747
Si Si6 0.589806 0.616750 0.942499
Si Si7 0.793118 0.739354 0.137872
Si Si8 0.290064 0.504510 0.563409
O O1 0.370539 0.755887 0.698019
O O2 0.127560 0.501451 0.675107
O O3 0.912485 0.495063 0.760560
O O4 0.246354 0.858480 0.132435
O O5 0.830273 0.923775 0.876948
O O6 0.864106 0.684016 0.507550
O O7 0.000000 0.000000 0.000000
O O8 0.252246 0.122490 0.792717
O O9 0.502303 0.259449 0.204247
O O10 0.074105 0.931655 0.164881
O O11 0.232857 0.856613 0.746836
O O12 0.561087 0.220196 0.525107
O O13 0.284542 0.155248 0.580623
O O14 0.000000 0.500000 0.500000
O O15 0.316530 0.441694 0.965806
O O16 0.606983 0.537028 0.691139
O O17 0.698019 0.610455 0.913742
#
# Coordination Sequence:
#
# PCOD8042408 Si02
#       8
#     2   2   2   2   2   2   2   2
#     4  10  19  35  55  79 117 146 199 233 284 332
#     4   9  19  34  57  79 108 148 198 239 279 321
#     4  11  22  36  55  91 115 149 187 238 291 347
#     4  10  20  36  53  82 116 155 183 239 282 353
#     4  10  21  33  55  81 114 147 193 229 285 342
#     4   9  19  33  52  80 110 150 182 233 287 334
#     4  10  20  35  55  79 126 145 183 232 297 349
#     4  11  19  36  56  86 113 149 197 244 273 333
#
# _framework density 22.097687000000001
#
# number of rings (size 3 to 8) (size 9 to 14) (size 15 to 20)
#    0.000    2.000    2.500    2.625    7.000    0.500 
#    2.250    0.000    0.000    3.000    0.000    7.875 
#    0.000    0.000    0.000    0.000    0.000    0.000 
#
# Total GULP energy -198218.661586 kJ/mol
# GULP energy per Si atom -12388.666349 kJ/mol
# Density = 2.204739 g / cm^3
# Si number density = 22.097687 Si / 1000 Ang^3
#
#
#
# Elastic Constant Matrix: (Units=GPa)
#
#
# Indices 1 2 3 4 5 6 
#
# 1 97.4463 35.2422 27.7736 26.8049 -3.8388 -3.5072
# 2 35.2422 94.7728 31.6167 32.9897 -4.0960 -9.6394
# 3 27.7736 31.6167 91.1229 33.4061 -0.0132 5.4569
# 4 26.8049 32.9897 33.4061 41.4447 -1.9602 -3.6546
# 5 -3.8388 -4.0960 -0.0132 -1.9602 34.6463 12.3963
# 6 -3.5072 -9.6394 5.4569 -3.6546 12.3963 33.1282
#
#
#
# Elastic Compliance Matrix: (Units=1/GPa)
#
#
# Indices 1 2 3 4 5 6 
#
# 1 0.013033 -0.002547 -0.001058 -0.005518 0.000874 -0.000123
# 2 -0.002547 0.015559 -0.001433 -0.009279 -0.000242 0.003561
# 3 -0.001058 -0.001433 0.016403 -0.011785 0.000778 -0.004822
# 4 -0.005518 -0.009279 -0.011785 0.044894 -0.000536 0.003810
# 5 0.000874 -0.000242 0.000778 -0.000536 0.033437 -0.012677
# 6 -0.000123 0.003561 -0.004822 0.003810 -0.012677 0.037167
#
#
# Mechanical properties :
#
#
# Convention : Reuss Voigt Hill
#
# Bulk Modulus (GPa) = 28.63898 52.51189 40.57544
# Shear Modulus (GPa) = 27.44098 34.42445 30.93272
#
# Velocity S-wave (km/s) = 3.52775 3.95122 3.74547
# Velocity P-wave (km/s) = 5.43890 6.68066 6.09151
#
# Compressibility (1/GPa) = 0.03491744
#
# Stress axis : x y z
#
# Youngs Moduli (GPa) = 76.72960 64.27275 60.96320
#
# Poissons Ratio (x) = 0.16372 0.06450
# Poissons Ratio (y) = 0.19545 0.08739
# Poissons Ratio (z) = 0.08118 0.09213
#
# Static dielectric constant tensor:
#      x y z
#    x 3.544340 0.181270 0.462820 
#    y 0.181270 4.118580 0.313840 
#    z 0.462820 0.313840 3.688480 
# 
# 
# High freq. dielectric constant tensor:
#      x y z
#    x 1.861650 0.001590 -0.004020 
#    y 0.001590 1.846380 0.035060 
#    z -0.004020 0.035060 1.871280 
# 
# From -- ./inp_files/506737.got.cif
#   From: 2010.06.25/outbox.cif.g09.slc.cpg/sg2_254_cif.got.tgz:506737.got - 2010.06.27 13:26:56.
