data_PCOD8042228
_publ_section_title
;
Structure prediction by ZEFSAII (Michael W. Deem and Ramdas Pophale) SiO2 
 PCOD8042228
Probable space group: P -1
;
_chemical_formula_sum "Si O2"
_cell_formula_units_Z 16
_cell_length_a 17.052372
_cell_length_b 9.812248
_cell_length_c 8.252517
_cell_angle_alpha 88.142691
_cell_angle_beta 58.508123
_cell_angle_gamma 50.739127
_cell_volume 813.398412
_symmetry_space_group_name_H-M "P -1"
_symmetry_group_IT_number 2
_symmetry_cell_setting 'triclinic'
loop_
_space_group_symop_operation_xyz
x,y,z
-x,-y,-z
loop_
_atom_site_type_symbol
_atom_site_label
_atom_site_fract_x
_atom_site_fract_y
_atom_site_fract_z
Si Si1 0.942034 0.161701 0.841766
Si Si2 0.655664 0.361128 0.156523
Si Si3 0.372790 0.048202 0.661195
Si Si4 0.741541 0.997833 0.964467
Si Si5 0.996783 0.807717 0.868465
Si Si6 0.881504 0.592888 0.246085
Si Si7 0.374689 0.767801 0.486849
Si Si8 0.148887 0.123371 0.498851
O O1 0.010930 0.184996 0.632453
O O2 0.782030 0.325610 0.988543
O O3 0.984847 0.187367 0.961544
O O4 0.007226 0.941084 0.760014
O O5 0.516536 0.582786 0.256801
O O6 0.663835 0.308963 0.339839
O O7 0.659977 0.226734 0.035657
O O8 0.253142 0.265940 0.714412
O O9 0.500000 0.000000 0.500000
O O10 0.396606 0.885194 0.546335
O O11 0.348587 0.032922 0.876882
O O12 0.806416 0.888701 0.729546
O O13 0.849461 0.904239 0.996183
O O14 0.099572 0.582726 0.700816
O O15 0.875125 0.706684 0.395059
O O16 0.000000 0.500000 0.000000
O O17 0.258950 0.908598 0.473397
#
# Coordination Sequence:
#
# PCOD8042228 Si02
#       8
#     2   2   2   2   2   2   2   2
#     4  10  19  34  60  87 108 147 192 243 268 337
#     4   9  19  35  60  82 113 144 196 234 278 329
#     4  10  21  37  60  82 107 145 198 237 270 337
#     4  10  21  38  56  83 120 150 177 238 297 337
#     4  10  19  35  58  83 115 141 196 231 277 326
#     4  11  20  38  60  82 110 154 192 236 279 336
#     4   9  19  37  55  83 110 151 187 235 280 334
#     4  11  22  36  59  82 120 154 184 229 299 337
#
# _framework density 19.670558
#
# number of rings (size 3 to 8) (size 9 to 14) (size 15 to 20)
#    0.000    2.000    2.500    3.000    1.750    3.000 
#    2.250    2.500    5.500    0.000    0.000    0.000 
#    0.000    0.000    0.000    0.000    0.000    0.000 
#
# Total GULP energy -198321.135261 kJ/mol
# GULP energy per Si atom -12395.070954 kJ/mol
# Density = 1.962579 g / cm^3
# Si number density = 19.670558 Si / 1000 Ang^3
#
#
#
# Elastic Constant Matrix: (Units=GPa)
#
#
# Indices 1 2 3 4 5 6 
#
# 1 72.9190 28.8710 57.9823 -0.9284 -21.5897 7.6964
# 2 28.8710 94.9540 44.2231 27.8672 -12.2676 13.6654
# 3 57.9823 44.2231 138.5401 2.7196 -17.6717 9.8103
# 4 -0.9284 27.8672 2.7196 37.7364 3.8711 -7.1335
# 5 -21.5897 -12.2676 -17.6717 3.8711 34.6640 2.8200
# 6 7.6964 13.6654 9.8103 -7.1335 2.8200 14.2384
#
#
#
# Elastic Compliance Matrix: (Units=1/GPa)
#
#
# Indices 1 2 3 4 5 6 
#
# 1 0.025042 0.000357 -0.008022 -0.002717 0.012936 -0.012275
# 2 0.000357 0.030892 -0.003898 -0.033133 0.016697 -0.047064
# 3 -0.008022 -0.003898 0.011574 0.002190 -0.000831 0.001364
# 4 -0.002717 -0.033133 0.002190 0.066619 -0.025450 0.070177
# 5 0.012936 0.016697 -0.000831 -0.025450 0.048884 -0.044878
# 6 -0.012275 -0.047064 0.001364 0.070177 -0.044878 0.165145
#
#
# Mechanical properties :
#
#
# Convention : Reuss Voigt Hill
#
# Bulk Modulus (GPa) = 22.53085 63.17399 42.85242
# Shear Modulus (GPa) = 12.95078 29.01688 20.98383
#
# Velocity S-wave (km/s) = 2.56868 3.84493 3.26968
# Velocity P-wave (km/s) = 4.50294 7.20396 6.00722
#
# Compressibility (1/GPa) = 0.04438358
#
# Stress axis : x y z
#
# Youngs Moduli (GPa) = 39.93226 32.37048 86.39889
#
# Poissons Ratio (x) = -0.01156 0.69311
# Poissons Ratio (y) = -0.01426 0.33675
# Poissons Ratio (z) = 0.32035 0.12617
#
# Static dielectric constant tensor:
#      x y z
#    x 3.461740 0.121690 -0.189030 
#    y 0.121690 3.505340 0.203850 
#    z -0.189030 0.203850 3.560410 
# 
# 
# High freq. dielectric constant tensor:
#      x y z
#    x 1.747640 0.011450 -0.013060 
#    y 0.011450 1.766930 0.017530 
#    z -0.013060 0.017530 1.755550 
# 
# From -- ./inp_files/312464.got.cif
#   From: 2010.06.25/outbox.cif.g09.slc.cpg/sg2_157_cif.got.tgz:312464.got - 2010.06.27 13:26:56.
