data_PCOD8042856
_publ_section_title
;
Structure prediction by ZEFSAII (Michael W. Deem and Ramdas Pophale) SiO2 
 PCOD8042856
Probable space group: P -1
;
_chemical_formula_sum "Si O2"
_cell_formula_units_Z 16
_cell_length_a 9.455931
_cell_length_b 16.248723
_cell_length_c 11.580156
_cell_angle_alpha 74.194854
_cell_angle_beta 116.263461
_cell_angle_gamma 148.143234
_cell_volume 821.770155
_symmetry_space_group_name_H-M "P -1"
_symmetry_group_IT_number 2
_symmetry_cell_setting 'triclinic'
loop_
_space_group_symop_operation_xyz
x,y,z
-x,-y,-z
loop_
_atom_site_type_symbol
_atom_site_label
_atom_site_fract_x
_atom_site_fract_y
_atom_site_fract_z
Si Si1 0.340169 0.169375 0.679928
Si Si2 0.324894 0.803212 0.070843
Si Si3 0.703115 0.122034 0.203703
Si Si4 0.623801 0.988085 0.636889
Si Si5 0.304482 0.440445 0.054733
Si Si6 0.333091 0.162183 0.423363
Si Si7 0.705953 0.677475 0.292937
Si Si8 0.667845 0.647075 0.690162
O O1 0.551607 0.232724 0.834243
O O2 0.441604 0.186608 0.582204
O O3 0.338806 0.271765 0.644353
O O4 0.015602 0.985348 0.654483
O O5 0.538863 0.966932 0.148578
O O6 0.302273 0.804893 0.923112
O O7 0.999603 0.660039 0.062898
O O8 0.532943 0.077683 0.271270
O O9 0.034292 0.243714 0.314788
O O10 0.560127 0.862631 0.615679
O O11 0.500000 0.000000 0.500000
O O12 0.968327 0.168071 0.701815
O O13 0.483814 0.592274 0.137812
O O14 0.236177 0.324988 0.152361
O O15 0.500000 0.500000 0.000000
O O16 0.452829 0.311798 0.380761
O O17 0.612667 0.543581 0.368765
#
# Coordination Sequence:
#
# PCOD8042856 Si02
#       8
#     2   2   2   2   2   2   2   2
#     4  10  20  37  60  88 116 159 201 245 292 363
#     4  10  19  35  63  88 117 159 205 237 294 356
#     4  10  20  37  63  90 118 156 202 247 286 357
#     4  11  23  40  62  90 121 157 200 244 301 354
#     4   9  19  37  58  84 124 160 190 243 304 350
#     4  10  21  39  61  87 119 155 202 246 297 351
#     4   9  22  39  57  90 118 156 197 243 305 343
#     4   9  20  40  59  88 115 158 197 239 299 346
#
# _framework density 19.470164
#
# number of rings (size 3 to 8) (size 9 to 14) (size 15 to 20)
#    0.750    1.500    1.250    1.500    3.500    1.000 
#    2.250    1.875    0.000    0.000    0.000    0.000 
#    0.000    0.000    0.000    0.000    0.000    0.000 
#
# Total GULP energy -198246.057339 kJ/mol
# GULP energy per Si atom -12390.378584 kJ/mol
# Density = 1.942585 g / cm^3
# Si number density = 19.470164 Si / 1000 Ang^3
#
#
#
# Elastic Constant Matrix: (Units=GPa)
#
#
# Indices 1 2 3 4 5 6 
#
# 1 110.5115 59.1958 40.5889 -18.1123 -10.0790 2.5269
# 2 59.1958 102.4195 21.9611 1.6948 -2.1688 -1.4778
# 3 40.5889 21.9611 72.2156 -11.6344 5.1442 4.0996
# 4 -18.1123 1.6948 -11.6344 21.9756 -0.3998 1.0950
# 5 -10.0790 -2.1688 5.1442 -0.3998 37.2149 -5.5889
# 6 2.5269 -1.4778 4.0996 1.0950 -5.5889 36.9562
#
#
#
# Elastic Compliance Matrix: (Units=1/GPa)
#
#
# Indices 1 2 3 4 5 6 
#
# 1 0.019404 -0.010047 -0.005999 0.013724 0.005552 -0.000630
# 2 -0.010047 0.015889 -0.000769 -0.010016 -0.001576 0.001466
# 3 -0.005999 -0.000769 0.018743 0.005081 -0.004588 -0.002544
# 4 0.013724 -0.010016 0.005081 0.060490 0.002585 -0.003304
# 5 0.005552 -0.001576 -0.004588 0.002585 0.029616 0.004469
# 6 -0.000630 0.001466 -0.002544 -0.003304 0.004469 0.028217
#
#
# Mechanical properties :
#
#
# Convention : Reuss Voigt Hill
#
# Bulk Modulus (GPa) = 49.00892 58.73758 53.87325
# Shear Modulus (GPa) = 23.49694 30.12273 26.80983
#
# Velocity S-wave (km/s) = 3.47770 3.93761 3.71478
# Velocity P-wave (km/s) = 6.43053 7.13488 6.79185
#
# Compressibility (1/GPa) = 0.02040445
#
# Stress axis : x y z
#
# Youngs Moduli (GPa) = 51.53499 62.93509 53.35257
#
# Poissons Ratio (x) = 0.63233 0.32009
# Poissons Ratio (y) = 0.51779 0.04105
# Poissons Ratio (z) = 0.30918 0.04842
#
# Static dielectric constant tensor:
#      x y z
#    x 3.974180 -1.702970 -1.744110 
#    y -1.702970 9.040120 5.328100 
#    z -1.744110 5.328100 8.715810 
# 
# 
# High freq. dielectric constant tensor:
#      x y z
#    x 1.743940 0.002050 0.000270 
#    y 0.002050 1.754760 0.004900 
#    z 0.000270 0.004900 1.753820 
# 
# From -- ./inp_files/399063.got.cif
#   From: 2010.06.25/outbox.cif.g09.slc.cpg/sg2_200_cif.got.tgz:399063.got - 2010.06.27 13:26:56.
