data_PCOD8042869
_publ_section_title
;
Structure prediction by ZEFSAII (Michael W. Deem and Ramdas Pophale) SiO2 
 PCOD8042869
Probable space group: P -1
;
_chemical_formula_sum "Si O2"
_cell_formula_units_Z 16
_cell_length_a 9.356494
_cell_length_b 13.349020
_cell_length_c 12.712406
_cell_angle_alpha 97.407344
_cell_angle_beta 142.409070
_cell_angle_gamma 60.259717
_cell_volume 728.947941
_symmetry_space_group_name_H-M "P -1"
_symmetry_group_IT_number 2
_symmetry_cell_setting 'triclinic'
loop_
_space_group_symop_operation_xyz
x,y,z
-x,-y,-z
loop_
_atom_site_type_symbol
_atom_site_label
_atom_site_fract_x
_atom_site_fract_y
_atom_site_fract_z
Si Si1 0.732930 0.313335 0.924122
Si Si2 0.018649 0.618130 0.261391
Si Si3 0.733785 0.382769 0.260897
Si Si4 0.253025 0.271776 0.098544
Si Si5 0.186852 0.409877 0.493215
Si Si6 0.654316 0.210201 0.058413
Si Si7 0.708978 0.015609 0.191628
Si Si8 0.748059 0.276494 0.468109
O O1 0.539559 0.457710 0.886008
O O2 0.547543 0.312160 0.720083
O O3 0.799717 0.206643 0.033814
O O4 0.056200 0.263819 0.065704
O O5 0.152211 0.480408 0.374078
O O6 0.244337 0.652510 0.415124
O O7 0.968451 0.618811 0.106736
O O8 0.695109 0.733908 0.148056
O O9 0.624164 0.310484 0.135988
O O10 0.814506 0.337812 0.422641
O O11 0.045695 0.337798 0.380281
O O12 0.503413 0.126378 0.175719
O O13 0.417107 0.316721 0.263815
O O14 0.000000 0.500000 0.500000
O O15 0.851034 0.062933 0.203458
O O16 0.989971 0.882238 0.394894
O O17 0.500000 0.000000 0.000000
#
# Coordination Sequence:
#
# PCOD8042869 Si02
#       8
#     2   2   2   2   2   2   2   2
#     4  11  23  42  61  98 138 157 205 269 326 374
#     4  11  20  41  63  94 125 165 220 248 308 385
#     4  11  21  37  68  98 120 173 212 257 310 388
#     4  11  26  41  63  98 129 169 204 268 327 361
#     4  10  19  35  63  91 124 168 207 250 309 387
#     4  11  21  40  66  95 123 168 219 257 305 380
#     4  11  23  43  71  89 121 172 223 261 296 380
#     4  12  21  42  68  91 126 168 224 251 309 381
#
# _framework density 21.949441
#
# number of rings (size 3 to 8) (size 9 to 14) (size 15 to 20)
#    0.000    1.000   10.000    0.750    0.000    1.000 
#    2.250    1.250    0.000    0.000    0.000    0.000 
#    0.000    0.000    0.000    0.000    0.000    0.000 
#
# Total GULP energy -198350.201427 kJ/mol
# GULP energy per Si atom -12396.887589 kJ/mol
# Density = 2.189948 g / cm^3
# Si number density = 21.949441 Si / 1000 Ang^3
#
#
#
# Elastic Constant Matrix: (Units=GPa)
#
#
# Indices 1 2 3 4 5 6 
#
# 1 121.5833 25.6201 37.0054 2.4451 8.5403 30.2431
# 2 25.6201 72.1990 24.3036 7.5719 4.7966 26.9909
# 3 37.0054 24.3036 104.4993 24.2948 12.7115 9.9114
# 4 2.4451 7.5719 24.2948 33.0641 13.4021 -1.0989
# 5 8.5403 4.7966 12.7115 13.4021 26.4876 6.4704
# 6 30.2431 26.9909 9.9114 -1.0989 6.4704 24.1359
#
#
#
# Elastic Compliance Matrix: (Units=1/GPa)
#
#
# Indices 1 2 3 4 5 6 
#
# 1 0.013519 0.004116 -0.003914 -0.000595 0.002088 -0.020522
# 2 0.004116 0.028135 -0.003344 -0.009286 0.009197 -0.038136
# 3 -0.003914 -0.003344 0.013519 -0.008310 -0.001154 0.003023
# 4 -0.000595 -0.009286 -0.008310 0.049372 -0.024849 0.023452
# 5 0.002088 0.009197 -0.001154 -0.024849 0.055487 -0.028434
# 6 -0.020522 -0.038136 0.003023 0.023452 -0.028434 0.117242
#
#
# Mechanical properties :
#
#
# Convention : Reuss Voigt Hill
#
# Bulk Modulus (GPa) = 20.45441 52.45997 36.45719
# Shear Modulus (GPa) = 16.67477 30.82771 23.75124
#
# Velocity S-wave (km/s) = 2.75924 3.75171 3.29308
# Velocity P-wave (km/s) = 4.41478 6.53601 5.57717
#
# Compressibility (1/GPa) = 0.04888920
#
# Stress axis : x y z
#
# Youngs Moduli (GPa) = 73.97188 35.54258 73.97209
#
# Poissons Ratio (x) = -0.14629 0.28951
# Poissons Ratio (y) = -0.30445 0.24735
# Poissons Ratio (z) = 0.28950 0.11885
#
# Static dielectric constant tensor:
#      x y z
#    x 3.954320 0.553100 0.020650 
#    y 0.553100 3.851520 0.192670 
#    z 0.020650 0.192670 4.305060 
# 
# 
# High freq. dielectric constant tensor:
#      x y z
#    x 1.853250 0.040830 -0.007200 
#    y 0.040830 1.833570 0.020470 
#    z -0.007200 0.020470 1.878660 
# 
# From -- ./inp_files/399146.got.cif
#   From: 2010.06.25/outbox.cif.g09.slc.cpg/sg2_200_cif.got.tgz:399146.got - 2010.06.27 13:26:56.
