data_PCOD8042985
_publ_section_title
;
Structure prediction by ZEFSAII (Michael W. Deem and Ramdas Pophale) SiO2 
 PCOD8042985
Probable space group: P -1
;
_chemical_formula_sum "Si O2"
_cell_formula_units_Z 16
_cell_length_a 15.248421
_cell_length_b 15.202876
_cell_length_c 8.719243
_cell_angle_alpha 109.724393
_cell_angle_beta 101.578669
_cell_angle_gamma 139.293879
_cell_volume 829.583107
_symmetry_space_group_name_H-M "P -1"
_symmetry_group_IT_number 2
_symmetry_cell_setting 'triclinic'
loop_
_space_group_symop_operation_xyz
x,y,z
-x,-y,-z
loop_
_atom_site_type_symbol
_atom_site_label
_atom_site_fract_x
_atom_site_fract_y
_atom_site_fract_z
Si Si1 0.301810 0.857404 0.772142
Si Si2 0.868891 0.940954 0.812635
Si Si3 0.885333 0.497505 0.566006
Si Si4 0.433819 0.728468 0.917343
Si Si5 0.358859 0.512545 0.016224
Si Si6 0.519588 0.398370 0.337490
Si Si7 0.835404 0.629166 0.812653
Si Si8 0.694794 0.694675 0.332541
O O1 0.202534 0.686984 0.522784
O O2 0.124413 0.717166 0.747536
O O3 0.500000 0.000000 0.000000
O O4 0.390111 0.034177 0.829697
O O5 0.642805 0.726090 0.666758
O O6 0.876367 0.905891 0.622019
O O7 0.000000 0.000000 0.000000
O O8 0.946683 0.120122 0.942385
O O9 0.762723 0.411096 0.317303
O O10 0.853547 0.537458 0.720583
O O11 0.538127 0.753745 0.851167
O O12 0.359064 0.606697 0.971819
O O13 0.284433 0.473215 0.132496
O O14 0.581119 0.674725 0.200088
O O15 0.223013 0.304592 0.762480
O O16 0.729581 0.585900 0.611696
O O17 0.536579 0.492930 0.269313
#
# Coordination Sequence:
#
# PCOD8042985 Si02
#       8
#     2   2   2   2   2   2   2   2
#     4   9  17  36  63  87 105 133 175 226 272 330
#     4  12  21  31  56  81 102 147 200 236 270 311
#     4   9  19  35  61  87 107 133 180 225 274 325
#     4   9  19  35  57  81 109 146 177 221 275 329
#     4  10  21  37  53  75 120 152 181 225 277 318
#     4  10  19  36  54  76 111 143 193 241 266 302
#     4  11  21  35  54  81 113 146 182 234 271 319
#     4  10  20  37  54  75 109 158 191 228 271 314
#
# _framework density 19.286795999999999
#
# number of rings (size 3 to 8) (size 9 to 14) (size 15 to 20)
#    0.000    2.000    2.500    1.875    0.000    0.500 
#    2.250    0.625    0.000    6.750    0.000    0.000 
#    0.000    0.000    0.000    0.000    0.000    0.000 
#
# Total GULP energy -198257.965607 kJ/mol
# GULP energy per Si atom -12391.122850 kJ/mol
# Density = 1.924290 g / cm^3
# Si number density = 19.286796 Si / 1000 Ang^3
#
#
#
# Elastic Constant Matrix: (Units=GPa)
#
#
# Indices 1 2 3 4 5 6 
#
# 1 101.3013 29.6577 43.6058 2.2389 -22.4164 3.3898
# 2 29.6577 58.3281 29.8987 -0.9315 -11.0049 -3.2764
# 3 43.6058 29.8987 100.5963 2.1187 -23.3396 -4.6123
# 4 2.2389 -0.9315 2.1187 32.8738 1.4514 -3.0961
# 5 -22.4164 -11.0049 -23.3396 1.4514 36.9218 3.2450
# 6 3.3898 -3.2764 -4.6123 -3.0961 3.2450 28.2064
#
#
#
# Elastic Compliance Matrix: (Units=1/GPa)
#
#
# Indices 1 2 3 4 5 6 
#
# 1 0.014091 -0.004509 -0.003683 -0.001419 0.005253 -0.003580
# 2 -0.004509 0.021955 -0.004298 0.001401 0.000819 0.002449
# 3 -0.003683 -0.004298 0.014138 -0.000871 0.005318 0.001548
# 4 -0.001419 0.001401 -0.000871 0.031092 -0.002560 0.003898
# 5 0.005253 0.000819 0.005318 -0.002560 0.034322 -0.003896
# 6 -0.003580 0.002449 0.001548 0.003898 -0.003896 0.037297
#
#
# Mechanical properties :
#
#
# Convention : Reuss Voigt Hill
#
# Bulk Modulus (GPa) = 39.67830 51.83891 45.75861
# Shear Modulus (GPa) = 26.84190 30.07131 28.45660
#
# Velocity S-wave (km/s) = 3.73463 3.95291 3.84532
# Velocity P-wave (km/s) = 6.26211 6.91160 6.59486
#
# Compressibility (1/GPa) = 0.02520269
#
# Stress axis : x y z
#
# Youngs Moduli (GPa) = 70.96866 45.54833 70.73220
#
# Poissons Ratio (x) = 0.20539 0.26052
# Poissons Ratio (y) = 0.32002 0.30399
# Poissons Ratio (z) = 0.26139 0.19576
#
# Static dielectric constant tensor:
#      x y z
#    x 3.604290 -0.225000 -0.425860 
#    y -0.225000 3.296790 0.072590 
#    z -0.425860 0.072590 3.682540 
# 
# 
# High freq. dielectric constant tensor:
#      x y z
#    x 1.757160 -0.005960 -0.017590 
#    y -0.005960 1.721870 0.008410 
#    z -0.017590 0.008410 1.752260 
# 
# From -- ./inp_files/105204.got.cif
#   From: 2010.06.25/outbox.cif.g09.slc.cpg/sg2_53_cif.got.tgz:105204.got - 2010.06.27 13:26:56.
