data_PCOD8042804
_publ_section_title
;
Structure prediction by ZEFSAII (Michael W. Deem and Ramdas Pophale) SiO2 
 PCOD8042804
Probable space group: P -1
;
_chemical_formula_sum "Si O2"
_cell_formula_units_Z 16
_cell_length_a 9.083193
_cell_length_b 15.498436
_cell_length_c 5.319955
_cell_angle_alpha 109.999351
_cell_angle_beta 76.211974
_cell_angle_gamma 100.490142
_cell_volume 679.314968
_symmetry_space_group_name_H-M "P -1"
_symmetry_group_IT_number 2
_symmetry_cell_setting 'triclinic'
loop_
_space_group_symop_operation_xyz
x,y,z
-x,-y,-z
loop_
_atom_site_type_symbol
_atom_site_label
_atom_site_fract_x
_atom_site_fract_y
_atom_site_fract_z
Si Si1 0.621463 0.850787 0.845982
Si Si2 0.159906 0.563352 0.971441
Si Si3 0.821795 0.510875 0.610335
Si Si4 0.870520 0.245962 0.656365
Si Si5 0.571928 0.140016 0.565943
Si Si6 0.155957 0.280904 0.233187
Si Si7 0.795164 0.012163 0.203452
Si Si8 0.999307 0.122166 0.851916
O O1 0.543187 0.857866 0.616180
O O2 0.708392 0.759081 0.707193
O O3 0.503585 0.846906 0.121325
O O4 0.745980 0.939245 0.927384
O O5 0.249882 0.547707 0.179717
O O6 0.140859 0.672048 0.054077
O O7 0.253588 0.531019 0.660568
O O8 0.000000 0.500000 0.000000
O O9 0.787810 0.615871 0.774100
O O10 0.000000 0.500000 0.500000
O O11 0.708688 0.222927 0.559361
O O12 0.902629 0.147581 0.674161
O O13 0.003555 0.285725 0.458827
O O14 0.645449 0.042122 0.431102
O O15 0.115689 0.214398 0.944732
O O16 0.890659 0.100236 0.118284
O O17 0.900062 0.963667 0.314962
#
# Coordination Sequence:
#
# PCOD8042804 Si02
#       8
#     2   2   2   2   2   2   2   2
#     4  11  28  45  66  93 135 181 221 263 329 396
#     4  10  20  35  61 102 125 161 203 272 318 390
#     4  10  19  35  62 100 129 157 208 266 325 384
#     4  12  24  39  73  95 135 165 224 276 331 380
#     4  12  26  47  64  95 132 184 218 267 327 398
#     4  11  23  41  68 100 131 171 218 279 324 386
#     4  10  22  44  68  92 134 172 230 271 330 382
#     4  10  22  40  63 108 126 165 221 297 324 366
#
# _framework density 23.553135999999999
#
# number of rings (size 3 to 8) (size 9 to 14) (size 15 to 20)
#    0.000    1.250    3.750    3.000    3.500    1.500 
#    2.250    0.000    0.000    4.500    0.000    0.000 
#    0.000    0.000    0.000    0.000    0.000    0.000 
#
# Total GULP energy -198360.357378 kJ/mol
# GULP energy per Si atom -12397.522336 kJ/mol
# Density = 2.349953 g / cm^3
# Si number density = 23.553136 Si / 1000 Ang^3
#
#
#
# Elastic Constant Matrix: (Units=GPa)
#
#
# Indices 1 2 3 4 5 6 
#
# 1 73.8914 19.3078 3.1426 1.5039 6.0913 -6.8761
# 2 19.3078 102.9836 12.7366 10.9946 2.7543 -21.0305
# 3 3.1426 12.7366 70.9039 -15.8109 3.9826 -3.6837
# 4 1.5039 10.9946 -15.8109 41.9547 -7.4993 0.8929
# 5 6.0913 2.7543 3.9826 -7.4993 32.3262 -3.9134
# 6 -6.8761 -21.0305 -3.6837 0.8929 -3.9134 20.6177
#
#
#
# Elastic Compliance Matrix: (Units=1/GPa)
#
#
# Indices 1 2 3 4 5 6 
#
# 1 0.014509 -0.002142 -0.000116 -0.000475 -0.002381 0.002202
# 2 -0.002142 0.013590 -0.002747 -0.004788 0.000031 0.012871
# 3 -0.000116 -0.002747 0.016107 0.006765 -0.000194 -0.000293
# 4 -0.000475 -0.004788 0.006765 0.028789 0.005862 -0.003968
# 5 -0.002381 0.000031 -0.000194 0.005862 0.033405 0.005290
# 6 0.002202 0.012871 -0.000293 -0.003968 0.005290 0.063488
#
#
# Mechanical properties :
#
#
# Convention : Reuss Voigt Hill
#
# Bulk Modulus (GPa) = 29.24352 35.35029 32.29691
# Shear Modulus (GPa) = 26.13748 33.15253 29.64500
#
# Velocity S-wave (km/s) = 3.33487 3.75582 3.55159
# Velocity P-wave (km/s) = 5.22220 5.81804 5.52815
#
# Compressibility (1/GPa) = 0.03419561
#
# Stress axis : x y z
#
# Youngs Moduli (GPa) = 68.92373 73.58193 62.08659
#
# Poissons Ratio (x) = 0.15759 0.00721
# Poissons Ratio (y) = 0.14762 0.17056
# Poissons Ratio (z) = 0.00800 0.20214
#
# Static dielectric constant tensor:
#      x y z
#    x 4.009530 -0.017250 -0.284540 
#    y -0.017250 4.027970 0.901180 
#    z -0.284540 0.901180 2.186840 
# 
# 
# High freq. dielectric constant tensor:
#      x y z
#    x 1.902350 -0.013960 0.011690 
#    y -0.013960 1.932670 0.013500 
#    z 0.011690 0.013500 1.937960 
# 
# From -- ./inp_files/39782.got.cif
#   From: 2010.06.25/outbox.cif.g09.slc.cpg/sg2_20_cif.got.tgz:39782.got - 2010.06.27 13:26:56.
