data_PCOD8042004
_publ_section_title
;
Structure prediction by ZEFSAII (Michael W. Deem and Ramdas Pophale) SiO2 
 PCOD8042004
Probable space group: P -1
;
_chemical_formula_sum "Si O2"
_cell_formula_units_Z 16
_cell_length_a 13.220550
_cell_length_b 12.761847
_cell_length_c 14.689188
_cell_angle_alpha 54.168658
_cell_angle_beta 136.803304
_cell_angle_gamma 151.602187
_cell_volume 794.833064
_symmetry_space_group_name_H-M "P -1"
_symmetry_group_IT_number 2
_symmetry_cell_setting 'triclinic'
loop_
_space_group_symop_operation_xyz
x,y,z
-x,-y,-z
loop_
_atom_site_type_symbol
_atom_site_label
_atom_site_fract_x
_atom_site_fract_y
_atom_site_fract_z
Si Si1 0.134898 0.754441 0.335908
Si Si2 0.117870 0.945127 0.082379
Si Si3 0.098584 0.457241 0.955875
Si Si4 0.384835 0.976568 0.573240
Si Si5 0.830465 0.990881 0.460613
Si Si6 0.348704 0.716324 0.808631
Si Si7 0.799028 0.686248 0.597189
Si Si8 0.295771 0.619137 0.200177
O O1 0.172624 0.922665 0.229477
O O2 0.221454 0.805403 0.470093
O O3 0.845092 0.503151 0.269360
O O4 0.318820 0.791789 0.377584
O O5 0.950063 0.722639 0.024953
O O6 0.376860 0.155911 0.088758
O O7 0.000000 0.000000 0.000000
O O8 0.257148 0.651255 0.886045
O O9 0.832639 0.339395 0.868317
O O10 0.276985 0.585288 0.096811
O O11 0.361355 0.870555 0.700984
O O12 0.267109 0.029261 0.496018
O O13 0.932507 0.919687 0.588353
O O14 0.591957 0.825931 0.317101
O O15 0.070325 0.248172 0.449478
O O16 0.500000 0.500000 0.500000
O O17 0.864312 0.615180 0.742568
#
# Coordination Sequence:
#
# PCOD8042004 Si02
#       8
#     2   2   2   2   2   2   2   2
#     4   9  20  35  54  83 108 135 180 223 268 323
#     4  10  22  39  55  78 112 145 180 224 268 317
#     4  10  22  36  57  83 107 142 183 222 268 320
#     4  10  19  34  57  82 108 136 175 226 270 318
#     4  10  19  34  56  80 108 143 178 215 269 324
#     4  10  19  36  57  78 106 144 180 221 273 315
#     4   9  20  36  52  75 109 142 175 220 264 311
#     4  10  20  37  56  81 112 140 180 225 264 319
#
# _framework density 20.130013000000002
#
# number of rings (size 3 to 8) (size 9 to 14) (size 15 to 20)
#    0.000    2.250    0.000    3.375    0.000    5.000 
#    0.000    9.375    0.000    0.000    0.000    0.000 
#    0.000    0.000    0.000    0.000    0.000    0.000 
#
# Total GULP energy -198216.323568 kJ/mol
# GULP energy per Si atom -12388.520223 kJ/mol
# Density = 2.008420 g / cm^3
# Si number density = 20.130013 Si / 1000 Ang^3
#
#
#
# Elastic Constant Matrix: (Units=GPa)
#
#
# Indices 1 2 3 4 5 6 
#
# 1 121.4914 33.5361 38.2193 -1.6686 0.3908 1.0793
# 2 33.5361 80.4959 18.8244 4.1806 -11.6133 14.0804
# 3 38.2193 18.8244 43.2246 -7.7550 -5.4105 0.9885
# 4 -1.6686 4.1806 -7.7550 24.4017 5.6229 6.6268
# 5 0.3908 -11.6133 -5.4105 5.6229 30.5509 -3.1723
# 6 1.0793 14.0804 0.9885 6.6268 -3.1723 28.6921
#
#
#
# Elastic Compliance Matrix: (Units=1/GPa)
#
#
# Indices 1 2 3 4 5 6 
#
# 1 0.012304 -0.003364 -0.010080 -0.001582 -0.002765 0.001595
# 2 -0.003364 0.017017 -0.004292 -0.004091 0.005831 -0.006487
# 3 -0.010080 -0.004292 0.036301 0.011236 0.002749 -0.001057
# 4 -0.001582 -0.004091 0.011236 0.050452 -0.009981 -0.011076
# 5 -0.002765 0.005831 0.002749 -0.009981 0.037684 0.003620
# 6 0.001595 -0.006487 -0.001057 -0.011076 0.003620 0.040971
#
#
# Mechanical properties :
#
#
# Convention : Reuss Voigt Hill
#
# Bulk Modulus (GPa) = 33.16882 47.37461 40.27171
# Shear Modulus (GPa) = 20.81155 27.03774 23.92465
#
# Velocity S-wave (km/s) = 3.21885 3.66888 3.45121
# Velocity P-wave (km/s) = 5.50706 6.44461 5.99420
#
# Compressibility (1/GPa) = 0.03014880
#
# Stress axis : x y z
#
# Youngs Moduli (GPa) = 81.27552 58.76561 27.54735
#
# Poissons Ratio (x) = 0.19771 0.27768
# Poissons Ratio (y) = 0.27345 0.11823
# Poissons Ratio (z) = 0.81928 0.25221
#
# Static dielectric constant tensor:
#      x y z
#    x 3.790980 0.220390 0.046330 
#    y 0.220390 3.833100 -0.195880 
#    z 0.046330 -0.195880 3.647040 
# 
# 
# High freq. dielectric constant tensor:
#      x y z
#    x 1.790740 0.017080 0.006060 
#    y 0.017080 1.785640 -0.007800 
#    z 0.006060 -0.007800 1.770130 
# 
# From -- ./inp_files/84062.got.cif
#   From: 2010.06.25/outbox.cif.g09.slc.cpg/sg2_43_cif.got.tgz:84062.got - 2010.06.27 13:26:56.
