data_PCOD8042420
_publ_section_title
;
Structure prediction by ZEFSAII (Michael W. Deem and Ramdas Pophale) SiO2 
 PCOD8042420
Probable space group: P -1
;
_chemical_formula_sum "Si O2"
_cell_formula_units_Z 14
_cell_length_a 12.950881
_cell_length_b 13.355902
_cell_length_c 10.941005
_cell_angle_alpha 32.722476
_cell_angle_beta 94.854389
_cell_angle_gamma 116.801677
_cell_volume 722.974793
_symmetry_space_group_name_H-M "P -1"
_symmetry_group_IT_number 2
_symmetry_cell_setting 'triclinic'
loop_
_space_group_symop_operation_xyz
x,y,z
-x,-y,-z
loop_
_atom_site_type_symbol
_atom_site_label
_atom_site_fract_x
_atom_site_fract_y
_atom_site_fract_z
Si Si1 0.437862 0.216282 0.809520
Si Si2 0.591427 0.135248 0.490038
Si Si3 0.203200 0.263922 0.125870
Si Si4 0.075526 0.488319 0.199043
Si Si5 0.231097 0.962311 0.277242
Si Si6 0.942883 0.154816 0.284336
Si Si7 0.624683 0.148079 0.021281
O O1 0.500000 0.500000 0.500000
O O2 0.367940 0.030702 0.874142
O O3 0.304553 0.049795 0.062834
O O4 0.572649 0.260386 0.823319
O O5 0.500000 0.000000 0.500000
O O6 0.693609 0.085648 0.571546
O O7 0.489704 0.041805 0.690385
O O8 0.682722 0.431244 0.167666
O O9 0.245786 0.190721 0.090782
O O10 0.040417 0.145604 0.217105
O O11 0.199714 0.134621 0.382608
O O12 0.039975 0.333655 0.229786
O O13 0.112092 0.745024 0.903777
O O14 0.219054 0.594849 0.172175
O O15 0.940249 0.307837 0.465954
#
# Coordination Sequence:
#
# PCOD8042420 Si02
#       7
#     2   2   2   2   2   2   2
#     4  10  22  46  60  84 115 156 204 253 287 343
#     4  11  22  37  57  91 124 155 191 240 292 364
#     4  10  19  35  55  86 116 167 187 232 290 347
#     4  10  19  39  60  90 118 159 193 239 298 352
#     4  10  22  38  63  83 118 157 196 247 290 346
#     4   9  19  34  59  85 133 153 185 237 295 357
#     4  10  23  39  65  84 117 159 195 242 303 342
#
# _framework density 19.364436999999999
#
# number of rings (size 3 to 8) (size 9 to 14) (size 15 to 20)
#    0.000    2.000    1.429    1.714    4.000    1.143 
#   12.857    0.714    0.000    0.000    0.000    0.000 
#    0.000    0.000    0.000    0.000    0.000    0.000 
#
# Total GULP energy -173547.432870 kJ/mol
# GULP energy per Si atom -12396.245205 kJ/mol
# Density = 1.932036 g / cm^3
# Si number density = 19.364437 Si / 1000 Ang^3
#
#
#
# Elastic Constant Matrix: (Units=GPa)
#
#
# Indices 1 2 3 4 5 6 
#
# 1 101.9780 39.4002 43.1041 -1.0089 -1.4610 -14.6984
# 2 39.4002 79.5760 31.4060 0.3722 -1.0375 -4.7171
# 3 43.1041 31.4060 122.5055 6.8361 7.6062 -1.8832
# 4 -1.0089 0.3722 6.8361 12.1001 0.2953 -2.3070
# 5 -1.4610 -1.0375 7.6062 0.2953 37.9825 -3.6424
# 6 -14.6984 -4.7171 -1.8832 -2.3070 -3.6424 32.0168
#
#
#
# Elastic Compliance Matrix: (Units=1/GPa)
#
#
# Indices 1 2 3 4 5 6 
#
# 1 0.014497 -0.005212 -0.004047 0.004794 0.001783 0.006198
# 2 -0.005212 0.016080 -0.002354 0.000373 0.000702 -0.000055
# 3 -0.004047 -0.002354 0.010685 -0.006687 -0.002533 -0.002346
# 4 0.004794 0.000373 -0.006687 0.088375 0.001654 0.008418
# 5 0.001783 0.000702 -0.002533 0.001654 0.027293 0.003997
# 6 0.006198 -0.000055 -0.002346 0.008418 0.003997 0.034994
#
#
# Mechanical properties :
#
#
# Convention : Reuss Voigt Hill
#
# Bulk Modulus (GPa) = 55.44720 59.09779 57.27250
# Shear Modulus (GPa) = 22.60784 29.09652 25.85218
#
# Velocity S-wave (km/s) = 3.42057 3.88051 3.65778
# Velocity P-wave (km/s) = 6.65553 7.11778 6.89053
#
# Compressibility (1/GPa) = 0.01803518
#
# Stress axis : x y z
#
# Youngs Moduli (GPa) = 68.98062 62.18777 93.59112
#
# Poissons Ratio (x) = 0.32413 0.37881
# Poissons Ratio (y) = 0.35954 0.22029
# Poissons Ratio (z) = 0.27920 0.14637
#
# Static dielectric constant tensor:
#      x y z
#    x 3.766750 -0.138600 0.015250 
#    y -0.138600 3.365470 0.070370 
#    z 0.015250 0.070370 3.744060 
# 
# 
# High freq. dielectric constant tensor:
#      x y z
#    x 1.768270 -0.016540 0.001730 
#    y -0.016540 1.721610 0.002870 
#    z 0.001730 0.002870 1.770760 
# 
# From -- ./inp_files/273376.got.cif
#   From: 2010.06.25/outbox.cif.g09.slc.cpg/sg2_137_cif.got.tgz:273376.got - 2010.06.27 13:26:56.
