data_PCOD8042471
_publ_section_title
;
Structure prediction by ZEFSAII (Michael W. Deem and Ramdas Pophale) SiO2 
 PCOD8042471
Probable space group: P -1
;
_chemical_formula_sum "Si O2"
_cell_formula_units_Z 16
_cell_length_a 15.227733
_cell_length_b 8.826053
_cell_length_c 14.939996
_cell_angle_alpha 63.147690
_cell_angle_beta 35.513759
_cell_angle_gamma 47.091304
_cell_volume 829.171157
_symmetry_space_group_name_H-M "P -1"
_symmetry_group_IT_number 2
_symmetry_cell_setting 'triclinic'
loop_
_space_group_symop_operation_xyz
x,y,z
-x,-y,-z
loop_
_atom_site_type_symbol
_atom_site_label
_atom_site_fract_x
_atom_site_fract_y
_atom_site_fract_z
Si Si1 0.669226 0.841878 0.466980
Si Si2 0.559952 0.333607 0.872511
Si Si3 0.912279 0.902731 0.360993
Si Si4 0.818349 0.987242 0.899334
Si Si5 0.965349 0.382011 0.306094
Si Si6 0.207400 0.408984 0.231280
Si Si7 0.816951 0.140702 0.553228
Si Si8 0.456572 0.253238 0.227118
O O1 0.745485 0.964737 0.414005
O O2 0.838685 0.635895 0.325772
O O3 0.600331 0.759733 0.623129
O O4 0.500000 0.000000 0.500000
O O5 0.714337 0.154125 0.859939
O O6 0.625152 0.243642 0.741778
O O7 0.551907 0.540275 0.837989
O O8 0.354123 0.394041 0.043576
O O9 0.018913 0.994149 0.206569
O O10 0.051367 0.649955 0.326984
O O11 0.818743 0.006159 0.506820
O O12 0.671425 0.043349 0.085411
O O13 0.911521 0.749470 0.848947
O O14 0.820439 0.328912 0.461748
O O15 0.107787 0.318320 0.288565
O O16 0.313267 0.266917 0.269895
O O17 0.000000 0.000000 0.500000
#
# Coordination Sequence:
#
# PCOD8042471 Si02
#       8
#     2   2   2   2   2   2   2   2
#     4  11  26  42  56  76 109 151 201 241 266 313
#     4  11  18  32  55  88 129 139 170 218 281 354
#     4  10  20  36  58  81 116 145 182 225 281 333
#     4  10  19  35  56  90 115 143 173 222 286 344
#     4  10  22  35  57  83 119 143 182 230 281 330
#     4  10  20  32  55  89 116 148 174 216 286 349
#     4  11  19  32  55  90 121 143 174 219 281 345
#     4  11  20  34  59  82 118 146 183 220 282 335
#
# _framework density 19.296379000000002
#
# number of rings (size 3 to 8) (size 9 to 14) (size 15 to 20)
#    0.000    1.500    6.250    0.750    1.750    4.000 
#    0.000    3.750    0.000    0.000    0.000    0.000 
#    0.000    0.000    0.000    0.000    0.000    0.000 
#
# Total GULP energy -198401.327288 kJ/mol
# GULP energy per Si atom -12400.082956 kJ/mol
# Density = 1.925246 g / cm^3
# Si number density = 19.296379 Si / 1000 Ang^3
#
#
#
# Elastic Constant Matrix: (Units=GPa)
#
#
# Indices 1 2 3 4 5 6 
#
# 1 111.5354 49.4944 39.7175 17.5629 -9.9562 9.7137
# 2 49.4944 62.5596 27.0361 17.2681 -0.3301 8.9280
# 3 39.7175 27.0361 98.2954 21.5120 5.2949 7.5454
# 4 17.5629 17.2681 21.5120 26.5511 9.0225 4.0454
# 5 -9.9562 -0.3301 5.2949 9.0225 18.4007 7.4865
# 6 9.7137 8.9280 7.5454 4.0454 7.4865 32.9312
#
#
#
# Elastic Compliance Matrix: (Units=1/GPa)
#
#
# Indices 1 2 3 4 5 6 
#
# 1 0.017243 -0.009569 -0.003279 -0.007077 0.015346 -0.004360
# 2 -0.009569 0.027629 -0.001188 -0.010982 0.002517 -0.003619
# 3 -0.003279 -0.001188 0.013569 -0.007330 -0.001908 -0.000486
# 4 -0.007077 -0.010982 -0.007330 0.067170 -0.037729 0.007070
# 5 0.015346 0.002517 -0.001908 -0.037729 0.090136 -0.020628
# 6 -0.004360 -0.003619 -0.000486 0.007070 -0.020628 0.036566
#
#
# Mechanical properties :
#
#
# Convention : Reuss Voigt Hill
#
# Bulk Modulus (GPa) = 32.92492 56.09848 44.51170
# Shear Modulus (GPa) = 17.21126 25.98609 21.59867
#
# Velocity S-wave (km/s) = 2.98978 3.67370 3.34924
# Velocity P-wave (km/s) = 5.38685 6.86512 6.17042
#
# Compressibility (1/GPa) = 0.03037213
#
# Stress axis : x y z
#
# Youngs Moduli (GPa) = 57.99330 36.19349 73.69651
#
# Poissons Ratio (x) = 0.34632 0.24163
# Poissons Ratio (y) = 0.55491 0.08752
# Poissons Ratio (z) = 0.19014 0.04298
#
# Static dielectric constant tensor:
#      x y z
#    x 3.465240 0.394310 -0.054390 
#    y 0.394310 3.276990 0.266420 
#    z -0.054390 0.266420 3.958350 
# 
# 
# High freq. dielectric constant tensor:
#      x y z
#    x 1.730570 0.041610 -0.004490 
#    y 0.041610 1.718750 0.020380 
#    z -0.004490 0.020380 1.763490 
# 
# From -- ./inp_files/209107.got.cif
#   From: 2010.06.25/outbox.cif.g09.slc.cpg/sg2_105_cif.got.tgz:209107.got - 2010.06.27 13:26:56.
