data_PCOD8042964
_publ_section_title
;
Structure prediction by ZEFSAII (Michael W. Deem and Ramdas Pophale) SiO2 
 PCOD8042964
Probable space group: P -1
;
_chemical_formula_sum "Si O2"
_cell_formula_units_Z 14
_cell_length_a 12.322289
_cell_length_b 15.907609
_cell_length_c 8.889952
_cell_angle_alpha 126.570775
_cell_angle_beta 52.983713
_cell_angle_gamma 152.727876
_cell_volume 628.727839
_symmetry_space_group_name_H-M "P -1"
_symmetry_group_IT_number 2
_symmetry_cell_setting 'triclinic'
loop_
_space_group_symop_operation_xyz
x,y,z
-x,-y,-z
loop_
_atom_site_type_symbol
_atom_site_label
_atom_site_fract_x
_atom_site_fract_y
_atom_site_fract_z
Si Si1 0.955298 0.516477 0.892143
Si Si2 0.695332 0.744758 0.853491
Si Si3 0.987321 0.221528 0.241518
Si Si4 0.528092 0.828109 0.246318
Si Si5 0.703589 0.394045 0.497971
Si Si6 0.363744 0.313559 0.482673
Si Si7 0.836801 0.671860 0.117056
O O1 0.699204 0.312318 0.825560
O O2 0.166661 0.615953 0.710514
O O3 0.964848 0.647707 0.041922
O O4 0.000000 0.500000 0.000000
O O5 0.713602 0.798603 0.722374
O O6 0.448924 0.528385 0.874635
O O7 0.906470 0.795086 0.749177
O O8 0.714006 0.855305 0.066450
O O9 0.093227 0.404175 0.377991
O O10 0.695682 0.039006 0.317021
O O11 0.051220 0.223759 0.023192
O O12 0.453575 0.760959 0.408000
O O13 0.535719 0.352004 0.481504
O O14 0.500000 0.500000 0.500000
O O15 0.137116 0.214599 0.664845
#
# Coordination Sequence:
#
# PCOD8042964 Si02
#       7
#     2   2   2   2   2   2   2
#     4  11  24  43  67  87 125 165 204 256 313 366
#     4  10  19  38  63  94 128 161 207 253 307 360
#     4  12  22  38  66  92 128 161 205 258 304 363
#     4  11  25  40  62  97 124 160 211 252 309 370
#     4  12  22  42  67  89 126 166 202 254 312 363
#     4  10  19  35  69  92 117 168 211 243 306 369
#     4  10  20  38  63  91 122 164 206 249 308 362
#
# _framework density 22.267185000000001
#
# number of rings (size 3 to 8) (size 9 to 14) (size 15 to 20)
#    0.000    1.143    5.714    4.714    0.000    0.571 
#    0.000    5.000    0.000    0.000    0.000    0.000 
#    0.000    0.000    0.000    0.000    0.000    0.000 
#
# Total GULP energy -173566.198899 kJ/mol
# GULP energy per Si atom -12397.585636 kJ/mol
# Density = 2.221650 g / cm^3
# Si number density = 22.267185 Si / 1000 Ang^3
#
#
#
# Elastic Constant Matrix: (Units=GPa)
#
#
# Indices 1 2 3 4 5 6 
#
# 1 107.9042 30.2558 29.2027 -16.9444 8.5472 8.9497
# 2 30.2558 98.3451 41.0565 -25.8745 13.9440 -5.8423
# 3 29.2027 41.0565 128.7973 -32.2386 -1.0982 4.1111
# 4 -16.9444 -25.8745 -32.2386 18.7945 -4.7674 0.4759
# 5 8.5472 13.9440 -1.0982 -4.7674 45.7067 -9.9332
# 6 8.9497 -5.8423 4.1111 0.4759 -9.9332 12.9553
#
#
#
# Elastic Compliance Matrix: (Units=1/GPa)
#
#
# Indices 1 2 3 4 5 6 
#
# 1 0.012380 -0.001972 0.000280 0.008339 -0.003569 -0.012574
# 2 -0.001972 0.016894 0.000151 0.021312 -0.000945 0.007426
# 3 0.000280 0.000151 0.014134 0.025317 0.002013 -0.003997
# 4 0.008339 0.021312 0.025317 0.135030 0.005573 -0.004871
# 5 -0.003569 -0.000945 0.002013 0.005573 0.028467 0.023023
# 6 -0.012574 0.007426 -0.003997 -0.004871 0.023023 0.108323
#
#
# Mechanical properties :
#
#
# Convention : Reuss Voigt Hill
#
# Bulk Modulus (GPa) = 24.79791 59.56407 42.18099
# Shear Modulus (GPa) = 15.07145 31.12673 23.09909
#
# Velocity S-wave (km/s) = 2.60445 3.74287 3.22430
# Velocity P-wave (km/s) = 4.49499 6.74437 5.73112
#
# Compressibility (1/GPa) = 0.04032598
#
# Stress axis : x y z
#
# Youngs Moduli (GPa) = 80.77651 59.19195 70.75017
#
# Poissons Ratio (x) = 0.11675 -0.01981
# Poissons Ratio (y) = 0.15933 -0.01070
# Poissons Ratio (z) = -0.02262 -0.00895
#
# Static dielectric constant tensor:
#      x y z
#    x 3.988840 0.025550 0.066330 
#    y 0.025550 3.759890 -0.024040 
#    z 0.066330 -0.024040 5.145050 
# 
# 
# High freq. dielectric constant tensor:
#      x y z
#    x 1.874510 -0.003600 0.003590 
#    y -0.003600 1.850390 -0.016580 
#    z 0.003590 -0.016580 1.894660 
# 
# From -- ./inp_files/260025.got.cif
#   From: 2010.06.25/outbox.cif.g09.slc.cpg/sg2_131_cif.got.tgz:260025.got - 2010.06.27 13:26:56.
