data_PCOD8042338
_publ_section_title
;
Structure prediction by ZEFSAII (Michael W. Deem and Ramdas Pophale) SiO2 
 PCOD8042338
Probable space group: P -1
;
_chemical_formula_sum "Si O2"
_cell_formula_units_Z 16
_cell_length_a 9.799062
_cell_length_b 16.254370
_cell_length_c 9.585218
_cell_angle_alpha 99.400095
_cell_angle_beta 77.188992
_cell_angle_gamma 145.880439
_cell_volume 834.475244
_symmetry_space_group_name_H-M "P -1"
_symmetry_group_IT_number 2
_symmetry_cell_setting 'triclinic'
loop_
_space_group_symop_operation_xyz
x,y,z
-x,-y,-z
loop_
_atom_site_type_symbol
_atom_site_label
_atom_site_fract_x
_atom_site_fract_y
_atom_site_fract_z
Si Si1 0.902247 0.780359 0.788729
Si Si2 0.177655 0.287391 0.527504
Si Si3 0.628960 0.300714 0.258885
Si Si4 0.921547 0.021826 0.646613
Si Si5 0.819138 0.927297 0.145719
Si Si6 0.544392 0.346758 0.007705
Si Si7 0.069347 0.395298 0.214901
Si Si8 0.699750 0.479001 0.510207
O O1 0.799320 0.733681 0.642229
O O2 0.985062 0.729440 0.799732
O O3 0.684755 0.705874 0.917658
O O4 0.146162 0.958594 0.788414
O O5 0.428816 0.383237 0.573480
O O6 0.141973 0.370117 0.561251
O O7 0.952350 0.132584 0.617374
O O8 0.697002 0.394704 0.396478
O O9 0.810368 0.311894 0.223431
O O10 0.355247 0.130471 0.285783
O O11 0.661730 0.364588 0.123876
O O12 0.108486 0.098116 0.751742
O O13 0.000000 0.000000 0.500000
O O14 0.544719 0.770380 0.111217
O O15 0.000000 0.000000 0.000000
O O16 0.751694 0.501891 0.927471
O O17 0.185284 0.486934 0.357090
#
# Coordination Sequence:
#
# PCOD8042338 Si02
#       8
#     2   2   2   2   2   2   2   2
#     4  10  19  40  59  91 115 144 198 246 278 339
#     4  10  19  34  64  91 110 147 197 245 281 330
#     4  12  23  41  56  87 124 151 189 242 288 350
#     4  12  19  36  64  87 110 152 195 236 289 335
#     4  10  19  36  60  87 112 145 197 245 275 328
#     4  11  21  40  62  83 114 159 197 235 282 346
#     4  11  25  37  60  86 119 157 188 236 302 338
#     4  10  20  39  58  86 121 144 195 242 282 343
#
# _framework density 19.173728000000001
#
# number of rings (size 3 to 8) (size 9 to 14) (size 15 to 20)
#    0.000    1.250    6.250    1.875    0.000    0.000 
#    4.500    4.375    0.000    0.000    0.000    0.000 
#    0.000    0.000    0.000    0.000    0.000    0.000 
#
# Total GULP energy -198393.146689 kJ/mol
# GULP energy per Si atom -12399.571668 kJ/mol
# Density = 1.913009 g / cm^3
# Si number density = 19.173728 Si / 1000 Ang^3
#
#
#
# Elastic Constant Matrix: (Units=GPa)
#
#
# Indices 1 2 3 4 5 6 
#
# 1 96.7805 20.2753 33.8101 -0.5985 6.0382 -9.5899
# 2 20.2753 79.0576 25.0813 -2.5543 4.5412 -25.1272
# 3 33.8101 25.0813 70.5656 -4.2957 19.8247 -4.6238
# 4 -0.5985 -2.5543 -4.2957 33.0721 -4.8988 8.9389
# 5 6.0382 4.5412 19.8247 -4.8988 25.3149 -1.4741
# 6 -9.5899 -25.1272 -4.6238 8.9389 -1.4741 28.8950
#
#
#
# Elastic Compliance Matrix: (Units=1/GPa)
#
#
# Indices 1 2 3 4 5 6 
#
# 1 0.012867 -0.000300 -0.006473 -0.001271 0.002010 0.003469
# 2 -0.000300 0.020234 -0.006670 -0.003804 0.001960 0.017705
# 3 -0.006473 -0.006670 0.023868 0.001571 -0.015963 -0.005430
# 4 -0.001271 -0.003804 0.001571 0.034729 0.005665 -0.013933
# 5 0.002010 0.001960 -0.015963 0.005665 0.052311 0.000734
# 6 0.003469 0.017705 -0.005430 -0.013933 0.000734 0.054635
#
#
# Mechanical properties :
#
#
# Convention : Reuss Voigt Hill
#
# Bulk Modulus (GPa) = 33.24200 44.97078 39.10639
# Shear Modulus (GPa) = 21.22601 28.60555 24.91578
#
# Velocity S-wave (km/s) = 3.33083 3.86672 3.60873
# Velocity P-wave (km/s) = 5.67163 6.59095 6.14850
#
# Compressibility (1/GPa) = 0.03008242
#
# Stress axis : x y z
#
# Youngs Moduli (GPa) = 77.71534 49.42173 41.89697
#
# Poissons Ratio (x) = 0.01484 0.27121
# Poissons Ratio (y) = 0.02333 0.27946
# Poissons Ratio (z) = 0.50307 0.32965
#
# Static dielectric constant tensor:
#      x y z
#    x 3.339920 -0.267890 0.243730 
#    y -0.267890 4.233910 0.195450 
#    z 0.243730 0.195450 3.570370 
# 
# 
# High freq. dielectric constant tensor:
#      x y z
#    x 1.722760 -0.016550 0.026690 
#    y -0.016550 1.755920 0.007490 
#    z 0.026690 0.007490 1.746450 
# 
# From -- ./inp_files/182680.got.cif
#   From: 2010.06.25/outbox.cif.g09.slc.cpg/sg2_92_cif.got.tgz:182680.got - 2010.06.27 13:26:56.
