data_PCOD8042297
_publ_section_title
;
Structure prediction by ZEFSAII (Michael W. Deem and Ramdas Pophale) SiO2 
 PCOD8042297
Probable space group: P -1
;
_chemical_formula_sum "Si O2"
_cell_formula_units_Z 16
_cell_length_a 8.951194
_cell_length_b 9.899737
_cell_length_c 16.425506
_cell_angle_alpha 85.277645
_cell_angle_beta 136.341937
_cell_angle_gamma 117.389605
_cell_volume 814.288607
_symmetry_space_group_name_H-M "P -1"
_symmetry_group_IT_number 2
_symmetry_cell_setting 'triclinic'
loop_
_space_group_symop_operation_xyz
x,y,z
-x,-y,-z
loop_
_atom_site_type_symbol
_atom_site_label
_atom_site_fract_x
_atom_site_fract_y
_atom_site_fract_z
Si Si1 0.777453 0.672803 0.096584
Si Si2 0.928295 0.475085 0.588630
Si Si3 0.347801 0.760090 0.644470
Si Si4 0.224485 0.490643 0.129985
Si Si5 0.208591 0.193612 0.072054
Si Si6 0.772725 0.379495 0.707883
Si Si7 0.627141 0.989393 0.466443
Si Si8 0.812717 0.720252 0.285765
O O1 0.827042 0.770511 0.194777
O O2 0.013312 0.652203 0.176146
O O3 0.500000 0.500000 0.000000
O O4 0.747529 0.767083 0.007638
O O5 0.671164 0.338875 0.440195
O O6 0.848977 0.484575 0.648958
O O7 0.062578 0.650730 0.585142
O O8 0.126318 0.417178 0.673064
O O9 0.534916 0.770276 0.785879
O O10 0.444658 0.942315 0.643304
O O11 0.133428 0.304966 0.082909
O O12 0.242663 0.513505 0.233504
O O13 0.516751 0.640192 0.205461
O O14 0.000000 0.500000 0.000000
O O15 0.000000 0.000000 0.000000
O O16 0.490599 0.201044 0.590265
O O17 0.950694 0.104167 0.589604
O O18 0.500000 0.000000 0.500000
#
# Coordination Sequence:
#
# PCOD8042297 Si02
#       8
#     2   2   2   2   2   2   2   2
#     4  11  18  36  64  92 116 169 218 245 291 377
#     4   9  18  36  64  90 116 166 204 259 298 374
#     4  10  19  34  62  90 123 148 216 255 306 345
#     4  12  24  41  61  93 134 166 203 256 318 376
#     4  12  24  36  62  95 119 162 208 260 301 368
#     4  11  21  37  63  90 125 160 210 254 313 360
#     4  11  20  37  67  96 117 159 214 268 294 371
#     4  10  20  37  64  92 121 163 218 247 304 375
#
# _framework density 19.649054
#
# number of rings (size 3 to 8) (size 9 to 14) (size 15 to 20)
#    0.000    1.250    7.500    1.500    0.000    0.500 
#    0.000    0.625    2.750    2.250    0.000    0.000 
#    0.000    0.000    0.000    0.000    0.000    0.000 
#
# Total GULP energy -198246.650944 kJ/mol
# GULP energy per Si atom -12390.415684 kJ/mol
# Density = 1.960433 g / cm^3
# Si number density = 19.649054 Si / 1000 Ang^3
#
#
#
# Elastic Constant Matrix: (Units=GPa)
#
#
# Indices 1 2 3 4 5 6 
#
# 1 82.7891 37.2410 35.0352 7.5372 -18.6420 16.7247
# 2 37.2410 122.0970 38.2282 1.4663 -14.3073 19.2991
# 3 35.0352 38.2282 107.7191 -0.7422 -9.0702 10.9419
# 4 7.5372 1.4663 -0.7422 42.1980 12.4943 -11.2169
# 5 -18.6420 -14.3073 -9.0702 12.4943 40.9349 -1.5681
# 6 16.7247 19.2991 10.9419 -11.2169 -1.5681 24.2224
#
#
#
# Elastic Compliance Matrix: (Units=1/GPa)
#
#
# Indices 1 2 3 4 5 6 
#
# 1 0.021199 -0.001158 -0.003932 -0.011554 0.011270 -0.016559
# 2 -0.001158 0.011077 -0.002436 -0.003480 0.003548 -0.008307
# 3 -0.003932 -0.002436 0.011396 0.001123 -0.000460 -0.000002
# 4 -0.011554 -0.003480 0.001123 0.037985 -0.016799 0.026745
# 5 0.011270 0.003548 -0.000460 -0.016799 0.035218 -0.015900
# 6 -0.016559 -0.008307 -0.000002 0.026745 -0.015900 0.070693
#
#
# Mechanical properties :
#
#
# Convention : Reuss Voigt Hill
#
# Bulk Modulus (GPa) = 34.94172 59.29046 47.11609
# Shear Modulus (GPa) = 23.56721 34.94444 29.25583
#
# Velocity S-wave (km/s) = 3.46700 4.22172 3.86284
# Velocity P-wave (km/s) = 5.81793 7.34875 6.62768
#
# Compressibility (1/GPa) = 0.02861908
#
# Stress axis : x y z
#
# Youngs Moduli (GPa) = 47.17278 90.28010 87.75002
#
# Poissons Ratio (x) = 0.10453 0.34508
# Poissons Ratio (y) = 0.05462 0.21374
# Poissons Ratio (z) = 0.18551 0.21990
#
# Static dielectric constant tensor:
#      x y z
#    x 3.335590 0.200780 -0.181670 
#    y 0.200780 3.437250 -0.042060 
#    z -0.181670 -0.042060 3.989450 
# 
# 
# High freq. dielectric constant tensor:
#      x y z
#    x 1.723520 0.033130 -0.014180 
#    y 0.033130 1.760540 0.000290 
#    z -0.014180 0.000290 1.795230 
# 
# From -- ./inp_files/444735.got.cif
#   From: 2010.06.25/outbox.cif.g09.slc.cpg/sg2_223_cif.got.tgz:444735.got - 2010.06.27 13:26:56.
