data_PCOD8042034
_publ_section_title
;
Structure prediction by ZEFSAII (Michael W. Deem and Ramdas Pophale) SiO2 
 PCOD8042034
Probable space group: P -1
;
_chemical_formula_sum "Si O2"
_cell_formula_units_Z 14
_cell_length_a 4.924970
_cell_length_b 10.454884
_cell_length_c 13.340903
_cell_angle_alpha 109.605210
_cell_angle_beta 115.910999
_cell_angle_gamma 93.849491
_cell_volume 563.223976
_symmetry_space_group_name_H-M "P -1"
_symmetry_group_IT_number 2
_symmetry_cell_setting 'triclinic'
loop_
_space_group_symop_operation_xyz
x,y,z
-x,-y,-z
loop_
_atom_site_type_symbol
_atom_site_label
_atom_site_fract_x
_atom_site_fract_y
_atom_site_fract_z
Si Si1 0.703866 0.211641 0.472313
Si Si2 0.794397 0.627051 0.065837
Si Si3 0.734532 0.624150 0.840106
Si Si4 0.829735 0.958880 0.558494
Si Si5 0.145170 0.063926 0.829574
Si Si6 0.049600 0.454994 0.726108
Si Si7 0.435130 0.115498 0.199972
O O1 0.348347 0.184236 0.448922
O O2 0.884779 0.361700 0.582538
O O3 0.674285 0.205483 0.345516
O O4 0.939150 0.100130 0.505126
O O5 0.694408 0.773762 0.079146
O O6 0.015423 0.631037 0.199916
O O7 0.500000 0.500000 0.000000
O O8 0.933043 0.611904 0.971543
O O9 0.903408 0.587147 0.757857
O O10 0.701184 0.781670 0.864021
O O11 0.405532 0.511112 0.768548
O O12 0.500000 0.000000 0.500000
O O13 0.064919 0.061048 0.697666
O O14 0.832533 0.007070 0.827366
O O15 0.378950 0.966041 0.863854
#
# Coordination Sequence:
#
# PCOD8042034 Si02
#       7
#     2   2   2   2   2   2   2
#     4  10  21  36  58  88 122 153 196 244 294 359
#     4  10  24  43  63  90 120 157 204 250 300 354
#     4  11  24  41  62  87 124 161 204 249 286 356
#     4  10  19  34  56  87 121 156 195 242 295 355
#     4  10  22  39  63  88 122 158 196 250 299 354
#     4  11  23  40  63  90 121 162 199 247 303 346
#     4  10  23  41  61  93 121 157 202 241 301 358
#
# _framework density 24.856898000000001
#
# number of rings (size 3 to 8) (size 9 to 14) (size 15 to 20)
#    0.000    1.714    0.000    3.429    0.000   10.286 
#    0.000    0.000    0.000    0.000    0.000    0.000 
#    0.000    0.000    0.000    0.000    0.000    0.000 
#
# Total GULP energy -173444.931616 kJ/mol
# GULP energy per Si atom -12388.923687 kJ/mol
# Density = 2.480032 g / cm^3
# Si number density = 24.856898 Si / 1000 Ang^3
#
#
#
# Elastic Constant Matrix: (Units=GPa)
#
#
# Indices 1 2 3 4 5 6 
#
# 1 96.5784 -7.1674 11.7763 7.1730 0.2431 -6.3451
# 2 -7.1674 76.9352 26.6961 9.2893 13.2641 -2.5602
# 3 11.7763 26.6961 76.4739 15.6057 -1.3834 15.1254
# 4 7.1730 9.2893 15.6057 41.5201 -2.4059 -3.4898
# 5 0.2431 13.2641 -1.3834 -2.4059 23.4016 -0.6367
# 6 -6.3451 -2.5602 15.1254 -3.4898 -0.6367 32.0355
#
#
#
# Elastic Compliance Matrix: (Units=1/GPa)
#
#
# Indices 1 2 3 4 5 6 
#
# 1 0.011302 0.002781 -0.003276 -0.001130 -0.001899 0.003847
# 2 0.002781 0.018160 -0.007604 -0.001878 -0.010824 0.005172
# 3 -0.003276 -0.007604 0.019697 -0.005802 0.004610 -0.011097
# 4 -0.001130 -0.001878 -0.005802 0.027553 0.003714 0.005441
# 5 -0.001899 -0.010824 0.004610 0.003714 0.049486 -0.002029
# 6 0.003847 0.005172 -0.011097 0.005441 -0.002029 0.038182
#
#
# Mechanical properties :
#
#
# Convention : Reuss Voigt Hill
#
# Bulk Modulus (GPa) = 30.33650 34.73306 32.53478
# Shear Modulus (GPa) = 26.10086 33.97028 30.03557
#
# Velocity S-wave (km/s) = 3.24395 3.70081 3.47989
# Velocity P-wave (km/s) = 5.12464 5.68022 5.40957
#
# Compressibility (1/GPa) = 0.03296359
#
# Stress axis : x y z
#
# Youngs Moduli (GPa) = 88.48326 55.06456 50.76855
#
# Poissons Ratio (x) = -0.15316 0.16631
# Poissons Ratio (y) = -0.24611 0.38602
# Poissons Ratio (z) = 0.28985 0.41868
#
# Static dielectric constant tensor:
#      x y z
#    x 0.943750 -1.228150 0.656050 
#    y -1.228150 4.174370 0.121060 
#    z 0.656050 0.121060 4.425600 
# 
# 
# High freq. dielectric constant tensor:
#      x y z
#    x 2.002160 -0.002520 -0.011580 
#    y -0.002520 1.990480 -0.001380 
#    z -0.011580 -0.001380 1.985970 
# 
# From -- ./inp_files/77067.got.cif
#   From: 2010.06.25/outbox.cif.g09.slc.cpg/sg2_39_cif.got.tgz:77067.got - 2010.06.27 13:26:56.
