data_PCOD8042713
_publ_section_title
;
Structure prediction by ZEFSAII (Michael W. Deem and Ramdas Pophale) SiO2 
 PCOD8042713
Probable space group: P -1
;
_chemical_formula_sum "Si O2"
_cell_formula_units_Z 16
_cell_length_a 14.646063
_cell_length_b 14.248785
_cell_length_c 14.917321
_cell_angle_alpha 150.509739
_cell_angle_beta 151.411753
_cell_angle_gamma 38.178529
_cell_volume 730.175864
_symmetry_space_group_name_H-M "P -1"
_symmetry_group_IT_number 2
_symmetry_cell_setting 'triclinic'
loop_
_space_group_symop_operation_xyz
x,y,z
-x,-y,-z
loop_
_atom_site_type_symbol
_atom_site_label
_atom_site_fract_x
_atom_site_fract_y
_atom_site_fract_z
Si Si1 0.187746 0.989598 0.761317
Si Si2 0.242216 0.014779 0.629696
Si Si3 0.598730 0.455044 0.166962
Si Si4 0.284081 0.154246 0.484094
Si Si5 0.366595 0.171073 0.235830
Si Si6 0.186464 0.349034 0.729046
Si Si7 0.224315 0.566645 0.509691
Si Si8 0.684636 0.064381 0.833354
O O1 0.212434 0.761449 0.605634
O O2 0.962995 0.065968 0.629326
O O3 0.285232 0.038056 0.791722
O O4 0.284385 0.099049 0.013328
O O5 0.248355 0.222295 0.763279
O O6 0.403740 0.870301 0.602098
O O7 0.665042 0.657214 0.367436
O O8 0.642175 0.410294 0.270453
O O9 0.369113 0.464429 0.958272
O O10 0.710002 0.285585 0.061825
O O11 0.137544 0.216296 0.490218
O O12 0.466520 0.041478 0.595749
O O13 0.192195 0.018751 0.217239
O O14 0.316797 0.397797 0.386697
O O15 0.272706 0.067266 0.152187
O O16 0.991170 0.482173 0.689322
#
# Coordination Sequence:
#
# PCOD8042713 Si02
#       8
#     2   2   2   2   2   2   2   2
#     4  10  23  43  64  91 123 156 202 251 304 361
#     4  10  21  42  68  87 120 166 198 246 308 359
#     4  11  20  39  62  83 121 163 197 246 303 350
#     4  10  20  37  62  86 122 160 205 243 295 360
#     4  12  21  40  64  91 123 160 199 251 303 355
#     4  10  21  40  62  87 123 163 199 249 301 352
#     4  11  24  38  61  94 124 152 206 252 295 362
#     4  10  19  35  60  89 115 161 203 241 292 360
#
# _framework density 21.91253
#
# number of rings (size 3 to 8) (size 9 to 14) (size 15 to 20)
#    0.000    1.500    5.000    1.875    0.000    2.000 
#    0.000    8.750    0.000    0.000    0.000    0.000 
#    0.000    0.000    0.000    0.000    0.000    0.000 
#
# Total GULP energy -198360.972151 kJ/mol
# GULP energy per Si atom -12397.560759 kJ/mol
# Density = 2.186266 g / cm^3
# Si number density = 21.912530 Si / 1000 Ang^3
#
#
#
# Elastic Constant Matrix: (Units=GPa)
#
#
# Indices 1 2 3 4 5 6 
#
# 1 71.5312 39.9079 18.6734 1.7737 -27.0613 14.5671
# 2 39.9079 89.5430 38.5382 1.6309 -23.5504 -15.7335
# 3 18.6734 38.5382 72.4543 12.1867 -19.5425 -8.1323
# 4 1.7737 1.6309 12.1867 28.7438 -4.2303 -5.5484
# 5 -27.0613 -23.5504 -19.5425 -4.2303 20.7293 -0.1566
# 6 14.5671 -15.7335 -8.1323 -5.5484 -0.1566 32.7478
#
#
#
# Elastic Compliance Matrix: (Units=1/GPa)
#
#
# Indices 1 2 3 4 5 6 
#
# 1 0.041441 -0.013805 0.006167 -0.002570 0.043527 -0.023762
# 2 -0.013805 0.024607 -0.007551 0.006615 0.004296 0.017229
# 3 0.006167 -0.007551 0.022337 -0.006983 0.019092 -0.001916
# 4 -0.002570 0.006615 -0.006983 0.040216 0.005856 0.009429
# 5 0.043527 0.004296 0.019092 0.005856 0.129055 -0.010948
# 6 -0.023762 0.017229 -0.001916 0.009429 -0.010948 0.050454
#
#
# Mechanical properties :
#
#
# Convention : Reuss Voigt Hill
#
# Bulk Modulus (GPa) = 17.23846 47.52973 32.38409
# Shear Modulus (GPa) = 13.97342 25.53813 19.75577
#
# Velocity S-wave (km/s) = 2.52799 3.41758 3.00588
# Velocity P-wave (km/s) = 4.05031 6.10827 5.18247
#
# Compressibility (1/GPa) = 0.05800984
#
# Stress axis : x y z
#
# Youngs Moduli (GPa) = 24.13045 40.63938 44.76784
#
# Poissons Ratio (x) = 0.56102 -0.27610
# Poissons Ratio (y) = 0.33312 0.33802
# Poissons Ratio (z) = -0.14882 0.30685
#
# Static dielectric constant tensor:
#      x y z
#    x 4.210780 -0.072320 -0.316720 
#    y -0.072320 4.066280 -0.156990 
#    z -0.316720 -0.156990 3.762910 
# 
# 
# High freq. dielectric constant tensor:
#      x y z
#    x 1.865620 0.005600 -0.021100 
#    y 0.005600 1.866540 -0.012880 
#    z -0.021100 -0.012880 1.838880 
# 
# From -- ./inp_files/533703.got.cif
#   From: 2010.06.25/outbox.cif.g09.slc.cpg/sg2_267_cif.got.tgz:533703.got - 2010.06.27 13:26:56.
