data_PCOD8042625
_publ_section_title
;
Structure prediction by ZEFSAII (Michael W. Deem and Ramdas Pophale) SiO2 
 PCOD8042625
Probable space group: P -1
;
_chemical_formula_sum "Si O2"
_cell_formula_units_Z 16
_cell_length_a 16.370005
_cell_length_b 12.143822
_cell_length_c 7.811215
_cell_angle_alpha 107.328385
_cell_angle_beta 64.226965
_cell_angle_gamma 53.943938
_cell_volume 733.877430
_symmetry_space_group_name_H-M "P -1"
_symmetry_group_IT_number 2
_symmetry_cell_setting 'triclinic'
loop_
_space_group_symop_operation_xyz
x,y,z
-x,-y,-z
loop_
_atom_site_type_symbol
_atom_site_label
_atom_site_fract_x
_atom_site_fract_y
_atom_site_fract_z
Si Si1 0.809231 0.176441 0.745513
Si Si2 0.275511 0.990902 0.256740
Si Si3 0.786876 0.171270 0.135044
Si Si4 0.833026 0.737598 0.210682
Si Si5 0.724353 0.984317 0.114856
Si Si6 0.377656 0.278201 0.169423
Si Si7 0.536793 0.919958 0.658496
Si Si8 0.826385 0.291049 0.460047
O O1 0.725656 0.286184 0.059452
O O2 0.740139 0.330725 0.728307
O O3 0.781819 0.074388 0.667634
O O4 0.000000 0.000000 0.500000
O O5 0.206059 0.148005 0.534122
O O6 0.206366 0.100818 0.182096
O O7 0.473171 0.788807 0.979185
O O8 0.749591 0.307399 0.372941
O O9 0.978164 0.932823 0.829637
O O10 0.690849 0.155273 0.263775
O O11 0.853062 0.795039 0.048775
O O12 0.679564 0.812234 0.348762
O O13 0.000000 0.500000 0.000000
O O14 0.551723 0.098731 0.345967
O O15 0.364441 0.213043 0.318914
O O16 0.213100 0.530599 0.421099
O O17 0.403740 0.163794 0.932008
#
# Coordination Sequence:
#
# PCOD8042625 Si02
#       8
#     2   2   2   2   2   2   2   2
#     4   9  18  36  55  80 116 148 184 237 287 336
#     4   9  20  40  58  79 119 152 188 237 289 346
#     4   9  20  36  58  85 117 149 190 239 287 342
#     4  11  23  37  60  89 111 150 201 240 284 343
#     4  10  20  40  63  80 119 160 181 241 301 334
#     4   9  19  37  63  81 113 163 190 234 290 343
#     4   9  20  41  57  83 123 151 194 240 286 345
#     4  10  19  35  59  85 115 151 193 235 287 340
#
# _framework density 21.802005000000001
#
# number of rings (size 3 to 8) (size 9 to 14) (size 15 to 20)
#    0.000    2.500    0.000    1.875    1.750    1.000 
#    6.750   10.625    0.000    0.000    0.000    0.000 
#    0.000    0.000    0.000    0.000    0.000    0.000 
#
# Total GULP energy -198300.593475 kJ/mol
# GULP energy per Si atom -12393.787092 kJ/mol
# Density = 2.175238 g / cm^3
# Si number density = 21.802005 Si / 1000 Ang^3
#
#
#
# Elastic Constant Matrix: (Units=GPa)
#
#
# Indices 1 2 3 4 5 6 
#
# 1 94.0622 9.6957 13.8704 -12.0421 3.7738 15.9139
# 2 9.6957 118.3270 31.8079 -17.4690 21.7113 2.5059
# 3 13.8704 31.8079 45.0550 1.0577 12.7795 3.6952
# 4 -12.0421 -17.4690 1.0577 26.9304 4.5625 2.1677
# 5 3.7738 21.7113 12.7795 4.5625 21.6561 -8.7745
# 6 15.9139 2.5059 3.6952 2.1677 -8.7745 32.6964
#
#
#
# Elastic Compliance Matrix: (Units=1/GPa)
#
#
# Indices 1 2 3 4 5 6 
#
# 1 0.014508 0.003710 -0.003331 0.011771 -0.011111 -0.010731
# 2 0.003710 0.016231 -0.006568 0.016559 -0.020097 -0.008798
# 3 -0.003331 -0.006568 0.031896 -0.004510 -0.012550 -0.004549
# 4 0.011771 0.016559 -0.004510 0.061274 -0.037222 -0.020540
# 5 -0.011111 -0.020097 -0.012550 -0.037222 0.098621 0.037300
# 6 -0.010731 -0.008798 -0.004549 -0.020540 0.037300 0.048368
#
#
# Mechanical properties :
#
#
# Convention : Reuss Voigt Hill
#
# Bulk Modulus (GPa) = 19.89700 40.91025 30.40362
# Shear Modulus (GPa) = 16.66512 29.72794 23.19653
#
# Velocity S-wave (km/s) = 2.76775 3.69662 3.26538
# Velocity P-wave (km/s) = 4.40000 6.08483 5.30967
#
# Compressibility (1/GPa) = 0.05025884
#
# Stress axis : x y z
#
# Youngs Moduli (GPa) = 68.92614 61.61038 31.35200
#
# Poissons Ratio (x) = -0.22859 0.10442
# Poissons Ratio (y) = -0.25573 0.20591
# Poissons Ratio (z) = 0.22956 0.40465
#
# Static dielectric constant tensor:
#      x y z
#    x 3.625290 -0.327250 -1.009900 
#    y -0.327250 4.101810 -1.057310 
#    z -1.009900 -1.057310 2.316270 
# 
# 
# High freq. dielectric constant tensor:
#      x y z
#    x 1.867210 0.002400 -0.002890 
#    y 0.002400 1.865220 -0.028000 
#    z -0.002890 -0.028000 1.817380 
# 
# From -- ./inp_files/332145.got.cif
#   From: 2010.06.25/outbox.cif.g09.slc.cpg/sg2_167_cif.got.tgz:332145.got - 2010.06.27 13:26:56.
