data_PCOD8042482
_publ_section_title
;
Structure prediction by ZEFSAII (Michael W. Deem and Ramdas Pophale) SiO2 
 PCOD8042482
Probable space group: P -1
;
_chemical_formula_sum "Si O2"
_cell_formula_units_Z 14
_cell_length_a 15.825464
_cell_length_b 11.898225
_cell_length_c 8.289804
_cell_angle_alpha 96.704529
_cell_angle_beta 122.886695
_cell_angle_gamma 128.327431
_cell_volume 745.863721
_symmetry_space_group_name_H-M "P -1"
_symmetry_group_IT_number 2
_symmetry_cell_setting 'triclinic'
loop_
_space_group_symop_operation_xyz
x,y,z
-x,-y,-z
loop_
_atom_site_type_symbol
_atom_site_label
_atom_site_fract_x
_atom_site_fract_y
_atom_site_fract_z
Si Si1 0.158603 0.289342 0.770605
Si Si2 0.209530 0.077466 0.816435
Si Si3 0.324436 0.029903 0.201667
Si Si4 0.803410 0.285269 0.788340
Si Si5 0.567759 0.336570 0.069766
Si Si6 0.365996 0.662498 0.204280
Si Si7 0.435593 0.869432 0.762615
O O1 0.183861 0.185977 0.842030
O O2 0.287510 0.431560 0.773711
O O3 0.212919 0.425429 0.994945
O O4 0.957394 0.126855 0.486213
O O5 0.218210 0.027028 0.992975
O O6 0.382266 0.217900 0.911513
O O7 0.485794 0.239139 0.497664
O O8 0.394563 0.000269 0.146238
O O9 0.203255 0.848140 0.170238
O O10 0.710831 0.287748 0.814408
O O11 0.710579 0.200673 0.503691
O O12 0.000000 0.500000 0.000000
O O13 0.641406 0.321072 0.282042
O O14 0.543294 0.241832 0.862194
O O15 0.500000 0.000000 0.000000
#
# Coordination Sequence:
#
# PCOD8042482 Si02
#       7
#     2   2   2   2   2   2   2
#     4   9  21  36  61  84 117 137 200 226 274 339
#     4  10  20  38  61  85 110 152 182 239 278 321
#     4  10  21  36  55  80 114 149 187 224 284 337
#     4  11  23  35  55  82 118 146 184 236 279 330
#     4   9  19  35  62  80 113 147 185 228 277 334
#     4   9  20  38  56  81 116 146 188 230 275 339
#     4  10  19  35  57  79 108 149 185 223 280 335
#
# _framework density 18.770185000000001
#
# number of rings (size 3 to 8) (size 9 to 14) (size 15 to 20)
#    0.857    1.429    0.000    3.857    2.000    4.000 
#    0.000    2.143    0.000    2.571    0.000    0.000 
#    0.000    0.000    0.000    0.000    0.000    0.000 
#
# Total GULP energy -173502.480988 kJ/mol
# GULP energy per Si atom -12393.034356 kJ/mol
# Density = 1.872746 g / cm^3
# Si number density = 18.770185 Si / 1000 Ang^3
#
#
#
# Elastic Constant Matrix: (Units=GPa)
#
#
# Indices 1 2 3 4 5 6 
#
# 1 39.8021 19.7479 28.7998 -7.6877 -4.4931 1.2292
# 2 19.7479 126.5855 72.5431 -9.2328 8.2959 -10.2417
# 3 28.7998 72.5431 108.8175 -3.4918 -1.6182 -9.6421
# 4 -7.6877 -9.2328 -3.4918 36.4821 -2.3321 -0.7474
# 5 -4.4931 8.2959 -1.6182 -2.3321 32.2188 1.7002
# 6 1.2292 -10.2417 -9.6421 -0.7474 1.7002 23.3295
#
#
#
# Elastic Compliance Matrix: (Units=1/GPa)
#
#
# Indices 1 2 3 4 5 6 
#
# 1 0.033758 -0.000583 -0.008783 0.006337 0.005184 -0.005839
# 2 -0.000583 0.013606 -0.008654 0.002294 -0.004001 0.002792
# 3 -0.008783 -0.008654 0.017568 -0.002185 0.001530 0.003743
# 4 0.006337 0.002294 -0.002185 0.029274 0.002274 0.000542
# 5 0.005184 -0.004001 0.001530 0.002274 0.033230 -0.003746
# 6 -0.005839 0.002792 0.003743 0.000542 -0.003746 0.046235
#
#
# Mechanical properties :
#
#
# Convention : Reuss Voigt Hill
#
# Bulk Modulus (GPa) = 34.61268 57.48743 46.05005
# Shear Modulus (GPa) = 22.79551 28.68036 25.73794
#
# Velocity S-wave (km/s) = 3.48868 3.91317 3.70701
# Velocity P-wave (km/s) = 5.89136 7.14917 6.55053
#
# Compressibility (1/GPa) = 0.02889115
#
# Stress axis : x y z
#
# Youngs Moduli (GPa) = 29.62247 73.49811 56.92196
#
# Poissons Ratio (x) = 0.04287 0.49993
# Poissons Ratio (y) = 0.01728 0.49263
# Poissons Ratio (z) = 0.26016 0.63609
#
# Static dielectric constant tensor:
#      x y z
#    x 0.446900 -2.927060 2.621730 
#    y -2.927060 0.433510 2.689410 
#    z 2.621730 2.689410 1.053070 
# 
# 
# High freq. dielectric constant tensor:
#      x y z
#    x 1.707690 -0.000530 -0.003580 
#    y -0.000530 1.738270 -0.003670 
#    z -0.003580 -0.003670 1.726670 
# 
# From -- ./inp_files/214889.got.cif
#   From: 2010.06.25/outbox.cif.g09.slc.cpg/sg2_108_cif.got.tgz:214889.got - 2010.06.27 13:26:56.
