data_PCOD8042098
_publ_section_title
;
Structure prediction by ZEFSAII (Michael W. Deem and Ramdas Pophale) SiO2 
 PCOD8042098
Probable space group: P -1
;
_chemical_formula_sum "Si O2"
_cell_formula_units_Z 16
_cell_length_a 12.927735
_cell_length_b 14.598484
_cell_length_c 15.677690
_cell_angle_alpha 28.721927
_cell_angle_beta 137.032944
_cell_angle_gamma 117.783805
_cell_volume 818.112280
_symmetry_space_group_name_H-M "P -1"
_symmetry_group_IT_number 2
_symmetry_cell_setting 'triclinic'
loop_
_space_group_symop_operation_xyz
x,y,z
-x,-y,-z
loop_
_atom_site_type_symbol
_atom_site_label
_atom_site_fract_x
_atom_site_fract_y
_atom_site_fract_z
Si Si1 0.444411 0.742486 0.950630
Si Si2 0.530177 0.242597 0.381876
Si Si3 0.079974 0.759414 0.001863
Si Si4 0.325436 0.880869 0.951518
Si Si5 0.902956 0.058168 0.805334
Si Si6 0.319319 0.023678 0.476625
Si Si7 0.825097 0.517831 0.412676
Si Si8 0.728444 0.650595 0.432558
O O1 0.326116 0.853702 0.872667
O O2 0.345757 0.912839 0.675076
O O3 0.463257 0.503380 0.141318
O O4 0.633200 0.728833 0.093114
O O5 0.719306 0.057867 0.693758
O O6 0.564458 0.180786 0.352617
O O7 0.382075 0.201168 0.365842
O O8 0.186536 0.499109 0.309027
O O9 0.199622 0.799148 0.977187
O O10 0.047457 0.907380 0.945084
O O11 0.892746 0.830043 0.788075
O O12 0.245744 0.140174 0.716120
O O13 0.521342 0.727278 0.237687
O O14 0.828069 0.316487 0.530470
O O15 0.000000 0.000000 0.000000
O O16 0.834715 0.503946 0.532749
O O17 0.000000 0.500000 0.500000
#
# Coordination Sequence:
#
# PCOD8042098 Si02
#       8
#     2   2   2   2   2   2   2   2
#     4  10  22  39  57  83 119 152 194 235 281 340
#     4   9  21  39  58  86 119 149 186 235 292 338
#     4  11  22  38  61  85 116 153 192 237 286 339
#     4  10  23  40  57  84 115 156 195 235 284 339
#     4  10  19  34  57  91 115 139 187 238 292 343
#     4  10  22  38  61  87 113 155 190 232 290 344
#     4  10  20  33  58  88 115 149 186 238 294 341
#     4  10  21  40  57  83 119 151 191 237 291 340
#
# _framework density 19.557216
#
# number of rings (size 3 to 8) (size 9 to 14) (size 15 to 20)
#    0.000    2.000    1.250    1.500    1.750    3.500 
#    0.000    1.250    0.000    0.000    0.000    0.000 
#    0.000    0.000    0.000    0.000    0.000    0.000 
#
# Total GULP energy -198331.333973 kJ/mol
# GULP energy per Si atom -12395.708373 kJ/mol
# Density = 1.951270 g / cm^3
# Si number density = 19.557216 Si / 1000 Ang^3
#
#
#
# Elastic Constant Matrix: (Units=GPa)
#
#
# Indices 1 2 3 4 5 6 
#
# 1 134.0409 51.4694 68.5931 15.7765 -0.5209 16.1464
# 2 51.4694 83.2525 37.3107 8.1780 -2.3174 7.2542
# 3 68.5931 37.3107 112.6412 16.4276 -17.1175 4.5743
# 4 15.7765 8.1780 16.4276 33.2588 -5.2516 1.1053
# 5 -0.5209 -2.3174 -17.1175 -5.2516 29.0429 5.3048
# 6 16.1464 7.2542 4.5743 1.1053 5.3048 33.9577
#
#
#
# Elastic Compliance Matrix: (Units=1/GPa)
#
#
# Indices 1 2 3 4 5 6 
#
# 1 0.013465 -0.004882 -0.006662 -0.002372 -0.003811 -0.003790
# 2 -0.004882 0.016174 -0.002292 -0.000518 -0.000096 -0.000793
# 3 -0.006662 -0.002292 0.015292 -0.002552 0.008175 0.000403
# 4 -0.002372 -0.000518 -0.002552 0.033293 0.004468 -0.000199
# 5 -0.003811 -0.000096 0.008175 0.004468 0.041046 -0.005826
# 6 -0.003790 -0.000793 0.000403 -0.000199 -0.005826 0.032282
#
#
# Mechanical properties :
#
#
# Convention : Reuss Voigt Hill
#
# Bulk Modulus (GPa) = 57.93562 71.63122 64.78342
# Shear Modulus (GPa) = 27.03069 30.75597 28.89333
#
# Velocity S-wave (km/s) = 3.72174 3.96992 3.84783
# Velocity P-wave (km/s) = 6.93948 7.59735 7.27586
#
# Compressibility (1/GPa) = 0.01726054
#
# Stress axis : x y z
#
# Youngs Moduli (GPa) = 74.26780 61.82756 65.39522
#
# Poissons Ratio (x) = 0.30182 0.43565
# Poissons Ratio (y) = 0.36255 0.14985
# Poissons Ratio (z) = 0.49475 0.14168
#
# Static dielectric constant tensor:
#      x y z
#    x 3.545040 -0.186650 0.203960 
#    y -0.186650 3.343720 -0.263360 
#    z 0.203960 -0.263360 3.757220 
# 
# 
# High freq. dielectric constant tensor:
#      x y z
#    x 1.757580 -0.001660 0.006610 
#    y -0.001660 1.768320 0.004640 
#    z 0.006610 0.004640 1.761280 
# 
# From -- ./inp_files/205944.got.cif
#   From: 2010.06.25/outbox.cif.g09.slc.cpg/sg2_103_cif.got.tgz:205944.got - 2010.06.27 13:26:56.
