data_PCOD8042139
_publ_section_title
;
Structure prediction by ZEFSAII (Michael W. Deem and Ramdas Pophale) SiO2 
 PCOD8042139
Probable space group: P -1
;
_chemical_formula_sum "Si O2"
_cell_formula_units_Z 14
_cell_length_a 9.274751
_cell_length_b 11.361630
_cell_length_c 17.152336
_cell_angle_alpha 134.950949
_cell_angle_beta 49.355406
_cell_angle_gamma 95.506542
_cell_volume 713.177320
_symmetry_space_group_name_H-M "P -1"
_symmetry_group_IT_number 2
_symmetry_cell_setting 'triclinic'
loop_
_space_group_symop_operation_xyz
x,y,z
-x,-y,-z
loop_
_atom_site_type_symbol
_atom_site_label
_atom_site_fract_x
_atom_site_fract_y
_atom_site_fract_z
Si Si1 0.745677 0.261182 0.220548
Si Si2 0.656308 0.107188 0.446317
Si Si3 0.241649 0.579484 0.458851
Si Si4 0.512339 0.147547 0.345614
Si Si5 0.885639 0.680051 0.907439
Si Si6 0.029991 0.489162 0.358175
Si Si7 0.119758 0.357640 0.812912
O O1 0.539756 0.355821 0.267533
O O2 0.600067 0.288799 0.364321
O O3 0.834612 0.401006 0.252714
O O4 0.000000 0.000000 0.000000
O O5 0.798627 0.198309 0.428076
O O6 0.561145 0.079765 0.386257
O O7 0.403760 0.272924 0.667114
O O8 0.860495 0.854799 0.291982
O O9 0.045403 0.623997 0.614111
O O10 0.179599 0.538266 0.377679
O O11 0.221904 0.279203 0.484328
O O12 0.684997 0.930545 0.127470
O O13 0.784557 0.670593 0.855153
O O14 0.940085 0.508109 0.872512
O O15 0.000000 0.500000 0.000000
#
# Coordination Sequence:
#
# PCOD8042139 Si02
#       7
#     2   2   2   2   2   2   2
#     4   9  18  32  57  88 111 142 188 237 285 335
#     4  11  21  36  61  84 111 148 195 243 282 329
#     4  10  20  38  58  86 120 154 185 230 286 351
#     4  10  19  34  58  87 110 146 190 234 291 340
#     4  11  19  36  58  83 115 149 190 242 281 333
#     4  10  21  37  58  84 124 153 181 224 292 351
#     4  11  22  36  58  88 110 147 195 248 286 321
#
# _framework density 19.630462999999999
#
# number of rings (size 3 to 8) (size 9 to 14) (size 15 to 20)
#    0.000    1.714    4.286    0.857    0.000    2.286 
#    0.000   16.429    0.000    1.714    0.000    0.000 
#    0.000    0.000    0.000    0.000    0.000    0.000 
#
# Total GULP energy -173557.435522 kJ/mol
# GULP energy per Si atom -12396.959680 kJ/mol
# Density = 1.958578 g / cm^3
# Si number density = 19.630463 Si / 1000 Ang^3
#
#
#
# Elastic Constant Matrix: (Units=GPa)
#
#
# Indices 1 2 3 4 5 6 
#
# 1 101.8938 42.6420 23.4276 -1.0366 16.2006 -10.4941
# 2 42.6420 105.2583 30.1610 12.5834 14.5468 -9.4774
# 3 23.4276 30.1610 72.1058 -9.2313 18.5893 -3.8728
# 4 -1.0366 12.5834 -9.2313 30.5036 -9.1464 7.2130
# 5 16.2006 14.5468 18.5893 -9.1464 28.4344 -6.2989
# 6 -10.4941 -9.4774 -3.8728 7.2130 -6.2989 25.4547
#
#
#
# Elastic Compliance Matrix: (Units=1/GPa)
#
#
# Indices 1 2 3 4 5 6 
#
# 1 0.012653 -0.003975 -0.001355 -0.000081 -0.003733 0.002629
# 2 -0.003975 0.014731 -0.004792 -0.010115 -0.004303 0.004918
# 3 -0.001355 -0.004792 0.018960 0.006032 -0.007925 -0.003128
# 4 -0.000081 -0.010115 0.006032 0.045707 0.013196 -0.012568
# 5 -0.003733 -0.004303 -0.007925 0.013196 0.049865 0.004253
# 6 0.002629 0.004918 -0.003128 -0.012568 0.004253 0.046338
#
#
# Mechanical properties :
#
#
# Convention : Reuss Voigt Hill
#
# Bulk Modulus (GPa) = 38.31388 52.41323 45.36355
# Shear Modulus (GPa) = 23.02055 29.08036 26.05045
#
# Velocity S-wave (km/s) = 3.42818 3.85306 3.64681
# Velocity P-wave (km/s) = 5.93547 6.82295 6.39463
#
# Compressibility (1/GPa) = 0.02610020
#
# Stress axis : x y z
#
# Youngs Moduli (GPa) = 79.03379 67.88610 52.74176
#
# Poissons Ratio (x) = 0.26986 0.07146
# Poissons Ratio (y) = 0.31418 0.25272
# Poissons Ratio (z) = 0.10708 0.32528
#
# Static dielectric constant tensor:
#      x y z
#    x 3.409130 -0.110300 0.041350 
#    y -0.110300 3.896150 -0.032830 
#    z 0.041350 -0.032830 3.566380 
# 
# 
# High freq. dielectric constant tensor:
#      x y z
#    x 1.733190 -0.018230 0.009230 
#    y -0.018230 1.771120 0.002680 
#    z 0.009230 0.002680 1.771660 
# 
# From -- ./inp_files/253813.got.cif
#   From: 2010.06.25/outbox.cif.g09.slc.cpg/sg2_127_cif.got.tgz:253813.got - 2010.06.27 13:26:56.
