data_PCOD8042912
_publ_section_title
;
Structure prediction by ZEFSAII (Michael W. Deem and Ramdas Pophale) SiO2 
 PCOD8042912
Probable space group: P -1
;
_chemical_formula_sum "Si O2"
_cell_formula_units_Z 16
_cell_length_a 11.218834
_cell_length_b 9.473525
_cell_length_c 11.886860
_cell_angle_alpha 53.932439
_cell_angle_beta 47.845393
_cell_angle_gamma 59.245329
_cell_volume 742.674286
_symmetry_space_group_name_H-M "P -1"
_symmetry_group_IT_number 2
_symmetry_cell_setting 'triclinic'
loop_
_space_group_symop_operation_xyz
x,y,z
-x,-y,-z
loop_
_atom_site_type_symbol
_atom_site_label
_atom_site_fract_x
_atom_site_fract_y
_atom_site_fract_z
Si Si1 0.496448 0.342587 0.233239
Si Si2 0.235730 0.606568 0.130768
Si Si3 0.452007 0.857314 0.177839
Si Si4 0.938239 0.696382 0.634516
Si Si5 0.358832 0.044231 0.359974
Si Si6 0.118649 0.869933 0.264505
Si Si7 0.119179 0.798719 0.683389
Si Si8 0.587972 0.480502 0.329685
O O1 0.353654 0.489873 0.201333
O O2 0.462633 0.144144 0.330573
O O3 0.497471 0.364553 0.357208
O O4 0.669833 0.360213 0.058342
O O5 0.081857 0.509687 0.246189
O O6 0.169414 0.797902 0.141403
O O7 0.268306 0.840725 0.271184
O O8 0.573961 0.667117 0.185429
O O9 0.478266 0.918881 0.258831
O O10 0.500000 0.000000 0.000000
O O11 0.756679 0.811648 0.714217
O O12 0.995883 0.748836 0.449884
O O13 0.061149 0.757086 0.616267
O O14 0.256274 0.919285 0.547138
O O15 0.034475 0.082251 0.208007
O O16 0.216627 0.606585 0.755006
O O17 0.500000 0.500000 0.500000
#
# Coordination Sequence:
#
# PCOD8042912 Si02
#       8
#     2   2   2   2   2   2   2   2
#     4  10  23  39  63  96 134 171 217 278 328 378
#     4  10  21  38  63  98 129 169 228 278 317 379
#     4  12  23  39  69  96 129 175 226 268 318 394
#     4  10  19  35  64  95 129 171 223 272 321 383
#     4  10  19  39  63  94 126 168 225 269 316 378
#     4  11  19  39  63  95 129 169 232 263 319 393
#     4  11  22  40  62  96 133 171 211 273 328 389
#     4  12  25  45  65  98 140 171 219 268 335 400
#
# _framework density 21.543765
#
# number of rings (size 3 to 8) (size 9 to 14) (size 15 to 20)
#    0.000    1.250    5.000    1.875    3.500    0.500 
#    0.000    3.125    0.000    0.000    0.000    0.000 
#    0.000    0.000    0.000    0.000    0.000    0.000 
#
# Total GULP energy -198228.199021 kJ/mol
# GULP energy per Si atom -12389.262439 kJ/mol
# Density = 2.149473 g / cm^3
# Si number density = 21.543765 Si / 1000 Ang^3
#
#
#
# Elastic Constant Matrix: (Units=GPa)
#
#
# Indices 1 2 3 4 5 6 
#
# 1 79.4747 55.2733 29.8713 -4.3399 -1.7738 12.7335
# 2 55.2733 155.2007 35.4612 7.9708 0.2171 -3.1582
# 3 29.8713 35.4612 69.6121 -0.1894 -7.6160 10.5951
# 4 -4.3399 7.9708 -0.1894 29.6999 5.8814 4.5305
# 5 -1.7738 0.2171 -7.6160 5.8814 21.9157 0.3878
# 6 12.7335 -3.1582 10.5951 4.5305 0.3878 48.5321
#
#
#
# Elastic Compliance Matrix: (Units=1/GPa)
#
#
# Indices 1 2 3 4 5 6 
#
# 1 0.019884 -0.006421 -0.004611 0.005653 -0.001356 -0.005145
# 2 -0.006421 0.009620 -0.002716 -0.003925 -0.000563 0.003274
# 3 -0.004611 -0.002716 0.018901 -0.000630 0.006446 -0.003086
# 4 0.005653 -0.003925 -0.000630 0.038285 -0.009907 -0.005096
# 5 -0.001356 -0.000563 0.006446 -0.009907 0.050434 -0.000566
# 6 -0.005145 0.003274 -0.003086 -0.005096 -0.000566 0.023322
#
#
# Mechanical properties :
#
#
# Convention : Reuss Voigt Hill
#
# Bulk Modulus (GPa) = 47.82804 60.61099 54.21952
# Shear Modulus (GPa) = 25.65274 32.27499 28.96386
#
# Velocity S-wave (km/s) = 3.45443 3.87475 3.67061
# Velocity P-wave (km/s) = 6.17733 6.94357 6.57163
#
# Compressibility (1/GPa) = 0.02090824
#
# Stress axis : x y z
#
# Youngs Moduli (GPa) = 50.29058 103.95446 52.90827
#
# Poissons Ratio (x) = 0.66750 0.24398
# Poissons Ratio (y) = 0.32292 0.14368
# Poissons Ratio (z) = 0.23191 0.28230
#
# Static dielectric constant tensor:
#      x y z
#    x 3.887770 -0.026090 -0.299270 
#    y -0.026090 4.474780 0.120790 
#    z -0.299270 0.120790 3.605360 
# 
# 
# High freq. dielectric constant tensor:
#      x y z
#    x 1.829260 0.014780 -0.011320 
#    y 0.014780 1.863490 0.006530 
#    z -0.011320 0.006530 1.813010 
# 
# From -- ./inp_files/261999.got.cif
#   From: 2010.06.25/outbox.cif.g09.slc.cpg/sg2_131_cif.got.tgz:261999.got - 2010.06.27 13:26:56.
