data_PCOD8042112
_publ_section_title
;
Structure prediction by ZEFSAII (Michael W. Deem and Ramdas Pophale) SiO2 
 PCOD8042112
Probable space group: P -1
;
_chemical_formula_sum "Si O2"
_cell_formula_units_Z 16
_cell_length_a 10.709556
_cell_length_b 21.946537
_cell_length_c 10.654823
_cell_angle_alpha 35.628394
_cell_angle_beta 132.608001
_cell_angle_gamma 143.913411
_cell_volume 857.770985
_symmetry_space_group_name_H-M "P -1"
_symmetry_group_IT_number 2
_symmetry_cell_setting 'triclinic'
loop_
_space_group_symop_operation_xyz
x,y,z
-x,-y,-z
loop_
_atom_site_type_symbol
_atom_site_label
_atom_site_fract_x
_atom_site_fract_y
_atom_site_fract_z
Si Si1 0.411366 0.546415 0.258155
Si Si2 0.874430 0.090520 0.817490
Si Si3 0.685971 0.852660 0.930656
Si Si4 0.373100 0.881490 0.203062
Si Si5 0.025430 0.649000 0.604041
Si Si6 0.592244 0.586765 0.041333
Si Si7 0.993692 0.614859 0.350532
Si Si8 0.500259 0.215325 0.335957
O O1 0.500000 0.500000 0.500000
O O2 0.517490 0.698559 0.104402
O O3 0.462205 0.523580 0.190001
O O4 0.155022 0.462381 0.238747
O O5 0.787916 0.099998 0.872503
O O6 0.940608 0.214938 0.568741
O O7 0.075967 0.099378 0.980042
O O8 0.685690 0.951741 0.858146
O O9 0.637517 0.879303 0.714889
O O10 0.230086 0.744022 0.262618
O O11 0.520165 0.876200 0.413218
O O12 0.500000 0.000000 0.000000
O O13 0.941442 0.601821 0.484360
O O14 0.254037 0.675831 0.725336
O O15 0.824544 0.623719 0.149391
O O16 0.500000 0.500000 0.000000
O O17 0.600633 0.713188 0.806636
O O18 0.000000 0.500000 0.500000
#
# Coordination Sequence:
#
# PCOD8042112 Si02
#       8
#     2   2   2   2   2   2   2   2
#     4  11  19  36  60  86 113 150 197 239 276 346
#     4   9  19  36  54  79 111 150 189 228 293 348
#     4  10  19  34  58  81 109 146 189 234 295 334
#     4  10  21  38  56  78 112 152 194 235 285 352
#     4  10  19  35  57  83 113 149 191 241 285 344
#     4  11  21  37  57  86 121 152 189 239 299 346
#     4  10  20  37  60  81 115 157 193 231 298 350
#     4   9  20  37  58  82 116 152 185 244 299 332
#
# _framework density 18.652996999999999
#
# number of rings (size 3 to 8) (size 9 to 14) (size 15 to 20)
#    0.000    2.250    2.500    3.750    0.000    5.000 
#    2.250    5.000    0.000    0.000    0.000    0.000 
#    0.000    0.000    0.000    0.000    0.000    0.000 
#
# Total GULP energy -198250.252863 kJ/mol
# GULP energy per Si atom -12390.640804 kJ/mol
# Density = 1.861054 g / cm^3
# Si number density = 18.652997 Si / 1000 Ang^3
#
#
#
# Elastic Constant Matrix: (Units=GPa)
#
#
# Indices 1 2 3 4 5 6 
#
# 1 61.9127 40.9364 46.0378 -11.8106 -2.1349 -4.2459
# 2 40.9364 129.8331 58.1870 -9.1933 0.0857 -14.0319
# 3 46.0378 58.1870 109.8855 -7.5867 -4.3803 2.9022
# 4 -11.8106 -9.1933 -7.5867 36.4799 8.4272 2.7105
# 5 -2.1349 0.0857 -4.3803 8.4272 35.8137 -1.4927
# 6 -4.2459 -14.0319 2.9022 2.7105 -1.4927 31.0181
#
#
#
# Elastic Compliance Matrix: (Units=1/GPa)
#
#
# Indices 1 2 3 4 5 6 
#
# 1 0.026361 -0.003743 -0.008751 0.005784 -0.000760 0.002192
# 2 -0.003743 0.011568 -0.004685 0.000522 -0.000735 0.005078
# 3 -0.008751 -0.004685 0.015370 -0.000789 0.001362 -0.004621
# 4 0.005784 0.000522 -0.000789 0.031047 -0.007140 -0.001955
# 5 -0.000760 -0.000735 0.001362 -0.007140 0.029788 0.001494
# 6 0.002192 0.005078 -0.004621 -0.001955 0.001494 0.035512
#
#
# Mechanical properties :
#
#
# Convention : Reuss Voigt Hill
#
# Bulk Modulus (GPa) = 52.79550 65.77262 59.28406
# Shear Modulus (GPa) = 26.27190 31.09370 28.68280
#
# Velocity S-wave (km/s) = 3.75701 4.08726 3.92561
# Velocity P-wave (km/s) = 6.86918 7.59026 7.23870
#
# Compressibility (1/GPa) = 0.01894101
#
# Stress axis : x y z
#
# Youngs Moduli (GPa) = 37.93424 86.44400 65.06358
#
# Poissons Ratio (x) = 0.32353 0.56940
# Poissons Ratio (y) = 0.14198 0.30482
# Poissons Ratio (z) = 0.33198 0.40499
#
# Static dielectric constant tensor:
#      x y z
#    x 3.432380 -0.013560 0.158500 
#    y -0.013560 4.038170 -0.025710 
#    z 0.158500 -0.025710 3.490200 
# 
# 
# High freq. dielectric constant tensor:
#      x y z
#    x 1.709130 -0.005500 0.019780 
#    y -0.005500 1.730790 0.010280 
#    z 0.019780 0.010280 1.725200 
# 
# From -- ./inp_files/439217.got.cif
#   From: 2010.06.25/outbox.cif.g09.slc.cpg/sg2_220_cif.got.tgz:439217.got - 2010.06.27 13:26:56.
