data_PCOD8042293
_publ_section_title
;
Structure prediction by ZEFSAII (Michael W. Deem and Ramdas Pophale) SiO2 
 PCOD8042293
Probable space group: P -1
;
_chemical_formula_sum "Si O2"
_cell_formula_units_Z 12
_cell_length_a 18.990407
_cell_length_b 11.765578
_cell_length_c 21.704545
_cell_angle_alpha 159.152928
_cell_angle_beta 19.526555
_cell_angle_gamma 151.238044
_cell_volume 576.491800
_symmetry_space_group_name_H-M "P -1"
_symmetry_group_IT_number 2
_symmetry_cell_setting 'triclinic'
loop_
_space_group_symop_operation_xyz
x,y,z
-x,-y,-z
loop_
_atom_site_type_symbol
_atom_site_label
_atom_site_fract_x
_atom_site_fract_y
_atom_site_fract_z
Si Si1 0.521234 0.862820 0.648102
Si Si2 0.539436 0.168574 0.458852
Si Si3 0.650349 0.237653 0.030238
Si Si4 0.899174 0.851311 0.830098
Si Si5 0.965161 0.111329 0.397298
Si Si6 0.198986 0.130735 0.812712
O O1 0.500000 0.500000 0.500000
O O2 0.471388 0.936924 0.655572
O O3 0.757629 0.954294 0.515853
O O4 0.352087 0.081584 0.936647
O O5 0.494597 0.552752 0.695954
O O6 0.364842 0.985641 0.550875
O O7 0.764757 0.054488 0.245901
O O8 0.765444 0.487005 0.015548
O O9 0.500000 0.000000 0.000000
O O10 0.828377 0.033748 0.814732
O O11 0.951522 0.482767 0.612523
O O12 0.017677 0.961290 0.726424
O O13 0.971472 0.060389 0.935399
#
# Coordination Sequence:
#
# PCOD8042293 Si02
#       6
#     2   2   2   2   2   2
#     4  12  24  39  62  92 125 158 201 251 299 360
#     4   9  20  37  62  87 121 154 205 240 298 356
#     4  10  19  34  62  89 115 155 201 247 298 355
#     4  11  23  39  65  87 122 166 197 250 302 352
#     4  11  23  40  60  91 124 158 206 245 299 363
#     4   9  19  38  62  90 116 160 202 244 298 356
#
# _framework density 20.815560999999999
#
# number of rings (size 3 to 8) (size 9 to 14) (size 15 to 20)
#    1.000    0.667    1.667    3.500    0.000    2.667 
#    0.000    1.667    0.000    7.000    0.000    0.000 
#    0.000    0.000    0.000    0.000    0.000    0.000 
#
# Total GULP energy -148737.469790 kJ/mol
# GULP energy per Si atom -12394.789149 kJ/mol
# Density = 2.076818 g / cm^3
# Si number density = 20.815561 Si / 1000 Ang^3
#
#
#
# Elastic Constant Matrix: (Units=GPa)
#
#
# Indices 1 2 3 4 5 6 
#
# 1 87.4848 39.7236 24.8686 8.8788 -29.8967 10.4792
# 2 39.7236 114.1422 42.0307 4.0456 -19.9688 16.8003
# 3 24.8686 42.0307 101.0641 17.5908 -29.2088 0.6406
# 4 8.8788 4.0456 17.5908 27.8115 -3.3889 -3.5601
# 5 -29.8967 -19.9688 -29.2088 -3.3889 38.5022 0.5442
# 6 10.4792 16.8003 0.6406 -3.5601 0.5442 33.9666
#
#
#
# Elastic Compliance Matrix: (Units=1/GPa)
#
#
# Indices 1 2 3 4 5 6 
#
# 1 0.018258 -0.003892 0.001917 -0.005446 0.013197 -0.004526
# 2 -0.003892 0.012411 -0.004369 0.001638 0.000310 -0.004689
# 3 0.001917 -0.004369 0.015752 -0.008646 0.010408 0.000200
# 4 -0.005446 0.001638 -0.008646 0.042885 -0.006243 0.005628
# 5 0.013197 0.000310 0.010408 -0.006243 0.043809 -0.005778
# 6 -0.004526 -0.004689 0.000200 0.005628 -0.005778 0.033835
#
#
# Mechanical properties :
#
#
# Convention : Reuss Voigt Hill
#
# Bulk Modulus (GPa) = 29.64616 57.32631 43.48624
# Shear Modulus (GPa) = 26.19421 33.12727 29.66074
#
# Velocity S-wave (km/s) = 3.55124 3.99365 3.77892
# Velocity P-wave (km/s) = 5.57568 6.99039 6.32273
#
# Compressibility (1/GPa) = 0.03373118
#
# Stress axis : x y z
#
# Youngs Moduli (GPa) = 54.77152 80.57534 63.48445
#
# Poissons Ratio (x) = 0.31358 -0.12168
# Poissons Ratio (y) = 0.21316 0.27740
# Poissons Ratio (z) = -0.10498 0.35207
#
# Static dielectric constant tensor:
#      x y z
#    x 3.667600 -0.038630 -0.171280 
#    y -0.038630 3.659380 -0.105620 
#    z -0.171280 -0.105620 3.766530 
# 
# 
# High freq. dielectric constant tensor:
#      x y z
#    x 1.807370 0.002380 -0.024570 
#    y 0.002380 1.804590 -0.000290 
#    z -0.024570 -0.000290 1.812260 
# 
# From -- ./inp_files/599970.got.cif
#   From: 2010.06.25/outbox.cif.g09.slc.cpg/sg2_300_cif.got.tgz:599970.got - 2010.06.27 13:26:56.
