data_PCOD8042388
_publ_section_title
;
Structure prediction by ZEFSAII (Michael W. Deem and Ramdas Pophale) SiO2 
 PCOD8042388
Probable space group: P -1
;
_chemical_formula_sum "Si O2"
_cell_formula_units_Z 14
_cell_length_a 12.545586
_cell_length_b 11.508711
_cell_length_c 14.332175
_cell_angle_alpha 147.792505
_cell_angle_beta 39.068811
_cell_angle_gamma 128.484763
_cell_volume 691.422204
_symmetry_space_group_name_H-M "P -1"
_symmetry_group_IT_number 2
_symmetry_cell_setting 'triclinic'
loop_
_space_group_symop_operation_xyz
x,y,z
-x,-y,-z
loop_
_atom_site_type_symbol
_atom_site_label
_atom_site_fract_x
_atom_site_fract_y
_atom_site_fract_z
Si Si1 0.900248 0.822592 0.543958
Si Si2 0.393397 0.741300 0.637894
Si Si3 0.622718 0.647479 0.742057
Si Si4 0.386485 0.243000 0.967513
Si Si5 0.240808 0.697895 0.039924
Si Si6 0.242672 0.460389 0.696903
Si Si7 0.744236 0.391073 0.825727
O O1 0.751639 0.780392 0.687707
O O2 0.891283 0.681425 0.358650
O O3 0.083127 0.755623 0.421481
O O4 0.880331 0.079302 0.707072
O O5 0.361595 0.605586 0.473658
O O6 0.275209 0.666886 0.750486
O O7 0.587333 0.702924 0.514439
O O8 0.343221 0.994741 0.822428
O O9 0.663802 0.654950 0.828249
O O10 0.431254 0.754404 0.921790
O O11 0.269501 0.379510 0.063899
O O12 0.584979 0.256156 0.818063
O O13 0.253530 0.555154 0.028897
O O14 0.166674 0.556607 0.911684
#
# Coordination Sequence:
#
# PCOD8042388 Si02
#       7
#     2   2   2   2   2   2   2
#     4  11  20  35  55  83 110 131 173 230 264 303
#     4   9  17  33  58  82 102 135 177 220 259 309
#     4   9  19  34  59  83 100 135 182 215 261 317
#     4  10  20  41  55  70 109 148 177 216 257 309
#     4  10  19  35  54  80 110 142 170 208 269 320
#     4   9  18  32  56  85 105 129 175 220 267 313
#     4  10  23  36  53  78 108 145 181 209 259 322
#
# _framework density 20.24812
#
# number of rings (size 3 to 8) (size 9 to 14) (size 15 to 20)
#    0.000    2.286    0.000    4.286    0.000    1.143 
#    0.000   20.000    0.000    0.000    0.000    0.000 
#    0.000    0.000    0.000    0.000    0.000    0.000 
#
# Total GULP energy -173623.586884 kJ/mol
# GULP energy per Si atom -12401.684777 kJ/mol
# Density = 2.020203 g / cm^3
# Si number density = 20.248120 Si / 1000 Ang^3
#
#
#
# Elastic Constant Matrix: (Units=GPa)
#
#
# Indices 1 2 3 4 5 6 
#
# 1 104.4472 46.0341 71.6122 14.0895 0.0437 -16.7484
# 2 46.0341 67.6305 34.9872 22.5960 -0.9183 -16.0419
# 3 71.6122 34.9872 105.2782 19.1204 6.7441 -15.7100
# 4 14.0895 22.5960 19.1204 31.4180 0.2486 -11.0980
# 5 0.0437 -0.9183 6.7441 0.2486 30.7973 0.3321
# 6 -16.7484 -16.0419 -15.7100 -11.0980 0.3321 24.3270
#
#
#
# Elastic Compliance Matrix: (Units=1/GPa)
#
#
# Indices 1 2 3 4 5 6 
#
# 1 0.022287 -0.009769 -0.012628 0.005901 0.002358 0.003407
# 2 -0.009769 0.026736 0.000978 -0.013562 0.000649 0.005341
# 3 -0.012628 0.000978 0.019415 -0.006220 -0.004173 0.001709
# 4 0.005901 -0.013562 -0.006220 0.047175 0.000432 0.012619
# 5 0.002358 0.000649 -0.004173 0.000432 0.033406 -0.000902
# 6 0.003407 0.005341 0.001709 0.012619 -0.000902 0.053847
#
#
# Mechanical properties :
#
#
# Convention : Reuss Voigt Hill
#
# Bulk Modulus (GPa) = 39.06037 64.73588 51.89812
# Shear Modulus (GPa) = 19.66654 25.62328 22.64491
#
# Velocity S-wave (km/s) = 3.11991 3.56120 3.34783
# Velocity P-wave (km/s) = 5.68430 6.99644 6.37422
#
# Compressibility (1/GPa) = 0.02560140
#
# Stress axis : x y z
#
# Youngs Moduli (GPa) = 44.86871 37.40220 51.50571
#
# Poissons Ratio (x) = 0.36538 0.65042
# Poissons Ratio (y) = 0.43831 -0.05038
# Poissons Ratio (z) = 0.56661 -0.03658
#
# Static dielectric constant tensor:
#      x y z
#    x 3.604910 -0.037270 0.075210 
#    y -0.037270 3.602600 -0.153070 
#    z 0.075210 -0.153070 3.594130 
# 
# 
# High freq. dielectric constant tensor:
#      x y z
#    x 1.775730 -0.001260 0.007770 
#    y -0.001260 1.793680 -0.012330 
#    z 0.007770 -0.012330 1.782180 
# 
# From -- ./inp_files/189860.got.cif
#   From: 2010.06.25/outbox.cif.g09.slc.cpg/sg2_95_cif.got.tgz:189860.got - 2010.06.27 13:26:56.
