data_PCOD8042797
_publ_section_title
;
Structure prediction by ZEFSAII (Michael W. Deem and Ramdas Pophale) SiO2 
 PCOD8042797
Probable space group: P -1
;
_chemical_formula_sum "Si O2"
_cell_formula_units_Z 16
_cell_length_a 11.647103
_cell_length_b 15.517729
_cell_length_c 8.528846
_cell_angle_alpha 69.279063
_cell_angle_beta 72.921458
_cell_angle_gamma 26.928949
_cell_volume 652.090732
_symmetry_space_group_name_H-M "P -1"
_symmetry_group_IT_number 2
_symmetry_cell_setting 'triclinic'
loop_
_space_group_symop_operation_xyz
x,y,z
-x,-y,-z
loop_
_atom_site_type_symbol
_atom_site_label
_atom_site_fract_x
_atom_site_fract_y
_atom_site_fract_z
Si Si1 0.666535 0.205611 0.312748
Si Si2 0.664291 0.052264 0.644153
Si Si3 0.872967 0.191797 0.777972
Si Si4 0.921472 0.327084 0.472003
Si Si5 0.857457 0.682982 0.371988
Si Si6 0.784327 0.303688 0.071930
Si Si7 0.479364 0.295699 0.811711
Si Si8 0.800971 0.491239 0.916818
O O1 0.638986 0.174092 0.508993
O O2 0.392271 0.395379 0.221266
O O3 0.793098 0.223017 0.263321
O O4 0.850208 0.018763 0.257639
O O5 0.440562 0.135572 0.629241
O O6 0.640599 0.097685 0.809104
O O7 0.920514 0.828278 0.632808
O O8 0.942477 0.162116 0.950461
O O9 0.661534 0.256277 0.809793
O O10 0.774866 0.348094 0.620345
O O11 0.103823 0.256100 0.568568
O O12 0.723767 0.532588 0.346512
O O13 0.000000 0.500000 0.500000
O O14 0.951996 0.632587 0.185379
O O15 0.876529 0.342102 0.064300
O O16 0.500000 0.500000 0.000000
O O17 0.324828 0.364707 0.984435
#
# Coordination Sequence:
#
# PCOD8042797 Si02
#       8
#     2   2   2   2   2   2   2   2
#     4  10  21  39  64  95 128 168 227 260 313 392
#     4  11  26  45  68  99 129 176 222 269 324 391
#     4  11  22  38  66  96 134 174 211 270 322 393
#     4  11  25  45  67  99 130 176 223 264 328 390
#     4  12  22  47  77  87 126 174 233 276 308 385
#     4  10  19  35  61  94 128 162 221 261 318 382
#     4  12  25  41  63 100 144 169 203 271 343 390
#     4  11  23  40  67 100 124 178 216 273 326 380
#
# _framework density 24.536465
#
# number of rings (size 3 to 8) (size 9 to 14) (size 15 to 20)
#    0.000    1.000    6.250    1.125    1.750    4.500 
#    0.000    0.625    0.000    0.000    0.000    0.000 
#    0.000    0.000    0.000    0.000    0.000    0.000 
#
# Total GULP energy -198300.738854 kJ/mol
# GULP energy per Si atom -12393.796178 kJ/mol
# Density = 2.448062 g / cm^3
# Si number density = 24.536465 Si / 1000 Ang^3
#
#
#
# Elastic Constant Matrix: (Units=GPa)
#
#
# Indices 1 2 3 4 5 6 
#
# 1 59.9172 16.9206 29.7094 12.2990 -1.6742 11.5793
# 2 16.9206 63.7679 30.5990 31.4446 -2.2493 13.9903
# 3 29.7094 30.5990 79.7142 24.3844 -13.1296 3.9807
# 4 12.2990 31.4446 24.3844 38.8804 5.3267 6.0137
# 5 -1.6742 -2.2493 -13.1296 5.3267 39.4573 5.9861
# 6 11.5793 13.9903 3.9807 6.0137 5.9861 36.3384
#
#
#
# Elastic Compliance Matrix: (Units=1/GPa)
#
#
# Indices 1 2 3 4 5 6 
#
# 1 0.021804 -0.000602 -0.007488 -0.000750 -0.000640 -0.005666
# 2 -0.000602 0.029965 -0.003663 -0.021103 0.004557 -0.008202
# 3 -0.007488 -0.003663 0.020539 -0.008821 0.007223 0.001816
# 4 -0.000750 -0.021103 -0.008821 0.049647 -0.011324 0.002979
# 5 -0.000640 0.004557 0.007223 -0.011324 0.030338 -0.005465
# 6 -0.005666 -0.008202 0.001816 0.002979 -0.005465 0.032691
#
#
# Mechanical properties :
#
#
# Convention : Reuss Voigt Hill
#
# Bulk Modulus (GPa) = 20.49094 39.76193 30.12643
# Shear Modulus (GPa) = 22.24631 31.34657 26.79644
#
# Velocity S-wave (km/s) = 3.01435 3.57816 3.30829
# Velocity P-wave (km/s) = 4.52597 5.77160 5.18632
#
# Compressibility (1/GPa) = 0.04880206
#
# Stress axis : x y z
#
# Youngs Moduli (GPa) = 45.86368 33.37195 48.68813
#
# Poissons Ratio (x) = 0.02009 0.36459
# Poissons Ratio (y) = 0.02761 0.17833
# Poissons Ratio (z) = 0.34344 0.12223
#
# Static dielectric constant tensor:
#      x y z
#    x 4.530470 0.122670 -0.445000 
#    y 0.122670 4.381570 -0.068280 
#    z -0.445000 -0.068280 4.367350 
# 
# 
# High freq. dielectric constant tensor:
#      x y z
#    x 1.952360 0.007660 -0.005870 
#    y 0.007660 1.987850 0.019960 
#    z -0.005870 0.019960 1.978100 
# 
# From -- ./inp_files/272437.got.cif
#   From: 2010.06.25/outbox.cif.g09.slc.cpg/sg2_137_cif.got.tgz:272437.got - 2010.06.27 13:26:56.
