data_PCOD8042611
_publ_section_title
;
Structure prediction by ZEFSAII (Michael W. Deem and Ramdas Pophale) SiO2 
 PCOD8042611
Probable space group: P -1
;
_chemical_formula_sum "Si O2"
_cell_formula_units_Z 12
_cell_length_a 17.734148
_cell_length_b 9.323666
_cell_length_c 9.190561
_cell_angle_alpha 78.432847
_cell_angle_beta 58.443683
_cell_angle_gamma 129.176466
_cell_volume 596.876272
_symmetry_space_group_name_H-M "P -1"
_symmetry_group_IT_number 2
_symmetry_cell_setting 'triclinic'
loop_
_space_group_symop_operation_xyz
x,y,z
-x,-y,-z
loop_
_atom_site_type_symbol
_atom_site_label
_atom_site_fract_x
_atom_site_fract_y
_atom_site_fract_z
Si Si1 0.797783 0.172386 0.705986
Si Si2 0.244839 0.770797 0.565527
Si Si3 0.513278 0.128032 0.753444
Si Si4 0.262879 0.174548 0.962314
Si Si5 0.920465 0.759964 0.232306
Si Si6 0.398748 0.149664 0.597328
O O1 0.805269 0.187831 0.520951
O O2 0.000000 0.500000 0.500000
O O3 0.656351 0.093720 0.918474
O O4 0.728094 0.912230 0.884791
O O5 0.448004 0.989228 0.282823
O O6 0.088744 0.413011 0.803957
O O7 0.248990 0.863457 0.693915
O O8 0.705032 0.486063 0.549573
O O9 0.466916 0.124616 0.642921
O O10 0.297685 0.131773 0.789632
O O11 0.423313 0.531402 0.739925
O O12 0.056165 0.945209 0.198824
O O13 0.000000 0.000000 0.000000
#
# Coordination Sequence:
#
# PCOD8042611 Si02
#       6
#     2   2   2   2   2   2
#     4  11  20  37  56  81 110 153 181 221 279 336
#     4  10  21  34  57  84 114 141 188 228 268 327
#     4   9  20  34  58  79 111 146 183 223 275 321
#     4  10  20  36  58  78 115 146 185 221 282 325
#     4  10  19  35  59  84 105 147 185 227 269 332
#     4  10  20  36  56  85 109 147 184 235 267 316
#
# _framework density 20.104669000000001
#
# number of rings (size 3 to 8) (size 9 to 14) (size 15 to 20)
#    1.000    1.000    3.333    1.000    0.000    1.333 
#    0.000    0.000    0.000    2.000    0.000    0.000 
#    0.000    0.000    0.000    0.000    0.000    0.000 
#
# Total GULP energy -148711.752108 kJ/mol
# GULP energy per Si atom -12392.646009 kJ/mol
# Density = 2.005891 g / cm^3
# Si number density = 20.104669 Si / 1000 Ang^3
#
#
#
# Elastic Constant Matrix: (Units=GPa)
#
#
# Indices 1 2 3 4 5 6 
#
# 1 97.0683 25.2457 19.4166 2.4395 17.6504 21.2801
# 2 25.2457 60.1344 18.1034 -13.3621 18.9848 7.3611
# 3 19.4166 18.1034 68.7213 -12.6063 2.7003 6.6242
# 4 2.4395 -13.3621 -12.6063 22.3951 0.1611 -0.5113
# 5 17.6504 18.9848 2.7003 0.1611 42.3245 -2.5642
# 6 21.2801 7.3611 6.6242 -0.5113 -2.5642 22.3215
#
#
#
# Elastic Compliance Matrix: (Units=1/GPa)
#
#
# Indices 1 2 3 4 5 6 
#
# 1 0.016146 -0.003632 -0.003117 -0.005961 -0.005735 -0.014065
# 2 -0.003632 0.025997 -0.002223 0.014609 -0.010382 -0.005309
# 3 -0.003117 -0.002223 0.017739 0.008963 0.001056 -0.001233
# 4 -0.005961 0.014609 0.008963 0.059076 -0.004925 -0.001008
# 5 -0.005735 -0.010382 0.001056 -0.004925 0.031358 0.012067
# 6 -0.014065 -0.005309 -0.001233 -0.001008 0.012067 0.061689
#
#
# Mechanical properties :
#
#
# Convention : Reuss Voigt Hill
#
# Bulk Modulus (GPa) = 23.84466 39.05061 31.44764
# Shear Modulus (GPa) = 20.49768 28.28546 24.39157
#
# Velocity S-wave (km/s) = 3.19650 3.75495 3.48692
# Velocity P-wave (km/s) = 5.05069 6.18590 5.64689
#
# Compressibility (1/GPa) = 0.04193811
#
# Stress axis : x y z
#
# Youngs Moduli (GPa) = 61.93313 38.46570 56.37172
#
# Poissons Ratio (x) = 0.13972 0.17574
# Poissons Ratio (y) = 0.22497 0.12529
# Poissons Ratio (z) = 0.19307 0.08549
#
# Static dielectric constant tensor:
#      x y z
#    x 3.894180 0.069520 -0.018890 
#    y 0.069520 3.194990 -0.243280 
#    z -0.018890 -0.243280 3.622360 
# 
# 
# High freq. dielectric constant tensor:
#      x y z
#    x 1.807440 0.010790 -0.001030 
#    y 0.010790 1.737140 -0.025410 
#    z -0.001030 -0.025410 1.774570 
# 
# From -- ./inp_files/150993.got.cif
#   From: 2010.06.25/outbox.cif.g09.slc.cpg/sg2_76_cif.got.tgz:150993.got - 2010.06.27 13:26:56.
