data_PCOD8042046
_publ_section_title
;
Structure prediction by ZEFSAII (Michael W. Deem and Ramdas Pophale) SiO2 
 PCOD8042046
Probable space group: P -1
;
_chemical_formula_sum "Si O2"
_cell_formula_units_Z 16
_cell_length_a 15.022719
_cell_length_b 11.305642
_cell_length_c 8.432132
_cell_angle_alpha 41.450883
_cell_angle_beta 53.922954
_cell_angle_gamma 73.540124
_cell_volume 732.040439
_symmetry_space_group_name_H-M "P -1"
_symmetry_group_IT_number 2
_symmetry_cell_setting 'triclinic'
loop_
_space_group_symop_operation_xyz
x,y,z
-x,-y,-z
loop_
_atom_site_type_symbol
_atom_site_label
_atom_site_fract_x
_atom_site_fract_y
_atom_site_fract_z
Si Si1 0.227465 0.232094 0.123398
Si Si2 0.529703 0.616061 0.194960
Si Si3 0.056299 0.457605 0.143533
Si Si4 0.231838 0.817745 0.538396
Si Si5 0.692144 0.622337 0.456162
Si Si6 0.187405 0.683232 0.361115
Si Si7 0.453175 0.996508 0.296267
Si Si8 0.341122 0.043858 0.693785
O O1 0.116184 0.294387 0.220703
O O2 0.195721 0.007806 0.400438
O O3 0.332417 0.335485 0.029435
O O4 0.268798 0.287572 0.846241
O O5 0.500000 0.500000 0.500000
O O6 0.444223 0.495905 0.271906
O O7 0.501105 0.814016 0.045273
O O8 0.951259 0.379887 0.454808
O O9 0.147515 0.654907 0.899810
O O10 0.000000 0.500000 0.000000
O O11 0.226354 0.747812 0.434206
O O12 0.360614 0.842960 0.444000
O O13 0.768853 0.491248 0.557194
O O14 0.714083 0.786990 0.397067
O O15 0.242225 0.849302 0.014857
O O16 0.393951 0.052788 0.456912
O O17 0.560227 0.924387 0.304875
#
# Coordination Sequence:
#
# PCOD8042046 Si02
#       8
#     2   2   2   2   2   2   2   2
#     4  10  19  34  56  95 118 154 195 251 309 346
#     4   9  20  35  60  91 124 147 202 252 296 361
#     4  10  21  35  59  90 123 154 200 256 298 355
#     4  10  21  37  62  87 119 155 202 256 295 351
#     4  11  20  35  59  89 124 158 193 244 309 354
#     4  11  22  39  60  93 122 156 206 252 302 358
#     4  10  23  43  59  90 127 161 204 242 310 364
#     4  11  24  40  61  88 128 166 195 250 301 370
#
# _framework density 21.856717
#
# number of rings (size 3 to 8) (size 9 to 14) (size 15 to 20)
#    0.000    1.750    5.000    0.000    1.750    5.000 
#    0.000    0.625    0.000    3.750    0.000    0.000 
#    0.000    0.000    0.000    0.000    0.000    0.000 
#
# Total GULP energy -198328.610319 kJ/mol
# GULP energy per Si atom -12395.538145 kJ/mol
# Density = 2.180697 g / cm^3
# Si number density = 21.856717 Si / 1000 Ang^3
#
#
#
# Elastic Constant Matrix: (Units=GPa)
#
#
# Indices 1 2 3 4 5 6 
#
# 1 40.6351 21.8090 18.7090 -2.1110 -5.0632 -14.5096
# 2 21.8090 114.1052 43.4555 -16.9149 -7.9425 -32.6821
# 3 18.7090 43.4555 106.3862 -21.7769 -23.1695 -5.9213
# 4 -2.1110 -16.9149 -21.7769 31.7576 -3.8892 -1.1434
# 5 -5.0632 -7.9425 -23.1695 -3.8892 17.4877 0.3897
# 6 -14.5096 -32.6821 -5.9213 -1.1434 0.3897 29.3560
#
#
#
# Elastic Compliance Matrix: (Units=1/GPa)
#
#
# Indices 1 2 3 4 5 6 
#
# 1 0.032331 -0.000010 -0.003844 0.000550 0.004048 0.015162
# 2 -0.000010 0.016681 -0.003113 0.007994 0.004821 0.018185
# 3 -0.003844 -0.003113 0.020705 0.015731 0.028425 -0.000954
# 4 0.000550 0.007994 0.015731 0.051449 0.035765 0.013874
# 5 0.004048 0.004821 0.028425 0.035765 0.105867 0.013089
# 6 0.015162 0.018185 -0.000954 0.013874 0.013089 0.061978
#
#
# Mechanical properties :
#
#
# Convention : Reuss Voigt Hill
#
# Bulk Modulus (GPa) = 17.92666 47.67483 32.80075
# Shear Modulus (GPa) = 15.55022 27.53044 21.54033
#
# Velocity S-wave (km/s) = 2.67022 3.55292 3.14271
# Velocity P-wave (km/s) = 4.21028 6.22019 5.31118
#
# Compressibility (1/GPa) = 0.05578285
#
# Stress axis : x y z
#
# Youngs Moduli (GPa) = 30.93017 59.94988 48.29793
#
# Poissons Ratio (x) = 0.00058 0.18564
# Poissons Ratio (y) = 0.00030 0.15037
# Poissons Ratio (z) = 0.11888 0.18665
#
# Static dielectric constant tensor:
#      x y z
#    x 4.136140 -0.165900 -0.465570 
#    y -0.165900 3.686820 -0.241000 
#    z -0.465570 -0.241000 4.577890 
# 
# 
# High freq. dielectric constant tensor:
#      x y z
#    x 1.840930 -0.019590 -0.010690 
#    y -0.019590 1.840470 -0.022040 
#    z -0.010690 -0.022040 1.868810 
# 
# From -- ./inp_files/306178.got.cif
#   From: 2010.06.25/outbox.cif.g09.slc.cpg/sg2_154_cif.got.tgz:306178.got - 2010.06.27 13:26:56.
