data_PCOD8042622
_publ_section_title
;
Structure prediction by ZEFSAII (Michael W. Deem and Ramdas Pophale) SiO2 
 PCOD8042622
Probable space group: P -1
;
_chemical_formula_sum "Si O2"
_cell_formula_units_Z 14
_cell_length_a 15.955187
_cell_length_b 20.854030
_cell_length_c 13.652193
_cell_angle_alpha 22.174422
_cell_angle_beta 140.444687
_cell_angle_gamma 153.841387
_cell_volume 704.663885
_symmetry_space_group_name_H-M "P -1"
_symmetry_group_IT_number 2
_symmetry_cell_setting 'triclinic'
loop_
_space_group_symop_operation_xyz
x,y,z
-x,-y,-z
loop_
_atom_site_type_symbol
_atom_site_label
_atom_site_fract_x
_atom_site_fract_y
_atom_site_fract_z
Si Si1 0.707314 0.990300 0.284709
Si Si2 0.307084 0.801631 0.844790
Si Si3 0.983800 0.202799 0.399549
Si Si4 0.251376 0.819040 0.327241
Si Si5 0.878771 0.367646 0.737834
Si Si6 0.270756 0.429653 0.644818
Si Si7 0.924094 0.982440 0.104945
O O1 0.349418 0.895081 0.865333
O O2 0.509916 0.675882 0.538778
O O3 0.884128 0.064030 0.399376
O O4 0.797054 0.126033 0.066498
O O5 0.195262 0.511631 0.143996
O O6 0.172315 0.822957 0.645880
O O7 0.513816 0.977830 0.720615
O O8 0.022293 0.061250 0.684970
O O9 0.221675 0.702964 0.359187
O O10 0.122485 0.600488 0.606935
O O11 0.184187 0.947101 0.070448
O O12 0.820755 0.475630 0.596077
O O13 0.240536 0.288278 0.720905
O O14 0.141878 0.217027 0.916604
#
# Coordination Sequence:
#
# PCOD8042622 Si02
#       7
#     2   2   2   2   2   2   2
#     4  10  19  35  62  84 106 157 198 228 265 353
#     4   9  19  37  61  86 109 153 200 222 285 341
#     4   9  20  37  59  84 116 152 194 226 282 351
#     4  10  21  36  58  90 113 149 185 247 291 318
#     4  10  19  35  59  85 114 144 203 234 270 342
#     4  10  20  35  61  86 113 156 195 226 281 348
#     4  10  22  37  57  89 122 143 187 243 289 335
#
# _framework density 19.867629000000001
#
# number of rings (size 3 to 8) (size 9 to 14) (size 15 to 20)
#    0.857    1.429    1.429    1.286    2.000    1.143 
#    0.000    1.429    0.000    0.000    0.000    0.000 
#    0.000    0.000    0.000    0.000    0.000    0.000 
#
# Total GULP energy -173469.110812 kJ/mol
# GULP energy per Si atom -12390.650772 kJ/mol
# Density = 1.982241 g / cm^3
# Si number density = 19.867629 Si / 1000 Ang^3
#
#
#
# Elastic Constant Matrix: (Units=GPa)
#
#
# Indices 1 2 3 4 5 6 
#
# 1 46.7979 28.1343 17.2315 -11.5843 -2.8563 6.4480
# 2 28.1343 111.3013 44.3108 -36.3007 -9.3714 8.4856
# 3 17.2315 44.3108 67.4772 -19.7545 -1.1748 -2.0225
# 4 -11.5843 -36.3007 -19.7545 33.0747 3.3830 -0.5751
# 5 -2.8563 -9.3714 -1.1748 3.3830 17.7299 -1.8867
# 6 6.4480 8.4856 -2.0225 -0.5751 -1.8867 32.7499
#
#
#
# Elastic Compliance Matrix: (Units=1/GPa)
#
#
# Indices 1 2 3 4 5 6 
#
# 1 0.026345 -0.004060 -0.003424 0.002557 0.000931 -0.004248
# 2 -0.004060 0.017832 -0.006734 0.013516 0.005353 -0.003691
# 3 -0.003424 -0.006734 0.021535 0.004662 -0.003185 0.003647
# 4 0.002557 0.013516 0.004662 0.048879 -0.001777 -0.002962
# 5 0.000931 0.005353 -0.003185 -0.001777 0.059684 0.001640
# 6 -0.004248 -0.003691 0.003647 -0.002962 0.001640 0.032595
#
#
# Mechanical properties :
#
#
# Convention : Reuss Voigt Hill
#
# Bulk Modulus (GPa) = 26.82670 44.99218 35.90944
# Shear Modulus (GPa) = 20.18324 25.77086 22.97705
#
# Velocity S-wave (km/s) = 3.19075 3.60547 3.40443
# Velocity P-wave (km/s) = 5.20640 6.32675 5.79372
#
# Compressibility (1/GPa) = 0.03727630
#
# Stress axis : x y z
#
# Youngs Moduli (GPa) = 37.95757 56.07927 46.43682
#
# Poissons Ratio (x) = 0.22768 0.15900
# Poissons Ratio (y) = 0.15411 0.31269
# Poissons Ratio (z) = 0.12997 0.37762
#
# Static dielectric constant tensor:
#      x y z
#    x 3.402370 0.030790 -0.037000 
#    y 0.030790 3.558160 -0.288330 
#    z -0.037000 -0.288330 3.466940 
# 
# 
# High freq. dielectric constant tensor:
#      x y z
#    x 1.753410 0.001490 -0.000830 
#    y 0.001490 1.770700 -0.024520 
#    z -0.000830 -0.024520 1.762420 
# 
# From -- ./inp_files/391952.got.cif
#   From: 2010.06.25/outbox.cif.g09.slc.cpg/sg2_196_cif.got.tgz:391952.got - 2010.06.27 13:26:56.
