data_PCOD8042364
_publ_section_title
;
Structure prediction by ZEFSAII (Michael W. Deem and Ramdas Pophale) SiO2 
 PCOD8042364
Probable space group: P -1
;
_chemical_formula_sum "Si O2"
_cell_formula_units_Z 12
_cell_length_a 16.541001
_cell_length_b 10.007045
_cell_length_c 5.256540
_cell_angle_alpha 96.014547
_cell_angle_beta 102.477459
_cell_angle_gamma 132.087617
_cell_volume 591.881115
_symmetry_space_group_name_H-M "P -1"
_symmetry_group_IT_number 2
_symmetry_cell_setting 'triclinic'
loop_
_space_group_symop_operation_xyz
x,y,z
-x,-y,-z
loop_
_atom_site_type_symbol
_atom_site_label
_atom_site_fract_x
_atom_site_fract_y
_atom_site_fract_z
Si Si1 0.478540 0.133625 0.497644
Si Si2 0.176771 0.521814 0.506468
Si Si3 0.082736 0.733715 0.650867
Si Si4 0.422780 0.776004 0.916939
Si Si5 0.789272 0.206118 0.751727
Si Si6 0.988171 0.898167 0.721603
O O1 0.547302 0.274274 0.327893
O O2 0.500000 0.000000 0.500000
O O3 0.340622 0.007947 0.356927
O O4 0.537542 0.264652 0.818720
O O5 0.283339 0.651194 0.808884
O O6 0.219049 0.644934 0.300748
O O7 0.140232 0.324704 0.396161
O O8 0.059274 0.470899 0.513121
O O9 0.145234 0.796603 0.432843
O O10 0.087029 0.895659 0.773142
O O11 0.146262 0.727500 0.921080
O O12 0.500000 0.000000 0.000000
O O13 0.000000 0.000000 0.500000
O O14 0.000000 0.000000 0.000000
#
# Coordination Sequence:
#
# PCOD8042364 Si02
#       6
#     2   2   2   2   2   2
#     4  10  20  32  54  76 129 152 189 214 276 372
#     4  10  23  35  64  84 130 147 190 240 302 345
#     4  10  25  34  60  87 123 151 187 238 314 344
#     4  10  19  35  51  84 117 154 189 225 278 358
#     4  12  20  38  54  95 126 150 176 242 308 374
#     4  10  23  42  58  83 114 157 209 237 276 343
#
# _framework density 20.274339999999999
#
# number of rings (size 3 to 8) (size 9 to 14) (size 15 to 20)
#    1.000    0.667    3.333    3.000    2.333    4.000 
#    0.000    0.000    0.000    0.000    0.000   23.333 
#    0.000    0.000    0.000    0.000    0.000    0.000 
#
# Total GULP energy -148679.101054 kJ/mol
# GULP energy per Si atom -12389.925088 kJ/mol
# Density = 2.022819 g / cm^3
# Si number density = 20.274340 Si / 1000 Ang^3
#
#
#
# Elastic Constant Matrix: (Units=GPa)
#
#
# Indices 1 2 3 4 5 6 
#
# 1 80.6950 34.6092 57.4190 7.9614 12.4883 30.2273
# 2 34.6092 65.5014 48.9218 1.9827 10.8780 3.5683
# 3 57.4190 48.9218 178.5416 -10.9642 16.8031 20.1743
# 4 7.9614 1.9827 -10.9642 37.7945 10.9771 0.5737
# 5 12.4883 10.8780 16.8031 10.9771 38.0242 3.1967
# 6 30.2273 3.5683 20.1743 0.5737 3.1967 35.7595
#
#
#
# Elastic Compliance Matrix: (Units=1/GPa)
#
#
# Indices 1 2 3 4 5 6 
#
# 1 0.028085 -0.010238 -0.004225 -0.006008 -0.000999 -0.020149
# 2 -0.010238 0.023495 -0.003871 0.000394 -0.002494 0.008710
# 3 -0.004225 -0.003871 0.008604 0.004325 -0.002493 -0.000743
# 4 -0.006008 0.000394 0.004325 0.031654 -0.009435 0.002935
# 5 -0.000999 -0.002494 -0.002493 -0.009435 0.031178 -0.000135
# 6 -0.020149 0.008710 -0.000743 0.002935 -0.000135 0.044512
#
#
# Mechanical properties :
#
#
# Convention : Reuss Voigt Hill
#
# Bulk Modulus (GPa) = 42.52239 67.40423 54.96331
# Shear Modulus (GPa) = 23.58108 34.56816 29.07462
#
# Velocity S-wave (km/s) = 3.41412 4.13367 3.79101
# Velocity P-wave (km/s) = 6.04654 7.49007 6.80668
#
# Compressibility (1/GPa) = 0.02351702
#
# Stress axis : x y z
#
# Youngs Moduli (GPa) = 35.60663 42.56205 116.21907
#
# Poissons Ratio (x) = 0.43576 0.49101
# Poissons Ratio (y) = 0.36455 0.44983
# Poissons Ratio (z) = 0.15043 0.16474
#
# Static dielectric constant tensor:
#      x y z
#    x 3.342980 -0.191440 1.305950 
#    y -0.191440 2.841420 1.901230 
#    z 1.305950 1.901230 -2.047060 
# 
# 
# High freq. dielectric constant tensor:
#      x y z
#    x 1.775170 0.034790 0.003680 
#    y 0.034790 1.756940 -0.013850 
#    z 0.003680 -0.013850 1.813580 
# 
# From -- ./inp_files/89120.got.cif
#   From: 2010.06.25/outbox.cif.g09.slc.cpg/sg2_45_cif.got.tgz:89120.got - 2010.06.27 13:26:56.
