data_PCOD8042374
_publ_section_title
;
Structure prediction by ZEFSAII (Michael W. Deem and Ramdas Pophale) SiO2 
 PCOD8042374
Probable space group: P -1
;
_chemical_formula_sum "Si O2"
_cell_formula_units_Z 14
_cell_length_a 10.124263
_cell_length_b 17.630729
_cell_length_c 7.063039
_cell_angle_alpha 48.224814
_cell_angle_beta 58.965060
_cell_angle_gamma 69.336429
_cell_volume 805.538549
_symmetry_space_group_name_H-M "P -1"
_symmetry_group_IT_number 2
_symmetry_cell_setting 'triclinic'
loop_
_space_group_symop_operation_xyz
x,y,z
-x,-y,-z
loop_
_atom_site_type_symbol
_atom_site_label
_atom_site_fract_x
_atom_site_fract_y
_atom_site_fract_z
Si Si1 0.950095 0.475448 0.286255
Si Si2 0.878901 0.637232 0.353711
Si Si3 0.675072 0.914566 0.680065
Si Si4 0.926500 0.891093 0.242491
Si Si5 0.576657 0.140579 0.336076
Si Si6 0.144074 0.728622 0.193769
Si Si7 0.318277 0.174902 0.761873
O O1 0.869003 0.576387 0.265331
O O2 0.832314 0.380125 0.535029
O O3 0.102160 0.443968 0.351407
O O4 0.000000 0.500000 0.000000
O O5 0.725736 0.705964 0.377832
O O6 0.029269 0.710749 0.128231
O O7 0.834507 0.875214 0.533291
O O8 0.530655 0.867920 0.754322
O O9 0.671585 0.036593 0.471151
O O10 0.666741 0.879524 0.958665
O O11 0.807854 0.884511 0.167228
O O12 0.061427 0.806513 0.271794
O O13 0.000000 0.000000 0.000000
O O14 0.481966 0.168486 0.547650
O O15 0.693937 0.231490 0.063450
#
# Coordination Sequence:
#
# PCOD8042374 Si02
#       7
#     2   2   2   2   2   2   2
#     4   9  18  35  59  79 102 132 171 229 281 308
#     4   8  19  36  54  81 102 128 181 224 268 310
#     4  10  21  35  53  74 114 153 177 209 260 314
#     4  10  19  35  53  79 109 138 180 228 255 306
#     4  10  20  37  50  76 117 144 178 215 257 315
#     4   9  18  36  54  80 106 138 175 225 265 306
#     4  10  21  35  55  77 108 150 176 211 268 317
#
# _framework density 17.379677999999998
#
# number of rings (size 3 to 8) (size 9 to 14) (size 15 to 20)
#    0.857    1.714    1.429    0.429    2.000    0.571 
#    2.571    0.714    0.000    1.714    0.000    0.000 
#    0.000    0.000    0.000    0.000    0.000    0.000 
#
# Total GULP energy -173524.431218 kJ/mol
# GULP energy per Si atom -12394.602230 kJ/mol
# Density = 1.734012 g / cm^3
# Si number density = 17.379678 Si / 1000 Ang^3
#
#
#
# Elastic Constant Matrix: (Units=GPa)
#
#
# Indices 1 2 3 4 5 6 
#
# 1 45.3972 35.1479 46.5972 8.3134 -11.4614 -1.7831
# 2 35.1479 140.0201 60.5182 4.4879 -15.5859 3.8422
# 3 46.5972 60.5182 127.4463 17.1903 -10.0097 11.2176
# 4 8.3134 4.4879 17.1903 31.3531 6.4511 -1.2639
# 5 -11.4614 -15.5859 -10.0097 6.4511 27.3977 2.1756
# 6 -1.7831 3.8422 11.2176 -1.2639 2.1756 16.2537
#
#
#
# Elastic Compliance Matrix: (Units=1/GPa)
#
#
# Indices 1 2 3 4 5 6 
#
# 1 0.043231 -0.003978 -0.013492 -0.005250 0.011089 0.013102
# 2 -0.003978 0.009724 -0.002955 0.000685 0.002707 -0.001005
# 3 -0.013492 -0.002955 0.016080 -0.005487 0.000828 -0.012417
# 4 -0.005250 0.000685 -0.005487 0.039337 -0.013704 0.007942
# 5 0.011089 0.002707 0.000828 -0.013704 0.046789 -0.007323
# 6 0.013102 -0.001005 -0.012417 0.007942 -0.007323 0.073367
#
#
# Mechanical properties :
#
#
# Convention : Reuss Voigt Hill
#
# Bulk Modulus (GPa) = 35.47593 66.37669 50.92631
# Shear Modulus (GPa) = 17.93571 26.37424 22.15497
#
# Velocity S-wave (km/s) = 3.21595 3.89978 3.57426
# Velocity P-wave (km/s) = 5.85204 7.65198 6.81172
#
# Compressibility (1/GPa) = 0.02818812
#
# Stress axis : x y z
#
# Youngs Moduli (GPa) = 23.13136 102.83573 62.18731
#
# Poissons Ratio (x) = 0.40904 0.83901
# Poissons Ratio (y) = 0.09201 0.18374
# Poissons Ratio (z) = 0.31208 0.30384
#
# Static dielectric constant tensor:
#      x y z
#    x 3.010030 -0.053960 -0.023480 
#    y -0.053960 3.514990 0.000910 
#    z -0.023480 0.000910 3.000280 
# 
# 
# High freq. dielectric constant tensor:
#      x y z
#    x 1.642590 -0.002320 -0.000590 
#    y -0.002320 1.691020 0.001800 
#    z -0.000590 0.001800 1.656810 
# 
# From -- ./inp_files/34411.got.cif
#   From: 2010.06.25/outbox.cif.g09.slc.cpg/sg2_18_cif.got.tgz:34411.got - 2010.06.27 13:26:56.
