data_PCOD8042457
_publ_section_title
;
Structure prediction by ZEFSAII (Michael W. Deem and Ramdas Pophale) SiO2 
 PCOD8042457
Probable space group: P -1
;
_chemical_formula_sum "Si O2"
_cell_formula_units_Z 14
_cell_length_a 16.317101
_cell_length_b 10.876202
_cell_length_c 13.292663
_cell_angle_alpha 158.203777
_cell_angle_beta 134.693886
_cell_angle_gamma 43.001052
_cell_volume 594.640612
_symmetry_space_group_name_H-M "P -1"
_symmetry_group_IT_number 2
_symmetry_cell_setting 'triclinic'
loop_
_space_group_symop_operation_xyz
x,y,z
-x,-y,-z
loop_
_atom_site_type_symbol
_atom_site_label
_atom_site_fract_x
_atom_site_fract_y
_atom_site_fract_z
Si Si1 0.326595 0.774332 0.483133
Si Si2 0.140465 0.710306 0.418377
Si Si3 0.465724 0.053418 0.126209
Si Si4 0.764045 0.093064 0.146996
Si Si5 0.058706 0.312876 0.639978
Si Si6 0.886970 0.587631 0.542508
Si Si7 0.193393 0.817138 0.211295
O O1 0.188561 0.911814 0.517788
O O2 0.383073 0.453094 0.361760
O O3 0.412894 0.021641 0.757885
O O4 0.315546 0.699794 0.297755
O O5 0.219185 0.763971 0.620216
O O6 0.997139 0.835893 0.423705
O O7 0.164686 0.312596 0.104736
O O8 0.500000 0.000000 0.000000
O O9 0.381748 0.833424 0.931356
O O10 0.811691 0.305877 0.264789
O O11 0.941068 0.613854 0.721411
O O12 0.090239 0.038698 0.366126
O O13 0.165253 0.479202 0.886434
O O14 0.000000 0.500000 0.500000
O O15 0.793880 0.948802 0.696180
#
# Coordination Sequence:
#
# PCOD8042457 Si02
#       7
#     2   2   2   2   2   2   2
#     4  10  23  36  58  87 112 147 191 240 294 330
#     4  10  19  35  56  85 113 147 190 233 278 342
#     4  10  20  40  62  79 110 151 194 242 286 336
#     4  10  20  34  61  85 107 149 199 231 274 336
#     4  10  21  36  57  83 119 156 188 223 279 343
#     4   9  19  38  59  84 117 155 188 222 277 344
#     4  11  23  36  56  86 120 151 185 235 280 338
#
# _framework density 23.543634000000001
#
# number of rings (size 3 to 8) (size 9 to 14) (size 15 to 20)
#    0.000    2.000    1.429    3.000    2.000    4.571 
#    0.000    0.714    0.000    0.857    0.000    0.000 
#    0.000    0.000    0.000    0.000    0.000    0.000 
#
# Total GULP energy -173441.317299 kJ/mol
# GULP energy per Si atom -12388.665521 kJ/mol
# Density = 2.349005 g / cm^3
# Si number density = 23.543634 Si / 1000 Ang^3
#
#
#
# Elastic Constant Matrix: (Units=GPa)
#
#
# Indices 1 2 3 4 5 6 
#
# 1 122.3136 39.4139 49.2589 -5.3122 40.0066 -4.9357
# 2 39.4139 121.6764 42.4279 -23.1392 32.9705 10.4544
# 3 49.2589 42.4279 118.2432 -17.4785 34.2049 4.4186
# 4 -5.3122 -23.1392 -17.4785 43.8544 -2.7115 14.1052
# 5 40.0066 32.9705 34.2049 -2.7115 51.1069 -4.1938
# 6 -4.9357 10.4544 4.4186 14.1052 -4.1938 45.9298
#
#
#
# Elastic Compliance Matrix: (Units=1/GPa)
#
#
# Indices 1 2 3 4 5 6 
#
# 1 0.011912 -0.001592 -0.002853 -0.001504 -0.006321 0.001802
# 2 -0.001592 0.012754 -0.000607 0.007822 -0.006655 -0.006026
# 3 -0.002853 -0.000607 0.012372 0.005014 -0.005670 -0.003416
# 4 -0.001504 0.007822 0.005014 0.032525 -0.006566 -0.013012
# 5 -0.006321 -0.006655 -0.005670 -0.006566 0.032779 0.006391
# 6 0.001802 -0.006026 -0.003416 -0.013012 0.006391 0.028246
#
#
# Mechanical properties :
#
#
# Convention : Reuss Voigt Hill
#
# Bulk Modulus (GPa) = 37.12504 69.38162 53.25333
# Shear Modulus (GPa) = 33.40676 43.58707 38.49692
#
# Velocity S-wave (km/s) = 3.77095 4.30738 4.04806
# Velocity P-wave (km/s) = 5.89601 7.36691 6.67212
#
# Compressibility (1/GPa) = 0.02693600
#
# Stress axis : x y z
#
# Youngs Moduli (GPa) = 83.94693 78.40486 80.82610
#
# Poissons Ratio (x) = 0.12484 0.23056
# Poissons Ratio (y) = 0.13366 0.04903
# Poissons Ratio (z) = 0.23946 0.04757
#
# Static dielectric constant tensor:
#      x y z
#    x 4.750800 -0.255930 0.246660 
#    y -0.255930 6.342200 0.400430 
#    z 0.246660 0.400430 4.290560 
# 
# 
# High freq. dielectric constant tensor:
#      x y z
#    x 1.929830 -0.001980 0.008760 
#    y -0.001980 1.945360 -0.002780 
#    z 0.008760 -0.002780 1.931830 
# 
# From -- ./inp_files/63424.got.cif
#   From: 2010.06.25/outbox.cif.g09.slc.cpg/sg2_32_cif.got.tgz:63424.got - 2010.06.27 13:26:56.
