data_PCOD8042988
_publ_section_title
;
Structure prediction by ZEFSAII (Michael W. Deem and Ramdas Pophale) SiO2 
 PCOD8042988
Probable space group: P -1
;
_chemical_formula_sum "Si O2"
_cell_formula_units_Z 14
_cell_length_a 8.189484
_cell_length_b 15.246132
_cell_length_c 11.229944
_cell_angle_alpha 73.631048
_cell_angle_beta 55.443549
_cell_angle_gamma 116.504609
_cell_volume 710.831461
_symmetry_space_group_name_H-M "P -1"
_symmetry_group_IT_number 2
_symmetry_cell_setting 'triclinic'
loop_
_space_group_symop_operation_xyz
x,y,z
-x,-y,-z
loop_
_atom_site_type_symbol
_atom_site_label
_atom_site_fract_x
_atom_site_fract_y
_atom_site_fract_z
Si Si1 0.528214 0.655580 0.985439
Si Si2 0.914951 0.167698 0.645913
Si Si3 0.855406 0.876406 0.962238
Si Si4 0.701988 0.842411 0.640697
Si Si5 0.520654 0.900874 0.504445
Si Si6 0.041899 0.335559 0.327376
Si Si7 0.770378 0.048836 0.000283
O O1 0.614713 0.725060 0.053101
O O2 0.506534 0.731149 0.872700
O O3 0.783055 0.674530 0.826180
O O4 0.196061 0.489497 0.196584
O O5 0.912574 0.162591 0.792583
O O6 0.171112 0.187695 0.490509
O O7 0.028196 0.302442 0.485453
O O8 0.562227 0.024420 0.799351
O O9 0.698896 0.917898 0.043534
O O10 0.130655 0.999629 0.712822
O O11 0.987401 0.866034 0.024207
O O12 0.461004 0.824226 0.680463
O O13 0.000000 0.000000 0.500000
O O14 0.304054 0.785469 0.534297
O O15 0.500000 0.000000 0.500000
#
# Coordination Sequence:
#
# PCOD8042988 Si02
#       7
#     2   2   2   2   2   2   2
#     4  10  21  38  56  84 115 146 178 230 292 336
#     4  10  19  36  54  84 112 146 186 232 274 321
#     4  11  20  36  56  85 111 146 192 229 270 329
#     4  11  20  33  59  86 113 138 186 237 282 329
#     4  12  20  34  59  88 111 142 185 234 283 329
#     4  10  21  36  59  82 116 146 176 232 293 331
#     4  10  21  33  59  82 110 149 195 230 259 321
#
# _framework density 19.695246999999998
#
# number of rings (size 3 to 8) (size 9 to 14) (size 15 to 20)
#    0.000    1.429    5.714    0.857    0.000    0.571 
#    0.000    1.429    0.000    0.000    0.000    0.000 
#    0.000    0.000    0.000    0.000    0.000    0.000 
#
# Total GULP energy -173522.142879 kJ/mol
# GULP energy per Si atom -12394.438777 kJ/mol
# Density = 1.965042 g / cm^3
# Si number density = 19.695247 Si / 1000 Ang^3
#
#
#
# Elastic Constant Matrix: (Units=GPa)
#
#
# Indices 1 2 3 4 5 6 
#
# 1 142.8913 42.4797 34.4940 -9.8681 35.2985 8.6175
# 2 42.4797 90.0896 29.5466 -18.2797 16.0440 13.9003
# 3 34.4940 29.5466 67.5563 -14.2942 27.2895 0.6694
# 4 -9.8681 -18.2797 -14.2942 30.2905 -4.6400 2.6474
# 5 35.2985 16.0440 27.2895 -4.6400 41.9515 3.4922
# 6 8.6175 13.9003 0.6694 2.6474 3.4922 22.3624
#
#
#
# Elastic Compliance Matrix: (Units=1/GPa)
#
#
# Indices 1 2 3 4 5 6 
#
# 1 0.009758 -0.002981 -0.001154 -0.000044 -0.006250 -0.000892
# 2 -0.002981 0.017124 -0.004333 0.008317 0.000567 -0.010439
# 3 -0.001154 -0.004333 0.023457 0.005877 -0.012285 0.003659
# 4 -0.000044 0.008317 0.005877 0.041427 -0.001553 -0.009991
# 5 -0.006250 0.000567 -0.012285 -0.001553 0.036962 -0.003164
# 6 -0.000892 -0.010439 0.003659 -0.009991 -0.003164 0.053118
#
#
# Mechanical properties :
#
#
# Convention : Reuss Voigt Hill
#
# Bulk Modulus (GPa) = 29.93833 57.06423 43.50128
# Shear Modulus (GPa) = 23.81906 31.85534 27.83720
#
# Velocity S-wave (km/s) = 3.48139 4.02607 3.76360
# Velocity P-wave (km/s) = 5.60302 7.11680 6.40479
#
# Compressibility (1/GPa) = 0.03340199
#
# Stress axis : x y z
#
# Youngs Moduli (GPa) = 102.48182 58.39722 42.63197
#
# Poissons Ratio (x) = 0.17407 0.04921
# Poissons Ratio (y) = 0.30548 0.18473
# Poissons Ratio (z) = 0.11831 0.25304
#
# Static dielectric constant tensor:
#      x y z
#    x 2.840980 0.199480 0.106970 
#    y 0.199480 3.473020 0.263910 
#    z 0.106970 0.263910 3.688090 
# 
# 
# High freq. dielectric constant tensor:
#      x y z
#    x 1.784150 0.001420 0.016090 
#    y 0.001420 1.736510 0.015100 
#    z 0.016090 0.015100 1.752510 
# 
# From -- ./inp_files/155486.got.cif
#   From: 2010.06.25/outbox.cif.g09.slc.cpg/sg2_78_cif.got.tgz:155486.got - 2010.06.27 13:26:56.
