data_PCOD8042858
_publ_section_title
;
Structure prediction by ZEFSAII (Michael W. Deem and Ramdas Pophale) SiO2 
 PCOD8042858
Probable space group: P -1
;
_chemical_formula_sum "Si O2"
_cell_formula_units_Z 16
_cell_length_a 10.454120
_cell_length_b 18.315353
_cell_length_c 5.130074
_cell_angle_alpha 85.734815
_cell_angle_beta 81.348945
_cell_angle_gamma 50.130802
_cell_volume 745.002154
_symmetry_space_group_name_H-M "P -1"
_symmetry_group_IT_number 2
_symmetry_cell_setting 'triclinic'
loop_
_space_group_symop_operation_xyz
x,y,z
-x,-y,-z
loop_
_atom_site_type_symbol
_atom_site_label
_atom_site_fract_x
_atom_site_fract_y
_atom_site_fract_z
Si Si1 0.108744 0.977635 0.222608
Si Si2 0.727404 0.492636 0.324469
Si Si3 0.369114 0.390322 0.180800
Si Si4 0.290156 0.776438 0.101484
Si Si5 0.042345 0.156311 0.101394
Si Si6 0.903778 0.731943 0.248845
Si Si7 0.188439 0.684536 0.470448
Si Si8 0.116807 0.349597 0.236641
O O1 0.272740 0.865148 0.201319
O O2 0.000000 0.000000 0.500000
O O3 0.158572 0.046170 0.190700
O O4 0.000000 0.000000 0.000000
O O5 0.661434 0.538066 0.049577
O O6 0.698959 0.414703 0.379147
O O7 0.923534 0.440341 0.322859
O O8 0.622781 0.574370 0.551345
O O9 0.546786 0.285405 0.113002
O O10 0.221923 0.384807 0.216687
O O11 0.304354 0.710944 0.345940
O O12 0.123325 0.818335 0.982483
O O13 0.977366 0.230164 0.339401
O O14 0.153043 0.166515 0.865237
O O15 0.819020 0.732124 0.540951
O O16 0.106085 0.670479 0.251810
O O17 0.864741 0.687410 0.050051
#
# Coordination Sequence:
#
# PCOD8042858 Si02
#       8
#     2   2   2   2   2   2   2   2
#     4  10  20  36  61  89 114 150 190 232 284 348
#     4  11  23  38  58  84 111 159 205 235 279 331
#     4  12  26  39  57  84 123 158 190 239 292 337
#     4  10  24  38  58  90 123 153 185 234 298 354
#     4  10  19  38  65  88 117 146 190 244 287 343
#     4  10  19  35  63  89 107 147 195 248 285 320
#     4  10  20  37  62  84 121 145 196 239 284 342
#     4  11  21  40  61  82 114 152 205 246 274 333
#
# _framework density 21.476448000000001
#
# number of rings (size 3 to 8) (size 9 to 14) (size 15 to 20)
#    0.000    1.500    3.750    3.000    3.500    1.000 
#    0.000    0.000    0.000    1.500    0.000    0.000 
#    0.000    0.000    0.000    0.000    0.000    0.000 
#
# Total GULP energy -198279.946158 kJ/mol
# GULP energy per Si atom -12392.496635 kJ/mol
# Density = 2.142757 g / cm^3
# Si number density = 21.476448 Si / 1000 Ang^3
#
#
#
# Elastic Constant Matrix: (Units=GPa)
#
#
# Indices 1 2 3 4 5 6 
#
# 1 19.5205 26.5259 10.3674 0.1440 4.1211 3.3024
# 2 26.5259 115.0256 24.2233 -0.5838 -13.1808 23.3155
# 3 10.3674 24.2233 101.5360 -9.9777 7.0259 9.4417
# 4 0.1440 -0.5838 -9.9777 34.9096 4.8661 -4.6435
# 5 4.1211 -13.1808 7.0259 4.8661 20.7793 6.2451
# 6 3.3024 23.3155 9.4417 -4.6435 6.2451 18.1625
#
#
#
# Elastic Compliance Matrix: (Units=1/GPa)
#
#
# Indices 1 2 3 4 5 6 
#
# 1 0.151671 -0.070562 0.002061 0.029342 -0.115178 0.109037
# 2 -0.070562 0.052226 -0.005113 -0.022666 0.079623 -0.084728
# 3 0.002061 -0.005113 0.011629 0.005349 -0.010361 0.005074
# 4 0.029342 -0.022666 0.005349 0.042483 -0.046310 0.047766
# 5 -0.115178 0.079623 -0.010361 -0.046310 0.180879 -0.149919
# 6 0.109037 -0.084728 0.005074 0.047766 -0.149919 0.205123
#
#
# Mechanical properties :
#
#
# Convention : Reuss Voigt Hill
#
# Bulk Modulus (GPa) = 14.64141 39.81282 27.22712
# Shear Modulus (GPa) = 6.14247 26.43465 16.28856
#
# Velocity S-wave (km/s) = 1.69302 3.51218 2.75696
# Velocity P-wave (km/s) = 3.26404 5.91822 4.77908
#
# Compressibility (1/GPa) = 0.06829941
#
# Stress axis : x y z
#
# Youngs Moduli (GPa) = 6.59320 19.14762 85.99336
#
# Poissons Ratio (x) = 1.35109 -0.17725
# Poissons Ratio (y) = 0.46523 0.43967
# Poissons Ratio (z) = -0.01359 0.09790
#
# Static dielectric constant tensor:
#      x y z
#    x 3.512880 0.485880 -0.014750 
#    y 0.485880 4.497860 -0.219000 
#    z -0.014750 -0.219000 4.132010 
# 
# 
# High freq. dielectric constant tensor:
#      x y z
#    x 1.804060 0.038990 0.008120 
#    y 0.038990 1.833850 -0.018030 
#    z 0.008120 -0.018030 1.859620 
# 
# From -- ./inp_files/79694.got.cif
#   From: 2010.06.25/outbox.cif.g09.slc.cpg/sg2_40_cif.got.tgz:79694.got - 2010.06.27 13:26:56.
