data_PCOD8042010
_publ_section_title
;
Structure prediction by ZEFSAII (Michael W. Deem and Ramdas Pophale) SiO2 
 PCOD8042010
Probable space group: P -1
;
_chemical_formula_sum "Si O2"
_cell_formula_units_Z 14
_cell_length_a 10.692967
_cell_length_b 12.148926
_cell_length_c 10.261707
_cell_angle_alpha 141.500231
_cell_angle_beta 107.640078
_cell_angle_gamma 57.399206
_cell_volume 680.990156
_symmetry_space_group_name_H-M "P -1"
_symmetry_group_IT_number 2
_symmetry_cell_setting 'triclinic'
loop_
_space_group_symop_operation_xyz
x,y,z
-x,-y,-z
loop_
_atom_site_type_symbol
_atom_site_label
_atom_site_fract_x
_atom_site_fract_y
_atom_site_fract_z
Si Si1 0.640442 0.333004 0.305408
Si Si2 0.755554 0.613616 0.495555
Si Si3 0.937283 0.257024 0.781636
Si Si4 0.922042 0.119740 0.377798
Si Si5 0.523300 0.052855 0.911063
Si Si6 0.017749 0.540915 0.348557
Si Si7 0.194452 0.318707 0.939441
O O1 0.500000 0.500000 0.500000
O O2 0.695374 0.454763 0.343026
O O3 0.772688 0.173376 0.296509
O O4 0.593277 0.201878 0.077142
O O5 0.855101 0.561263 0.346415
O O6 0.858925 0.601704 0.638173
O O7 0.621097 0.849577 0.668630
O O8 0.871946 0.188966 0.576541
O O9 0.819542 0.500671 0.993094
O O10 0.958947 0.126835 0.801240
O O11 0.108820 0.208945 0.748157
O O12 0.003842 0.231666 0.442349
O O13 0.365623 0.165594 0.888812
O O14 0.500000 0.000000 0.000000
O O15 0.085260 0.434751 0.135452
#
# Coordination Sequence:
#
# PCOD8042010 Si02
#       7
#     2   2   2   2   2   2   2
#     4  11  20  33  55  86 114 138 175 227 278 328
#     4  10  21  35  52  81 117 146 170 216 285 331
#     4   9  18  32  54  80 101 143 188 229 255 305
#     4   9  18  33  53  80 105 139 186 224 265 315
#     4  12  20  34  57  85 112 142 176 224 279 327
#     4   9  18  36  52  76 116 140 174 222 271 332
#     4  10  19  34  56  82 107 139 186 227 264 317
#
# _framework density 20.558302000000001
#
# number of rings (size 3 to 8) (size 9 to 14) (size 15 to 20)
#    0.000    2.000    2.857    2.571    0.000    0.000 
#    2.571    2.143    0.000    8.571    0.000    0.000 
#    0.000    0.000    0.000    0.000    0.000    0.000 
#
# Total GULP energy -173479.471025 kJ/mol
# GULP energy per Si atom -12391.390787 kJ/mol
# Density = 2.051151 g / cm^3
# Si number density = 20.558302 Si / 1000 Ang^3
#
#
#
# Elastic Constant Matrix: (Units=GPa)
#
#
# Indices 1 2 3 4 5 6 
#
# 1 99.4012 35.3311 27.6395 18.7750 2.4056 -5.2046
# 2 35.3311 121.3062 26.6314 32.2761 -1.4684 -21.4636
# 3 27.6395 26.6314 66.6377 19.3295 9.9345 -6.2653
# 4 18.7750 32.2761 19.3295 35.9780 -0.7361 5.9846
# 5 2.4056 -1.4684 9.9345 -0.7361 28.3545 -2.0113
# 6 -5.2046 -21.4636 -6.2653 5.9846 -2.0113 30.8084
#
#
#
# Elastic Compliance Matrix: (Units=1/GPa)
#
#
# Indices 1 2 3 4 5 6 
#
# 1 0.012285 -0.001941 -0.003415 -0.002934 0.000020 0.000599
# 2 -0.001941 0.015029 0.000061 -0.014650 0.001470 0.013097
# 3 -0.003415 0.000061 0.021012 -0.010592 -0.006965 0.005341
# 4 -0.002934 -0.014650 -0.010592 0.052006 0.002937 -0.022767
# 5 0.000020 0.001470 -0.006965 0.002937 0.037967 0.001519
# 6 0.000599 0.013097 0.005341 -0.022767 0.001519 0.047292
#
#
# Mechanical properties :
#
#
# Convention : Reuss Voigt Hill
#
# Bulk Modulus (GPa) = 26.50149 51.83880 39.17014
# Shear Modulus (GPa) = 23.95093 32.21105 28.08099
#
# Velocity S-wave (km/s) = 3.41695 3.96260 3.69984
# Velocity P-wave (km/s) = 5.33725 6.79753 6.11117
#
# Compressibility (1/GPa) = 0.03773373
#
# Stress axis : x y z
#
# Youngs Moduli (GPa) = 81.40037 66.53873 47.59246
#
# Poissons Ratio (x) = 0.12918 0.16254
# Poissons Ratio (y) = 0.15803 -0.00289
# Poissons Ratio (z) = 0.27801 -0.00405
#
# Static dielectric constant tensor:
#      x y z
#    x 3.680490 0.012020 0.386950 
#    y 0.012020 4.025210 0.301530 
#    z 0.386950 0.301530 3.741680 
# 
# 
# High freq. dielectric constant tensor:
#      x y z
#    x 1.774150 -0.006290 0.035390 
#    y -0.006290 1.818580 0.018910 
#    z 0.035390 0.018910 1.790230 
# 
# From -- ./inp_files/332269.got.cif
#   From: 2010.06.25/outbox.cif.g09.slc.cpg/sg2_167_cif.got.tgz:332269.got - 2010.06.27 13:26:56.
