data_PCOD8042082
_publ_section_title
;
Structure prediction by ZEFSAII (Michael W. Deem and Ramdas Pophale) SiO2 
 PCOD8042082
Probable space group: P -1
;
_chemical_formula_sum "Si O2"
_cell_formula_units_Z 16
_cell_length_a 15.122042
_cell_length_b 11.042787
_cell_length_c 13.955958
_cell_angle_alpha 33.095572
_cell_angle_beta 140.690249
_cell_angle_gamma 128.792781
_cell_volume 804.581959
_symmetry_space_group_name_H-M "P -1"
_symmetry_group_IT_number 2
_symmetry_cell_setting 'triclinic'
loop_
_space_group_symop_operation_xyz
x,y,z
-x,-y,-z
loop_
_atom_site_type_symbol
_atom_site_label
_atom_site_fract_x
_atom_site_fract_y
_atom_site_fract_z
Si Si1 0.735411 0.646364 0.066532
Si Si2 0.359433 0.988452 0.102737
Si Si3 0.297650 0.347500 0.671406
Si Si4 0.341426 0.496612 0.401919
Si Si5 0.958835 0.387159 0.638058
Si Si6 0.738150 0.183606 0.485948
Si Si7 0.357457 0.171156 0.481552
Si Si8 0.493406 0.317075 0.307551
O O1 0.717727 0.425543 0.260059
O O2 0.894857 0.673213 0.145378
O O3 0.642983 0.628644 0.906295
O O4 0.693925 0.862241 0.951574
O O5 0.284873 0.752139 0.201208
O O6 0.528593 0.959527 0.267539
O O7 0.312081 0.096603 0.889728
O O8 0.326315 0.350644 0.580837
O O9 0.139626 0.448875 0.488482
O O10 0.409557 0.474772 0.742808
O O11 0.500000 0.500000 0.500000
O O12 0.271067 0.364557 0.342250
O O13 0.872442 0.173367 0.676252
O O14 0.000000 0.500000 0.500000
O O15 0.598086 0.130193 0.465792
O O16 0.754904 0.992778 0.545723
O O17 0.451739 0.267535 0.413166
#
# Coordination Sequence:
#
# PCOD8042082 Si02
#       8
#     2   2   2   2   2   2   2   2
#     4  11  20  34  59  92 115 150 195 240 303 361
#     4  11  20  35  62  84 121 153 196 240 291 352
#     4  11  20  39  64  87 119 160 192 246 298 343
#     4  10  23  39  54  90 122 155 204 242 284 343
#     4   9  19  36  60  89 120 149 197 242 299 362
#     4  10  19  34  57  85 117 151 190 245 302 343
#     4  11  22  36  54  86 126 149 193 252 283 350
#     4  11  19  33  57  89 119 147 190 242 306 340
#
# _framework density 19.886102999999999
#
# number of rings (size 3 to 8) (size 9 to 14) (size 15 to 20)
#    0.000    1.500    7.500    1.500    0.000    2.000 
#    2.250    2.500    0.000    6.000    0.000    0.000 
#    0.000    0.000    0.000    0.000    0.000    0.000 
#
# Total GULP energy -198276.764560 kJ/mol
# GULP energy per Si atom -12392.297785 kJ/mol
# Density = 1.984084 g / cm^3
# Si number density = 19.886103 Si / 1000 Ang^3
#
#
#
# Elastic Constant Matrix: (Units=GPa)
#
#
# Indices 1 2 3 4 5 6 
#
# 1 104.5046 41.2433 40.0115 9.5452 -7.0803 -10.6254
# 2 41.2433 102.5881 35.6714 4.3404 9.8179 -11.8415
# 3 40.0115 35.6714 60.9735 -3.6379 -2.9828 -1.0517
# 4 9.5452 4.3404 -3.6379 31.5291 4.0797 12.3257
# 5 -7.0803 9.8179 -2.9828 4.0797 25.6462 6.4299
# 6 -10.6254 -11.8415 -1.0517 12.3257 6.4299 29.1235
#
#
#
# Elastic Compliance Matrix: (Units=1/GPa)
#
#
# Indices 1 2 3 4 5 6 
#
# 1 0.015858 -0.002238 -0.009323 -0.008990 0.003693 0.007528
# 2 -0.002238 0.015698 -0.008295 -0.004919 -0.009159 0.009371
# 3 -0.009323 -0.008295 0.028077 0.011072 0.005002 -0.011551
# 4 -0.008990 -0.004919 0.011072 0.045922 -0.000550 -0.024193
# 5 0.003693 -0.009159 0.005002 -0.000550 0.047297 -0.012405
# 6 0.007528 0.009371 -0.011551 -0.024193 -0.012405 0.053454
#
#
# Mechanical properties :
#
#
# Convention : Reuss Voigt Hill
#
# Bulk Modulus (GPa) = 50.19672 55.76873 52.98273
# Shear Modulus (GPa) = 19.78943 27.33578 23.56261
#
# Velocity S-wave (km/s) = 3.15800 3.71161 3.44594
# Velocity P-wave (km/s) = 6.21243 6.81711 6.52178
#
# Compressibility (1/GPa) = 0.01992162
#
# Stress axis : x y z
#
# Youngs Moduli (GPa) = 63.05813 63.70229 35.61575
#
# Poissons Ratio (x) = 0.14256 0.33205
# Poissons Ratio (y) = 0.14111 0.29544
# Poissons Ratio (z) = 0.58790 0.52842
#
# Static dielectric constant tensor:
#      x y z
#    x 4.954120 0.512040 1.392600 
#    y 0.512040 4.705510 0.659710 
#    z 1.392600 0.659710 5.001670 
# 
# 
# High freq. dielectric constant tensor:
#      x y z
#    x 1.765550 -0.005290 -0.012660 
#    y -0.005290 1.774080 -0.009050 
#    z -0.012660 -0.009050 1.753410 
# 
# From -- ./inp_files/521758.got.cif
#   From: 2010.06.25/outbox.cif.g09.slc.cpg/sg2_261_cif.got.tgz:521758.got - 2010.06.27 13:26:56.
