data_PCOD8042924
_publ_section_title
;
Structure prediction by ZEFSAII (Michael W. Deem and Ramdas Pophale) SiO2 
 PCOD8042924
Probable space group: P -1
;
_chemical_formula_sum "Si O2"
_cell_formula_units_Z 16
_cell_length_a 22.553783
_cell_length_b 9.366938
_cell_length_c 12.153465
_cell_angle_alpha 130.379566
_cell_angle_beta 154.034328
_cell_angle_gamma 45.085557
_cell_volume 795.374401
_symmetry_space_group_name_H-M "P -1"
_symmetry_group_IT_number 2
_symmetry_cell_setting 'triclinic'
loop_
_space_group_symop_operation_xyz
x,y,z
-x,-y,-z
loop_
_atom_site_type_symbol
_atom_site_label
_atom_site_fract_x
_atom_site_fract_y
_atom_site_fract_z
Si Si1 0.145950 0.587051 0.096502
Si Si2 0.908598 0.045215 0.261984
Si Si3 0.690002 0.867958 0.834830
Si Si4 0.178987 0.343636 0.443607
Si Si5 0.336471 0.619402 0.244379
Si Si6 0.620763 0.987728 0.539595
Si Si7 0.087222 0.637323 0.253491
Si Si8 0.143691 0.527130 0.705978
O O1 0.192178 0.345978 0.036840
O O2 0.232591 0.679822 0.207256
O O3 0.186218 0.638287 0.312990
O O4 0.973828 0.688917 0.835330
O O5 0.909864 0.244292 0.308153
O O6 0.000000 0.000000 0.500000
O O7 0.975546 0.863444 0.196682
O O8 0.750313 0.048630 0.035831
O O9 0.554138 0.917742 0.715659
O O10 0.653725 0.852334 0.637421
O O11 0.175631 0.537822 0.461937
O O12 0.210688 0.378082 0.640592
O O13 0.308849 0.146617 0.516498
O O14 0.500000 0.500000 0.500000
O O15 0.323708 0.826109 0.265419
O O16 0.273655 0.489000 0.993105
O O17 0.000000 0.500000 0.000000
O O18 0.000000 0.500000 0.500000
#
# Coordination Sequence:
#
# PCOD8042924 Si02
#       8
#     2   2   2   2   2   2   2   2
#     4  11  20  38  69  92 135 164 219 270 336 384
#     4  12  22  39  69 100 127 175 221 271 340 400
#     4  11  20  40  65  98 125 173 218 269 332 401
#     4  11  21  41  65 100 130 168 219 296 321 380
#     4  12  26  43  65  96 134 184 224 266 339 412
#     4  11  24  39  69  94 131 171 227 275 330 394
#     4  10  19  35  65 101 128 155 222 285 324 376
#     4  12  26  44  65  99 141 178 220 278 339 401
#
# _framework density 20.116313999999999
#
# number of rings (size 3 to 8) (size 9 to 14) (size 15 to 20)
#    0.000    0.750    8.750    0.750    0.000    1.500 
#    0.000    2.500    0.000    0.000    0.000    0.000 
#    0.000    0.000    0.000    0.000    0.000    0.000 
#
# Total GULP energy -198337.298710 kJ/mol
# GULP energy per Si atom -12396.081169 kJ/mol
# Density = 2.007053 g / cm^3
# Si number density = 20.116314 Si / 1000 Ang^3
#
#
#
# Elastic Constant Matrix: (Units=GPa)
#
#
# Indices 1 2 3 4 5 6 
#
# 1 150.5850 32.5876 62.0696 2.1574 9.1516 -16.4597
# 2 32.5876 78.3021 27.5778 8.3714 12.7275 -11.4342
# 3 62.0696 27.5778 108.1909 1.3694 3.7004 -10.0244
# 4 2.1574 8.3714 1.3694 26.0550 4.6055 2.4354
# 5 9.1516 12.7275 3.7004 4.6055 37.6176 3.3169
# 6 -16.4597 -11.4342 -10.0244 2.4354 3.3169 38.9700
#
#
#
# Elastic Compliance Matrix: (Units=1/GPa)
#
#
# Indices 1 2 3 4 5 6 
#
# 1 0.009245 -0.001646 -0.004617 0.000042 -0.001451 0.002355
# 2 -0.001646 0.016196 -0.002592 -0.004492 -0.004633 0.004065
# 3 -0.004617 -0.002592 0.012565 0.000394 0.000677 0.000439
# 4 0.000042 -0.004492 0.000394 0.040690 -0.003205 -0.003469
# 5 -0.001451 -0.004633 0.000677 -0.003205 0.029189 -0.004082
# 6 0.002355 0.004065 0.000439 -0.003469 -0.004082 0.028525
#
#
# Mechanical properties :
#
#
# Convention : Reuss Voigt Hill
#
# Bulk Modulus (GPa) = 49.27186 64.61643 56.94414
# Shear Modulus (GPa) = 31.07777 34.85138 32.96458
#
# Velocity S-wave (km/s) = 3.93479 4.16684 4.05248
# Velocity P-wave (km/s) = 6.72236 7.43917 7.08983
#
# Compressibility (1/GPa) = 0.02029556
#
# Stress axis : x y z
#
# Youngs Moduli (GPa) = 108.16531 61.74375 79.58641
#
# Poissons Ratio (x) = 0.10165 0.36745
# Poissons Ratio (y) = 0.17808 0.20628
# Poissons Ratio (z) = 0.49940 0.16003
#
# Static dielectric constant tensor:
#      x y z
#    x 3.798450 -1.934840 0.604690 
#    y -1.934840 -5.701380 2.854780 
#    z 0.604690 2.854780 2.727310 
# 
# 
# High freq. dielectric constant tensor:
#      x y z
#    x 1.801510 0.006230 0.002230 
#    y 0.006230 1.773590 -0.002020 
#    z 0.002230 -0.002020 1.762520 
# 
# From -- ./inp_files/469615.got.cif
#   From: 2010.06.25/outbox.cif.g09.slc.cpg/sg2_235_cif.got.tgz:469615.got - 2010.06.27 13:26:56.
