data_PCOD8042519
_publ_section_title
;
Structure prediction by ZEFSAII (Michael W. Deem and Ramdas Pophale) SiO2 
 PCOD8042519
Probable space group: P -1
;
_chemical_formula_sum "Si O2"
_cell_formula_units_Z 16
_cell_length_a 9.416048
_cell_length_b 11.328125
_cell_length_c 21.739172
_cell_angle_alpha 130.753158
_cell_angle_beta 153.475319
_cell_angle_gamma 58.429054
_cell_volume 771.800037
_symmetry_space_group_name_H-M "P -1"
_symmetry_group_IT_number 2
_symmetry_cell_setting 'triclinic'
loop_
_space_group_symop_operation_xyz
x,y,z
-x,-y,-z
loop_
_atom_site_type_symbol
_atom_site_label
_atom_site_fract_x
_atom_site_fract_y
_atom_site_fract_z
Si Si1 0.818705 0.383375 0.639637
Si Si2 0.112009 0.746990 0.251966
Si Si3 0.841767 0.043749 0.220506
Si Si4 0.834392 0.138636 0.115423
Si Si5 0.340858 0.537606 0.178183
Si Si6 0.453874 0.300788 0.351168
Si Si7 0.428778 0.552649 0.882391
Si Si8 0.727040 0.345872 0.340933
O O1 0.696765 0.289787 0.498271
O O2 0.626829 0.524906 0.624193
O O3 0.746408 0.268309 0.630650
O O4 0.205825 0.445524 0.809129
O O5 0.362537 0.697148 0.281805
O O6 0.081352 0.930024 0.298198
O O7 0.778100 0.621710 0.069666
O O8 0.909673 0.049758 0.176066
O O9 0.904630 0.216886 0.332923
O O10 0.475037 0.967942 0.072313
O O11 0.749311 0.305901 0.160014
O O12 0.134549 0.166569 0.193667
O O13 0.581869 0.557438 0.220185
O O14 0.416233 0.390514 0.199430
O O15 0.000000 0.500000 0.000000
O O16 0.618566 0.272882 0.340859
O O17 0.000000 0.500000 0.500000
#
# Coordination Sequence:
#
# PCOD8042519 Si02
#       8
#     2   2   2   2   2   2   2   2
#     4  10  19  35  57  87 122 151 203 253 298 361
#     4  10  20  36  58  89 121 158 201 249 309 355
#     4  10  22  39  63  87 125 160 201 250 308 371
#     4   9  19  38  61  87 120 161 201 244 304 358
#     4  10  20  36  59  91 122 152 207 250 294 356
#     4  10  22  36  60  88 118 160 205 252 296 360
#     4   9  17  33  59  88 117 158 200 247 300 355
#     4  12  24  41  65  91 123 164 209 249 305 374
#
# _framework density 20.730758999999999
#
# number of rings (size 3 to 8) (size 9 to 14) (size 15 to 20)
#    0.000    2.000    2.500    1.125    5.250    0.500 
#    0.000    4.375    0.000    0.000    0.000    0.000 
#    0.000    0.000    0.000    0.000    0.000    0.000 
#
# Total GULP energy -198297.265154 kJ/mol
# GULP energy per Si atom -12393.579072 kJ/mol
# Density = 2.068357 g / cm^3
# Si number density = 20.730759 Si / 1000 Ang^3
#
#
#
# Elastic Constant Matrix: (Units=GPa)
#
#
# Indices 1 2 3 4 5 6 
#
# 1 99.2038 37.1594 21.3277 -0.2903 -9.5789 3.2553
# 2 37.1594 112.8488 27.0553 -0.7208 -17.7377 -1.1442
# 3 21.3277 27.0553 48.4212 -1.3534 -2.0400 4.8479
# 4 -0.2903 -0.7208 -1.3534 29.4650 8.9905 -7.8529
# 5 -9.5789 -17.7377 -2.0400 8.9905 32.2726 0.4352
# 6 3.2553 -1.1442 4.8479 -7.8529 0.4352 33.4732
#
#
#
# Elastic Compliance Matrix: (Units=1/GPa)
#
#
# Indices 1 2 3 4 5 6 
#
# 1 0.012149 -0.002816 -0.003614 -0.001040 0.002133 -0.001026
# 2 -0.002816 0.011988 -0.005358 -0.001477 0.005812 0.001037
# 3 -0.003614 -0.005358 0.025481 0.000933 -0.002623 -0.003269
# 4 -0.001040 -0.001477 0.000933 0.040258 -0.012405 0.009521
# 5 0.002133 0.005812 -0.002623 -0.012405 0.038145 -0.003035
# 6 -0.001026 0.001037 -0.003269 0.009521 -0.003035 0.032757
#
#
# Mechanical properties :
#
#
# Convention : Reuss Voigt Hill
#
# Bulk Modulus (GPa) = 38.40105 47.95096 43.17601
# Shear Modulus (GPa) = 25.90236 30.70425 28.30330
#
# Velocity S-wave (km/s) = 3.53861 3.85268 3.69898
# Velocity P-wave (km/s) = 5.93798 6.55526 6.25424
#
# Compressibility (1/GPa) = 0.02604096
#
# Stress axis : x y z
#
# Youngs Moduli (GPa) = 82.31450 83.41812 39.24509
#
# Poissons Ratio (x) = 0.23487 0.14184
# Poissons Ratio (y) = 0.23176 0.21029
# Poissons Ratio (z) = 0.29751 0.44698
#
# Static dielectric constant tensor:
#      x y z
#    x 3.962910 -0.059180 0.021960 
#    y -0.059180 3.686680 -0.152800 
#    z 0.021960 -0.152800 3.689640 
# 
# 
# High freq. dielectric constant tensor:
#      x y z
#    x 1.815120 0.002470 -0.001400 
#    y 0.002470 1.790590 -0.017700 
#    z -0.001400 -0.017700 1.800040 
# 
# From -- ./inp_files/268816.got.cif
#   From: 2010.06.25/outbox.cif.g09.slc.cpg/sg2_135_cif.got.tgz:268816.got - 2010.06.27 13:26:56.
