data_PCOD8042418
_publ_section_title
;
Structure prediction by ZEFSAII (Michael W. Deem and Ramdas Pophale) SiO2 
 PCOD8042418
Probable space group: P -1
;
_chemical_formula_sum "Si O2"
_cell_formula_units_Z 14
_cell_length_a 12.871245
_cell_length_b 23.948795
_cell_length_c 5.246346
_cell_angle_alpha 78.888146
_cell_angle_beta 79.384116
_cell_angle_gamma 146.506492
_cell_volume 675.031036
_symmetry_space_group_name_H-M "P -1"
_symmetry_group_IT_number 2
_symmetry_cell_setting 'triclinic'
loop_
_space_group_symop_operation_xyz
x,y,z
-x,-y,-z
loop_
_atom_site_type_symbol
_atom_site_label
_atom_site_fract_x
_atom_site_fract_y
_atom_site_fract_z
Si Si1 0.636825 0.229896 0.841173
Si Si2 0.184099 0.351979 0.985993
Si Si3 0.328531 0.218778 0.629491
Si Si4 0.521731 0.420865 0.634177
Si Si5 0.125978 0.020511 0.224079
Si Si6 0.254221 0.650006 0.822509
Si Si7 0.998033 0.689884 0.384172
O O1 0.679146 0.274266 0.500357
O O2 0.747353 0.220249 0.804580
O O3 0.345571 0.086802 0.168892
O O4 0.770183 0.330864 0.911867
O O5 0.308616 0.350431 0.945645
O O6 0.402020 0.505047 0.717100
O O7 0.003108 0.268303 0.896114
O O8 0.029167 0.286890 0.367131
O O9 0.418592 0.309312 0.708305
O O10 0.552593 0.308277 0.269133
O O11 0.252492 0.122926 0.875528
O O12 0.089427 0.124269 0.666142
O O13 0.764623 0.533195 0.602731
O O14 0.000000 0.000000 0.500000
O O15 0.000000 0.500000 0.000000
#
# Coordination Sequence:
#
# PCOD8042418 Si02
#       7
#     2   2   2   2   2   2   2
#     4  11  22  36  58  77 115 153 186 225 285 333
#     4   9  20  36  57  84 119 141 182 229 289 346
#     4  10  21  37  57  81 115 148 198 229 278 333
#     4   9  20  34  58  85 111 150 182 231 288 335
#     4  10  21  40  54  79 112 158 197 234 264 333
#     4  11  22  35  52  86 115 144 180 234 281 349
#     4  10  19  35  55  85 113 146 179 227 288 335
#
# _framework density 20.739788999999998
#
# number of rings (size 3 to 8) (size 9 to 14) (size 15 to 20)
#    0.857    1.143    1.429    2.571    2.000    2.286 
#    0.000    0.000    0.000    1.714    0.000    0.000 
#    0.000    0.000    0.000    0.000    0.000    0.000 
#
# Total GULP energy -173463.626071 kJ/mol
# GULP energy per Si atom -12390.259005 kJ/mol
# Density = 2.069258 g / cm^3
# Si number density = 20.739789 Si / 1000 Ang^3
#
#
#
# Elastic Constant Matrix: (Units=GPa)
#
#
# Indices 1 2 3 4 5 6 
#
# 1 79.2905 18.8789 34.7813 0.3282 -37.3149 15.8957
# 2 18.8789 50.2557 25.5242 14.4004 -5.4430 10.7508
# 3 34.7813 25.5242 79.2743 17.8550 -32.2130 7.3850
# 4 0.3282 14.4004 17.8550 37.9685 3.5655 -5.6343
# 5 -37.3149 -5.4430 -32.2130 3.5655 41.6544 -0.8609
# 6 15.8957 10.7508 7.3850 -5.6343 -0.8609 31.3511
#
#
#
# Elastic Compliance Matrix: (Units=1/GPa)
#
#
# Indices 1 2 3 4 5 6 
#
# 1 0.027469 -0.004749 0.001772 -0.003532 0.025398 -0.012654
# 2 -0.004749 0.028431 -0.006575 -0.008275 -0.005069 -0.007419
# 3 0.001772 -0.006575 0.026564 -0.013089 0.022254 -0.006642
# 4 -0.003532 -0.008275 -0.013089 0.039425 -0.017446 0.014318
# 5 0.025398 -0.005069 0.022254 -0.017446 0.064433 -0.017747
# 6 -0.012654 -0.007419 -0.006642 0.014318 -0.017747 0.044507
#
#
# Mechanical properties :
#
#
# Convention : Reuss Voigt Hill
#
# Bulk Modulus (GPa) = 15.78308 40.79881 28.29095
# Shear Modulus (GPa) = 18.44650 30.83720 24.64185
#
# Velocity S-wave (km/s) = 2.98556 3.86017 3.45069
# Velocity P-wave (km/s) = 4.41716 6.29145 5.43570
#
# Compressibility (1/GPa) = 0.06335897
#
# Stress axis : x y z
#
# Youngs Moduli (GPa) = 36.40421 35.17292 37.64528
#
# Poissons Ratio (x) = 0.16704 -0.06671
# Poissons Ratio (y) = 0.17289 0.24753
# Poissons Ratio (z) = -0.06451 0.23128
#
# Static dielectric constant tensor:
#      x y z
#    x 3.686900 0.443010 -0.425060 
#    y 0.443010 3.745090 -0.048690 
#    z -0.425060 -0.048690 3.193770 
# 
# 
# High freq. dielectric constant tensor:
#      x y z
#    x 1.794850 0.026000 -0.029520 
#    y 0.026000 1.792810 0.018400 
#    z -0.029520 0.018400 1.805840 
# 
# From -- ./inp_files/101182.got.cif
#   From: 2010.06.25/outbox.cif.g09.slc.cpg/sg2_51_cif.got.tgz:101182.got - 2010.06.27 13:26:56.
