data_PCOD8042645
_publ_section_title
;
Structure prediction by ZEFSAII (Michael W. Deem and Ramdas Pophale) SiO2 
 PCOD8042645
Probable space group: P -1
;
_chemical_formula_sum "Si O2"
_cell_formula_units_Z 16
_cell_length_a 19.853367
_cell_length_b 14.250338
_cell_length_c 11.088182
_cell_angle_alpha 29.558070
_cell_angle_beta 32.129942
_cell_angle_gamma 30.995144
_cell_volume 730.961346
_symmetry_space_group_name_H-M "P -1"
_symmetry_group_IT_number 2
_symmetry_cell_setting 'triclinic'
loop_
_space_group_symop_operation_xyz
x,y,z
-x,-y,-z
loop_
_atom_site_type_symbol
_atom_site_label
_atom_site_fract_x
_atom_site_fract_y
_atom_site_fract_z
Si Si1 0.616486 0.258834 0.445978
Si Si2 0.686198 0.849445 0.656617
Si Si3 0.612613 0.040375 0.937385
Si Si4 0.089739 0.365648 0.626201
Si Si5 0.684643 0.564356 0.347437
Si Si6 0.918631 0.864172 0.741785
Si Si7 0.180528 0.582819 0.935445
Si Si8 0.097047 0.524242 0.682697
O O1 0.574892 0.199198 0.704784
O O2 0.466727 0.443734 0.411629
O O3 0.730111 0.346623 0.189390
O O4 0.685971 0.061784 0.470309
O O5 0.757840 0.811626 0.456869
O O6 0.525668 0.875338 0.860213
O O7 0.780668 0.660259 0.817145
O O8 0.749811 0.028057 0.814363
O O9 0.648264 0.805975 0.095709
O O10 0.121620 0.507854 0.519601
O O11 0.000000 0.500000 0.500000
O O12 0.989581 0.270978 0.945608
O O13 0.786433 0.401240 0.273371
O O14 0.761100 0.506907 0.425727
O O15 0.969957 0.758312 0.648826
O O16 0.949980 0.660467 0.007178
O O17 0.000000 0.000000 0.500000
#
# Coordination Sequence:
#
# PCOD8042645 Si02
#       8
#     2   2   2   2   2   2   2   2
#     4  11  21  33  61  93 116 145 192 246 294 342
#     4  10  21  39  54  81 120 154 196 235 280 342
#     4  10  19  35  59  87 120 147 189 242 294 340
#     4  10  23  40  60  80 117 166 200 232 281 352
#     4  10  19  37  59  88 121 144 188 247 299 342
#     4  10  22  36  61  94 120 146 187 247 305 340
#     4  11  20  34  59  90 115 150 192 237 297 342
#     4  10  22  40  58  84 122 154 195 237 291 349
#
# _framework density 21.888983
#
# number of rings (size 3 to 8) (size 9 to 14) (size 15 to 20)
#    0.000    1.750    2.500    3.375    5.250    0.500 
#    0.000    8.125    0.000    3.750    0.000    0.000 
#    0.000    0.000    0.000    0.000    0.000    0.000 
#
# Total GULP energy -198277.223472 kJ/mol
# GULP energy per Si atom -12392.326467 kJ/mol
# Density = 2.183916 g / cm^3
# Si number density = 21.888983 Si / 1000 Ang^3
#
#
#
# Elastic Constant Matrix: (Units=GPa)
#
#
# Indices 1 2 3 4 5 6 
#
# 1 147.8525 56.3130 48.1917 26.8940 -21.5999 17.8863
# 2 56.3130 121.5296 50.1337 46.8560 -6.6601 16.1504
# 3 48.1917 50.1337 59.0992 28.5402 -22.2502 8.4436
# 4 26.8940 46.8560 28.5402 38.1633 -8.3187 5.7070
# 5 -21.5999 -6.6601 -22.2502 -8.3187 36.6349 9.9527
# 6 17.8863 16.1504 8.4436 5.7070 9.9527 34.7237
#
#
#
# Elastic Compliance Matrix: (Units=1/GPa)
#
#
# Indices 1 2 3 4 5 6 
#
# 1 0.010095 -0.002260 -0.004335 0.000474 0.004205 -0.004378
# 2 -0.002260 0.018981 -0.008611 -0.016573 -0.006617 -0.000950
# 3 -0.004335 -0.008611 0.043192 -0.012747 0.021479 -0.008326
# 4 0.000474 -0.016573 -0.012747 0.056084 0.002054 0.000757
# 5 0.004205 -0.006617 0.021479 0.002054 0.047008 -0.018123
# 6 -0.004378 -0.000950 -0.008326 0.000757 -0.018123 0.038591
#
#
# Mechanical properties :
#
#
# Convention : Reuss Voigt Hill
#
# Bulk Modulus (GPa) = 23.89092 70.86199 47.37645
# Shear Modulus (GPa) = 19.35631 33.49390 26.42510
#
# Velocity S-wave (km/s) = 2.97694 3.91598 3.47830
# Velocity P-wave (km/s) = 4.77016 7.27257 6.14999
#
# Compressibility (1/GPa) = 0.04185691
#
# Stress axis : x y z
#
# Youngs Moduli (GPa) = 99.05965 52.68421 23.15248
#
# Poissons Ratio (x) = 0.11906 0.10036
# Poissons Ratio (y) = 0.22386 0.19936
# Poissons Ratio (z) = 0.42940 0.45366
#
# Static dielectric constant tensor:
#      x y z
#    x 4.028680 -0.033510 -0.261090 
#    y -0.033510 4.426250 0.426110 
#    z -0.261090 0.426110 3.932800 
# 
# 
# High freq. dielectric constant tensor:
#      x y z
#    x 1.858030 -0.006450 -0.032660 
#    y -0.006450 1.864300 0.012400 
#    z -0.032660 0.012400 1.825410 
# 
# From -- ./inp_files/427643.got.cif
#   From: 2010.06.25/outbox.cif.g09.slc.cpg/sg2_214_cif.got.tgz:427643.got - 2010.06.27 13:26:56.
