data_PCOD8042908
_publ_section_title
;
Structure prediction by ZEFSAII (Michael W. Deem and Ramdas Pophale) SiO2 
 PCOD8042908
Probable space group: P -1
;
_chemical_formula_sum "Si O2"
_cell_formula_units_Z 14
_cell_length_a 7.851508
_cell_length_b 10.565622
_cell_length_c 8.297482
_cell_angle_alpha 75.179505
_cell_angle_beta 128.154126
_cell_angle_gamma 101.117320
_cell_volume 522.711409
_symmetry_space_group_name_H-M "P -1"
_symmetry_group_IT_number 2
_symmetry_cell_setting 'triclinic'
loop_
_space_group_symop_operation_xyz
x,y,z
-x,-y,-z
loop_
_atom_site_type_symbol
_atom_site_label
_atom_site_fract_x
_atom_site_fract_y
_atom_site_fract_z
Si Si1 0.943400 0.666368 0.134615
Si Si2 0.191391 0.439381 0.461016
Si Si3 0.578269 0.608144 0.713500
Si Si4 0.072275 0.948448 0.248963
Si Si5 0.959099 0.842701 0.549220
Si Si6 0.510130 0.865514 0.427251
Si Si7 0.800944 0.184838 0.000070
O O1 0.005368 0.546184 0.326181
O O2 0.981066 0.804080 0.199968
O O3 0.696279 0.637216 0.942984
O O4 0.094788 0.679618 0.057051
O O5 0.399800 0.489361 0.671156
O O6 0.250897 0.427056 0.312052
O O7 0.113822 0.296641 0.528976
O O8 0.453718 0.736247 0.542168
O O9 0.338993 0.969589 0.368188
O O10 0.010155 0.950489 0.405581
O O11 0.939031 0.062810 0.048141
O O12 0.772146 0.889736 0.556212
O O13 0.176032 0.815866 0.792554
O O14 0.440580 0.838998 0.205941
#
# Coordination Sequence:
#
# PCOD8042908 Si02
#       7
#     2   2   2   2   2   2   2
#     4  11  20  39  65  95 125 166 207 263 321 364
#     4  10  20  35  65  92 127 161 211 258 315 381
#     4  10  19  35  64  95 121 161 211 253 316 379
#     4  11  25  44  62  96 134 161 218 264 302 386
#     4  11  25  43  65  96 129 169 209 260 324 370
#     4  10  21  43  65  91 124 165 216 254 312 375
#     4  11  22  43  65  93 128 171 214 259 311 376
#
# _framework density 26.783422000000002
#
# number of rings (size 3 to 8) (size 9 to 14) (size 15 to 20)
#    0.000    1.429    5.714    2.571    0.000    1.714 
#    5.143    0.714    0.000    0.000    0.000    0.000 
#    0.000    0.000    0.000    0.000    0.000    0.000 
#
# Total GULP energy -173546.275167 kJ/mol
# GULP energy per Si atom -12396.162512 kJ/mol
# Density = 2.672246 g / cm^3
# Si number density = 26.783422 Si / 1000 Ang^3
#
#
#
# Elastic Constant Matrix: (Units=GPa)
#
#
# Indices 1 2 3 4 5 6 
#
# 1 45.1248 36.3945 25.7710 9.8397 5.7089 8.4596
# 2 36.3945 131.5246 17.0072 -14.6103 13.9023 15.3765
# 3 25.7710 17.0072 112.6571 -2.2708 17.0085 21.8589
# 4 9.8397 -14.6103 -2.2708 43.1525 9.0061 -1.7454
# 5 5.7089 13.9023 17.0085 9.0061 30.4414 -5.1791
# 6 8.4596 15.3765 21.8589 -1.7454 -5.1791 37.8388
#
#
#
# Elastic Compliance Matrix: (Units=1/GPa)
#
#
# Indices 1 2 3 4 5 6 
#
# 1 0.039368 -0.012528 -0.009047 -0.015340 0.008261 0.001939
# 2 -0.012528 0.013273 0.003525 0.009267 -0.009356 -0.005483
# 3 -0.009047 0.003525 0.013846 0.005903 -0.010863 -0.008623
# 4 -0.015340 0.009267 0.005903 0.033114 -0.015182 -0.004297
# 5 0.008261 -0.009356 -0.010863 -0.015182 0.048546 0.014175
# 6 0.001939 -0.005483 -0.008623 -0.004297 0.014175 0.034946
#
#
# Mechanical properties :
#
#
# Convention : Reuss Voigt Hill
#
# Bulk Modulus (GPa) = 32.90771 49.73908 41.32339
# Shear Modulus (GPa) = 21.80337 36.29545 29.04941
#
# Velocity S-wave (km/s) = 2.85627 3.68522 3.29691
# Velocity P-wave (km/s) = 4.81570 6.05962 5.47312
#
# Compressibility (1/GPa) = 0.03038802
#
# Stress axis : x y z
#
# Youngs Moduli (GPa) = 25.40138 75.33945 72.22255
#
# Poissons Ratio (x) = 0.94383 0.65340
# Poissons Ratio (y) = 0.31822 -0.25460
# Poissons Ratio (z) = 0.22981 -0.26559
#
# Static dielectric constant tensor:
#      x y z
#    x 4.396820 -0.057680 -0.054980 
#    y -0.057680 5.185070 0.150660 
#    z -0.054980 0.150660 4.876160 
# 
# 
# High freq. dielectric constant tensor:
#      x y z
#    x 2.035500 -0.002370 0.000810 
#    y -0.002370 2.123520 0.019350 
#    z 0.000810 0.019350 2.091110 
# 
# From -- ./inp_files/176948.got.cif
#   From: 2010.06.25/outbox.cif.g09.slc.cpg/sg2_89_cif.got.tgz:176948.got - 2010.06.27 13:26:56.
