data_PCOD8042276
_publ_section_title
;
Structure prediction by ZEFSAII (Michael W. Deem and Ramdas Pophale) SiO2 
 PCOD8042276
Probable space group: P -1
;
_chemical_formula_sum "Si O2"
_cell_formula_units_Z 12
_cell_length_a 14.854176
_cell_length_b 8.027988
_cell_length_c 12.139112
_cell_angle_alpha 80.289573
_cell_angle_beta 25.550221
_cell_angle_gamma 66.434702
_cell_volume 500.229674
_symmetry_space_group_name_H-M "P -1"
_symmetry_group_IT_number 2
_symmetry_cell_setting 'triclinic'
loop_
_space_group_symop_operation_xyz
x,y,z
-x,-y,-z
loop_
_atom_site_type_symbol
_atom_site_label
_atom_site_fract_x
_atom_site_fract_y
_atom_site_fract_z
Si Si1 0.224828 0.174312 0.493988
Si Si2 0.843058 0.186775 0.379832
Si Si3 0.141865 0.763433 0.404428
Si Si4 0.692356 0.643047 0.824432
Si Si5 0.294940 0.404453 0.936473
Si Si6 0.640076 0.941233 0.236725
O O1 0.209446 0.982837 0.516467
O O2 0.289560 0.212706 0.297511
O O3 0.451513 0.118277 0.335659
O O4 0.952463 0.360516 0.823738
O O5 0.925300 0.247680 0.393378
O O6 0.562893 0.386769 0.625998
O O7 0.087859 0.089788 0.039968
O O8 0.086814 0.611590 0.413676
O O9 0.437140 0.664563 0.075288
O O10 0.000000 0.000000 0.500000
O O11 0.698615 0.694379 0.940018
O O12 0.282538 0.281620 0.863021
O O13 0.500000 0.000000 0.500000
#
# Coordination Sequence:
#
# PCOD8042276 Si02
#       6
#     2   2   2   2   2   2
#     4  11  23  40  66  96 128 165 205 255 314 374
#     4  10  23  40  61  91 125 162 209 259 312 369
#     4  10  19  34  61  92 130 170 200 242 304 375
#     4  10  21  36  59  97 132 162 203 247 305 377
#     4  10  23  41  63  93 129 164 202 255 312 373
#     4  11  26  46  65  88 122 166 217 267 314 366
#
# _framework density 23.988982
#
# number of rings (size 3 to 8) (size 9 to 14) (size 15 to 20)
#    0.000    1.667    0.000    3.500    0.000   16.000 
#    0.000    1.667    0.000    0.000    0.000    0.000 
#    0.000    0.000    0.000    0.000    0.000    0.000 
#
# Total GULP energy -148691.184140 kJ/mol
# GULP energy per Si atom -12390.932012 kJ/mol
# Density = 2.393438 g / cm^3
# Si number density = 23.988982 Si / 1000 Ang^3
#
#
#
# Elastic Constant Matrix: (Units=GPa)
#
#
# Indices 1 2 3 4 5 6 
#
# 1 75.5867 8.9371 32.8801 -3.0195 8.0163 5.6435
# 2 8.9371 39.3882 1.2956 7.4097 17.6650 9.7849
# 3 32.8801 1.2956 166.2673 -9.4116 1.0243 -11.9388
# 4 -3.0195 7.4097 -9.4116 43.6755 -3.2948 1.1160
# 5 8.0163 17.6650 1.0243 -3.2948 38.9428 17.7445
# 6 5.6435 9.7849 -11.9388 1.1160 17.7445 26.0283
#
#
#
# Elastic Compliance Matrix: (Units=1/GPa)
#
#
# Indices 1 2 3 4 5 6 
#
# 1 0.015260 -0.002532 -0.003221 0.000880 -0.000100 -0.003803
# 2 -0.002532 0.034449 -0.000237 -0.007125 -0.014710 -0.002176
# 3 -0.003221 -0.000237 0.007093 0.001090 -0.001659 0.005125
# 4 0.000880 -0.007125 0.001090 0.024925 0.006175 -0.002291
# 5 -0.000100 -0.014710 -0.001659 0.006175 0.044789 -0.026009
# 6 -0.003803 -0.002176 0.005125 -0.002291 -0.026009 0.060242
#
#
# Mechanical properties :
#
#
# Convention : Reuss Voigt Hill
#
# Bulk Modulus (GPa) = 22.30994 40.82974 31.56984
# Shear Modulus (GPa) = 23.39963 37.60462 30.50212
#
# Velocity S-wave (km/s) = 3.12658 3.96356 3.56969
# Velocity P-wave (km/s) = 4.72803 6.16470 5.49353
#
# Compressibility (1/GPa) = 0.04482307
#
# Stress axis : x y z
#
# Youngs Moduli (GPa) = 65.53077 29.02851 140.98228
#
# Poissons Ratio (x) = 0.07351 0.45406
# Poissons Ratio (y) = 0.16594 0.03335
# Poissons Ratio (z) = 0.21105 0.00687
#
# Static dielectric constant tensor:
#      x y z
#    x 4.279490 0.460260 -0.209870 
#    y 0.460260 2.829970 -0.881100 
#    z -0.209870 -0.881100 4.077890 
# 
# 
# High freq. dielectric constant tensor:
#      x y z
#    x 1.942630 0.025680 -0.025630 
#    y 0.025680 1.920440 0.013750 
#    z -0.025630 0.013750 1.993770 
# 
# From -- ./inp_files/442979.got.cif
#   From: 2010.06.25/outbox.cif.g09.slc.cpg/sg2_222_cif.got.tgz:442979.got - 2010.06.27 13:26:56.
