data_PCOD8042144
_publ_section_title
;
Structure prediction by ZEFSAII (Michael W. Deem and Ramdas Pophale) SiO2 
 PCOD8042144
Probable space group: P -1
;
_chemical_formula_sum "Si O2"
_cell_formula_units_Z 16
_cell_length_a 11.535179
_cell_length_b 13.787614
_cell_length_c 9.924970
_cell_angle_alpha 37.794991
_cell_angle_beta 125.054428
_cell_angle_gamma 110.277324
_cell_volume 773.564413
_symmetry_space_group_name_H-M "P -1"
_symmetry_group_IT_number 2
_symmetry_cell_setting 'triclinic'
loop_
_space_group_symop_operation_xyz
x,y,z
-x,-y,-z
loop_
_atom_site_type_symbol
_atom_site_label
_atom_site_fract_x
_atom_site_fract_y
_atom_site_fract_z
Si Si1 0.568776 0.858271 0.838878
Si Si2 0.572626 0.860175 0.366356
Si Si3 0.696749 0.117124 0.526665
Si Si4 0.817173 0.984772 0.267727
Si Si5 0.636320 0.562023 0.383518
Si Si6 0.670620 0.519591 0.758142
Si Si7 0.127915 0.802287 0.685266
Si Si8 0.278676 0.783723 0.266815
O O1 0.458400 0.789903 0.742193
O O2 0.466730 0.009206 0.684701
O O3 0.686814 0.930455 0.753502
O O4 0.661475 0.719957 0.147015
O O5 0.667120 0.921355 0.245083
O O6 0.658794 0.679103 0.670721
O O7 0.425514 0.816606 0.257972
O O8 0.826208 0.127691 0.501327
O O9 0.726556 0.199947 0.594764
O O10 0.953624 0.834055 0.537113
O O11 0.811361 0.107024 0.253265
O O12 0.838939 0.079954 0.039282
O O13 0.684411 0.580797 0.547555
O O14 0.468234 0.562264 0.244540
O O15 0.739020 0.397536 0.576781
O O16 0.809181 0.389254 0.046159
#
# Coordination Sequence:
#
# PCOD8042144 Si02
#       8
#     2   2   2   2   2   2   2   2
#     4  10  20  36  57  87 119 148 187 239 293 336
#     4  10  21  34  60  89 112 144 194 242 284 331
#     4  10  21  37  57  85 117 153 189 235 285 347
#     4  11  22  38  62  82 116 157 193 238 277 349
#     4  10  19  34  58  87 120 143 188 243 291 336
#     4  10  20  33  58  88 118 147 185 246 287 335
#     4  11  22  41  59  82 119 157 193 229 290 343
#     4  10  22  36  58  92 113 150 192 238 289 334
#
# _framework density 20.683475000000001
#
# number of rings (size 3 to 8) (size 9 to 14) (size 15 to 20)
#    0.000    1.750    3.750    0.375    7.000    1.500 
#    4.500    0.000    0.000    0.750    0.000    0.000 
#    0.000    0.000    0.000    0.000    0.000    0.000 
#
# Total GULP energy -198263.684411 kJ/mol
# GULP energy per Si atom -12391.480276 kJ/mol
# Density = 2.063640 g / cm^3
# Si number density = 20.683475 Si / 1000 Ang^3
#
#
#
# Elastic Constant Matrix: (Units=GPa)
#
#
# Indices 1 2 3 4 5 6 
#
# 1 51.3168 15.2290 28.0949 -1.3079 -19.1388 -3.3844
# 2 15.2290 77.6035 39.2721 -7.4565 -2.4274 -15.2059
# 3 28.0949 39.2721 140.0108 -20.7539 -16.3313 -11.7045
# 4 -1.3079 -7.4565 -20.7539 28.9166 -7.2080 -3.1805
# 5 -19.1388 -2.4274 -16.3313 -7.2080 30.9907 -1.0449
# 6 -3.3844 -15.2059 -11.7045 -3.1805 -1.0449 16.7664
#
#
#
# Elastic Compliance Matrix: (Units=1/GPa)
#
#
# Indices 1 2 3 4 5 6 
#
# 1 0.028141 -0.002964 -0.001994 0.003703 0.017071 0.003367
# 2 -0.002964 0.018090 -0.002682 0.004130 -0.000371 0.014696
# 3 -0.001994 -0.002682 0.011156 0.009754 0.006950 0.007237
# 4 0.003703 0.004130 0.009754 0.050278 0.020189 0.022097
# 5 0.017071 -0.000371 0.006950 0.020189 0.051645 0.015010
# 6 0.003367 0.014696 0.007237 0.022097 0.015010 0.083830
#
#
# Mechanical properties :
#
#
# Convention : Reuss Voigt Hill
#
# Bulk Modulus (GPa) = 23.74881 48.23590 35.99236
# Shear Modulus (GPa) = 18.35167 27.75710 23.05439
#
# Velocity S-wave (km/s) = 2.98193 3.66730 3.34223
# Velocity P-wave (km/s) = 4.83351 6.42680 5.68623
#
# Compressibility (1/GPa) = 0.04210737
#
# Stress axis : x y z
#
# Youngs Moduli (GPa) = 35.53519 55.28053 89.63737
#
# Poissons Ratio (x) = 0.16385 0.17873
# Poissons Ratio (y) = 0.10532 0.24039
# Poissons Ratio (z) = 0.07085 0.14825
#
# Static dielectric constant tensor:
#      x y z
#    x 3.478700 -0.055120 -0.128470 
#    y -0.055120 3.634840 -0.160170 
#    z -0.128470 -0.160170 3.778770 
# 
# 
# High freq. dielectric constant tensor:
#      x y z
#    x 1.772750 -0.006630 -0.017600 
#    y -0.006630 1.800440 -0.008900 
#    z -0.017600 -0.008900 1.812450 
# 
# From -- ./inp_files/259978.got.cif
#   From: 2010.06.25/outbox.cif.g09.slc.cpg/sg2_130_cif.got.tgz:259978.got - 2010.06.27 13:26:56.
