data_PCOD8042601
_publ_section_title
;
Structure prediction by ZEFSAII (Michael W. Deem and Ramdas Pophale) SiO2 
 PCOD8042601
Probable space group: P -1
;
_chemical_formula_sum "Si O2"
_cell_formula_units_Z 16
_cell_length_a 13.607189
_cell_length_b 8.578469
_cell_length_c 14.964247
_cell_angle_alpha 94.360408
_cell_angle_beta 52.908728
_cell_angle_gamma 135.362229
_cell_volume 760.268564
_symmetry_space_group_name_H-M "P -1"
_symmetry_group_IT_number 2
_symmetry_cell_setting 'triclinic'
loop_
_space_group_symop_operation_xyz
x,y,z
-x,-y,-z
loop_
_atom_site_type_symbol
_atom_site_label
_atom_site_fract_x
_atom_site_fract_y
_atom_site_fract_z
Si Si1 0.715934 0.313411 0.730157
Si Si2 0.215647 0.774874 0.003093
Si Si3 0.749321 0.680821 0.219199
Si Si4 0.735696 0.837562 0.600768
Si Si5 0.951512 0.203574 0.065538
Si Si6 0.817218 0.756940 0.720379
Si Si7 0.963199 0.609879 0.436016
Si Si8 0.017587 0.819838 0.237005
O O1 0.736498 0.499549 0.779385
O O2 0.744044 0.359318 0.608441
O O3 0.922745 0.430816 0.659326
O O4 0.472458 0.986842 0.874927
O O5 0.062350 0.456556 0.076797
O O6 0.151913 0.816507 0.122795
O O7 0.195107 0.860004 0.929806
O O8 0.483622 0.364979 0.347526
O O9 0.835743 0.702967 0.266144
O O10 0.856087 0.697184 0.080458
O O11 0.800789 0.922187 0.193873
O O12 0.667254 0.652235 0.713204
O O13 0.920947 0.954956 0.440898
O O14 0.839982 0.104075 0.598681
O O15 0.798959 0.852770 0.820232
O O16 0.891615 0.628123 0.387888
#
# Coordination Sequence:
#
# PCOD8042601 Si02
#       8
#     2   2   2   2   2   2   2   2
#     4  10  19  35  61  79 107 156 188 214 277 347
#     4  10  20  36  57  82 113 149 184 228 278 327
#     4  10  19  35  59  81 108 148 187 227 278 329
#     4   9  17  34  58  77 106 150 183 216 274 339
#     4   9  20  35  54  81 113 148 189 223 269 345
#     4   9  19  34  53  82 111 138 183 230 268 325
#     4   9  20  37  57  86 114 139 186 235 272 329
#     4  10  22  36  53  85 120 139 180 244 276 310
#
# _framework density 21.045195
#
# number of rings (size 3 to 8) (size 9 to 14) (size 15 to 20)
#    0.000    2.500    0.000    2.250    0.000    2.500 
#    0.000    2.500    0.000   24.750    0.000    0.000 
#    0.000    0.000    0.000    0.000    0.000    0.000 
#
# Total GULP energy -198301.989443 kJ/mol
# GULP energy per Si atom -12393.874340 kJ/mol
# Density = 2.099729 g / cm^3
# Si number density = 21.045195 Si / 1000 Ang^3
#
#
#
# Elastic Constant Matrix: (Units=GPa)
#
#
# Indices 1 2 3 4 5 6 
#
# 1 80.4852 23.4054 20.8971 0.5126 7.6577 3.3492
# 2 23.4054 110.7730 28.5068 13.4184 1.0104 -9.7987
# 3 20.8971 28.5068 50.6998 -1.7724 -0.5727 14.4163
# 4 0.5126 13.4184 -1.7724 25.4442 -1.4008 -4.6582
# 5 7.6577 1.0104 -0.5727 -1.4008 27.2754 -0.1327
# 6 3.3492 -9.7987 14.4163 -4.6582 -0.1327 35.5136
#
#
#
# Elastic Compliance Matrix: (Units=1/GPa)
#
#
# Indices 1 2 3 4 5 6 
#
# 1 0.014655 -0.001706 -0.005196 0.000059 -0.004156 0.000249
# 2 -0.001706 0.012931 -0.008612 -0.006238 -0.000470 0.006404
# 3 -0.005196 -0.008612 0.030817 0.004407 0.002584 -0.013808
# 4 0.000059 -0.006238 0.004407 0.043439 0.002548 0.002191
# 5 -0.004156 -0.000470 0.002584 0.002548 0.038031 -0.000310
# 6 0.000249 0.006404 -0.013808 0.002191 -0.000310 0.035793
#
#
# Mechanical properties :
#
#
# Convention : Reuss Voigt Hill
#
# Bulk Modulus (GPa) = 36.53125 43.06408 39.79766
# Shear Modulus (GPa) = 23.16753 28.92322 26.04538
#
# Velocity S-wave (km/s) = 3.32150 3.71123 3.52176
# Velocity P-wave (km/s) = 5.66621 6.23469 5.95724
#
# Compressibility (1/GPa) = 0.02737383
#
# Stress axis : x y z
#
# Youngs Moduli (GPa) = 68.23711 77.33592 32.44925
#
# Poissons Ratio (x) = 0.13197 0.16862
# Poissons Ratio (y) = 0.11644 0.27944
# Poissons Ratio (z) = 0.35459 0.66598
#
# Static dielectric constant tensor:
#      x y z
#    x 3.779900 -0.276900 0.024620 
#    y -0.276900 3.846740 0.142400 
#    z 0.024620 0.142400 3.502830 
# 
# 
# High freq. dielectric constant tensor:
#      x y z
#    x 1.822350 -0.023240 -0.004030 
#    y -0.023240 1.825010 0.008910 
#    z -0.004030 0.008910 1.797370 
# 
# From -- ./inp_files/529899.got.cif
#   From: 2010.06.25/outbox.cif.g09.slc.cpg/sg2_265_cif.got.tgz:529899.got - 2010.06.27 13:26:56.
