data_PCOD8042700
_publ_section_title
;
Structure prediction by ZEFSAII (Michael W. Deem and Ramdas Pophale) SiO2 
 PCOD8042700
Probable space group: P -1
;
_chemical_formula_sum "Si O2"
_cell_formula_units_Z 16
_cell_length_a 15.428273
_cell_length_b 10.115262
_cell_length_c 13.431670
_cell_angle_alpha 80.536560
_cell_angle_beta 139.173301
_cell_angle_gamma 131.057917
_cell_volume 762.745352
_symmetry_space_group_name_H-M "P -1"
_symmetry_group_IT_number 2
_symmetry_cell_setting 'triclinic'
loop_
_space_group_symop_operation_xyz
x,y,z
-x,-y,-z
loop_
_atom_site_type_symbol
_atom_site_label
_atom_site_fract_x
_atom_site_fract_y
_atom_site_fract_z
Si Si1 0.288619 0.758811 0.587000
Si Si2 0.535607 0.918344 0.141592
Si Si3 0.046698 0.193221 0.012718
Si Si4 0.240283 0.986907 0.026469
Si Si5 0.394104 0.406533 0.030917
Si Si6 0.085366 0.860803 0.310571
Si Si7 0.536682 0.675250 0.302910
Si Si8 0.865925 0.237297 0.236545
O O1 0.117560 0.487985 0.467200
O O2 0.329361 0.838698 0.725757
O O3 0.539552 0.911029 0.749434
O O4 0.188433 0.801138 0.433137
O O5 0.465700 0.760209 0.187375
O O6 0.725370 0.015935 0.214969
O O7 0.295050 0.762977 0.900513
O O8 0.950467 0.175659 0.032280
O O9 0.909432 0.134449 0.804780
O O10 0.325849 0.450108 0.217588
O O11 0.000000 0.000000 0.000000
O O12 0.109063 0.800089 0.846817
O O13 0.310834 0.190986 0.019763
O O14 0.500000 0.500000 0.000000
O O15 0.578354 0.610194 0.252113
O O16 0.179883 0.335066 0.856686
O O17 0.234065 0.109543 0.456179
#
# Coordination Sequence:
#
# PCOD8042700 Si02
#       8
#     2   2   2   2   2   2   2   2
#     4  10  22  39  62  93 126 157 204 252 303 367
#     4   9  19  36  59  91 121 160 203 239 304 374
#     4  11  22  44  63  86 125 163 207 258 308 365
#     4  11  24  39  58  97 122 155 213 252 301 368
#     4  11  23  41  62  91 131 161 200 258 306 366
#     4  10  23  42  65  91 118 167 211 246 312 367
#     4  10  21  39  64  89 119 163 207 254 305 362
#     4  10  19  35  60  87 127 163 192 247 308 359
#
# _framework density 20.976856999999999
#
# number of rings (size 3 to 8) (size 9 to 14) (size 15 to 20)
#    0.000    1.750    2.500    2.625    0.000    7.500 
#    0.000    8.750    0.000    0.000    0.000    0.000 
#    0.000    0.000    0.000    0.000    0.000    0.000 
#
# Total GULP energy -198248.515420 kJ/mol
# GULP energy per Si atom -12390.532214 kJ/mol
# Density = 2.092911 g / cm^3
# Si number density = 20.976857 Si / 1000 Ang^3
#
#
#
# Elastic Constant Matrix: (Units=GPa)
#
#
# Indices 1 2 3 4 5 6 
#
# 1 138.2912 23.1104 15.3097 12.7573 5.9899 24.9411
# 2 23.1104 68.1461 0.1676 0.0881 9.7199 9.0942
# 3 15.3097 0.1676 49.7040 9.5860 -3.0294 0.8239
# 4 12.7573 0.0881 9.5860 37.0300 -8.3250 1.0105
# 5 5.9899 9.7199 -3.0294 -8.3250 28.8646 1.9965
# 6 24.9411 9.0942 0.8239 1.0105 1.9965 38.0516
#
#
#
# Elastic Compliance Matrix: (Units=1/GPa)
#
#
# Indices 1 2 3 4 5 6 
#
# 1 0.009127 -0.002118 -0.002286 -0.002825 -0.001872 -0.005254
# 2 -0.002118 0.016412 0.000422 -0.000487 -0.005026 -0.002267
# 3 -0.002286 0.000422 0.021767 -0.004600 0.001222 0.000984
# 4 -0.002825 -0.000487 -0.004600 0.031223 0.009220 0.000755
# 5 -0.001872 -0.005026 0.001222 0.009220 0.039507 0.000084
# 6 -0.005254 -0.002267 0.000984 0.000755 0.000084 0.030220
#
#
# Mechanical properties :
#
#
# Convention : Reuss Voigt Hill
#
# Bulk Modulus (GPa) = 25.41823 37.03522 31.22672
# Shear Modulus (GPa) = 29.52736 35.29279 32.41008
#
# Velocity S-wave (km/s) = 3.75589 4.10623 3.93496
# Velocity P-wave (km/s) = 5.56350 6.33839 5.96354
#
# Compressibility (1/GPa) = 0.03934185
#
# Stress axis : x y z
#
# Youngs Moduli (GPa) = 109.56032 60.93250 45.94041
#
# Poissons Ratio (x) = 0.12905 0.10504
# Poissons Ratio (y) = 0.23204 -0.01939
# Poissons Ratio (z) = 0.25050 -0.02572
#
# Static dielectric constant tensor:
#      x y z
#    x 3.790980 -0.160040 -0.350490 
#    y -0.160040 3.652980 0.019010 
#    z -0.350490 0.019010 3.961960 
# 
# 
# High freq. dielectric constant tensor:
#      x y z
#    x 1.820590 0.000000 -0.016210 
#    y 0.000000 1.819710 0.006180 
#    z -0.016210 0.006180 1.823310 
# 
# From -- ./inp_files/458371.got.cif
#   From: 2010.06.25/outbox.cif.g09.slc.cpg/sg2_230_cif.got.tgz:458371.got - 2010.06.27 13:26:56.
