data_PCOD8042676
_publ_section_title
;
Structure prediction by ZEFSAII (Michael W. Deem and Ramdas Pophale) SiO2 
 PCOD8042676
Probable space group: P -1
;
_chemical_formula_sum "Si O2"
_cell_formula_units_Z 14
_cell_length_a 17.445814
_cell_length_b 8.115302
_cell_length_c 8.807195
_cell_angle_alpha 113.769084
_cell_angle_beta 39.265261
_cell_angle_gamma 112.552095
_cell_volume 716.721208
_symmetry_space_group_name_H-M "P -1"
_symmetry_group_IT_number 2
_symmetry_cell_setting 'triclinic'
loop_
_space_group_symop_operation_xyz
x,y,z
-x,-y,-z
loop_
_atom_site_type_symbol
_atom_site_label
_atom_site_fract_x
_atom_site_fract_y
_atom_site_fract_z
Si Si1 0.489312 0.876462 0.823802
Si Si2 0.748050 0.062537 0.913327
Si Si3 0.124121 0.214664 0.591093
Si Si4 0.913941 0.621406 0.590044
Si Si5 0.292075 0.570709 0.987860
Si Si6 0.894386 0.965784 0.917873
Si Si7 0.265930 0.252640 0.680110
O O1 0.621305 0.864668 0.546908
O O2 0.423312 0.670078 0.881826
O O3 0.500000 0.000000 0.000000
O O4 0.400426 0.971049 0.880532
O O5 0.809605 0.930106 0.658329
O O6 0.783166 0.037970 0.024660
O O7 0.791442 0.272448 0.875963
O O8 0.081986 0.367208 0.596294
O O9 0.218626 0.304386 0.605607
O O10 0.004561 0.125281 0.832457
O O11 0.773638 0.547832 0.819477
O O12 0.951189 0.821773 0.671139
O O13 0.000000 0.500000 0.500000
O O14 0.307627 0.438454 0.773342
O O15 0.843619 0.877033 0.119523
#
# Coordination Sequence:
#
# PCOD8042676 Si02
#       7
#     2   2   2   2   2   2   2
#     4  10  20  38  64  81 112 150 198 230 274 344
#     4   9  19  37  61  79 114 150 196 220 281 334
#     4  11  20  36  60  87 115 149 193 230 278 342
#     4  10  19  35  60  83 115 152 189 232 282 335
#     4   9  20  36  57  85 114 151 183 236 288 324
#     4  10  21  35  58  86 116 153 188 229 282 341
#     4  11  21  37  56  88 119 147 184 241 286 325
#
# _framework density 19.533396
#
# number of rings (size 3 to 8) (size 9 to 14) (size 15 to 20)
#    0.857    1.143    1.429    4.286    0.000    0.571 
#    0.000   11.429    0.000    0.000    0.000    0.000 
#    0.000    0.000    0.000    0.000    0.000    0.000 
#
# Total GULP energy -173462.998703 kJ/mol
# GULP energy per Si atom -12390.214193 kJ/mol
# Density = 1.948894 g / cm^3
# Si number density = 19.533396 Si / 1000 Ang^3
#
#
#
# Elastic Constant Matrix: (Units=GPa)
#
#
# Indices 1 2 3 4 5 6 
#
# 1 124.8552 38.6710 40.4607 0.7336 -4.7449 1.6019
# 2 38.6710 80.1769 30.4406 4.1077 10.0971 6.4804
# 3 40.4607 30.4406 71.0073 1.9993 3.3633 10.3087
# 4 0.7336 4.1077 1.9993 25.1878 -1.4470 -0.2487
# 5 -4.7449 10.0971 3.3633 -1.4470 29.2473 0.8657
# 6 1.6019 6.4804 10.3087 -0.2487 0.8657 31.8656
#
#
#
# Elastic Compliance Matrix: (Units=1/GPa)
#
#
# Indices 1 2 3 4 5 6 
#
# 1 0.011004 -0.004084 -0.004986 0.000975 0.003763 0.001796
# 2 -0.004084 0.017173 -0.004419 -0.002702 -0.006166 -0.001711
# 3 -0.004986 -0.004419 0.019661 -0.000828 -0.001432 -0.005179
# 4 0.000975 -0.002702 -0.000828 0.040371 0.003154 0.000998
# 5 0.003763 -0.006166 -0.001432 0.003154 0.037235 0.000541
# 6 0.001796 -0.001711 -0.005179 0.000998 0.000541 0.033308
#
#
# Mechanical properties :
#
#
# Convention : Reuss Voigt Hill
#
# Bulk Modulus (GPa) = 47.93381 55.02045 51.47713
# Shear Modulus (GPa) = 25.94940 28.35793 27.15367
#
# Velocity S-wave (km/s) = 3.64876 3.81434 3.73247
# Velocity P-wave (km/s) = 6.50723 6.90126 6.70714
#
# Compressibility (1/GPa) = 0.02086210
#
# Stress axis : x y z
#
# Youngs Moduli (GPa) = 90.87524 58.23153 50.86103
#
# Poissons Ratio (x) = 0.23779 0.25360
# Poissons Ratio (y) = 0.37109 0.22473
# Poissons Ratio (z) = 0.45311 0.25730
#
# Static dielectric constant tensor:
#      x y z
#    x 3.598160 -0.058910 -0.088860 
#    y -0.058910 3.538500 -0.027130 
#    z -0.088860 -0.027130 3.384890 
# 
# 
# High freq. dielectric constant tensor:
#      x y z
#    x 1.759430 0.003070 -0.009530 
#    y 0.003070 1.751390 -0.001350 
#    z -0.009530 -0.001350 1.749220 
# 
# From -- ./inp_files/170013.got.cif
#   From: 2010.06.25/outbox.cif.g09.slc.cpg/sg2_86_cif.got.tgz:170013.got - 2010.06.27 13:26:56.
