data_PCOD8042889
_publ_section_title
;
Structure prediction by ZEFSAII (Michael W. Deem and Ramdas Pophale) SiO2 
 PCOD8042889
Probable space group: P -1
;
_chemical_formula_sum "Si O2"
_cell_formula_units_Z 16
_cell_length_a 9.215888
_cell_length_b 15.446323
_cell_length_c 11.672284
_cell_angle_alpha 127.689915
_cell_angle_beta 125.631571
_cell_angle_gamma 34.652671
_cell_volume 735.821930
_symmetry_space_group_name_H-M "P -1"
_symmetry_group_IT_number 2
_symmetry_cell_setting 'triclinic'
loop_
_space_group_symop_operation_xyz
x,y,z
-x,-y,-z
loop_
_atom_site_type_symbol
_atom_site_label
_atom_site_fract_x
_atom_site_fract_y
_atom_site_fract_z
Si Si1 0.120453 0.173270 0.186628
Si Si2 0.626521 0.290145 0.971307
Si Si3 0.853739 0.458057 0.426624
Si Si4 0.639271 0.812061 0.155153
Si Si5 0.621357 0.381791 0.809988
Si Si6 0.512663 0.647418 0.640365
Si Si7 0.660484 0.817672 0.913819
Si Si8 0.155773 0.667014 0.352807
O O1 0.117420 0.254718 0.137103
O O2 0.053658 0.268537 0.349324
O O3 0.408280 0.001470 0.196669
O O4 0.898097 0.179617 0.076152
O O5 0.483038 0.243469 0.898593
O O6 0.708586 0.259496 0.850547
O O7 0.416636 0.478147 0.048797
O O8 0.647372 0.541007 0.298894
O O9 0.732023 0.516250 0.542907
O O10 0.000000 0.500000 0.500000
O O11 0.862054 0.752671 0.298910
O O12 0.763447 0.741357 0.027018
O O13 0.835728 0.281944 0.727647
O O14 0.493835 0.785406 0.767924
O O15 0.233580 0.724548 0.531101
O O16 0.624392 0.528495 0.703833
O O17 0.500000 0.000000 0.000000
#
# Coordination Sequence:
#
# PCOD8042889 Si02
#       8
#     2   2   2   2   2   2   2   2
#     4  10  21  39  59  89 122 158 201 244 304 362
#     4  10  20  35  59  88 124 154 198 257 300 354
#     4  10  19  35  64  84 114 155 201 245 292 352
#     4  11  23  37  61  91 123 162 201 243 305 362
#     4   9  20  35  57  90 116 154 204 252 299 348
#     4  10  21  39  65  90 122 157 204 252 303 351
#     4  10  21  38  63  91 121 158 196 244 306 364
#     4  10  22  39  60  92 122 160 203 252 299 360
#
# _framework density 21.744391
#
# number of rings (size 3 to 8) (size 9 to 14) (size 15 to 20)
#    0.000    2.000    1.250    1.875    1.750    4.000 
#    0.000    3.125    5.500    0.000    0.000    0.000 
#    0.000    0.000    0.000    0.000    0.000    0.000 
#
# Total GULP energy -198249.745675 kJ/mol
# GULP energy per Si atom -12390.609105 kJ/mol
# Density = 2.169490 g / cm^3
# Si number density = 21.744391 Si / 1000 Ang^3
#
#
#
# Elastic Constant Matrix: (Units=GPa)
#
#
# Indices 1 2 3 4 5 6 
#
# 1 105.5432 30.7886 55.0562 -7.8187 24.3907 8.2994
# 2 30.7886 68.7163 47.9657 -7.8393 13.5911 -3.0012
# 3 55.0562 47.9657 126.2696 2.2344 27.1805 1.0726
# 4 -7.8187 -7.8393 2.2344 28.3997 -2.9154 3.7985
# 5 24.3907 13.5911 27.1805 -2.9154 49.0484 -4.9003
# 6 8.2994 -3.0012 1.0726 3.7985 -4.9003 32.7336
#
#
#
# Elastic Compliance Matrix: (Units=1/GPa)
#
#
# Indices 1 2 3 4 5 6 
#
# 1 0.014023 -0.002131 -0.004436 0.003819 -0.004164 -0.004672
# 2 -0.002131 0.021336 -0.007224 0.005566 -0.000315 0.002040
# 3 -0.004436 -0.007224 0.013435 -0.004637 -0.003510 0.000035
# 4 0.003819 0.005566 -0.004637 0.038889 0.000973 -0.004673
# 5 -0.004164 -0.000315 -0.003510 0.000973 0.025026 0.004776
# 6 -0.004672 0.002040 0.000035 -0.004673 0.004776 0.033177
#
#
# Mechanical properties :
#
#
# Convention : Reuss Voigt Hill
#
# Bulk Modulus (GPa) = 47.14321 63.12777 55.13549
# Shear Modulus (GPa) = 27.69459 33.15090 30.42274
#
# Velocity S-wave (km/s) = 3.57269 3.90881 3.74452
# Velocity P-wave (km/s) = 6.22467 7.03324 6.64127
#
# Compressibility (1/GPa) = 0.02121196
#
# Stress axis : x y z
#
# Youngs Moduli (GPa) = 71.30936 46.86877 74.43129
#
# Poissons Ratio (x) = 0.09989 0.33021
# Poissons Ratio (y) = 0.15198 0.53767
# Poissons Ratio (z) = 0.31636 0.33857
#
# Static dielectric constant tensor:
#      x y z
#    x 4.179400 0.053120 -0.055560 
#    y 0.053120 3.580790 -0.080560 
#    z -0.055560 -0.080560 4.042020 
# 
# 
# High freq. dielectric constant tensor:
#      x y z
#    x 1.873990 0.005740 0.005790 
#    y 0.005740 1.814940 -0.011770 
#    z 0.005790 -0.011770 1.855250 
# 
# From -- ./inp_files/399665.got.cif
#   From: 2010.06.25/outbox.cif.g09.slc.cpg/sg2_200_cif.got.tgz:399665.got - 2010.06.27 13:26:56.
