data_PCOD8042271
_publ_section_title
;
Structure prediction by ZEFSAII (Michael W. Deem and Ramdas Pophale) SiO2 
 PCOD8042271
Probable space group: P -1
;
_chemical_formula_sum "Si O2"
_cell_formula_units_Z 16
_cell_length_a 13.326174
_cell_length_b 11.625914
_cell_length_c 13.329077
_cell_angle_alpha 63.988570
_cell_angle_beta 33.464219
_cell_angle_gamma 41.408295
_cell_volume 646.464706
_symmetry_space_group_name_H-M "P -1"
_symmetry_group_IT_number 2
_symmetry_cell_setting 'triclinic'
loop_
_space_group_symop_operation_xyz
x,y,z
-x,-y,-z
loop_
_atom_site_type_symbol
_atom_site_label
_atom_site_fract_x
_atom_site_fract_y
_atom_site_fract_z
Si Si1 0.803049 0.221195 0.540048
Si Si2 0.305625 0.820265 0.568260
Si Si3 0.923009 0.582129 0.144440
Si Si4 0.197146 0.206800 0.135161
Si Si5 0.521703 0.535156 0.808459
Si Si6 0.860378 0.879222 0.001345
Si Si7 0.956654 0.253484 0.732305
Si Si8 0.716228 0.690266 0.601393
O O1 0.660319 0.264123 0.536900
O O2 0.559056 0.392608 0.758671
O O3 0.978800 0.257042 0.373008
O O4 0.000000 0.000000 0.500000
O O5 0.623234 0.681726 0.392944
O O6 0.139120 0.821496 0.787874
O O7 0.128053 0.046373 0.615347
O O8 0.155339 0.385146 0.100226
O O9 0.913314 0.742526 0.096103
O O10 0.000000 0.500000 0.000000
O O11 0.153723 0.179950 0.070633
O O12 0.500000 0.000000 0.000000
O O13 0.721523 0.424069 0.782592
O O14 0.598483 0.632415 0.657813
O O15 0.191165 0.710069 0.054573
O O16 0.558322 0.117466 0.175522
O O17 0.180825 0.245986 0.576930
O O18 0.000000 0.500000 0.500000
#
# Coordination Sequence:
#
# PCOD8042271 Si02
#       8
#     2   2   2   2   2   2   2   2
#     4  11  24  38  63  98 143 177 209 290 351 380
#     4  11  21  40  66  98 135 173 234 269 336 417
#     4  10  23  42  67  97 134 181 225 275 338 409
#     4  10  25  41  64  99 136 170 221 281 341 411
#     4  10  21  37  55  95 138 176 228 275 333 391
#     4  10  21  39  65 101 131 182 225 276 331 393
#     4  10  19  34  61  90 131 179 233 274 321 405
#     4  10  20  32  62  93 128 178 232 274 315 388
#
# _framework density 24.749997
#
# number of rings (size 3 to 8) (size 9 to 14) (size 15 to 20)
#    0.000    1.750    3.750    0.000    7.000    4.500 
#    0.000    0.000    0.000    1.500    0.000    0.000 
#    0.000    0.000    0.000    0.000    0.000    0.000 
#
# Total GULP energy -198257.964390 kJ/mol
# GULP energy per Si atom -12391.122774 kJ/mol
# Density = 2.469367 g / cm^3
# Si number density = 24.749997 Si / 1000 Ang^3
#
#
#
# Elastic Constant Matrix: (Units=GPa)
#
#
# Indices 1 2 3 4 5 6 
#
# 1 31.5194 26.6751 35.6674 -6.8407 1.0095 15.2018
# 2 26.6751 146.3679 65.3911 -19.2063 -8.9704 9.5239
# 3 35.6674 65.3911 157.9156 -7.4292 -9.8145 16.6017
# 4 -6.8407 -19.2063 -7.4292 46.8431 11.2644 -3.9518
# 5 1.0095 -8.9704 -9.8145 11.2644 29.0596 7.1801
# 6 15.2018 9.5239 16.6017 -3.9518 7.1801 40.6848
#
#
#
# Elastic Compliance Matrix: (Units=1/GPa)
#
#
# Indices 1 2 3 4 5 6 
#
# 1 0.053421 -0.004606 -0.008746 0.004408 -0.004456 -0.014099
# 2 -0.004606 0.009205 -0.002672 0.002513 0.000944 0.000734
# 3 -0.008746 -0.002672 0.009647 -0.001792 0.003644 -0.000860
# 4 0.004408 0.002513 -0.001792 0.025521 -0.010577 0.002841
# 5 -0.004456 0.000944 0.003644 -0.010577 0.042298 -0.008535
# 6 -0.014099 0.000734 -0.000860 0.002841 -0.008535 0.031809
#
#
# Mechanical properties :
#
#
# Convention : Reuss Voigt Hill
#
# Bulk Modulus (GPa) = 24.85981 65.69668 45.27824
# Shear Modulus (GPa) = 23.00385 37.18878 30.09631
#
# Velocity S-wave (km/s) = 3.05199 3.88051 3.49092
# Velocity P-wave (km/s) = 4.74191 6.83225 5.88070
#
# Compressibility (1/GPa) = 0.04022558
#
# Stress axis : x y z
#
# Youngs Moduli (GPa) = 18.71940 108.63806 103.66088
#
# Poissons Ratio (x) = 0.50036 0.90661
# Poissons Ratio (y) = 0.08622 0.27695
# Poissons Ratio (z) = 0.16372 0.29024
#
# Static dielectric constant tensor:
#      x y z
#    x 3.847450 0.199170 -0.176470 
#    y 0.199170 5.193120 -0.367550 
#    z -0.176470 -0.367550 4.964810 
# 
# 
# High freq. dielectric constant tensor:
#      x y z
#    x 1.940010 0.016600 -0.004450 
#    y 0.016600 2.002830 -0.002890 
#    z -0.004450 -0.002890 2.004120 
# 
# From -- ./inp_files/532448.got.cif
#   From: 2010.06.25/outbox.cif.g09.slc.cpg/sg2_267_cif.got.tgz:532448.got - 2010.06.27 13:26:56.
