data_PCOD8042977
_publ_section_title
;
Structure prediction by ZEFSAII (Michael W. Deem and Ramdas Pophale) SiO2 
 PCOD8042977
Probable space group: P -1
;
_chemical_formula_sum "Si O2"
_cell_formula_units_Z 16
_cell_length_a 9.252865
_cell_length_b 18.684179
_cell_length_c 9.395789
_cell_angle_alpha 107.826883
_cell_angle_beta 49.862074
_cell_angle_gamma 73.568306
_cell_volume 888.312434
_symmetry_space_group_name_H-M "P -1"
_symmetry_group_IT_number 2
_symmetry_cell_setting 'triclinic'
loop_
_space_group_symop_operation_xyz
x,y,z
-x,-y,-z
loop_
_atom_site_type_symbol
_atom_site_label
_atom_site_fract_x
_atom_site_fract_y
_atom_site_fract_z
Si Si1 0.679612 0.733224 0.130659
Si Si2 0.873905 0.751652 0.586042
Si Si3 0.641842 0.894280 0.080956
Si Si4 0.293813 0.192879 0.576704
Si Si5 0.103266 0.087920 0.611812
Si Si6 0.295984 0.752072 0.228152
Si Si7 0.166485 0.384688 0.293719
Si Si8 0.174840 0.013442 0.825960
O O1 0.647538 0.823732 0.140319
O O2 0.770192 0.718195 0.227688
O O3 0.409086 0.761374 0.305268
O O4 0.885772 0.633040 0.844799
O O5 0.697251 0.784651 0.579881
O O6 0.913127 0.659602 0.572690
O O7 0.142142 0.717504 0.348407
O O8 0.733185 0.846654 0.837248
O O9 0.827758 0.908324 0.036641
O O10 0.359982 0.001119 0.312484
O O11 0.090545 0.180053 0.715303
O O12 0.548987 0.092764 0.417425
O O13 0.073309 0.049373 0.751608
O O14 0.872226 0.139603 0.679384
O O15 0.535197 0.671733 0.922378
O O16 0.000000 0.500000 0.500000
O O17 0.000000 0.000000 0.000000
#
# Coordination Sequence:
#
# PCOD8042977 Si02
#       8
#     2   2   2   2   2   2   2   2
#     4   9  18  37  58  79 109 150 185 227 287 326
#     4  10  22  37  60  85 112 148 191 234 273 339
#     4  10  19  36  53  77 118 159 190 220 277 320
#     4  10  19  37  51  78 116 149 187 226 277 318
#     4  10  19  36  53  76 119 154 189 230 264 325
#     4   9  22  35  59  86 108 147 189 231 280 330
#     4   9  21  41  62  83 110 142 185 239 297 341
#     4  11  22  28  52  82 118 159 192 223 266 329
#
# _framework density 18.011680999999999
#
# number of rings (size 3 to 8) (size 9 to 14) (size 15 to 20)
#    0.750    1.500    2.500    0.750    3.500    5.500 
#    0.000    0.625    0.000    3.000    0.000    0.000 
#    0.000    0.000    0.000    0.000    0.000    0.000 
#
# Total GULP energy -198210.363349 kJ/mol
# GULP energy per Si atom -12388.147709 kJ/mol
# Density = 1.797069 g / cm^3
# Si number density = 18.011681 Si / 1000 Ang^3
#
#
#
# Elastic Constant Matrix: (Units=GPa)
#
#
# Indices 1 2 3 4 5 6 
#
# 1 80.4805 33.9947 48.7191 -4.2538 18.4634 6.7129
# 2 33.9947 88.6314 56.1247 -7.8433 6.0866 11.6240
# 3 48.7191 56.1247 97.2215 -4.1690 8.7713 5.1469
# 4 -4.2538 -7.8433 -4.1690 32.8100 3.2995 3.9282
# 5 18.4634 6.0866 8.7713 3.2995 35.3913 -6.0777
# 6 6.7129 11.6240 5.1469 3.9282 -6.0777 19.3374
#
#
#
# Elastic Compliance Matrix: (Units=1/GPa)
#
#
# Indices 1 2 3 4 5 6 
#
# 1 0.021382 -0.000287 -0.008938 0.003732 -0.010787 -0.009020
# 2 -0.000287 0.020097 -0.010359 0.005115 -0.003148 -0.011252
# 3 -0.008938 -0.010359 0.020162 -0.001942 0.002513 0.005147
# 4 0.003732 0.005115 -0.001942 0.034316 -0.007826 -0.013284
# 5 -0.010787 -0.003148 0.002513 -0.007826 0.037692 0.018405
# 6 -0.009020 -0.011252 0.005147 -0.013284 0.018405 0.068721
#
#
# Mechanical properties :
#
#
# Convention : Reuss Voigt Hill
#
# Bulk Modulus (GPa) = 44.49797 60.44561 52.47179
# Shear Modulus (GPa) = 20.07799 26.00740 23.04270
#
# Velocity S-wave (km/s) = 3.34237 3.80402 3.58064
# Velocity P-wave (km/s) = 6.29713 7.27503 6.80367
#
# Compressibility (1/GPa) = 0.02247293
#
# Stress axis : x y z
#
# Youngs Moduli (GPa) = 46.76899 49.75909 49.59726
#
# Poissons Ratio (x) = 0.01428 0.44331
# Poissons Ratio (y) = 0.01342 0.51377
# Poissons Ratio (z) = 0.41803 0.51544
#
# Static dielectric constant tensor:
#      x y z
#    x 3.630950 0.061930 0.343510 
#    y 0.061930 3.092120 -0.154110 
#    z 0.343510 -0.154110 3.202210 
# 
# 
# High freq. dielectric constant tensor:
#      x y z
#    x 1.698290 0.010690 0.012110 
#    y 0.010690 1.675530 -0.020060 
#    z 0.012110 -0.020060 1.681930 
# 
# From -- ./inp_files/217983.got.cif
#   From: 2010.06.25/outbox.cif.g09.slc.cpg/sg2_109_cif.got.tgz:217983.got - 2010.06.27 13:26:56.
