data_PCOD8042202
_publ_section_title
;
Structure prediction by ZEFSAII (Michael W. Deem and Ramdas Pophale) SiO2 
 PCOD8042202
Probable space group: P -1
;
_chemical_formula_sum "Si O2"
_cell_formula_units_Z 16
_cell_length_a 8.968426
_cell_length_b 18.768826
_cell_length_c 5.299780
_cell_angle_alpha 49.604524
_cell_angle_beta 107.029559
_cell_angle_gamma 117.020930
_cell_volume 605.244682
_symmetry_space_group_name_H-M "P -1"
_symmetry_group_IT_number 2
_symmetry_cell_setting 'triclinic'
loop_
_space_group_symop_operation_xyz
x,y,z
-x,-y,-z
loop_
_atom_site_type_symbol
_atom_site_label
_atom_site_fract_x
_atom_site_fract_y
_atom_site_fract_z
Si Si1 0.737601 0.067292 0.944689
Si Si2 0.647358 0.520235 0.330858
Si Si3 0.867877 0.394624 0.102473
Si Si4 0.012957 0.664125 0.219145
Si Si5 0.688550 0.854247 0.400765
Si Si6 0.835778 0.125001 0.350642
Si Si7 0.456177 0.635727 0.753989
Si Si8 0.882843 0.916348 0.866907
O O1 0.742838 0.134882 0.545444
O O2 0.693899 0.106625 0.100526
O O3 0.927315 0.073930 0.100862
O O4 0.625016 0.949158 0.123598
O O5 0.500000 0.500000 0.500000
O O6 0.641986 0.417755 0.425978
O O7 0.832567 0.580892 0.387704
O O8 0.611228 0.597701 0.940382
O O9 0.879449 0.318889 0.506360
O O10 0.680434 0.398565 0.005547
O O11 0.900459 0.369677 0.892807
O O12 0.000000 0.500000 0.000000
O O13 0.009296 0.772068 0.879328
O O14 0.524813 0.755838 0.507516
O O15 0.771044 0.858029 0.708545
O O16 0.813333 0.855645 0.229336
O O17 0.892112 0.030514 0.646849
#
# Coordination Sequence:
#
# PCOD8042202 Si02
#       8
#     2   2   2   2   2   2   2   2
#     4  10  19  34  59  92 138 172 221 264 343 402
#     4  11  27  45  67 108 136 174 220 305 353 390
#     4  12  26  51  71  97 134 196 236 277 329 430
#     4  12  27  44  77  98 138 185 237 273 352 400
#     4  10  21  35  59  94 126 178 211 274 333 403
#     4  10  20  36  59  95 130 165 223 281 315 397
#     4  11  27  44  70  98 145 173 232 284 353 406
#     4  10  20  34  58  94 136 174 220 263 343 408
#
# _framework density 26.435590999999999
#
# number of rings (size 3 to 8) (size 9 to 14) (size 15 to 20)
#    0.000    1.250    1.250    5.625   10.500    0.000 
#    0.000    0.000    0.000   18.000    0.000    0.000 
#    0.000    0.000    0.000    0.000    0.000    0.000 
#
# Total GULP energy -198253.580389 kJ/mol
# GULP energy per Si atom -12390.848774 kJ/mol
# Density = 2.637542 g / cm^3
# Si number density = 26.435591 Si / 1000 Ang^3
#
#
#
# Elastic Constant Matrix: (Units=GPa)
#
#
# Indices 1 2 3 4 5 6 
#
# 1 65.8308 32.3384 14.3679 7.8100 -15.0729 1.4119
# 2 32.3384 151.4257 58.3390 -5.5202 -20.8562 1.6918
# 3 14.3679 58.3390 113.8379 20.3844 -22.4038 -3.0983
# 4 7.8100 -5.5202 20.3844 60.6312 -2.0173 -12.9108
# 5 -15.0729 -20.8562 -22.4038 -2.0173 43.5119 5.7428
# 6 1.4119 1.6918 -3.0983 -12.9108 5.7428 29.5036
#
#
#
# Elastic Compliance Matrix: (Units=1/GPa)
#
#
# Indices 1 2 3 4 5 6 
#
# 1 0.018537 -0.003778 0.001247 -0.003651 0.005507 -0.003209
# 2 -0.003778 0.009464 -0.004732 0.003032 0.000893 0.000294
# 3 0.001247 -0.004732 0.012858 -0.005095 0.004758 -0.001594
# 4 -0.003651 0.003032 -0.005095 0.020799 -0.002670 0.009087
# 5 0.005507 0.000893 0.004758 -0.002670 0.028506 -0.006532
# 6 -0.003209 0.000294 -0.001594 0.009087 -0.006532 0.039111
#
#
# Mechanical properties :
#
#
# Convention : Reuss Voigt Hill
#
# Bulk Modulus (GPa) = 37.97741 60.13164 49.05453
# Shear Modulus (GPa) = 32.76982 41.79928 37.28455
#
# Velocity S-wave (km/s) = 3.52463 3.98071 3.75959
# Velocity P-wave (km/s) = 5.56428 6.62751 6.11903
#
# Compressibility (1/GPa) = 0.02633144
#
# Stress axis : x y z
#
# Youngs Moduli (GPa) = 53.94621 105.66209 77.77406
#
# Poissons Ratio (x) = 0.39917 -0.09695
# Poissons Ratio (y) = 0.20380 0.36806
# Poissons Ratio (z) = -0.06725 0.50004
#
# Static dielectric constant tensor:
#      x y z
#    x 4.562310 -0.057030 0.062730 
#    y -0.057030 4.486970 -0.007710 
#    z 0.062730 -0.007710 5.304500 
# 
# 
# High freq. dielectric constant tensor:
#      x y z
#    x 2.029870 -0.009360 -0.012930 
#    y -0.009360 2.074270 0.012820 
#    z -0.012930 0.012820 2.080580 
# 
# From -- ./inp_files/52242.got.cif
#   From: 2010.06.25/outbox.cif.g09.slc.cpg/sg2_27_cif.got.tgz:52242.got - 2010.06.27 13:26:56.
