data_PCOD8042716
_publ_section_title
;
Structure prediction by ZEFSAII (Michael W. Deem and Ramdas Pophale) SiO2 
 PCOD8042716
Probable space group: P -1
;
_chemical_formula_sum "Si O2"
_cell_formula_units_Z 16
_cell_length_a 21.990426
_cell_length_b 16.682233
_cell_length_c 11.707817
_cell_angle_alpha 147.185712
_cell_angle_beta 137.963305
_cell_angle_gamma 20.612003
_cell_volume 797.376809
_symmetry_space_group_name_H-M "P -1"
_symmetry_group_IT_number 2
_symmetry_cell_setting 'triclinic'
loop_
_space_group_symop_operation_xyz
x,y,z
-x,-y,-z
loop_
_atom_site_type_symbol
_atom_site_label
_atom_site_fract_x
_atom_site_fract_y
_atom_site_fract_z
Si Si1 0.695183 0.300759 0.032398
Si Si2 0.512654 0.267179 0.912501
Si Si3 0.639710 0.400234 0.321596
Si Si4 0.697615 0.285738 0.511239
Si Si5 0.807135 0.836562 0.622506
Si Si6 0.644793 0.955765 0.310859
Si Si7 0.469278 0.211219 0.021470
Si Si8 0.818446 0.815722 0.170962
O O1 0.666537 0.474778 0.110065
O O2 0.746318 0.283293 0.211339
O O3 0.500000 0.500000 0.000000
O O4 0.828373 0.983268 0.799374
O O5 0.485331 0.184063 0.873096
O O6 0.691914 0.976905 0.745193
O O7 0.529640 0.402301 0.159858
O O8 0.761384 0.216595 0.384581
O O9 0.513021 0.714206 0.547428
O O10 0.500000 0.500000 0.500000
O O11 0.827393 0.983543 0.389012
O O12 0.692604 0.451165 0.766064
O O13 0.706248 0.892440 0.449442
O O14 0.000000 0.500000 0.500000
O O15 0.580557 0.879559 0.111564
O O16 0.802556 0.771016 0.222005
O O17 0.656900 0.993266 0.076704
O O18 0.000000 0.500000 0.000000
#
# Coordination Sequence:
#
# PCOD8042716 Si02
#       8
#     2   2   2   2   2   2   2   2
#     4   8  16  30  55  79  99 145 202 227 251 333
#     4  10  17  35  56  83 106 146 203 226 264 343
#     4  10  15  33  58  81 102 148 200 229 259 330
#     4  10  18  34  59  80 108 153 195 220 271 352
#     4  10  21  33  57  86 112 148 186 237 281 333
#     4  12  21  37  59  87 118 145 188 242 285 326
#     4  11  23  35  60  89 114 148 190 239 279 333
#     4  11  24  38  60  86 113 151 192 234 279 340
#
# _framework density 20.065797
#
# number of rings (size 3 to 8) (size 9 to 14) (size 15 to 20)
#    0.000    2.000    8.750    0.375    1.750    0.500 
#    0.000    0.625    5.500    0.750    0.000    0.000 
#    0.000    0.000    0.000    0.000    0.000    0.000 
#
# Total GULP energy -198249.235451 kJ/mol
# GULP energy per Si atom -12390.577216 kJ/mol
# Density = 2.002013 g / cm^3
# Si number density = 20.065797 Si / 1000 Ang^3
#
#
#
# Elastic Constant Matrix: (Units=GPa)
#
#
# Indices 1 2 3 4 5 6 
#
# 1 100.0753 32.6353 58.3586 0.5287 -6.0348 24.2011
# 2 32.6353 46.8542 39.6688 20.1887 -1.1039 11.2380
# 3 58.3586 39.6688 125.4616 27.6831 -1.2999 -3.0487
# 4 0.5287 20.1887 27.6831 36.0932 11.2815 -3.6935
# 5 -6.0348 -1.1039 -1.2999 11.2815 30.3873 -6.3631
# 6 24.2011 11.2380 -3.0487 -3.6935 -6.3631 17.4939
#
#
#
# Elastic Compliance Matrix: (Units=1/GPa)
#
#
# Indices 1 2 3 4 5 6 
#
# 1 0.032012 -0.000263 -0.018692 0.011885 -0.008940 -0.048117
# 2 -0.000263 0.051317 -0.011628 -0.024470 0.002236 -0.038981
# 3 -0.018692 -0.011628 0.023593 -0.010094 0.008677 0.038464
# 4 0.011885 -0.024470 -0.010094 0.055115 -0.018948 0.002263
# 5 -0.008940 0.002236 0.008677 -0.018948 0.043718 0.024343
# 6 -0.048117 -0.038981 0.038464 0.002263 0.024343 0.164804
#
#
# Mechanical properties :
#
#
# Convention : Reuss Voigt Hill
#
# Bulk Modulus (GPa) = 21.85458 59.30183 40.57820
# Shear Modulus (GPa) = 11.18626 26.24344 18.71485
#
# Velocity S-wave (km/s) = 2.36366 3.62037 3.05728
# Velocity P-wave (km/s) = 4.28536 6.86250 5.72094
#
# Compressibility (1/GPa) = 0.04575700
#
# Stress axis : x y z
#
# Youngs Moduli (GPa) = 31.23789 19.48689 42.38489
#
# Poissons Ratio (x) = 0.00513 0.79224
# Poissons Ratio (y) = 0.00822 0.49285
# Poissons Ratio (z) = 0.58389 0.22659
#
# Static dielectric constant tensor:
#      x y z
#    x 4.220530 1.354180 -0.113470 
#    y 1.354180 7.779410 -0.035060 
#    z -0.113470 -0.035060 3.987810 
# 
# 
# High freq. dielectric constant tensor:
#      x y z
#    x 1.774940 0.049620 -0.012310 
#    y 0.049620 1.731410 0.011970 
#    z -0.012310 0.011970 1.797010 
# 
# From -- ./inp_files/405519.got.cif
#   From: 2010.06.25/outbox.cif.g09.slc.cpg/sg2_203_cif.got.tgz:405519.got - 2010.06.27 13:26:56.
