data_PCOD8042878
_publ_section_title
;
Structure prediction by ZEFSAII (Michael W. Deem and Ramdas Pophale) SiO2 
 PCOD8042878
Probable space group: P -1
;
_chemical_formula_sum "Si O2"
_cell_formula_units_Z 16
_cell_length_a 9.248226
_cell_length_b 16.861056
_cell_length_c 17.195470
_cell_angle_alpha 32.708367
_cell_angle_beta 130.769595
_cell_angle_gamma 146.650294
_cell_volume 785.240238
_symmetry_space_group_name_H-M "P -1"
_symmetry_group_IT_number 2
_symmetry_cell_setting 'triclinic'
loop_
_space_group_symop_operation_xyz
x,y,z
-x,-y,-z
loop_
_atom_site_type_symbol
_atom_site_label
_atom_site_fract_x
_atom_site_fract_y
_atom_site_fract_z
Si Si1 0.412635 0.636769 0.415734
Si Si2 0.714960 0.742028 0.885489
Si Si3 0.808543 0.386973 0.920913
Si Si4 0.615959 0.902183 0.402268
Si Si5 0.800026 0.589991 0.613606
Si Si6 0.713107 0.044354 0.096219
Si Si7 0.613209 0.243340 0.131934
Si Si8 0.859957 0.961012 0.594799
O O1 0.372065 0.697714 0.434511
O O2 0.538757 0.548460 0.551225
O O3 0.155826 0.466787 0.409308
O O4 0.616462 0.841910 0.266546
O O5 0.630565 0.815011 0.860063
O O6 0.731367 0.827113 0.737142
O O7 0.997004 0.830855 0.942963
O O8 0.500000 0.500000 0.000000
O O9 0.704456 0.418121 0.784119
O O10 0.119823 0.591157 0.862089
O O11 0.761313 0.188038 0.062550
O O12 0.654685 0.350517 0.975694
O O13 0.635829 0.846994 0.542143
O O14 0.555955 0.041314 0.267902
O O15 0.894879 0.011247 0.367550
O O16 0.051368 0.822448 0.536266
O O17 0.500000 0.000000 0.000000
#
# Coordination Sequence:
#
# PCOD8042878 Si02
#       8
#     2   2   2   2   2   2   2   2
#     4  10  20  35  62  93 121 160 218 261 308 374
#     4  12  25  41  60  97 131 165 210 278 321 372
#     4  11  21  37  63  97 120 171 216 258 309 391
#     4  10  19  37  62  93 123 167 214 264 312 380
#     4  10  19  35  63  95 118 164 219 259 303 383
#     4  12  22  41  66  89 126 171 216 256 318 394
#     4  11  23  35  62  92 133 159 214 268 323 363
#     4  10  21  37  63  94 127 162 218 264 317 375
#
# _framework density 20.375931000000001
#
# number of rings (size 3 to 8) (size 9 to 14) (size 15 to 20)
#    0.000    1.250    7.500    0.000    1.750    0.500 
#    0.000    0.625    0.000    2.250    0.000    0.000 
#    0.000    0.000    0.000    0.000    0.000    0.000 
#
# Total GULP energy -198250.310914 kJ/mol
# GULP energy per Si atom -12390.644432 kJ/mol
# Density = 2.032955 g / cm^3
# Si number density = 20.375931 Si / 1000 Ang^3
#
#
#
# Elastic Constant Matrix: (Units=GPa)
#
#
# Indices 1 2 3 4 5 6 
#
# 1 115.0119 54.7199 46.0561 6.1824 1.8753 -11.5090
# 2 54.7199 108.7961 34.2809 17.8531 2.7795 -26.4284
# 3 46.0561 34.2809 100.4329 17.0813 2.9254 -2.2814
# 4 6.1824 17.8531 17.0813 36.8890 -8.1500 2.1539
# 5 1.8753 2.7795 2.9254 -8.1500 29.5053 -3.2281
# 6 -11.5090 -26.4284 -2.2814 2.1539 -3.2281 32.1782
#
#
#
# Elastic Compliance Matrix: (Units=1/GPa)
#
#
# Indices 1 2 3 4 5 6 
#
# 1 0.013027 -0.005740 -0.004552 0.002934 0.000922 -0.000482
# 2 -0.005740 0.016715 -0.001465 -0.007552 -0.001850 0.011892
# 3 -0.004552 -0.001465 0.013466 -0.005222 -0.002545 -0.001782
# 4 0.002934 -0.007552 -0.005222 0.035310 0.010044 -0.006880
# 5 0.000922 -0.001850 -0.002545 0.010044 0.037220 0.001692
# 6 -0.000482 0.011892 -0.001782 -0.006880 0.001692 0.041175
#
#
# Mechanical properties :
#
#
# Convention : Reuss Voigt Hill
#
# Bulk Modulus (GPa) = 50.77204 66.03938 58.40571
# Shear Modulus (GPa) = 26.73910 32.32676 29.53293
#
# Velocity S-wave (km/s) = 3.62648 3.98743 3.81123
# Velocity P-wave (km/s) = 6.51973 7.32669 6.93496
#
# Compressibility (1/GPa) = 0.01969588
#
# Stress axis : x y z
#
# Youngs Moduli (GPa) = 76.76071 59.82536 74.26176
#
# Poissons Ratio (x) = 0.34340 0.33801
# Poissons Ratio (y) = 0.44061 0.10877
# Poissons Ratio (z) = 0.34939 0.08763
#
# Static dielectric constant tensor:
#      x y z
#    x 3.568030 -0.544960 0.106220 
#    y -0.544960 4.203730 0.155680 
#    z 0.106220 0.155680 3.789640 
# 
# 
# High freq. dielectric constant tensor:
#      x y z
#    x 1.761400 -0.038760 0.018640 
#    y -0.038760 1.800420 0.011240 
#    z 0.018640 0.011240 1.806930 
# 
# From -- ./inp_files/503914.got.cif
#   From: 2010.06.25/outbox.cif.g09.slc.cpg/sg2_252_cif.got.tgz:503914.got - 2010.06.27 13:26:56.
