data_PCOD8042886
_publ_section_title
;
Structure prediction by ZEFSAII (Michael W. Deem and Ramdas Pophale) SiO2 
 PCOD8042886
Probable space group: P -1
;
_chemical_formula_sum "Si O2"
_cell_formula_units_Z 16
_cell_length_a 14.323211
_cell_length_b 9.103398
_cell_length_c 11.839244
_cell_angle_alpha 106.148648
_cell_angle_beta 149.742940
_cell_angle_gamma 86.426163
_cell_volume 694.851659
_symmetry_space_group_name_H-M "P -1"
_symmetry_group_IT_number 2
_symmetry_cell_setting 'triclinic'
loop_
_space_group_symop_operation_xyz
x,y,z
-x,-y,-z
loop_
_atom_site_type_symbol
_atom_site_label
_atom_site_fract_x
_atom_site_fract_y
_atom_site_fract_z
Si Si1 0.834693 0.543265 0.088432
Si Si2 0.109456 0.174505 0.405913
Si Si3 0.432655 0.755278 0.102206
Si Si4 0.473361 0.371888 0.347646
Si Si5 0.079726 0.682508 0.577416
Si Si6 0.468328 0.942584 0.581285
Si Si7 0.122322 0.404614 0.258846
Si Si8 0.977086 0.109147 0.897093
O O1 0.015563 0.674309 0.377894
O O2 0.933889 0.463343 0.079860
O O3 0.673804 0.408312 0.969874
O O4 0.723354 0.648928 0.933989
O O5 0.341016 0.214368 0.682356
O O6 0.101374 0.299290 0.327263
O O7 0.011984 0.203877 0.424916
O O8 0.989421 0.984550 0.200103
O O9 0.411725 0.904768 0.182304
O O10 0.318376 0.749014 0.862108
O O11 0.500000 0.500000 0.500000
O O12 0.441132 0.196597 0.331413
O O13 0.671488 0.439038 0.491052
O O14 0.000000 0.500000 0.500000
O O15 0.234606 0.877256 0.342393
O O16 0.500000 0.000000 0.500000
O O17 0.118504 0.296394 0.117277
O O18 0.000000 0.000000 0.000000
#
# Coordination Sequence:
#
# PCOD8042886 Si02
#       8
#     2   2   2   2   2   2   2   2
#     4  11  23  42  65  97 129 165 214 261 317 377
#     4  10  19  35  63  99 130 166 213 262 305 372
#     4  10  20  38  63  93 125 165 213 257 308 368
#     4  12  27  41  63  94 131 170 205 265 331 374
#     4  10  21  36  63  99 125 168 216 260 307 368
#     4  11  24  41  62  90 123 163 213 264 312 386
#     4  11  21  40  61  93 136 165 206 263 316 379
#     4   9  21  35  62  94 125 164 205 254 315 375
#
# _framework density 23.026495000000001
#
# number of rings (size 3 to 8) (size 9 to 14) (size 15 to 20)
#    0.000    1.500    3.750    2.250    5.250    5.000 
#    0.000    0.625    0.000    3.750    0.000    0.000 
#    0.000    0.000    0.000    0.000    0.000    0.000 
#
# Total GULP energy -198294.622534 kJ/mol
# GULP energy per Si atom -12393.413908 kJ/mol
# Density = 2.297409 g / cm^3
# Si number density = 23.026495 Si / 1000 Ang^3
#
#
#
# Elastic Constant Matrix: (Units=GPa)
#
#
# Indices 1 2 3 4 5 6 
#
# 1 46.2560 35.1196 14.1997 0.2705 -2.5735 -17.7862
# 2 35.1196 134.4389 61.8685 -20.5417 -12.4264 -14.8276
# 3 14.1997 61.8685 145.1382 -14.1680 -14.3339 -5.4674
# 4 0.2705 -20.5417 -14.1680 38.5704 -6.6447 -2.4537
# 5 -2.5735 -12.4264 -14.3339 -6.6447 31.9855 2.6041
# 6 -17.7862 -14.8276 -5.4674 -2.4537 2.6041 36.1504
#
#
#
# Elastic Compliance Matrix: (Units=1/GPa)
#
#
# Indices 1 2 3 4 5 6 
#
# 1 0.032338 -0.007919 0.000065 -0.004017 -0.002303 0.012566
# 2 -0.007919 0.012530 -0.003556 0.006138 0.003844 0.000845
# 3 0.000065 -0.003556 0.008872 0.001871 0.003003 -0.000174
# 4 -0.004017 0.006138 0.001871 0.031658 0.009289 0.002304
# 5 -0.002303 0.003844 0.003003 0.009289 0.035934 -0.001060
# 6 0.012566 0.000845 -0.000174 0.002304 -0.001060 0.034398
#
#
# Mechanical properties :
#
#
# Convention : Reuss Voigt Hill
#
# Bulk Modulus (GPa) = 32.33964 60.91209 46.62586
# Shear Modulus (GPa) = 26.47550 35.65095 31.06323
#
# Velocity S-wave (km/s) = 3.39453 3.93906 3.67689
# Velocity P-wave (km/s) = 5.42575 6.87013 6.19021
#
# Compressibility (1/GPa) = 0.03092180
#
# Stress axis : x y z
#
# Youngs Moduli (GPa) = 30.92348 79.81092 112.71539
#
# Poissons Ratio (x) = 0.63199 -0.00738
# Poissons Ratio (y) = 0.24487 0.40078
# Poissons Ratio (z) = -0.00202 0.28378
#
# Static dielectric constant tensor:
#      x y z
#    x 3.900350 -0.213780 -0.045150 
#    y -0.213780 4.354400 0.075630 
#    z -0.045150 0.075630 4.834700 
# 
# 
# High freq. dielectric constant tensor:
#      x y z
#    x 1.881070 -0.025060 0.005000 
#    y -0.025060 1.906200 -0.005490 
#    z 0.005000 -0.005490 1.932390 
# 
# From -- ./inp_files/447963.got.cif
#   From: 2010.06.25/outbox.cif.g09.slc.cpg/sg2_224_cif.got.tgz:447963.got - 2010.06.27 13:26:56.
