data_PCOD8042844
_publ_section_title
;
Structure prediction by ZEFSAII (Michael W. Deem and Ramdas Pophale) SiO2 
 PCOD8042844
Probable space group: P -1
;
_chemical_formula_sum "Si O2"
_cell_formula_units_Z 14
_cell_length_a 7.194748
_cell_length_b 14.394361
_cell_length_c 10.396161
_cell_angle_alpha 137.023337
_cell_angle_beta 57.989995
_cell_angle_gamma 107.010253
_cell_volume 613.857410
_symmetry_space_group_name_H-M "P -1"
_symmetry_group_IT_number 2
_symmetry_cell_setting 'triclinic'
loop_
_space_group_symop_operation_xyz
x,y,z
-x,-y,-z
loop_
_atom_site_type_symbol
_atom_site_label
_atom_site_fract_x
_atom_site_fract_y
_atom_site_fract_z
Si Si1 0.395002 0.485706 0.662496
Si Si2 0.034562 0.303355 0.970793
Si Si3 0.619815 0.783773 0.458626
Si Si4 0.590976 0.697510 0.959956
Si Si5 0.963210 0.038113 0.848402
Si Si6 0.655867 0.957072 0.075786
Si Si7 0.653295 0.122515 0.569985
O O1 0.500000 0.500000 0.500000
O O2 0.400726 0.326448 0.534122
O O3 0.541569 0.552847 0.780332
O O4 0.139920 0.557940 0.841655
O O5 0.211455 0.334541 0.042954
O O6 0.147903 0.250392 0.739601
O O7 0.899739 0.189596 0.964253
O O8 0.572220 0.937533 0.697657
O O9 0.423023 0.777395 0.421449
O O10 0.378433 0.787226 0.198261
O O11 0.632884 0.795670 0.923617
O O12 0.155022 0.027189 0.874183
O O13 0.082609 0.934736 0.589912
O O14 0.738440 0.994121 0.941104
O O15 0.500000 0.000000 0.500000
#
# Coordination Sequence:
#
# PCOD8042844 Si02
#       7
#     2   2   2   2   2   2   2
#     4  12  27  42  57  91 130 165 206 253 303 370
#     4  10  20  40  64  87 123 162 206 254 309 362
#     4  10  19  38  64  87 126 163 199 259 307 359
#     4  10  21  41  67  87 122 165 206 253 307 365
#     4   9  15  29  60  95 119 152 198 256 303 354
#     4   9  16  32  61  91 118 158 198 248 309 357
#     4  10  15  35  66  95 117 155 205 257 305 357
#
# _framework density 22.806601000000001
#
# number of rings (size 3 to 8) (size 9 to 14) (size 15 to 20)
#    0.000    2.000    5.714    1.286    0.000    4.000 
#    0.000    8.571    0.000    1.714    0.000    0.000 
#    0.000    0.000    0.000    0.000    0.000    0.000 
#
# Total GULP energy -173500.343109 kJ/mol
# GULP energy per Si atom -12392.881651 kJ/mol
# Density = 2.275469 g / cm^3
# Si number density = 22.806601 Si / 1000 Ang^3
#
#
#
# Elastic Constant Matrix: (Units=GPa)
#
#
# Indices 1 2 3 4 5 6 
#
# 1 35.1627 13.9003 15.9618 -3.9770 -10.6555 0.3752
# 2 13.9003 115.4440 13.7084 -7.2366 -13.7835 -17.2121
# 3 15.9618 13.7084 72.0918 -15.6395 -22.2034 0.7460
# 4 -3.9770 -7.2366 -15.6395 42.3053 -2.2094 -7.3539
# 5 -10.6555 -13.7835 -22.2034 -2.2094 32.7064 -3.3201
# 6 0.3752 -17.2121 0.7460 -7.3539 -3.3201 19.4480
#
#
#
# Elastic Compliance Matrix: (Units=1/GPa)
#
#
# Indices 1 2 3 4 5 6 
#
# 1 0.033825 -0.002902 -0.004690 0.001023 0.006526 -0.001541
# 2 -0.002902 0.012016 0.001404 0.005039 0.006803 0.013704
# 3 -0.004690 0.001404 0.021201 0.009567 0.014779 0.006661
# 4 0.001023 0.005039 0.009567 0.032007 0.012981 0.018392
# 5 0.006526 0.006803 0.014779 0.012981 0.048355 0.018492
# 6 -0.001541 0.013704 0.006661 0.018392 0.018492 0.073433
#
#
# Mechanical properties :
#
#
# Convention : Reuss Voigt Hill
#
# Bulk Modulus (GPa) = 18.29261 34.42663 26.35962
# Shear Modulus (GPa) = 19.88585 30.83381 25.35983
#
# Velocity S-wave (km/s) = 2.95606 3.68090 3.33821
# Velocity P-wave (km/s) = 4.43725 5.76135 5.14210
#
# Compressibility (1/GPa) = 0.05466690
#
# Stress axis : x y z
#
# Youngs Moduli (GPa) = 29.56393 83.22051 47.16848
#
# Poissons Ratio (x) = 0.24153 0.22120
# Poissons Ratio (y) = 0.08580 -0.06625
# Poissons Ratio (z) = 0.13864 -0.11688
#
# Static dielectric constant tensor:
#      x y z
#    x 3.656000 -0.163210 -0.179830 
#    y -0.163210 4.277040 -0.296610 
#    z -0.179830 -0.296610 4.361420 
# 
# 
# High freq. dielectric constant tensor:
#      x y z
#    x 1.871530 -0.020610 -0.013930 
#    y -0.020610 1.901370 -0.013270 
#    z -0.013930 -0.013270 1.900810 
# 
# From -- ./inp_files/200885.got.cif
#   From: 2010.06.25/outbox.cif.g09.slc.cpg/sg2_101_cif.got.tgz:200885.got - 2010.06.27 13:26:56.
