data_PCOD8042206
_publ_section_title
;
Structure prediction by ZEFSAII (Michael W. Deem and Ramdas Pophale) SiO2 
 PCOD8042206
Probable space group: P -1
;
_chemical_formula_sum "Si O2"
_cell_formula_units_Z 16
_cell_length_a 8.967531
_cell_length_b 11.864443
_cell_length_c 18.989118
_cell_angle_alpha 49.718123
_cell_angle_beta 152.000286
_cell_angle_gamma 124.005506
_cell_volume 723.193648
_symmetry_space_group_name_H-M "P -1"
_symmetry_group_IT_number 2
_symmetry_cell_setting 'triclinic'
loop_
_space_group_symop_operation_xyz
x,y,z
-x,-y,-z
loop_
_atom_site_type_symbol
_atom_site_label
_atom_site_fract_x
_atom_site_fract_y
_atom_site_fract_z
Si Si1 0.004924 0.733608 0.265625
Si Si2 0.118640 0.540779 0.899289
Si Si3 0.944327 0.867233 0.478056
Si Si4 0.064928 0.156283 0.666718
Si Si5 0.827961 0.443500 0.246619
Si Si6 0.713394 0.306012 0.873504
Si Si7 0.222463 0.861527 0.163745
Si Si8 0.278508 0.824758 0.924539
O O1 0.153111 0.778944 0.385434
O O2 0.995043 0.556757 0.323828
O O3 0.210541 0.799748 0.262437
O O4 0.656935 0.809038 0.085244
O O5 0.072004 0.515895 0.807011
O O6 0.130753 0.716343 0.848608
O O7 0.825032 0.476365 0.848692
O O8 0.448862 0.457030 0.094593
O O9 0.128624 0.859406 0.481730
O O10 0.587682 0.895742 0.290009
O O11 0.027517 0.718205 0.613555
O O12 0.000000 0.000000 0.500000
O O13 0.336513 0.280561 0.722720
O O14 0.197496 0.994463 0.808191
O O15 0.888678 0.249072 0.898446
O O16 0.851442 0.223630 0.033618
O O17 0.000000 0.000000 0.000000
#
# Coordination Sequence:
#
# PCOD8042206 Si02
#       8
#     2   2   2   2   2   2   2   2
#     4  10  19  37  60  86 119 158 206 250 302 355
#     4  10  20  36  63  91 124 162 207 251 309 364
#     4  11  25  42  61  88 126 163 201 252 317 364
#     4  10  21  39  61  88 122 162 203 254 308 360
#     4  10  22  38  60  88 126 164 200 257 311 363
#     4  10  19  34  59  96 115 155 212 252 294 363
#     4  11  22  37  65  94 117 157 210 252 295 372
#     4  10  19  35  60  91 127 157 200 258 310 356
#
# _framework density 22.124088
#
# number of rings (size 3 to 8) (size 9 to 14) (size 15 to 20)
#    0.000    1.750    1.250    4.875    1.750    1.000 
#    0.000    0.625    2.750    0.000    0.000    0.000 
#    0.000    0.000    0.000    0.000    0.000    0.000 
#
# Total GULP energy -198243.339862 kJ/mol
# GULP energy per Si atom -12390.208741 kJ/mol
# Density = 2.207373 g / cm^3
# Si number density = 22.124088 Si / 1000 Ang^3
#
#
#
# Elastic Constant Matrix: (Units=GPa)
#
#
# Indices 1 2 3 4 5 6 
#
# 1 112.1058 27.8747 2.0480 8.2733 -27.5830 -18.2102
# 2 27.8747 105.0502 20.4180 -5.5449 -5.7578 -19.7715
# 3 2.0480 20.4180 57.1329 -10.4591 -9.0330 -9.0834
# 4 8.2733 -5.5449 -10.4591 26.5498 -6.6388 -7.7793
# 5 -27.5830 -5.7578 -9.0330 -6.6388 26.5645 5.9152
# 6 -18.2102 -19.7715 -9.0834 -7.7793 5.9152 43.8475
#
#
#
# Elastic Compliance Matrix: (Units=1/GPa)
#
#
# Indices 1 2 3 4 5 6 
#
# 1 0.013486 -0.002792 0.003479 0.001095 0.014108 0.003353
# 2 -0.002792 0.011729 -0.003150 0.002903 -0.001641 0.004213
# 3 0.003479 -0.003150 0.023660 0.012375 0.012868 0.005385
# 4 0.001095 0.002903 0.012375 0.050048 0.016022 0.011045
# 5 0.014108 -0.001641 0.012868 0.016022 0.059745 0.002568
# 6 0.003353 0.004213 0.005385 0.011045 0.002568 0.028827
#
#
# Mechanical properties :
#
#
# Convention : Reuss Voigt Hill
#
# Bulk Modulus (GPa) = 22.75433 41.66336 32.20884
# Shear Modulus (GPa) = 24.14631 34.32225 29.23428
#
# Velocity S-wave (km/s) = 3.30722 3.94299 3.63902
# Velocity P-wave (km/s) = 4.98907 6.29302 5.67860
#
# Compressibility (1/GPa) = 0.04394769
#
# Stress axis : x y z
#
# Youngs Moduli (GPa) = 74.15160 85.26192 42.26529
#
# Poissons Ratio (x) = 0.23808 -0.14702
# Poissons Ratio (y) = 0.20706 0.13312
# Poissons Ratio (z) = -0.25794 0.26854
#
# Static dielectric constant tensor:
#      x y z
#    x 4.394300 -0.360440 -0.251350 
#    y -0.360440 4.261240 0.177980 
#    z -0.251350 0.177980 3.499620 
# 
# 
# High freq. dielectric constant tensor:
#      x y z
#    x 1.886330 -0.017200 -0.027760 
#    y -0.017200 1.882360 -0.003380 
#    z -0.027760 -0.003380 1.824590 
# 
# From -- ./inp_files/263343.got.cif
#   From: 2010.06.25/outbox.cif.g09.slc.cpg/sg2_132_cif.got.tgz:263343.got - 2010.06.27 13:26:56.
