data_PCOD8042062
_publ_section_title
;
Structure prediction by ZEFSAII (Michael W. Deem and Ramdas Pophale) SiO2 
 PCOD8042062
Probable space group: P -1
;
_chemical_formula_sum "Si O2"
_cell_formula_units_Z 14
_cell_length_a 14.067374
_cell_length_b 14.630282
_cell_length_c 15.480821
_cell_angle_alpha 27.371895
_cell_angle_beta 152.963445
_cell_angle_gamma 141.240390
_cell_volume 664.904073
_symmetry_space_group_name_H-M "P -1"
_symmetry_group_IT_number 2
_symmetry_cell_setting 'triclinic'
loop_
_space_group_symop_operation_xyz
x,y,z
-x,-y,-z
loop_
_atom_site_type_symbol
_atom_site_label
_atom_site_fract_x
_atom_site_fract_y
_atom_site_fract_z
Si Si1 0.266261 0.984797 0.856001
Si Si2 0.276299 0.579839 0.143711
Si Si3 0.389409 0.303424 0.322723
Si Si4 0.804386 0.957750 0.742830
Si Si5 0.225044 0.815109 0.152878
Si Si6 0.764997 0.592893 0.571210
Si Si7 0.516201 0.317409 0.230577
O O1 0.142673 0.198828 0.559611
O O2 0.168208 0.804058 0.873878
O O3 0.261324 0.938789 0.992074
O O4 0.500000 0.000000 0.000000
O O5 0.257267 0.482154 0.115367
O O6 0.516176 0.598049 0.351166
O O7 0.173493 0.439035 0.250806
O O8 0.239749 0.131094 0.314672
O O9 0.555646 0.197562 0.610214
O O10 0.505089 0.395544 0.255329
O O11 0.674333 0.832079 0.813352
O O12 0.734516 0.190777 0.496969
O O13 0.054244 0.929772 0.981046
O O14 0.140870 0.595240 0.250047
O O15 0.500000 0.500000 0.000000
#
# Coordination Sequence:
#
# PCOD8042062 Si02
#       7
#     2   2   2   2   2   2   2
#     4   9  16  29  50  79 117 142 172 219 258 300
#     4   8  14  28  48  73 108 141 175 211 254 312
#     4   9  18  36  57  79 104 143 180 214 268 322
#     4   9  21  39  56  77 109 139 172 227 277 306
#     4  10  19  34  57  82 107 143 180 213 259 323
#     4   8  15  28  46  77 113 137 171 218 255 296
#     4   9  20  42  57  75 111 137 169 234 277 309
#
# _framework density 21.055669000000002
#
# number of rings (size 3 to 8) (size 9 to 14) (size 15 to 20)
#    0.857    2.286    0.000    2.571    0.000    1.714 
#   10.286    3.571    0.000    4.286    0.000    0.000 
#    0.000    0.000    0.000    0.000    0.000    0.000 
#
# Total GULP energy -173444.166631 kJ/mol
# GULP energy per Si atom -12388.869045 kJ/mol
# Density = 2.100775 g / cm^3
# Si number density = 21.055669 Si / 1000 Ang^3
#
#
#
# Elastic Constant Matrix: (Units=GPa)
#
#
# Indices 1 2 3 4 5 6 
#
# 1 76.6614 9.6000 32.4130 -23.4289 -7.1668 -3.1125
# 2 9.6000 47.0501 24.1777 -24.3644 -15.9518 -7.9266
# 3 32.4130 24.1777 79.8275 -46.1745 -15.2686 6.9022
# 4 -23.4289 -24.3644 -46.1745 37.4327 4.4156 -2.1973
# 5 -7.1668 -15.9518 -15.2686 4.4156 35.7402 2.4300
# 6 -3.1125 -7.9266 6.9022 -2.1973 2.4300 29.7869
#
#
#
# Elastic Compliance Matrix: (Units=1/GPa)
#
#
# Indices 1 2 3 4 5 6 
#
# 1 0.017279 0.006062 -0.000118 0.014381 0.004059 0.004176
# 2 0.006062 0.050797 0.020437 0.059882 0.024415 0.011841
# 3 -0.000118 0.020437 0.060427 0.084590 0.024758 -0.004356
# 4 0.014381 0.059882 0.084590 0.174297 0.043730 0.007127
# 5 0.004059 0.024415 0.024758 0.043730 0.044814 0.000754
# 6 0.004176 0.011841 -0.004356 0.007127 0.000754 0.038633
#
#
# Mechanical properties :
#
#
# Convention : Reuss Voigt Hill
#
# Bulk Modulus (GPa) = 5.51681 37.32450 21.42065
# Shear Modulus (GPa) = 12.69338 29.74853 21.22096
#
# Velocity S-wave (km/s) = 2.45796 3.76287 3.17811
# Velocity P-wave (km/s) = 3.26821 6.05343 4.86442
#
# Compressibility (1/GPa) = 0.18126426
#
# Stress axis : x y z
#
# Youngs Moduli (GPa) = 57.87250 19.68631 16.54893
#
# Poissons Ratio (x) = -0.11934 0.00196
# Poissons Ratio (y) = -0.35082 -0.33821
# Poissons Ratio (z) = 0.00685 -0.40233
#
# Static dielectric constant tensor:
#      x y z
#    x 3.756980 -0.188250 0.106130 
#    y -0.188250 4.059590 -0.638040 
#    z 0.106130 -0.638040 3.980370 
# 
# 
# High freq. dielectric constant tensor:
#      x y z
#    x 1.817460 -0.011020 0.012240 
#    y -0.011020 1.799060 -0.014110 
#    z 0.012240 -0.014110 1.816280 
# 
# From -- ./inp_files/533622.got.cif
#   From: 2010.06.25/outbox.cif.g09.slc.cpg/sg2_267_cif.got.tgz:533622.got - 2010.06.27 13:26:56.
