data_PCOD8042306
_publ_section_title
;
Structure prediction by ZEFSAII (Michael W. Deem and Ramdas Pophale) SiO2 
 PCOD8042306
Probable space group: P -1
;
_chemical_formula_sum "Si O2"
_cell_formula_units_Z 16
_cell_length_a 12.066384
_cell_length_b 10.777209
_cell_length_c 8.603332
_cell_angle_alpha 65.453382
_cell_angle_beta 51.397032
_cell_angle_gamma 84.641699
_cell_volume 773.367400
_symmetry_space_group_name_H-M "P -1"
_symmetry_group_IT_number 2
_symmetry_cell_setting 'triclinic'
loop_
_space_group_symop_operation_xyz
x,y,z
-x,-y,-z
loop_
_atom_site_type_symbol
_atom_site_label
_atom_site_fract_x
_atom_site_fract_y
_atom_site_fract_z
Si Si1 0.749025 0.779426 0.717388
Si Si2 0.420883 0.562483 0.396921
Si Si3 0.112598 0.429488 0.645286
Si Si4 0.174537 0.495924 0.199262
Si Si5 0.884730 0.881318 0.247976
Si Si6 0.511438 0.355246 0.214574
Si Si7 0.412801 0.096689 0.611654
Si Si8 0.427193 0.117749 0.936817
O O1 0.799131 0.648485 0.820753
O O2 0.883950 0.864447 0.446795
O O3 0.600903 0.722890 0.776562
O O4 0.712842 0.875898 0.837884
O O5 0.500000 0.500000 0.500000
O O6 0.244137 0.516497 0.592775
O O7 0.465658 0.498477 0.228486
O O8 0.464229 0.729601 0.253574
O O9 0.139501 0.473567 0.421459
O O10 0.109453 0.266235 0.758694
O O11 0.955308 0.460544 0.808180
O O12 0.321482 0.618386 0.998288
O O13 0.738972 0.931249 0.325580
O O14 0.000000 0.000000 0.000000
O O15 0.498745 0.258570 0.430126
O O16 0.377296 0.060828 0.840178
O O17 0.500000 0.000000 0.500000
O O18 0.500000 0.000000 0.000000
#
# Coordination Sequence:
#
# PCOD8042306 Si02
#       8
#     2   2   2   2   2   2   2   2
#     4  10  20  39  65  92 130 165 220 260 322 390
#     4  12  21  41  69  88 132 171 217 268 320 388
#     4  10  21  37  59  98 128 162 218 262 325 380
#     4  10  19  34  62  94 125 158 208 268 319 375
#     4  10  21  41  61  90 130 177 213 257 316 388
#     4  11  19  38  65  94 117 174 214 264 314 388
#     4  11  24  42  65  92 124 166 224 263 326 394
#     4  12  24  40  65 100 127 163 218 278 325 376
#
# _framework density 20.688744
#
# number of rings (size 3 to 8) (size 9 to 14) (size 15 to 20)
#    0.000    1.250    6.250    2.625    1.750    0.000 
#    4.500    1.250    2.750    0.000    0.000    0.000 
#    0.000    0.000    0.000    0.000    0.000    0.000 
#
# Total GULP energy -198269.864367 kJ/mol
# GULP energy per Si atom -12391.866523 kJ/mol
# Density = 2.064166 g / cm^3
# Si number density = 20.688744 Si / 1000 Ang^3
#
#
#
# Elastic Constant Matrix: (Units=GPa)
#
#
# Indices 1 2 3 4 5 6 
#
# 1 86.5792 34.9243 26.0668 -0.9490 -13.1167 -25.5645
# 2 34.9243 116.0722 44.8175 6.6635 0.1983 -22.3652
# 3 26.0668 44.8175 122.0580 -10.6014 -13.1891 -7.6513
# 4 -0.9490 6.6635 -10.6014 40.3164 0.1841 1.6229
# 5 -13.1167 0.1983 -13.1891 0.1841 37.5144 7.1155
# 6 -25.5645 -22.3652 -7.6513 1.6229 7.1155 34.9517
#
#
#
# Elastic Compliance Matrix: (Units=1/GPa)
#
#
# Indices 1 2 3 4 5 6 
#
# 1 0.016296 -0.002495 -0.001619 -0.000019 0.003382 0.009281
# 2 -0.002495 0.012414 -0.004336 -0.003478 -0.003595 0.006063
# 3 -0.001619 -0.004336 0.010679 0.003572 0.003675 -0.002535
# 4 -0.000019 -0.003478 0.003572 0.026432 0.001713 -0.003034
# 5 0.003382 -0.003595 0.003675 0.001713 0.030135 -0.005237
# 6 0.009281 0.006063 -0.002535 -0.003034 -0.005237 0.039932
#
#
# Mechanical properties :
#
#
# Convention : Reuss Voigt Hill
#
# Bulk Modulus (GPa) = 44.46236 59.59184 52.02710
# Shear Modulus (GPa) = 31.19468 37.14988 34.17228
#
# Velocity S-wave (km/s) = 3.88726 4.24212 4.06856
# Velocity P-wave (km/s) = 6.45643 7.27053 6.87554
#
# Compressibility (1/GPa) = 0.02249093
#
# Stress axis : x y z
#
# Youngs Moduli (GPa) = 61.36322 80.55220 93.64110
#
# Poissons Ratio (x) = 0.20095 0.15158
# Poissons Ratio (y) = 0.15308 0.40604
# Poissons Ratio (z) = 0.09933 0.34928
#
# Static dielectric constant tensor:
#      x y z
#    x 3.815760 -0.281930 0.018310 
#    y -0.281930 3.881030 -0.098550 
#    z 0.018310 -0.098550 3.858920 
# 
# 
# High freq. dielectric constant tensor:
#      x y z
#    x 1.790910 -0.024660 0.007130 
#    y -0.024660 1.803340 -0.002560 
#    z 0.007130 -0.002560 1.816040 
# 
# From -- ./inp_files/256644.got.cif
#   From: 2010.06.25/outbox.cif.g09.slc.cpg/sg2_129_cif.got.tgz:256644.got - 2010.06.27 13:26:56.
