data_PCOD8042533
_publ_section_title
;
Structure prediction by ZEFSAII (Michael W. Deem and Ramdas Pophale) SiO2 
 PCOD8042533
Probable space group: P -1
;
_chemical_formula_sum "Si O2"
_cell_formula_units_Z 16
_cell_length_a 15.843845
_cell_length_b 12.855272
_cell_length_c 8.633162
_cell_angle_alpha 130.439038
_cell_angle_beta 69.481598
_cell_angle_gamma 140.612432
_cell_volume 806.769613
_symmetry_space_group_name_H-M "P -1"
_symmetry_group_IT_number 2
_symmetry_cell_setting 'triclinic'
loop_
_space_group_symop_operation_xyz
x,y,z
-x,-y,-z
loop_
_atom_site_type_symbol
_atom_site_label
_atom_site_fract_x
_atom_site_fract_y
_atom_site_fract_z
Si Si1 0.652082 0.434912 0.230671
Si Si2 0.827810 0.419120 0.929133
Si Si3 0.352524 0.275544 0.943083
Si Si4 0.645028 0.978544 0.096449
Si Si5 0.646396 0.216325 0.548594
Si Si6 0.155144 0.825326 0.122410
Si Si7 0.612037 0.445084 0.610596
Si Si8 0.690457 0.781718 0.415706
O O1 0.679546 0.475644 0.435669
O O2 0.654028 0.588535 0.309258
O O3 0.772302 0.483671 0.123856
O O4 0.503399 0.190199 0.058542
O O5 0.763801 0.337688 0.720895
O O6 0.790172 0.236746 0.868197
O O7 0.992148 0.626288 0.001885
O O8 0.362577 0.136234 0.868681
O O9 0.254624 0.158912 0.740762
O O10 0.500000 0.500000 0.000000
O O11 0.304827 0.324420 0.156381
O O12 0.682394 0.168452 0.328425
O O13 0.768163 0.084187 0.003369
O O14 0.634771 0.359040 0.643953
O O15 0.500000 0.000000 0.500000
O O16 0.186469 0.005688 0.360249
O O17 0.448090 0.286568 0.538840
#
# Coordination Sequence:
#
# PCOD8042533 Si02
#       8
#     2   2   2   2   2   2   2   2
#     4  12  22  38  65  96 124 155 213 261 301 357
#     4  11  26  45  61  89 128 168 204 257 306 372
#     4  10  19  35  57  95 126 156 195 257 311 352
#     4  12  22  37  65  96 121 163 206 258 302 366
#     4  12  23  37  62  93 126 158 206 259 314 355
#     4  11  25  44  64  87 127 170 208 244 314 373
#     4  11  21  35  59  95 125 154 200 264 305 353
#     4  11  21  38  65  93 126 164 200 253 314 368
#
# _framework density 19.832180000000001
#
# number of rings (size 3 to 8) (size 9 to 14) (size 15 to 20)
#    0.000    0.750    5.000    5.625    0.000    2.000 
#    0.000    1.250    0.000    3.000    0.000    0.000 
#    0.000    0.000    0.000    0.000    0.000    0.000 
#
# Total GULP energy -198447.960380 kJ/mol
# GULP energy per Si atom -12402.997524 kJ/mol
# Density = 1.978704 g / cm^3
# Si number density = 19.832180 Si / 1000 Ang^3
#
#
#
# Elastic Constant Matrix: (Units=GPa)
#
#
# Indices 1 2 3 4 5 6 
#
# 1 96.9893 33.5454 30.1932 1.0889 -0.3165 -5.2059
# 2 33.5454 69.4752 17.9413 -9.3130 3.9391 -0.4566
# 3 30.1932 17.9413 127.5573 -16.6385 -0.8905 8.7825
# 4 1.0889 -9.3130 -16.6385 32.4392 -5.9546 1.5434
# 5 -0.3165 3.9391 -0.8905 -5.9546 30.0037 -0.3015
# 6 -5.2059 -0.4566 8.7825 1.5434 -0.3015 19.0021
#
#
#
# Elastic Compliance Matrix: (Units=1/GPa)
#
#
# Indices 1 2 3 4 5 6 
#
# 1 0.013903 -0.006393 -0.003327 -0.004254 0.000099 0.005540
# 2 -0.006393 0.018317 -0.000293 0.005128 -0.001479 -0.001616
# 3 -0.003327 -0.000293 0.009812 0.005587 0.001344 -0.005886
# 4 -0.004254 0.005128 0.005587 0.036846 0.006695 -0.006511
# 5 0.000099 -0.001479 0.001344 0.006695 0.034887 -0.000620
# 6 0.005540 -0.001616 -0.005886 -0.006511 -0.000620 0.057344
#
#
# Mechanical properties :
#
#
# Convention : Reuss Voigt Hill
#
# Bulk Modulus (GPa) = 45.44560 50.82016 48.13288
# Shear Modulus (GPa) = 25.19262 30.44513 27.81887
#
# Velocity S-wave (km/s) = 3.56798 3.92233 3.74935
# Velocity P-wave (km/s) = 6.31971 6.79659 6.56249
#
# Compressibility (1/GPa) = 0.02200433
#
# Stress axis : x y z
#
# Youngs Moduli (GPa) = 71.92783 54.59459 101.91754
#
# Poissons Ratio (x) = 0.34903 0.33911
# Poissons Ratio (y) = 0.45984 0.02988
# Poissons Ratio (z) = 0.23933 0.01601
#
# Static dielectric constant tensor:
#      x y z
#    x 3.625680 -0.232510 -0.189790 
#    y -0.232510 3.462970 -0.196940 
#    z -0.189790 -0.196940 4.486370 
# 
# 
# High freq. dielectric constant tensor:
#      x y z
#    x 1.764750 -0.027700 -0.008920 
#    y -0.027700 1.757480 -0.013510 
#    z -0.008920 -0.013510 1.797720 
# 
# From -- ./inp_files/184338.got.cif
#   From: 2010.06.25/outbox.cif.g09.slc.cpg/sg2_93_cif.got.tgz:184338.got - 2010.06.27 13:26:56.
