data_PCOD8042598
_publ_section_title
;
Structure prediction by ZEFSAII (Michael W. Deem and Ramdas Pophale) SiO2 
 PCOD8042598
Probable space group: P -1
;
_chemical_formula_sum "Si O2"
_cell_formula_units_Z 14
_cell_length_a 8.473891
_cell_length_b 19.999880
_cell_length_c 11.713967
_cell_angle_alpha 148.043850
_cell_angle_beta 59.236767
_cell_angle_gamma 140.037299
_cell_volume 616.040965
_symmetry_space_group_name_H-M "P -1"
_symmetry_group_IT_number 2
_symmetry_cell_setting 'triclinic'
loop_
_space_group_symop_operation_xyz
x,y,z
-x,-y,-z
loop_
_atom_site_type_symbol
_atom_site_label
_atom_site_fract_x
_atom_site_fract_y
_atom_site_fract_z
Si Si1 0.129054 0.445261 0.430042
Si Si2 0.230737 0.380382 0.069094
Si Si3 0.457786 0.127859 0.701128
Si Si4 0.432895 0.224008 0.093513
Si Si5 0.898517 0.982887 0.668967
Si Si6 0.579131 0.359778 0.802498
Si Si7 0.122546 0.922415 0.947844
O O1 0.288738 0.453336 0.282290
O O2 0.321758 0.577870 0.654388
O O3 0.000000 0.500000 0.500000
O O4 0.885848 0.233011 0.257014
O O5 0.185475 0.476162 0.135357
O O6 0.503286 0.444569 0.027936
O O7 0.978217 0.157993 0.836833
O O8 0.652492 0.285305 0.757383
O O9 0.500000 0.000000 0.500000
O O10 0.535504 0.223899 0.934268
O O11 0.151703 0.014465 0.622641
O O12 0.183914 0.194319 0.136931
O O13 0.337499 0.057442 0.964777
O O14 0.672641 0.806584 0.422226
O O15 0.786128 0.952553 0.793490
#
# Coordination Sequence:
#
# PCOD8042598 Si02
#       7
#     2   2   2   2   2   2   2
#     4  11  23  36  56  85 112 141 180 229 277 320
#     4   9  19  34  55  81 104 135 187 223 257 315
#     4  10  21  34  53  82 112 141 173 217 275 326
#     4  10  21  39  58  78 111 148 182 222 269 325
#     4   9  18  36  59  79 102 139 184 224 262 313
#     4  10  19  35  59  78 103 144 183 222 261 313
#     4   9  20  38  60  82 105 144 188 224 268 320
#
# _framework density 22.725762
#
# number of rings (size 3 to 8) (size 9 to 14) (size 15 to 20)
#    0.000    2.286    0.000    3.857    0.000    5.143 
#    0.000    4.286    0.000   15.429    0.000    0.000 
#    0.000    0.000    0.000    0.000    0.000    0.000 
#
# Total GULP energy -173517.620893 kJ/mol
# GULP energy per Si atom -12394.115778 kJ/mol
# Density = 2.267404 g / cm^3
# Si number density = 22.725762 Si / 1000 Ang^3
#
#
#
# Elastic Constant Matrix: (Units=GPa)
#
#
# Indices 1 2 3 4 5 6 
#
# 1 78.6189 37.8838 53.1655 -0.8062 -19.6811 -32.8745
# 2 37.8838 82.8908 40.6293 2.4974 0.7360 -44.5085
# 3 53.1655 40.6293 133.9601 -15.1379 -1.6659 -12.5874
# 4 -0.8062 2.4974 -15.1379 23.9681 -18.2447 -2.6764
# 5 -19.6811 0.7360 -1.6659 -18.2447 35.6890 8.7640
# 6 -32.8745 -44.5085 -12.5874 -2.6764 8.7640 40.3043
#
#
#
# Elastic Compliance Matrix: (Units=1/GPa)
#
#
# Indices 1 2 3 4 5 6 
#
# 1 0.032057 0.000862 -0.009601 0.010552 0.017448 0.021008
# 2 0.000862 0.050042 -0.014198 -0.031613 -0.031184 0.056213
# 3 -0.009601 -0.014198 0.015557 0.015045 0.008188 -0.019433
# 4 0.010552 -0.031613 0.015045 0.102379 0.066709 -0.029313
# 5 0.017448 -0.031184 0.008188 0.066709 0.080303 -0.030681
# 6 0.021008 0.056213 -0.019433 -0.029313 -0.030681 0.102680
#
#
# Mechanical properties :
#
#
# Convention : Reuss Voigt Hill
#
# Bulk Modulus (GPa) = 19.31097 62.09188 40.70142
# Shear Modulus (GPa) = 11.20690 30.91170 21.05930
#
# Velocity S-wave (km/s) = 2.22308 3.69210 3.04743
# Velocity P-wave (km/s) = 3.88655 6.74959 5.50737
#
# Compressibility (1/GPa) = 0.05178405
#
# Stress axis : x y z
#
# Youngs Moduli (GPa) = 31.19427 19.98306 64.27801
#
# Poissons Ratio (x) = -0.01724 0.61713
# Poissons Ratio (y) = -0.02690 0.91262
# Poissons Ratio (z) = 0.29949 0.28372
#
# Static dielectric constant tensor:
#      x y z
#    x 4.109410 -0.716890 -0.123970 
#    y -0.716890 4.530370 -0.251950 
#    z -0.123970 -0.251950 4.430670 
# 
# 
# High freq. dielectric constant tensor:
#      x y z
#    x 1.872940 -0.040080 -0.012520 
#    y -0.040080 1.897040 -0.010790 
#    z -0.012520 -0.010790 1.903780 
# 
# From -- ./inp_files/405692.got.cif
#   From: 2010.06.25/outbox.cif.g09.slc.cpg/sg2_203_cif.got.tgz:405692.got - 2010.06.27 13:26:56.
