data_PCOD8042583
_publ_section_title
;
Structure prediction by ZEFSAII (Michael W. Deem and Ramdas Pophale) SiO2 
 PCOD8042583
Probable space group: P -1
;
_chemical_formula_sum "Si O2"
_cell_formula_units_Z 12
_cell_length_a 13.113848
_cell_length_b 19.851494
_cell_length_c 9.196181
_cell_angle_alpha 129.918159
_cell_angle_beta 128.700980
_cell_angle_gamma 19.800270
_cell_volume 619.843102
_symmetry_space_group_name_H-M "P -1"
_symmetry_group_IT_number 2
_symmetry_cell_setting 'triclinic'
loop_
_space_group_symop_operation_xyz
x,y,z
-x,-y,-z
loop_
_atom_site_type_symbol
_atom_site_label
_atom_site_fract_x
_atom_site_fract_y
_atom_site_fract_z
Si Si1 0.628214 0.825679 0.859373
Si Si2 0.311667 0.398108 0.925709
Si Si3 0.397617 0.179376 0.507737
Si Si4 0.128774 0.176026 0.367377
Si Si5 0.684081 0.071624 0.025732
Si Si6 0.672547 0.340193 0.051081
O O1 0.643500 0.785538 0.651613
O O2 0.956587 0.624048 0.947078
O O3 0.414013 0.887368 0.839732
O O4 0.500000 0.000000 0.000000
O O5 0.377348 0.288717 0.705907
O O6 0.469853 0.276003 0.049081
O O7 0.443679 0.411704 0.017116
O O8 0.132842 0.277766 0.477255
O O9 0.722665 0.937809 0.501815
O O10 0.349404 0.997808 0.194592
O O11 0.795101 0.335617 0.276359
O O12 0.038646 0.885591 0.076195
O O13 0.500000 0.500000 0.000000
#
# Coordination Sequence:
#
# PCOD8042583 Si02
#       6
#     2   2   2   2   2   2
#     4  12  21  36  57  89 117 151 189 239 289 334
#     4  11  22  36  63  86 112 150 198 237 276 341
#     4  10  19  35  58  89 113 147 195 238 274 337
#     4   8  18  35  59  83 114 150 187 228 285 337
#     4   9  20  36  57  84 115 148 189 232 284 335
#     4  10  19  37  62  85 110 154 197 228 282 349
#
# _framework density 19.359738
#
# number of rings (size 3 to 8) (size 9 to 14) (size 15 to 20)
#    1.000    1.000    1.667    3.500    0.000    0.000 
#    0.000    0.833    0.000    4.000    0.000    0.000 
#    0.000    0.000    0.000    0.000    0.000    0.000 
#
# Total GULP energy -148723.095099 kJ/mol
# GULP energy per Si atom -12393.591258 kJ/mol
# Density = 1.931567 g / cm^3
# Si number density = 19.359738 Si / 1000 Ang^3
#
#
#
# Elastic Constant Matrix: (Units=GPa)
#
#
# Indices 1 2 3 4 5 6 
#
# 1 82.5651 3.8287 12.3377 -6.5063 -2.3311 9.5232
# 2 3.8287 89.2963 2.0841 -13.8147 -12.8002 10.9584
# 3 12.3377 2.0841 35.8158 -8.4073 7.8883 5.7585
# 4 -6.5063 -13.8147 -8.4073 20.8697 -3.6450 -0.1123
# 5 -2.3311 -12.8002 7.8883 -3.6450 30.9221 -5.7324
# 6 9.5232 10.9584 5.7585 -0.1123 -5.7324 35.1488
#
#
#
# Elastic Compliance Matrix: (Units=1/GPa)
#
#
# Indices 1 2 3 4 5 6 
#
# 1 0.013311 0.000707 -0.003839 0.003432 0.002154 -0.002835
# 2 0.000707 0.014219 0.000697 0.011008 0.006380 -0.003663
# 3 -0.003839 0.000697 0.034884 0.011768 -0.008675 -0.006269
# 4 0.003432 0.011008 0.011768 0.062437 0.008295 -0.004738
# 5 0.002154 0.006380 -0.008675 0.008295 0.039313 0.005287
# 6 -0.002835 -0.003663 -0.006269 -0.004738 0.005287 0.032235
#
#
# Mechanical properties :
#
#
# Convention : Reuss Voigt Hill
#
# Bulk Modulus (GPa) = 17.37859 27.13091 22.25475
# Shear Modulus (GPa) = 22.68072 30.01660 26.34866
#
# Velocity S-wave (km/s) = 3.42649 3.94187 3.69318
# Velocity P-wave (km/s) = 4.96494 5.89595 5.45036
#
# Compressibility (1/GPa) = 0.05754208
#
# Stress axis : x y z
#
# Youngs Moduli (GPa) = 75.12637 70.32751 28.66667
#
# Poissons Ratio (x) = -0.04969 0.11006
# Poissons Ratio (y) = -0.05308 -0.01998
# Poissons Ratio (z) = 0.28844 -0.04902
#
# Static dielectric constant tensor:
#      x y z
#    x 3.817610 0.096520 -0.034760 
#    y 0.096520 3.582520 -0.246680 
#    z -0.034760 -0.246680 3.307080 
# 
# 
# High freq. dielectric constant tensor:
#      x y z
#    x 1.752810 0.018890 0.006030 
#    y 0.018890 1.753890 -0.024010 
#    z 0.006030 -0.024010 1.722820 
# 
# From -- ./inp_files/170088.got.cif
#   From: 2010.06.25/outbox.cif.g09.slc.cpg/sg2_86_cif.got.tgz:170088.got - 2010.06.27 13:26:56.
