data_PCOD8042366
_publ_section_title
;
Structure prediction by ZEFSAII (Michael W. Deem and Ramdas Pophale) SiO2 
 PCOD8042366
Probable space group: P -1
;
_chemical_formula_sum "Si O2"
_cell_formula_units_Z 16
_cell_length_a 27.975455
_cell_length_b 28.138869
_cell_length_c 13.487561
_cell_angle_alpha 154.721990
_cell_angle_beta 154.264214
_cell_angle_gamma 10.409521
_cell_volume 810.108609
_symmetry_space_group_name_H-M "P -1"
_symmetry_group_IT_number 2
_symmetry_cell_setting 'triclinic'
loop_
_space_group_symop_operation_xyz
x,y,z
-x,-y,-z
loop_
_atom_site_type_symbol
_atom_site_label
_atom_site_fract_x
_atom_site_fract_y
_atom_site_fract_z
Si Si1 0.085197 0.239489 0.364596
Si Si2 0.238427 0.749110 0.187904
Si Si3 0.499599 0.377579 0.724820
Si Si4 0.542795 0.653649 0.057047
Si Si5 0.745419 0.725450 0.380057
Si Si6 0.039835 0.043379 0.563209
Si Si7 0.970901 0.837679 0.700787
Si Si8 0.588246 0.620098 0.854396
O O1 0.210774 0.242778 0.578222
O O2 0.793159 0.502416 0.265031
O O3 0.064653 0.241415 0.448557
O O4 0.266126 0.973415 0.156675
O O5 0.404665 0.698813 0.354896
O O6 0.055172 0.957961 0.330177
O O7 0.450859 0.460718 0.077266
O O8 0.045615 0.872506 0.977532
O O9 0.200463 0.604534 0.606962
O O10 0.500000 0.500000 0.000000
O O11 0.694413 0.116602 0.656208
O O12 0.563667 0.595168 0.872538
O O13 0.000000 0.500000 0.500000
O O14 0.500000 0.000000 0.500000
O O15 0.691081 0.651086 0.103571
O O16 0.791674 0.354837 0.674364
O O17 0.303421 0.875671 0.751093
O O18 0.000000 0.000000 0.500000
#
# Coordination Sequence:
#
# PCOD8042366 Si02
#       8
#     2   2   2   2   2   2   2   2
#     4  11  20  35  55  86 107 145 177 231 299 332
#     4  10  22  35  57  79 115 157 182 223 280 326
#     4  10  19  35  52  82 110 140 182 235 279 329
#     4  11  21  33  56  79 113 148 190 219 269 336
#     4  12  22  37  60  82 110 147 189 237 293 330
#     4  12  26  39  54  80 117 162 196 219 260 335
#     4  10  21  34  56  82 111 137 184 235 281 340
#     4  12  24  39  53  81 116 149 198 231 259 332
#
# _framework density 19.750439
#
# number of rings (size 3 to 8) (size 9 to 14) (size 15 to 20)
#    0.000    1.000    3.750    5.625    1.750    4.000 
#    0.000    0.000    0.000    0.000    0.000    5.250 
#    0.000    0.000    0.000    0.000    0.000    0.000 
#
# Total GULP energy -198415.696476 kJ/mol
# GULP energy per Si atom -12400.981030 kJ/mol
# Density = 1.970549 g / cm^3
# Si number density = 19.750439 Si / 1000 Ang^3
#
#
#
# Elastic Constant Matrix: (Units=GPa)
#
#
# Indices 1 2 3 4 5 6 
#
# 1 128.3735 19.3320 23.7005 9.5131 9.5989 -15.9620
# 2 19.3320 89.6875 7.0333 3.9335 5.7306 -10.3829
# 3 23.7005 7.0333 53.0259 5.4614 8.4681 -5.9517
# 4 9.5131 3.9335 5.4614 26.9053 -4.0252 -2.9842
# 5 9.5989 5.7306 8.4681 -4.0252 27.6959 1.8072
# 6 -15.9620 -10.3829 -5.9517 -2.9842 1.8072 29.3771
#
#
#
# Elastic Compliance Matrix: (Units=1/GPa)
#
#
# Indices 1 2 3 4 5 6 
#
# 1 0.009381 -0.001036 -0.002893 -0.002545 -0.002787 0.004058
# 2 -0.001036 0.012031 -0.000184 -0.001323 -0.002506 0.003672
# 3 -0.002893 -0.000184 0.021935 -0.004056 -0.006438 0.002791
# 4 -0.002545 -0.001323 -0.004056 0.040415 0.008209 0.000928
# 5 -0.002787 -0.002506 -0.006438 0.008209 0.041105 -0.005399
# 6 0.004058 0.003672 0.002791 0.000928 -0.005399 0.038535
#
#
# Mechanical properties :
#
#
# Convention : Reuss Voigt Hill
#
# Bulk Modulus (GPa) = 28.47260 41.24650 34.85955
# Shear Modulus (GPa) = 27.27245 31.53041 29.40143
#
# Velocity S-wave (km/s) = 3.72001 3.99988 3.86248
# Velocity P-wave (km/s) = 5.73575 6.50087 6.13026
#
# Compressibility (1/GPa) = 0.03512148
#
# Stress axis : x y z
#
# Youngs Moduli (GPa) = 106.59299 83.12050 45.58859
#
# Poissons Ratio (x) = 0.08609 0.13189
# Poissons Ratio (y) = 0.11041 0.00840
# Poissons Ratio (z) = 0.30837 0.01532
#
# Static dielectric constant tensor:
#      x y z
#    x 4.389480 -0.250370 0.115020 
#    y -0.250370 3.869360 0.056490 
#    z 0.115020 0.056490 3.265450 
# 
# 
# High freq. dielectric constant tensor:
#      x y z
#    x 1.784230 -0.009030 0.005760 
#    y -0.009030 1.793550 0.002680 
#    z 0.005760 0.002680 1.704090 
# 
# From -- ./inp_files/477241.got.cif
#   From: 2010.06.25/outbox.cif.g09.slc.cpg/sg2_239_cif.got.tgz:477241.got - 2010.06.27 13:26:56.
