data_PCOD8042931
_publ_section_title
;
Structure prediction by ZEFSAII (Michael W. Deem and Ramdas Pophale) SiO2 
 PCOD8042931
Probable space group: P -1
;
_chemical_formula_sum "Si O2"
_cell_formula_units_Z 16
_cell_length_a 10.206429
_cell_length_b 9.174848
_cell_length_c 18.979899
_cell_angle_alpha 137.411172
_cell_angle_beta 82.931417
_cell_angle_gamma 123.792486
_cell_volume 860.230890
_symmetry_space_group_name_H-M "P -1"
_symmetry_group_IT_number 2
_symmetry_cell_setting 'triclinic'
loop_
_space_group_symop_operation_xyz
x,y,z
-x,-y,-z
loop_
_atom_site_type_symbol
_atom_site_label
_atom_site_fract_x
_atom_site_fract_y
_atom_site_fract_z
Si Si1 0.746473 0.330083 0.764466
Si Si2 0.945348 0.727770 0.764431
Si Si3 0.315743 0.346687 0.918130
Si Si4 0.805351 0.325913 0.918129
Si Si5 0.365659 0.296687 0.246959
Si Si6 0.176489 0.648868 0.495893
Si Si7 0.437161 0.309050 0.753083
Si Si8 0.519465 0.334695 0.495864
O O1 0.910067 0.594120 0.797041
O O2 0.832138 0.370874 0.848517
O O3 0.598504 0.351603 0.792822
O O4 0.653958 0.017921 0.624000
O O5 0.832622 0.819770 0.792807
O O6 0.884002 0.477942 0.623955
O O7 0.158336 0.023138 0.848423
O O8 0.327771 0.308611 0.820944
O O9 0.500000 0.500000 0.000000
O O10 0.276494 0.552997 0.000009
O O11 0.661078 0.975148 0.820845
O O12 0.000000 0.500000 0.000000
O O13 0.478907 0.423537 0.211810
O O14 0.481955 0.565471 0.390932
O O15 0.291268 0.582603 0.500022
O O16 0.000000 0.500000 0.500000
O O17 0.301601 0.001868 0.609117
O O18 0.500000 0.500000 0.500000
#
# Coordination Sequence:
#
# PCOD8042931 Si02
#       8
#     2   2   2   2   2   2   2   2
#     4  10  21  39  64  90 116 155 199 241 292 356
#     4  10  21  39  64  90 116 155 199 241 292 356
#     4  12  24  39  61  86 118 161 204 240 287 344
#     4  12  24  39  61  86 118 161 204 240 287 344
#     4  10  21  39  63  90 119 153 196 245 293 349
#     4  10  19  35  65  91 116 149 191 241 301 353
#     4  10  21  39  63  90 119 153 196 245 293 349
#     4  10  19  35  65  91 116 149 191 241 301 353
#
# _framework density 18.599658999999999
#
# number of rings (size 3 to 8) (size 9 to 14) (size 15 to 20)
#    0.000    1.500    5.000    0.750    0.000    5.000 
#    0.000    0.000    0.000    1.500    0.000    0.000 
#    0.000    0.000    0.000    0.000    0.000    0.000 
#
# Total GULP energy -198452.426191 kJ/mol
# GULP energy per Si atom -12403.276637 kJ/mol
# Density = 1.855732 g / cm^3
# Si number density = 18.599659 Si / 1000 Ang^3
#
#
#
# Elastic Constant Matrix: (Units=GPa)
#
#
# Indices 1 2 3 4 5 6 
#
# 1 93.1325 59.5070 57.0139 -0.2231 -0.4410 -0.0478
# 2 59.5070 159.3660 66.9928 -3.8719 -2.9991 0.1743
# 3 57.0139 66.9928 124.6084 1.3617 -5.4645 -0.8153
# 4 -0.2231 -3.8719 1.3617 18.3022 -0.3498 3.3223
# 5 -0.4410 -2.9991 -5.4645 -0.3498 33.9231 0.1373
# 6 -0.0478 0.1743 -0.8153 3.3223 0.1373 31.7705
#
#
#
# Elastic Compliance Matrix: (Units=1/GPa)
#
#
# Indices 1 2 3 4 5 6 
#
# 1 0.016621 -0.003896 -0.005553 -0.000216 -0.001025 -0.000069
# 2 -0.003896 0.009102 -0.003125 0.002182 0.000275 -0.000365
# 3 -0.005553 -0.003125 0.012339 -0.001706 0.001620 0.000497
# 4 -0.000216 0.002182 -0.001706 0.056314 0.000520 -0.005947
# 5 -0.001025 0.000275 0.001620 0.000520 0.029756 -0.000144
# 6 -0.000069 -0.000365 0.000497 -0.005947 -0.000144 0.032113
#
#
# Mechanical properties :
#
#
# Convention : Reuss Voigt Hill
#
# Bulk Modulus (GPa) = 77.44041 82.68160 80.06100
# Shear Modulus (GPa) = 26.92546 29.70537 28.31541
#
# Velocity S-wave (km/s) = 3.80890 4.00070 3.90598
# Velocity P-wave (km/s) = 7.81469 8.11730 7.96743
#
# Compressibility (1/GPa) = 0.01291315
#
# Stress axis : x y z
#
# Youngs Moduli (GPa) = 60.16450 109.86656 81.04447
#
# Poissons Ratio (x) = 0.42808 0.45005
# Poissons Ratio (y) = 0.23442 0.25326
# Poissons Ratio (z) = 0.33410 0.34332
#
# Static dielectric constant tensor:
#      x y z
#    x 3.270430 -0.001870 -0.022710 
#    y -0.001870 3.459790 0.010990 
#    z -0.022710 0.010990 3.626400 
# 
# 
# High freq. dielectric constant tensor:
#      x y z
#    x 1.705380 -0.000010 0.000280 
#    y -0.000010 1.723280 0.001100 
#    z 0.000280 0.001100 1.739980 
# 
# From -- ./inp_files/169756.got.cif
#   From: 2010.06.25/outbox.cif.g09.slc.cpg/sg2_85_cif.got.tgz:169756.got - 2010.06.27 13:26:56.
