data_PCOD8042088
_publ_section_title
;
Structure prediction by ZEFSAII (Michael W. Deem and Ramdas Pophale) SiO2 
 PCOD8042088
Probable space group: P -1
;
_chemical_formula_sum "Si O2"
_cell_formula_units_Z 16
_cell_length_a 11.914862
_cell_length_b 11.306671
_cell_length_c 14.819005
_cell_angle_alpha 39.536102
_cell_angle_beta 59.176192
_cell_angle_gamma 37.271083
_cell_volume 742.534115
_symmetry_space_group_name_H-M "P -1"
_symmetry_group_IT_number 2
_symmetry_cell_setting 'triclinic'
loop_
_space_group_symop_operation_xyz
x,y,z
-x,-y,-z
loop_
_atom_site_type_symbol
_atom_site_label
_atom_site_fract_x
_atom_site_fract_y
_atom_site_fract_z
Si Si1 0.778730 0.211765 0.863084
Si Si2 0.735786 0.898346 0.360701
Si Si3 0.029759 0.471501 0.353010
Si Si4 0.384135 0.564769 0.880196
Si Si5 0.196090 0.621718 0.562997
Si Si6 0.427018 0.334987 0.466702
Si Si7 0.855605 0.356023 0.921356
Si Si8 0.216836 0.788027 0.635392
O O1 0.596069 0.282237 0.929392
O O2 0.721314 0.412994 0.689320
O O3 0.856416 0.241314 0.897671
O O4 0.952711 0.891962 0.952518
O O5 0.828113 0.792185 0.485531
O O6 0.598664 0.861744 0.420590
O O7 0.907874 0.739360 0.310095
O O8 0.615434 0.215607 0.221315
O O9 0.144539 0.436286 0.240956
O O10 0.869572 0.519564 0.339775
O O11 0.247859 0.664424 0.792901
O O12 0.327627 0.492775 0.029447
O O13 0.367652 0.473348 0.508102
O O14 0.275959 0.581244 0.653937
O O15 0.009233 0.942053 0.433948
O O16 0.647215 0.168853 0.456275
#
# Coordination Sequence:
#
# PCOD8042088 Si02
#       8
#     2   2   2   2   2   2   2   2
#     4  10  21  33  54  81 112 149 183 219 275 342
#     4  10  19  34  57  88 113 141 179 236 288 325
#     4  10  20  34  58  83 114 146 185 227 281 329
#     4  11  22  36  56  82 116 145 186 227 272 334
#     4  10  20  37  56  80 114 143 185 233 273 322
#     4  10  20  35  57  83 112 142 181 233 280 327
#     4  11  21  36  53  78 116 156 179 216 278 339
#     4  10  21  35  57  84 107 148 187 226 276 326
#
# _framework density 21.547830000000001
#
# number of rings (size 3 to 8) (size 9 to 14) (size 15 to 20)
#    0.000    1.750    2.500    3.000    1.750    3.000 
#    0.000    1.875    0.000    3.000    0.000    0.000 
#    0.000    0.000    0.000    0.000    0.000    0.000 
#
# Total GULP energy -198244.508789 kJ/mol
# GULP energy per Si atom -12390.281799 kJ/mol
# Density = 2.149879 g / cm^3
# Si number density = 21.547830 Si / 1000 Ang^3
#
#
#
# Elastic Constant Matrix: (Units=GPa)
#
#
# Indices 1 2 3 4 5 6 
#
# 1 76.5847 11.6724 19.5080 21.1183 13.1790 10.6292
# 2 11.6724 57.6894 12.9835 25.6410 1.5130 8.4707
# 3 19.5080 12.9835 74.5314 38.1801 4.2354 4.5594
# 4 21.1183 25.6410 38.1801 50.4114 11.3097 -1.3399
# 5 13.1790 1.5130 4.2354 11.3097 42.6960 2.2135
# 6 10.6292 8.4707 4.5594 -1.3399 2.2135 31.7601
#
#
#
# Elastic Compliance Matrix: (Units=1/GPa)
#
#
# Indices 1 2 3 4 5 6 
#
# 1 0.016075 0.000356 -0.000824 -0.005741 -0.003093 -0.005383
# 2 0.000356 0.025199 0.004919 -0.017738 0.003651 -0.008549
# 3 -0.000824 0.004919 0.023703 -0.021065 0.003598 -0.005579
# 4 -0.005741 -0.017738 -0.021065 0.049635 -0.009301 0.012418
# 5 -0.003093 0.003651 0.003598 -0.009301 0.026493 -0.002694
# 6 -0.005383 -0.008549 -0.005579 0.012418 -0.002694 0.037080
#
#
# Mechanical properties :
#
#
# Convention : Reuss Voigt Hill
#
# Bulk Modulus (GPa) = 13.53538 33.01478 23.27508
# Shear Modulus (GPa) = 25.78520 35.94959 30.86740
#
# Velocity S-wave (km/s) = 3.46302 4.08899 3.78895
# Velocity P-wave (km/s) = 4.72072 6.13580 5.47417
#
# Compressibility (1/GPa) = 0.07388046
#
# Stress axis : x y z
#
# Youngs Moduli (GPa) = 62.20665 39.68479 42.18790
#
# Poissons Ratio (x) = -0.01412 0.03476
# Poissons Ratio (y) = -0.02214 -0.20754
# Poissons Ratio (z) = 0.05125 -0.19523
#
# Static dielectric constant tensor:
#      x y z
#    x 3.881260 -0.045410 0.139990 
#    y -0.045410 4.026530 0.289470 
#    z 0.139990 0.289470 4.256240 
# 
# 
# High freq. dielectric constant tensor:
#      x y z
#    x 1.825640 -0.016440 0.015690 
#    y -0.016440 1.854790 0.018150 
#    z 0.015690 0.018150 1.824180 
# 
# From -- ./inp_files/452634.got.cif
#   From: 2010.06.25/outbox.cif.g09.slc.cpg/sg2_227_cif.got.tgz:452634.got - 2010.06.27 13:26:56.
