data_PCOD8042473
_publ_section_title
;
Structure prediction by ZEFSAII (Michael W. Deem and Ramdas Pophale) SiO2 
 PCOD8042473
Probable space group: P -1
;
_chemical_formula_sum "Si O2"
_cell_formula_units_Z 16
_cell_length_a 5.049370
_cell_length_b 15.645931
_cell_length_c 12.187754
_cell_angle_alpha 69.223142
_cell_angle_beta 114.783561
_cell_angle_gamma 100.124899
_cell_volume 816.911700
_symmetry_space_group_name_H-M "P -1"
_symmetry_group_IT_number 2
_symmetry_cell_setting 'triclinic'
loop_
_space_group_symop_operation_xyz
x,y,z
-x,-y,-z
loop_
_atom_site_type_symbol
_atom_site_label
_atom_site_fract_x
_atom_site_fract_y
_atom_site_fract_z
Si Si1 0.474284 0.891235 0.068090
Si Si2 0.814007 0.406234 0.136991
Si Si3 0.995565 0.759326 0.626863
Si Si4 0.300139 0.972857 0.375986
Si Si5 0.275109 0.133660 0.643503
Si Si6 0.143646 0.390585 0.982048
Si Si7 0.364395 0.169291 0.270154
Si Si8 0.861482 0.793305 0.011132
O O1 0.650586 0.857102 0.219779
O O2 0.599710 0.834543 0.015113
O O3 0.137813 0.861841 0.039370
O O4 0.500000 0.000000 0.000000
O O5 0.956376 0.346338 0.286566
O O6 0.913127 0.511373 0.128486
O O7 0.467534 0.392269 0.088890
O O8 0.918510 0.373298 0.050907
O O9 0.294910 0.818080 0.653797
O O10 0.840495 0.772233 0.474430
O O11 0.789965 0.806785 0.655706
O O12 0.436876 0.896654 0.356794
O O13 0.982109 0.942667 0.377572
O O14 0.500000 0.000000 0.500000
O O15 0.277609 0.066397 0.261328
O O16 0.080630 0.314546 0.907893
O O17 0.252035 0.227101 0.123145
#
# Coordination Sequence:
#
# PCOD8042473 Si02
#       8
#     2   2   2   2   2   2   2   2
#     4  12  26  43  58  78 117 164 203 243 268 329
#     4  10  19  35  56  91 124 141 177 237 312 348
#     4  12  20  35  56  86 120 141 178 237 301 346
#     4  12  21  37  54  83 115 145 189 240 289 349
#     4  12  24  39  56  81 114 157 196 234 295 336
#     4  10  20  35  60  87 118 151 182 234 292 365
#     4  12  22  33  57  87 113 147 185 239 288 340
#     4  12  22  40  61  83 113 155 204 232 283 341
#
# _framework density 19.585958999999999
#
# number of rings (size 3 to 8) (size 9 to 14) (size 15 to 20)
#    0.000    0.500    5.000    5.250    0.000    0.000 
#    0.000    0.000    0.000    1.500    0.000    0.000 
#    0.000    0.000    0.000    0.000    0.000    0.000 
#
# Total GULP energy -198345.913622 kJ/mol
# GULP energy per Si atom -12396.619601 kJ/mol
# Density = 1.954138 g / cm^3
# Si number density = 19.585959 Si / 1000 Ang^3
#
#
#
# Elastic Constant Matrix: (Units=GPa)
#
#
# Indices 1 2 3 4 5 6 
#
# 1 90.9534 5.3245 12.2912 -2.3428 -0.7127 -10.7561
# 2 5.3245 100.8217 29.6205 -24.3156 -6.6353 -14.7328
# 3 12.2912 29.6205 117.8909 -16.2818 1.8093 2.6093
# 4 -2.3428 -24.3156 -16.2818 35.4255 1.3558 4.1366
# 5 -0.7127 -6.6353 1.8093 1.3558 20.7335 -6.5878
# 6 -10.7561 -14.7328 2.6093 4.1366 -6.5878 18.7092
#
#
#
# Elastic Compliance Matrix: (Units=1/GPa)
#
#
# Indices 1 2 3 4 5 6 
#
# 1 0.012433 0.001681 -0.002068 -0.000363 0.004479 0.010417
# 2 0.001681 0.015475 -0.003610 0.006876 0.009831 0.015597
# 3 -0.002068 -0.003610 0.010299 0.003225 -0.004842 -0.007886
# 4 -0.000363 0.006876 0.003225 0.034868 -0.001477 -0.003473
# 5 0.004479 0.009831 -0.004842 -0.001477 0.062657 0.033381
# 6 0.010417 0.015597 -0.007886 -0.003473 0.033381 0.085342
#
#
# Mechanical properties :
#
#
# Convention : Reuss Voigt Hill
#
# Bulk Modulus (GPa) = 33.09812 44.90426 39.00119
# Shear Modulus (GPa) = 20.90826 32.46895 26.68861
#
# Velocity S-wave (km/s) = 3.27083 4.07599 3.69540
# Velocity P-wave (km/s) = 5.58570 6.71774 6.17770
#
# Compressibility (1/GPa) = 0.03021319
#
# Stress axis : x y z
#
# Youngs Moduli (GPa) = 80.42852 64.62148 97.09437
#
# Poissons Ratio (x) = -0.10860 0.20078
# Poissons Ratio (y) = -0.13516 0.35048
# Poissons Ratio (z) = 0.16632 0.23326
#
# Static dielectric constant tensor:
#      x y z
#    x 3.708170 -0.027040 0.013890 
#    y -0.027040 3.894730 -0.540000 
#    z 0.013890 -0.540000 3.721140 
# 
# 
# High freq. dielectric constant tensor:
#      x y z
#    x 1.787080 -0.000390 0.000080 
#    y -0.000390 1.746580 -0.030520 
#    z 0.000080 -0.030520 1.747170 
# 
# From -- ./inp_files/367701.got.cif
#   From: 2010.06.25/outbox.cif.g09.slc.cpg/sg2_184_cif.got.tgz:367701.got - 2010.06.27 13:26:56.
