data_PCOD8042838
_publ_section_title
;
Structure prediction by ZEFSAII (Michael W. Deem and Ramdas Pophale) SiO2 
 PCOD8042838
Probable space group: P -1
;
_chemical_formula_sum "Si O2"
_cell_formula_units_Z 12
_cell_length_a 9.581247
_cell_length_b 10.328559
_cell_length_c 9.987503
_cell_angle_alpha 57.306541
_cell_angle_beta 101.128324
_cell_angle_gamma 134.495485
_cell_volume 564.260025
_symmetry_space_group_name_H-M "P -1"
_symmetry_group_IT_number 2
_symmetry_cell_setting 'triclinic'
loop_
_space_group_symop_operation_xyz
x,y,z
-x,-y,-z
loop_
_atom_site_type_symbol
_atom_site_label
_atom_site_fract_x
_atom_site_fract_y
_atom_site_fract_z
Si Si1 0.637292 0.013223 0.915702
Si Si2 0.932951 0.058855 0.268841
Si Si3 0.290155 0.273596 0.816225
Si Si4 0.934201 0.644539 0.103937
Si Si5 0.462987 0.850658 0.691855
Si Si6 0.676319 0.771255 0.615709
O O1 0.872789 0.258278 0.824414
O O2 0.543173 0.979004 0.773928
O O3 0.500000 0.000000 0.000000
O O4 0.638636 0.832293 0.047704
O O5 0.974722 0.246983 0.087889
O O6 0.138646 0.183546 0.317671
O O7 0.858951 0.866638 0.260751
O O8 0.752306 0.939271 0.412913
O O9 0.167765 0.278934 0.899968
O O10 0.495557 0.520452 0.667577
O O11 0.777543 0.380837 0.213971
O O12 0.593525 0.802409 0.707810
O O13 0.500000 0.000000 0.500000
#
# Coordination Sequence:
#
# PCOD8042838 Si02
#       6
#     2   2   2   2   2   2
#     4  11  24  41  64  95 124 160 204 252 308 366
#     4  10  19  35  62  93 117 150 205 258 298 351
#     4  10  20  39  65  86 120 160 207 249 297 362
#     4  10  22  42  67  86 119 168 211 244 303 364
#     4  11  25  42  61  88 128 165 201 251 306 367
#     4  10  21  37  60  93 119 156 205 253 301 352
#
# _framework density 21.266787999999998
#
# number of rings (size 3 to 8) (size 9 to 14) (size 15 to 20)
#    0.000    1.667    0.000    5.500    4.667    4.000 
#    6.000    0.000    0.000    0.000    0.000    0.000 
#    0.000    0.000    0.000    0.000    0.000    0.000 
#
# Total GULP energy -148791.827570 kJ/mol
# GULP energy per Si atom -12399.318964 kJ/mol
# Density = 2.121838 g / cm^3
# Si number density = 21.266788 Si / 1000 Ang^3
#
#
#
# Elastic Constant Matrix: (Units=GPa)
#
#
# Indices 1 2 3 4 5 6 
#
# 1 91.2983 47.9416 37.0060 1.0904 -8.3417 20.2314
# 2 47.9416 134.1989 79.9522 3.4307 -16.1426 35.3146
# 3 37.0060 79.9522 122.0701 -0.6277 -22.8737 16.6480
# 4 1.0904 3.4307 -0.6277 33.4190 1.5393 -12.4119
# 5 -8.3417 -16.1426 -22.8737 1.5393 30.2386 -5.2527
# 6 20.2314 35.3146 16.6480 -12.4119 -5.2527 32.6208
#
#
#
# Elastic Compliance Matrix: (Units=1/GPa)
#
#
# Indices 1 2 3 4 5 6 
#
# 1 0.014409 -0.002047 -0.002076 -0.002792 0.000294 -0.006676
# 2 -0.002047 0.018297 -0.009121 -0.008318 -0.000241 -0.017088
# 3 -0.002076 -0.009121 0.015356 0.003055 0.006994 0.005614
# 4 -0.002792 -0.008318 0.003055 0.039973 -0.000718 0.024271
# 5 0.000294 -0.000241 0.006994 -0.000718 0.038780 0.002481
# 6 -0.006676 -0.017088 0.005614 0.024271 0.002481 0.060064
#
#
# Mechanical properties :
#
#
# Convention : Reuss Voigt Hill
#
# Bulk Modulus (GPa) = 46.35305 75.26300 60.80803
# Shear Modulus (GPa) = 22.66959 31.43349 27.05154
#
# Velocity S-wave (km/s) = 3.26845 3.84872 3.57039
# Velocity P-wave (km/s) = 6.00724 7.43081 6.75662
#
# Compressibility (1/GPa) = 0.02157355
#
# Stress axis : x y z
#
# Youngs Moduli (GPa) = 69.40032 54.65270 65.12069
#
# Poissons Ratio (x) = 0.11188 0.13520
# Poissons Ratio (y) = 0.14207 0.59398
# Poissons Ratio (z) = 0.14409 0.49850
#
# Static dielectric constant tensor:
#      x y z
#    x 3.938330 0.137740 -0.351570 
#    y 0.137740 4.097930 0.066340 
#    z -0.351570 0.066340 3.847710 
# 
# 
# High freq. dielectric constant tensor:
#      x y z
#    x 1.833710 0.017300 -0.019780 
#    y 0.017300 1.843940 0.003950 
#    z -0.019780 0.003950 1.827490 
# 
# From -- ./inp_files/381428.got.cif
#   From: 2010.06.25/outbox.cif.g09.slc.cpg/sg2_191_cif.got.tgz:381428.got - 2010.06.27 13:26:56.
