data_PCOD8042958
_publ_section_title
;
Structure prediction by ZEFSAII (Michael W. Deem and Ramdas Pophale) SiO2 
 PCOD8042958
Probable space group: P -1
;
_chemical_formula_sum "Si O2"
_cell_formula_units_Z 16
_cell_length_a 14.063096
_cell_length_b 11.602301
_cell_length_c 9.264760
_cell_angle_alpha 130.859221
_cell_angle_beta 107.306148
_cell_angle_gamma 43.952758
_cell_volume 748.940300
_symmetry_space_group_name_H-M "P -1"
_symmetry_group_IT_number 2
_symmetry_cell_setting 'triclinic'
loop_
_space_group_symop_operation_xyz
x,y,z
-x,-y,-z
loop_
_atom_site_type_symbol
_atom_site_label
_atom_site_fract_x
_atom_site_fract_y
_atom_site_fract_z
Si Si1 0.173439 0.579733 0.094251
Si Si2 0.548445 0.712443 0.854311
Si Si3 0.752435 0.029498 0.110073
Si Si4 0.997348 0.979032 0.151656
Si Si5 0.136712 0.353309 0.338707
Si Si6 0.985882 0.756392 0.420044
Si Si7 0.430010 0.148580 0.300186
Si Si8 0.736934 0.864520 0.264208
O O1 0.320903 0.490453 0.151455
O O2 0.127216 0.718861 0.041800
O O3 0.042728 0.756259 0.292799
O O4 0.191302 0.382233 0.906432
O O5 0.606500 0.677384 0.689339
O O6 0.415001 0.739903 0.814734
O O7 0.481769 0.943015 0.069913
O O8 0.827930 0.855980 0.869437
O O9 0.841734 0.084789 0.218354
O O10 0.751459 0.920214 0.158069
O O11 0.021750 0.110688 0.349943
O O12 0.000000 0.000000 0.000000
O O13 0.279132 0.272222 0.414603
O O14 0.000000 0.500000 0.500000
O O15 0.096998 0.499353 0.302166
O O16 0.822512 0.872078 0.424230
O O17 0.565060 0.048657 0.382270
#
# Coordination Sequence:
#
# PCOD8042958 Si02
#       8
#     2   2   2   2   2   2   2   2
#     4  11  19  38  64  92 117 148 207 252 290 346
#     4   8  15  31  61  88 113 149 192 253 289 343
#     4  10  19  38  61  89 119 154 197 243 307 343
#     4  12  27  41  54  81 129 165 196 243 302 357
#     4  11  20  34  60  89 123 160 194 240 295 362
#     4  12  22  37  58  91 117 156 208 243 288 350
#     4   8  15  31  54  92 126 140 186 246 310 339
#     4  10  19  35  67  94 114 145 198 264 290 338
#
# _framework density 21.363519
#
# number of rings (size 3 to 8) (size 9 to 14) (size 15 to 20)
#    0.000    1.750    3.750    3.750    0.000    0.000 
#    0.000    3.125    0.000    3.000    0.000    0.000 
#    0.000    0.000    0.000    0.000    0.000    0.000 
#
# Total GULP energy -198307.949119 kJ/mol
# GULP energy per Si atom -12394.246820 kJ/mol
# Density = 2.131489 g / cm^3
# Si number density = 21.363519 Si / 1000 Ang^3
#
#
#
# Elastic Constant Matrix: (Units=GPa)
#
#
# Indices 1 2 3 4 5 6 
#
# 1 117.1406 70.6228 46.9715 0.1538 3.4278 -44.9437
# 2 70.6228 139.9275 29.7179 -11.8293 5.0862 -25.8340
# 3 46.9715 29.7179 72.3504 -11.4567 4.7038 -14.1989
# 4 0.1538 -11.8293 -11.4567 15.1533 -10.7391 0.5638
# 5 3.4278 5.0862 4.7038 -10.7391 29.0815 -6.2042
# 6 -44.9437 -25.8340 -14.1989 0.5638 -6.2042 53.1751
#
#
#
# Elastic Compliance Matrix: (Units=1/GPa)
#
#
# Indices 1 2 3 4 5 6 
#
# 1 0.023156 -0.008380 -0.011978 -0.018936 -0.003745 0.012065
# 2 -0.008380 0.011802 0.002437 0.013611 0.003462 -0.000439
# 3 -0.011978 0.002437 0.023568 0.023815 0.005486 -0.002259
# 4 -0.018936 0.013611 0.023815 0.124671 0.042158 0.000564
# 5 -0.003745 0.003462 0.005486 0.042158 0.050049 0.005374
# 6 0.012065 -0.000439 -0.002259 0.000564 0.005374 0.028808
#
#
# Mechanical properties :
#
#
# Convention : Reuss Voigt Hill
#
# Bulk Modulus (GPa) = 44.08556 69.33810 56.71183
# Shear Modulus (GPa) = 16.36884 31.62240 23.99562
#
# Velocity S-wave (km/s) = 2.77104 3.85152 3.35506
# Velocity P-wave (km/s) = 5.56048 7.23227 6.45076
#
# Compressibility (1/GPa) = 0.02268316
#
# Stress axis : x y z
#
# Youngs Moduli (GPa) = 43.18579 84.72885 42.42992
#
# Poissons Ratio (x) = 0.71004 0.50824
# Poissons Ratio (y) = 0.36190 -0.10339
# Poissons Ratio (z) = 0.51729 -0.20647
#
# Static dielectric constant tensor:
#      x y z
#    x 4.195290 -0.528380 0.123680 
#    y -0.528380 4.247580 -0.073660 
#    z 0.123680 -0.073660 3.272010 
# 
# 
# High freq. dielectric constant tensor:
#      x y z
#    x 1.838960 -0.029010 0.007260 
#    y -0.029010 1.842140 -0.002210 
#    z 0.007260 -0.002210 1.791650 
# 
# From -- ./inp_files/308550.got.cif
#   From: 2010.06.25/outbox.cif.g09.slc.cpg/sg2_155_cif.got.tgz:308550.got - 2010.06.27 13:26:56.
