data_PCOD8042630
_publ_section_title
;
Structure prediction by ZEFSAII (Michael W. Deem and Ramdas Pophale) SiO2 
 PCOD8042630
Probable space group: P -1
;
_chemical_formula_sum "Si O2"
_cell_formula_units_Z 16
_cell_length_a 19.490956
_cell_length_b 17.182180
_cell_length_c 9.464371
_cell_angle_alpha 133.192913
_cell_angle_beta 59.437819
_cell_angle_gamma 157.981658
_cell_volume 768.680578
_symmetry_space_group_name_H-M "P -1"
_symmetry_group_IT_number 2
_symmetry_cell_setting 'triclinic'
loop_
_space_group_symop_operation_xyz
x,y,z
-x,-y,-z
loop_
_atom_site_type_symbol
_atom_site_label
_atom_site_fract_x
_atom_site_fract_y
_atom_site_fract_z
Si Si1 0.762932 0.040215 0.456407
Si Si2 0.848795 0.886760 0.781535
Si Si3 0.040153 0.219958 0.735067
Si Si4 0.813713 0.859947 0.269767
Si Si5 0.446412 0.613675 0.712618
Si Si6 0.548279 0.899940 0.739247
Si Si7 0.166761 0.552820 0.812153
Si Si8 0.384709 0.237682 0.992700
O O1 0.984176 0.366048 0.666398
O O2 0.781152 0.936280 0.335836
O O3 0.581945 0.877171 0.529447
O O4 0.707378 0.975512 0.266840
O O5 0.645944 0.591907 0.546667
O O6 0.768731 0.848921 0.959030
O O7 0.969141 0.122530 0.850150
O O8 0.995897 0.972213 0.787517
O O9 0.267610 0.453674 0.783011
O O10 0.058237 0.360451 0.821384
O O11 0.875029 0.945714 0.478079
O O12 0.605345 0.536944 0.066638
O O13 0.585551 0.864565 0.784112
O O14 0.604448 0.770130 0.860748
O O15 0.315436 0.657911 0.696466
O O16 0.712964 0.197852 0.944686
#
# Coordination Sequence:
#
# PCOD8042630 Si02
#       8
#     2   2   2   2   2   2   2   2
#     4  11  24  37  55  86 120 147 181 234 288 335
#     4  11  20  34  58  83 116 153 189 232 268 323
#     4   9  17  35  60  83 109 143 192 244 263 315
#     4  10  20  36  53  81 117 153 188 226 270 336
#     4  10  19  35  59  86 110 147 195 229 273 332
#     4  10  21  41  66  81 105 148 192 243 275 323
#     4   9  21  40  65  84 103 143 203 231 276 336
#     4  12  23  33  53  87 121 153 182 220 290 343
#
# _framework density 20.814886999999999
#
# number of rings (size 3 to 8) (size 9 to 14) (size 15 to 20)
#    0.000    1.750    2.500    3.375    3.500    1.500 
#    0.000    0.625    0.000    2.250    0.000    0.000 
#    0.000    0.000    0.000    0.000    0.000    0.000 
#
# Total GULP energy -198294.356137 kJ/mol
# GULP energy per Si atom -12393.397259 kJ/mol
# Density = 2.076751 g / cm^3
# Si number density = 20.814887 Si / 1000 Ang^3
#
#
#
# Elastic Constant Matrix: (Units=GPa)
#
#
# Indices 1 2 3 4 5 6 
#
# 1 44.6686 33.0349 34.3919 -4.0305 -12.6525 2.9054
# 2 33.0349 73.2348 34.9503 -5.9961 -9.8013 18.5720
# 3 34.3919 34.9503 73.8045 -13.7695 -9.6003 11.1375
# 4 -4.0305 -5.9961 -13.7695 31.5113 2.5368 -11.5017
# 5 -12.6525 -9.8013 -9.6003 2.5368 17.0309 4.6814
# 6 2.9054 18.5720 11.1375 -11.5017 4.6814 23.3089
#
#
#
# Elastic Compliance Matrix: (Units=1/GPa)
#
#
# Indices 1 2 3 4 5 6 
#
# 1 0.049511 -0.015183 -0.015276 -0.001262 0.017102 0.009167
# 2 -0.015183 0.029851 -0.002815 -0.008549 0.013118 -0.027400
# 3 -0.015276 -0.002815 0.023933 0.006330 0.000767 -0.004319
# 4 -0.001262 -0.008549 0.006330 0.044860 -0.017083 0.029511
# 5 0.017102 0.013118 0.000767 -0.017083 0.092958 -0.040050
# 6 0.009167 -0.027400 -0.004319 0.029511 -0.040050 0.088261
#
#
# Mechanical properties :
#
#
# Convention : Reuss Voigt Hill
#
# Bulk Modulus (GPa) = 27.21205 44.05133 35.63169
# Shear Modulus (GPa) = 12.24980 20.32560 16.28770
#
# Velocity S-wave (km/s) = 2.42856 3.12828 2.80036
# Velocity P-wave (km/s) = 4.57882 5.85299 5.25467
#
# Compressibility (1/GPa) = 0.03674842
#
# Stress axis : x y z
#
# Youngs Moduli (GPa) = 20.19756 33.49980 41.78286
#
# Poissons Ratio (x) = 0.50861 0.63827
# Poissons Ratio (y) = 0.30665 0.11761
# Poissons Ratio (z) = 0.30854 0.09430
#
# Static dielectric constant tensor:
#      x y z
#    x 3.833500 0.204710 0.066550 
#    y 0.204710 3.808460 0.086590 
#    z 0.066550 0.086590 3.692000 
# 
# 
# High freq. dielectric constant tensor:
#      x y z
#    x 1.802860 0.021250 -0.001060 
#    y 0.021250 1.822290 0.002340 
#    z -0.001060 0.002340 1.787230 
# 
# From -- ./inp_files/308013.got.cif
#   From: 2010.06.25/outbox.cif.g09.slc.cpg/sg2_155_cif.got.tgz:308013.got - 2010.06.27 13:26:56.
