data_PCOD8042733
_publ_section_title
;
Structure prediction by ZEFSAII (Michael W. Deem and Ramdas Pophale) SiO2 
 PCOD8042733
Probable space group: P -1
;
_chemical_formula_sum "Si O2"
_cell_formula_units_Z 12
_cell_length_a 9.690849
_cell_length_b 8.735617
_cell_length_c 12.377961
_cell_angle_alpha 108.705831
_cell_angle_beta 103.855792
_cell_angle_gamma 31.124122
_cell_volume 511.706082
_symmetry_space_group_name_H-M "P -1"
_symmetry_group_IT_number 2
_symmetry_cell_setting 'triclinic'
loop_
_space_group_symop_operation_xyz
x,y,z
-x,-y,-z
loop_
_atom_site_type_symbol
_atom_site_label
_atom_site_fract_x
_atom_site_fract_y
_atom_site_fract_z
Si Si1 0.234006 0.316724 0.080504
Si Si2 0.632835 0.453743 0.118121
Si Si3 0.362956 0.513010 0.248578
Si Si4 0.851553 0.859462 0.804246
Si Si5 0.425444 0.387349 0.460414
Si Si6 0.877144 0.925520 0.593917
O O1 0.229318 0.514468 0.141563
O O2 0.169908 0.291017 0.175901
O O3 0.000000 0.500000 0.000000
O O4 0.500000 0.000000 0.000000
O O5 0.612355 0.355148 0.196338
O O6 0.940756 0.217975 0.112101
O O7 0.449335 0.785236 0.178650
O O8 0.500000 0.500000 0.000000
O O9 0.460930 0.307693 0.322149
O O10 0.157681 0.852843 0.324243
O O11 0.935944 0.757020 0.671504
O O12 0.500000 0.500000 0.500000
O O13 0.121526 0.662590 0.500673
O O14 0.621509 0.107749 0.518063
#
# Coordination Sequence:
#
# PCOD8042733 Si02
#       6
#     2   2   2   2   2   2
#     4  12  27  43  60  88 126 162 199 245 298 356
#     4  11  22  38  61  86 114 157 207 247 289 347
#     4  10  22  39  64  91 119 160 202 245 297 354
#     4  11  22  40  59  85 121 157 192 247 301 349
#     4  10  19  35  60  92 118 147 196 253 296 345
#     4  10  21  37  62  90 117 151 198 249 296 351
#
# _framework density 23.450962000000001
#
# number of rings (size 3 to 8) (size 9 to 14) (size 15 to 20)
#    0.000    1.333    0.000    8.500    0.000    9.333 
#    0.000    1.667    0.000    0.000    0.000    1.167 
#    0.000    0.000    0.000    0.000    0.000    0.000 
#
# Total GULP energy -148692.053497 kJ/mol
# GULP energy per Si atom -12391.004458 kJ/mol
# Density = 2.339759 g / cm^3
# Si number density = 23.450962 Si / 1000 Ang^3
#
#
#
# Elastic Constant Matrix: (Units=GPa)
#
#
# Indices 1 2 3 4 5 6 
#
# 1 108.0877 34.0307 25.1578 -1.8461 -19.4857 0.6082
# 2 34.0307 100.3247 32.3149 -17.6527 -3.5680 -19.7922
# 3 25.1578 32.3149 88.7212 -14.6870 -22.4279 0.7430
# 4 -1.8461 -17.6527 -14.6870 33.4360 0.6605 -3.6205
# 5 -19.4857 -3.5680 -22.4279 0.6605 45.4126 -7.4298
# 6 0.6082 -19.7922 0.7430 -3.6205 -7.4298 29.8006
#
#
#
# Elastic Compliance Matrix: (Units=1/GPa)
#
#
# Indices 1 2 3 4 5 6 
#
# 1 0.011516 -0.004332 -0.001155 -0.002499 0.003662 -0.002474
# 2 -0.004332 0.016357 -0.003623 0.008104 -0.000535 0.011894
# 3 -0.001155 -0.003623 0.015362 0.004581 0.006650 -0.000551
# 4 -0.002499 0.008104 0.004581 0.037147 0.003018 0.010585
# 5 0.003662 -0.000535 0.006650 0.003018 0.027890 0.006725
# 6 -0.002474 0.011894 -0.000551 0.010585 0.006725 0.044482
#
#
# Mechanical properties :
#
#
# Convention : Reuss Voigt Hill
#
# Bulk Modulus (GPa) = 39.97325 53.34892 46.66109
# Shear Modulus (GPa) = 27.88438 35.43852 31.66145
#
# Velocity S-wave (km/s) = 3.45200 3.89160 3.67837
# Velocity P-wave (km/s) = 5.74203 6.55677 6.16288
#
# Compressibility (1/GPa) = 0.02501673
#
# Stress axis : x y z
#
# Youngs Moduli (GPa) = 86.83746 61.13540 65.09506
#
# Poissons Ratio (x) = 0.26482 0.07517
# Poissons Ratio (y) = 0.37615 0.23582
# Poissons Ratio (z) = 0.10028 0.22147
#
# Static dielectric constant tensor:
#      x y z
#    x 5.134210 -0.304720 0.048250 
#    y -0.304720 4.461960 -0.849520 
#    z 0.048250 -0.849520 4.836390 
# 
# 
# High freq. dielectric constant tensor:
#      x y z
#    x 1.914680 -0.016070 -0.027100 
#    y -0.016070 1.912760 -0.021480 
#    z -0.027100 -0.021480 1.940430 
# 
# From -- ./inp_files/380042.got.cif
#   From: 2010.06.25/outbox.cif.g09.slc.cpg/sg2_191_cif.got.tgz:380042.got - 2010.06.27 13:26:56.
