data_PCOD8042350
_publ_section_title
;
Structure prediction by ZEFSAII (Michael W. Deem and Ramdas Pophale) SiO2 
 PCOD8042350
Probable space group: P -1
;
_chemical_formula_sum "Si O2"
_cell_formula_units_Z 14
_cell_length_a 14.943016
_cell_length_b 9.111153
_cell_length_c 18.319271
_cell_angle_alpha 135.120452
_cell_angle_beta 158.340052
_cell_angle_gamma 37.332806
_cell_volume 553.108854
_symmetry_space_group_name_H-M "P -1"
_symmetry_group_IT_number 2
_symmetry_cell_setting 'triclinic'
loop_
_space_group_symop_operation_xyz
x,y,z
-x,-y,-z
loop_
_atom_site_type_symbol
_atom_site_label
_atom_site_fract_x
_atom_site_fract_y
_atom_site_fract_z
Si Si1 0.801718 0.204945 0.190642
Si Si2 0.631283 0.633118 0.426574
Si Si3 0.107878 0.134923 0.735375
Si Si4 0.241164 0.335708 0.726489
Si Si5 0.414118 0.286511 0.122629
Si Si6 0.425532 0.898771 0.512346
Si Si7 0.451594 0.820001 0.662215
O O1 0.810704 0.450517 0.293560
O O2 0.089629 0.997278 0.295469
O O3 0.777473 0.113209 0.218393
O O4 0.535057 0.247724 0.958135
O O5 0.471649 0.503245 0.227544
O O6 0.525803 0.876479 0.384233
O O7 0.975076 0.443864 0.620040
O O8 0.560072 0.703323 0.481618
O O9 0.769233 0.267978 0.513545
O O10 0.306657 0.997907 0.767051
O O11 0.178145 0.316834 0.896393
O O12 0.266813 0.115787 0.621127
O O13 0.315749 0.294712 0.136397
O O14 0.576336 0.748105 0.649374
#
# Coordination Sequence:
#
# PCOD8042350 Si02
#       7
#     2   2   2   2   2   2   2
#     4   9  19  36  59  90 117 154 202 250 288 357
#     4  10  21  39  63  89 119 164 195 248 303 358
#     4  10  21  35  57  92 123 155 198 255 292 363
#     4  10  19  34  66  87 117 152 207 249 297 341
#     4  11  22  35  60  90 125 153 201 248 306 348
#     4   9  22  40  62  86 124 157 203 243 302 357
#     4  11  21  37  62  88 121 159 201 251 295 357
#
# _framework density 25.311475000000002
#
# number of rings (size 3 to 8) (size 9 to 14) (size 15 to 20)
#    0.000    2.000    2.857    0.429    2.000    2.286 
#    0.000    2.857    6.286    3.429    0.000    0.000 
#    0.000    0.000    0.000    0.000    0.000    0.000 
#
# Total GULP energy -173535.622424 kJ/mol
# GULP energy per Si atom -12395.401602 kJ/mol
# Density = 2.525386 g / cm^3
# Si number density = 25.311475 Si / 1000 Ang^3
#
#
#
# Elastic Constant Matrix: (Units=GPa)
#
#
# Indices 1 2 3 4 5 6 
#
# 1 85.5361 2.8265 21.3566 12.7704 0.3077 -20.4498
# 2 2.8265 61.1445 28.2252 25.5334 11.4106 -2.2853
# 3 21.3566 28.2252 98.3674 42.8758 8.9076 2.9037
# 4 12.7704 25.5334 42.8758 35.2800 6.6552 -2.9940
# 5 0.3077 11.4106 8.9076 6.6552 29.6309 2.6329
# 6 -20.4498 -2.2853 2.9037 -2.9940 2.6329 20.4600
#
#
#
# Elastic Compliance Matrix: (Units=1/GPa)
#
#
# Indices 1 2 3 4 5 6 
#
# 1 0.017208 0.002528 -0.004567 -0.000733 -0.001230 0.018182
# 2 0.002528 0.024804 0.000832 -0.018478 -0.005966 0.003243
# 3 -0.004567 0.000832 0.023960 -0.029126 0.000146 -0.012153
# 4 -0.000733 -0.018478 -0.029126 0.079087 -0.003066 0.013305
# 5 -0.001230 -0.005966 0.000146 -0.003066 0.037341 -0.007171
# 6 0.018182 0.003243 -0.012153 0.013305 -0.007171 0.072005
#
#
# Mechanical properties :
#
#
# Convention : Reuss Voigt Hill
#
# Bulk Modulus (GPa) = 15.73351 38.87385 27.30368
# Shear Modulus (GPa) = 17.98520 29.91681 23.95101
#
# Velocity S-wave (km/s) = 2.66852 3.44167 3.07946
# Velocity P-wave (km/s) = 3.96536 5.58436 4.84299
#
# Compressibility (1/GPa) = 0.06355862
#
# Stress axis : x y z
#
# Youngs Moduli (GPa) = 58.11092 40.31543 41.73681
#
# Poissons Ratio (x) = -0.10192 0.19063
# Poissons Ratio (y) = -0.14691 -0.03474
# Poissons Ratio (z) = 0.26541 -0.03356
#
# Static dielectric constant tensor:
#      x y z
#    x 4.850940 0.228980 0.301690 
#    y 0.228980 4.401770 0.317680 
#    z 0.301690 0.317680 4.476360 
# 
# 
# High freq. dielectric constant tensor:
#      x y z
#    x 2.028020 0.020420 0.002770 
#    y 0.020420 1.997160 0.022790 
#    z 0.002770 0.022790 2.001600 
# 
# From -- ./inp_files/283927.got.cif
#   From: 2010.06.25/outbox.cif.g09.slc.cpg/sg2_142_cif.got.tgz:283927.got - 2010.06.27 13:26:56.
