data_PCOD8042742
_publ_section_title
;
Structure prediction by ZEFSAII (Michael W. Deem and Ramdas Pophale) SiO2 
 PCOD8042742
Probable space group: P -1
;
_chemical_formula_sum "Si O2"
_cell_formula_units_Z 16
_cell_length_a 14.619641
_cell_length_b 11.846937
_cell_length_c 17.380802
_cell_angle_alpha 28.520312
_cell_angle_beta 32.972424
_cell_angle_gamma 51.664287
_cell_volume 698.688488
_symmetry_space_group_name_H-M "P -1"
_symmetry_group_IT_number 2
_symmetry_cell_setting 'triclinic'
loop_
_space_group_symop_operation_xyz
x,y,z
-x,-y,-z
loop_
_atom_site_type_symbol
_atom_site_label
_atom_site_fract_x
_atom_site_fract_y
_atom_site_fract_z
Si Si1 0.330520 0.712349 0.862584
Si Si2 0.182909 0.155705 0.228482
Si Si3 0.317107 0.851965 0.407314
Si Si4 0.968864 0.731435 0.274892
Si Si5 0.942427 0.693870 0.144887
Si Si6 0.712738 0.777949 0.547511
Si Si7 0.675192 0.289677 0.949927
Si Si8 0.953623 0.206049 0.233121
O O1 0.553133 0.879458 0.579550
O O2 0.298125 0.431138 0.023480
O O3 0.329897 0.735712 0.940015
O O4 0.159794 0.771796 0.915207
O O5 0.136481 0.194251 0.149596
O O6 0.297115 0.983718 0.261643
O O7 0.000000 0.000000 0.500000
O O8 0.219183 0.534007 0.655874
O O9 0.213783 0.911344 0.516626
O O10 0.536564 0.000805 0.185137
O O11 0.111670 0.638801 0.270979
O O12 0.913963 0.591295 0.314266
O O13 0.778366 0.666846 0.494102
O O14 0.090174 0.048830 0.990062
O O15 0.626424 0.526772 0.817292
O O16 0.894550 0.020854 0.310613
O O17 0.000000 0.500000 0.000000
#
# Coordination Sequence:
#
# PCOD8042742 Si02
#       8
#     2   2   2   2   2   2   2   2
#     4  11  20  36  66  92 121 157 209 259 306 375
#     4  10  19  35  60  96 120 159 202 262 310 367
#     4  11  20  39  69  92 120 166 217 256 305 380
#     4  10  25  43  58  87 128 173 209 250 316 376
#     4  10  22  43  65  85 124 171 212 250 313 381
#     4  12  23  38  63  95 127 157 207 268 312 364
#     4  11  22  40  64  94 122 169 216 248 312 379
#     4  11  23  38  60  97 133 158 198 269 327 361
#
# _framework density 22.900048999999999
#
# number of rings (size 3 to 8) (size 9 to 14) (size 15 to 20)
#    0.000    1.250    5.000    3.000    1.750    1.000 
#    0.000    1.875    0.000    0.000    0.000    0.000 
#    0.000    0.000    0.000    0.000    0.000    0.000 
#
# Total GULP energy -198231.619785 kJ/mol
# GULP energy per Si atom -12389.476237 kJ/mol
# Density = 2.284793 g / cm^3
# Si number density = 22.900049 Si / 1000 Ang^3
#
#
#
# Elastic Constant Matrix: (Units=GPa)
#
#
# Indices 1 2 3 4 5 6 
#
# 1 86.4910 10.8576 12.7411 4.4923 -22.6099 -4.5010
# 2 10.8576 62.6740 6.1059 10.5917 -15.0169 3.3638
# 3 12.7411 6.1059 50.9035 2.0167 -29.4452 10.6071
# 4 4.4923 10.5917 2.0167 43.7950 8.5870 -1.8378
# 5 -22.6099 -15.0169 -29.4452 8.5870 25.2883 -9.7970
# 6 -4.5010 3.3638 10.6071 -1.8378 -9.7970 34.4559
#
#
#
# Elastic Compliance Matrix: (Units=1/GPa)
#
#
# Indices 1 2 3 4 5 6 
#
# 1 -0.741055 -0.821182 -2.022101 1.148170 -4.086255 -0.494768
# 2 -0.821182 -0.873633 -2.195824 1.244969 -4.442821 -0.542856
# 3 -2.022101 -2.195824 -5.385432 3.076524-10.946470 -1.340274
# 4 1.148170 1.244969 3.076524 -1.727163 6.229170 0.760403
# 5 -4.086255 -4.442821-10.946470 6.229170-22.158648 -2.698477
# 6 -0.494768 -0.542856 -1.340274 0.760403 -2.698477 -0.296730
#
#
# Mechanical properties :
#
#
# Convention : Reuss Voigt Hill
#
# Bulk Modulus (GPa) = -0.05855 28.83087 14.38616
# Shear Modulus (GPa) = -0.18659 32.06543 15.93942
#
# Velocity S-wave (km/s) = -0.28575 3.74603 2.64113
# Velocity P-wave (km/s) = 0.36674 5.59710 3.94924
#
# Compressibility (1/GPa) = -17.07833414
#
# Stress axis : x y z
#
# Youngs Moduli (GPa) = -1.34943 -1.14465 -0.18569
#
# Poissons Ratio (x) = -0.93996 -0.37548
# Poissons Ratio (y) = -1.10813 -0.40773
# Poissons Ratio (z) = -2.72868 -2.51344
#
# Static dielectric constant tensor:
#      x y z
#    x 4.751970 -0.226720 -0.222320 
#    y -0.226720 4.008260 0.042760 
#    z -0.222320 0.042760 3.952900 
# 
# 
# High freq. dielectric constant tensor:
#      x y z
#    x 1.915250 -0.003630 -0.005940 
#    y -0.003630 1.882850 -0.013000 
#    z -0.005940 -0.013000 1.892500 
# 
# From -- ./inp_files/262785.got.cif
#   From: 2010.06.25/outbox.cif.g09.slc.cpg/sg2_132_cif.got.tgz:262785.got - 2010.06.27 13:26:56.
