data_PCOD8042755
_publ_section_title
;
Structure prediction by ZEFSAII (Michael W. Deem and Ramdas Pophale) SiO2 
 PCOD8042755
Probable space group: P -1
;
_chemical_formula_sum "Si O2"
_cell_formula_units_Z 16
_cell_length_a 9.332016
_cell_length_b 14.699609
_cell_length_c 11.944379
_cell_angle_alpha 68.600247
_cell_angle_beta 92.013578
_cell_angle_gamma 143.181017
_cell_volume 811.520359
_symmetry_space_group_name_H-M "P -1"
_symmetry_group_IT_number 2
_symmetry_cell_setting 'triclinic'
loop_
_space_group_symop_operation_xyz
x,y,z
-x,-y,-z
loop_
_atom_site_type_symbol
_atom_site_label
_atom_site_fract_x
_atom_site_fract_y
_atom_site_fract_z
Si Si1 0.756917 0.595355 0.209427
Si Si2 0.691300 0.503772 0.784902
Si Si3 0.634281 0.298474 0.010369
Si Si4 0.680631 0.008933 0.018512
Si Si5 0.201612 0.588251 0.796948
Si Si6 0.218763 0.785621 0.570063
Si Si7 0.074852 0.415526 0.579692
Si Si8 0.359745 0.700678 0.298053
O O1 0.499973 0.515564 0.228250
O O2 0.679314 0.446856 0.221271
O O3 0.823618 0.620130 0.332646
O O4 0.004532 0.786266 0.063935
O O5 0.636701 0.383050 0.753554
O O6 0.999253 0.714673 0.675215
O O7 0.646237 0.424606 0.939069
O O8 0.631311 0.275824 0.152218
O O9 0.890088 0.397460 0.909917
O O10 0.374321 0.097828 0.037528
O O11 0.612770 0.917146 0.178432
O O12 0.500000 0.000000 0.000000
O O13 0.247242 0.690421 0.652285
O O14 0.117688 0.728831 0.463519
O O15 0.500000 0.000000 0.500000
O O16 0.906169 0.383273 0.679081
O O17 0.333705 0.630411 0.448933
#
# Coordination Sequence:
#
# PCOD8042755 Si02
#       8
#     2   2   2   2   2   2   2   2
#     4  12  22  35  62  89 120 153 186 243 294 348
#     4   9  21  39  58  84 120 149 187 237 302 341
#     4   9  19  37  57  80 118 154 192 235 284 343
#     4  11  19  33  59  89 113 145 207 240 270 342
#     4  10  20  36  59  84 113 156 191 238 290 331
#     4  10  22  39  61  84 112 153 203 237 275 351
#     4  10  19  35  61  84 114 152 196 237 293 331
#     4   9  18  35  55  81 117 147 191 241 274 339
#
# _framework density 19.716079000000001
#
# number of rings (size 3 to 8) (size 9 to 14) (size 15 to 20)
#    0.000    2.000    2.500    3.750    1.750    4.500 
#    2.250    0.625    5.500    0.000    0.000    0.000 
#    0.000    0.000    0.000    0.000    0.000    0.000 
#
# Total GULP energy -198220.060936 kJ/mol
# GULP energy per Si atom -12388.753809 kJ/mol
# Density = 1.967120 g / cm^3
# Si number density = 19.716079 Si / 1000 Ang^3
#
#
#
# Elastic Constant Matrix: (Units=GPa)
#
#
# Indices 1 2 3 4 5 6 
#
# 1 130.1775 39.8877 33.8690 -6.0664 7.3473 11.4083
# 2 39.8877 75.5809 38.6258 -11.2749 -1.1205 -3.7694
# 3 33.8690 38.6258 112.7291 -13.2753 6.1319 6.0057
# 4 -6.0664 -11.2749 -13.2753 37.6253 3.6741 -4.3476
# 5 7.3473 -1.1205 6.1319 3.6741 19.5477 2.4036
# 6 11.4083 -3.7694 6.0057 -4.3476 2.4036 18.6264
#
#
#
# Elastic Compliance Matrix: (Units=1/GPa)
#
#
# Indices 1 2 3 4 5 6 
#
# 1 0.010332 -0.005582 -0.000751 -0.000794 -0.002956 -0.007020
# 2 -0.005582 0.020077 -0.005409 0.004047 0.002982 0.009786
# 3 -0.000751 -0.005409 0.011603 0.002325 -0.003692 -0.003357
# 4 -0.000794 0.004047 0.002325 0.030137 -0.006906 0.008481
# 5 -0.002956 0.002982 -0.003692 -0.006906 0.055531 -0.005174
# 6 -0.007020 0.009786 -0.003357 0.008481 -0.005174 0.063697
#
#
# Mechanical properties :
#
#
# Convention : Reuss Voigt Hill
#
# Bulk Modulus (GPa) = 53.96717 60.36138 57.16427
# Shear Modulus (GPa) = 22.62062 28.90020 25.76041
#
# Velocity S-wave (km/s) = 3.39088 3.83276 3.61857
# Velocity P-wave (km/s) = 6.53929 7.09002 6.82022
#
# Compressibility (1/GPa) = 0.01852979
#
# Stress axis : x y z
#
# Youngs Moduli (GPa) = 96.78285 49.80836 86.18356
#
# Poissons Ratio (x) = 0.27802 0.06468
# Poissons Ratio (y) = 0.54021 0.46618
# Poissons Ratio (z) = 0.07264 0.26942
#
# Static dielectric constant tensor:
#      x y z
#    x 3.394240 -0.055390 0.145790 
#    y -0.055390 3.383050 -0.034300 
#    z 0.145790 -0.034300 4.219370 
# 
# 
# High freq. dielectric constant tensor:
#      x y z
#    x 1.744670 -0.014690 0.010340 
#    y -0.014690 1.737440 0.003000 
#    z 0.010340 0.003000 1.785330 
# 
# From -- ./inp_files/263580.got.cif
#   From: 2010.06.25/outbox.cif.g09.slc.cpg/sg2_132_cif.got.tgz:263580.got - 2010.06.27 13:26:56.
