data_PCOD8042072
_publ_section_title
;
Structure prediction by ZEFSAII (Michael W. Deem and Ramdas Pophale) SiO2 
 PCOD8042072
Probable space group: P -1
;
_chemical_formula_sum "Si O2"
_cell_formula_units_Z 16
_cell_length_a 8.152557
_cell_length_b 11.622331
_cell_length_c 18.466299
_cell_angle_alpha 24.307609
_cell_angle_beta 74.591808
_cell_angle_gamma 70.608953
_cell_volume 676.315288
_symmetry_space_group_name_H-M "P -1"
_symmetry_group_IT_number 2
_symmetry_cell_setting 'triclinic'
loop_
_space_group_symop_operation_xyz
x,y,z
-x,-y,-z
loop_
_atom_site_type_symbol
_atom_site_label
_atom_site_fract_x
_atom_site_fract_y
_atom_site_fract_z
Si Si1 0.471792 0.117856 0.806056
Si Si2 0.340953 0.173820 0.184089
Si Si3 0.945126 0.114346 0.088486
Si Si4 0.622742 0.242662 0.212094
Si Si5 0.668172 0.419032 0.849531
Si Si6 0.006742 0.006467 0.295070
Si Si7 0.267829 0.672969 0.260642
Si Si8 0.788570 0.585848 0.434538
O O1 0.621020 0.967380 0.818263
O O2 0.560277 0.202316 0.819615
O O3 0.361489 0.403018 0.614814
O O4 0.351956 0.907375 0.966880
O O5 0.504891 0.060486 0.285154
O O6 0.158110 0.093858 0.277390
O O7 0.328079 0.515164 0.985039
O O8 0.820419 0.905176 0.248102
O O9 0.014558 0.195160 0.112045
O O10 0.099653 0.938557 0.120743
O O11 0.833595 0.396847 0.897812
O O12 0.507002 0.369507 0.222652
O O13 0.812826 0.065494 0.319757
O O14 0.712253 0.511567 0.710417
O O15 0.048087 0.665358 0.465828
O O16 0.264370 0.471758 0.445166
#
# Coordination Sequence:
#
# PCOD8042072 Si02
#       8
#     2   2   2   2   2   2   2   2
#     4  10  19  36  57  87 112 142 188 245 288 330
#     4  10  19  34  57  84 112 149 197 243 277 330
#     4  10  20  36  58  87 113 143 189 244 289 333
#     4  10  21  35  52  82 119 156 189 232 278 339
#     4  10  22  36  53  81 124 150 178 228 290 355
#     4  11  19  34  59  85 112 149 197 241 283 326
#     4  11  19  33  57  87 114 146 183 229 301 350
#     4  10  21  35  59  90 112 142 192 249 287 328
#
# _framework density 23.657603000000002
#
# number of rings (size 3 to 8) (size 9 to 14) (size 15 to 20)
#    0.000    1.750    2.500    6.000    0.000    0.000 
#    0.000    0.000    0.000    7.500    0.000    3.500 
#    0.000    0.000    0.000    0.000    0.000    0.000 
#
# Total GULP energy -198262.713598 kJ/mol
# GULP energy per Si atom -12391.419600 kJ/mol
# Density = 2.360376 g / cm^3
# Si number density = 23.657603 Si / 1000 Ang^3
#
#
#
# Elastic Constant Matrix: (Units=GPa)
#
#
# Indices 1 2 3 4 5 6 
#
# 1 128.8756 30.8234 19.0905 4.8131 20.5978 -4.8236
# 2 30.8234 90.1606 20.7541 13.5684 12.4193 -11.8544
# 3 19.0905 20.7541 51.1804 3.2734 16.2473 -4.3412
# 4 4.8131 13.5684 3.2734 20.0794 0.3551 3.5968
# 5 20.5978 12.4193 16.2473 0.3551 24.6246 -6.3445
# 6 -4.8236 -11.8544 -4.3412 3.5968 -6.3445 36.9185
#
#
#
# Elastic Compliance Matrix: (Units=1/GPa)
#
#
# Indices 1 2 3 4 5 6 
#
# 1 0.009408 -0.002200 -0.000565 -0.000449 -0.006542 -0.000624
# 2 -0.002200 0.015062 -0.003617 -0.009874 -0.002006 0.004741
# 3 -0.000565 -0.003617 0.026009 -0.001282 -0.015008 -0.000631
# 4 -0.000449 -0.009874 -0.001282 0.058260 0.003169 -0.008512
# 5 -0.006542 -0.002006 -0.015008 0.003169 0.058626 0.006502
# 6 -0.000624 0.004741 -0.000631 -0.008512 0.006502 0.030400
#
#
# Mechanical properties :
#
#
# Convention : Reuss Voigt Hill
#
# Bulk Modulus (GPa) = 26.51354 45.72810 36.12082
# Shear Modulus (GPa) = 22.41161 29.62774 26.01967
#
# Velocity S-wave (km/s) = 3.08122 3.54270 3.31999
# Velocity P-wave (km/s) = 4.88774 6.00878 5.47702
#
# Compressibility (1/GPa) = 0.03771657
#
# Stress axis : x y z
#
# Youngs Moduli (GPa) = 106.29036 66.39438 38.44847
#
# Poissons Ratio (x) = 0.14605 0.02171
# Poissons Ratio (y) = 0.23381 0.13905
# Poissons Ratio (z) = 0.06003 0.24012
#
# Static dielectric constant tensor:
#      x y z
#    x 4.634130 0.072610 0.334090 
#    y 0.072610 3.903300 -0.121580 
#    z 0.334090 -0.121580 3.928770 
# 
# 
# High freq. dielectric constant tensor:
#      x y z
#    x 1.958520 -0.001930 0.023580 
#    y -0.001930 1.910360 -0.018260 
#    z 0.023580 -0.018260 1.894130 
# 
# From -- ./inp_files/559546.got.cif
#   From: 2010.06.25/outbox.cif.g09.slc.cpg/sg2_280_cif.got.tgz:559546.got - 2010.06.27 13:26:56.
