data_PCOD8042656
_publ_section_title
;
Structure prediction by ZEFSAII (Michael W. Deem and Ramdas Pophale) SiO2 
 PCOD8042656
Probable space group: P -1
;
_chemical_formula_sum "Si O2"
_cell_formula_units_Z 16
_cell_length_a 20.077242
_cell_length_b 14.271884
_cell_length_c 8.570182
_cell_angle_alpha 59.555600
_cell_angle_beta 122.427878
_cell_angle_gamma 158.886390
_cell_volume 746.483391
_symmetry_space_group_name_H-M "P -1"
_symmetry_group_IT_number 2
_symmetry_cell_setting 'triclinic'
loop_
_space_group_symop_operation_xyz
x,y,z
-x,-y,-z
loop_
_atom_site_type_symbol
_atom_site_label
_atom_site_fract_x
_atom_site_fract_y
_atom_site_fract_z
Si Si1 0.203324 0.258004 0.455458
Si Si2 0.071988 0.561837 0.366014
Si Si3 0.524378 0.596479 0.793112
Si Si4 0.543887 0.868118 0.666096
Si Si5 0.386221 0.725819 0.268990
Si Si6 0.735466 0.247577 0.100355
Si Si7 0.218241 0.548397 0.710189
Si Si8 0.902257 0.974149 0.806186
O O1 0.354014 0.371114 0.643496
O O2 0.275721 0.472936 0.336998
O O3 0.180621 0.174255 0.332196
O O4 0.000000 0.000000 0.500000
O O5 0.154646 0.544203 0.488040
O O6 0.000000 0.500000 0.500000
O O7 0.898881 0.361278 0.198539
O O8 0.234354 0.844863 0.269228
O O9 0.502938 0.693227 0.731399
O O10 0.727999 0.817700 0.798981
O O11 0.500000 0.500000 0.000000
O O12 0.487787 0.868691 0.441952
O O13 0.426326 0.761475 0.757398
O O14 0.543627 0.938248 0.149193
O O15 0.256161 0.669328 0.118200
O O16 0.779327 0.387527 0.177025
O O17 0.069066 0.266707 0.750137
O O18 0.000000 0.000000 0.000000
#
# Coordination Sequence:
#
# PCOD8042656 Si02
#       8
#     2   2   2   2   2   2   2   2
#     4  11  24  42  64  94 133 171 214 265 321 385
#     4  10  19  35  59  89 116 157 204 245 307 372
#     4  11  24  42  66  93 127 170 218 267 322 381
#     4  11  21  39  63  89 125 158 206 261 315 378
#     4  10  21  38  63  86 126 159 202 253 321 366
#     4  10  21  38  63  92 120 163 205 257 316 381
#     4  11  22  37  65  90 122 162 210 256 316 378
#     4  12  24  42  65  95 128 170 217 262 323 387
#
# _framework density 21.433834000000001
#
# number of rings (size 3 to 8) (size 9 to 14) (size 15 to 20)
#    0.000    1.250    2.500    6.000    1.750    1.000 
#    0.000    0.625    0.000    0.000    0.000    0.000 
#    0.000    0.000    0.000    0.000    0.000    0.000 
#
# Total GULP energy -198270.767477 kJ/mol
# GULP energy per Si atom -12391.922967 kJ/mol
# Density = 2.138505 g / cm^3
# Si number density = 21.433834 Si / 1000 Ang^3
#
#
#
# Elastic Constant Matrix: (Units=GPa)
#
#
# Indices 1 2 3 4 5 6 
#
# 1 57.0885 11.6775 12.9684 -1.2682 14.5672 15.0424
# 2 11.6775 122.0348 33.3137 -10.7386 15.5465 5.9819
# 3 12.9684 33.3137 126.6381 5.4041 23.9013 2.9504
# 4 -1.2682 -10.7386 5.4041 32.7310 11.0455 6.4920
# 5 14.5672 15.5465 23.9013 11.0455 25.6476 5.1242
# 6 15.0424 5.9819 2.9504 6.4920 5.1242 39.9137
#
#
#
# Elastic Compliance Matrix: (Units=1/GPa)
#
#
# Indices 1 2 3 4 5 6 
#
# 1 0.023802 0.000856 0.000225 0.008275 -0.016135 -0.008390
# 2 0.000856 0.010184 -0.001555 0.006584 -0.007682 -0.001819
# 3 0.000225 -0.001555 0.009907 0.000757 -0.008828 0.000426
# 4 0.008275 0.006584 0.000757 0.043411 -0.026531 -0.007816
# 5 -0.016135 -0.007682 -0.008828 -0.026531 0.071870 0.002973
# 6 -0.008390 -0.001819 0.000426 -0.007816 0.002973 0.029347
#
#
# Mechanical properties :
#
#
# Convention : Reuss Voigt Hill
#
# Bulk Modulus (GPa) = 23.28617 46.85341 35.06979
# Shear Modulus (GPa) = 24.53564 36.17858 30.35711
#
# Velocity S-wave (km/s) = 3.38703 4.11289 3.76748
# Velocity P-wave (km/s) = 5.11701 6.66794 5.94328
#
# Compressibility (1/GPa) = 0.04294395
#
# Stress axis : x y z
#
# Youngs Moduli (GPa) = 42.01307 98.19011 100.94218
#
# Poissons Ratio (x) = -0.08404 -0.02271
# Poissons Ratio (y) = -0.03596 0.15701
# Poissons Ratio (z) = -0.00945 0.15273
#
# Static dielectric constant tensor:
#      x y z
#    x 3.911130 0.375920 0.607610 
#    y 0.375920 4.401880 0.701030 
#    z 0.607610 0.701030 5.884010 
# 
# 
# High freq. dielectric constant tensor:
#      x y z
#    x 1.828930 0.009480 0.017690 
#    y 0.009480 1.856610 0.001390 
#    z 0.017690 0.001390 1.850800 
# 
# From -- ./inp_files/347197.got.cif
#   From: 2010.06.25/outbox.cif.g09.slc.cpg/sg2_174_cif.got.tgz:347197.got - 2010.06.27 13:26:56.
