data_PCOD8042413
_publ_section_title
;
Structure prediction by ZEFSAII (Michael W. Deem and Ramdas Pophale) SiO2 
 PCOD8042413
Probable space group: P -1
;
_chemical_formula_sum "Si O2"
_cell_formula_units_Z 16
_cell_length_a 15.475212
_cell_length_b 9.699084
_cell_length_c 15.624561
_cell_angle_alpha 132.569561
_cell_angle_beta 50.701161
_cell_angle_gamma 89.035217
_cell_volume 834.119456
_symmetry_space_group_name_H-M "P -1"
_symmetry_group_IT_number 2
_symmetry_cell_setting 'triclinic'
loop_
_space_group_symop_operation_xyz
x,y,z
-x,-y,-z
loop_
_atom_site_type_symbol
_atom_site_label
_atom_site_fract_x
_atom_site_fract_y
_atom_site_fract_z
Si Si1 0.895750 0.095469 0.771088
Si Si2 0.512594 0.220651 0.992027
Si Si3 0.628272 0.215798 0.089763
Si Si4 0.124663 0.147381 0.461813
Si Si5 0.382058 0.885924 0.508011
Si Si6 0.335355 0.248255 0.821135
Si Si7 0.281242 0.227539 0.041097
Si Si8 0.777709 0.123050 0.536776
O O1 0.851421 0.083119 0.697654
O O2 0.818371 0.046168 0.865342
O O3 0.819520 0.403675 0.958120
O O4 0.108049 0.840757 0.544643
O O5 0.704161 0.948487 0.710216
O O6 0.543709 0.181622 0.058915
O O7 0.377559 0.238564 0.052631
O O8 0.418697 0.548049 0.171346
O O9 0.504524 0.557117 0.329061
O O10 0.661180 0.059236 0.090716
O O11 0.934560 0.483356 0.694048
O O12 0.122884 0.119527 0.552437
O O13 0.480514 0.902019 0.389626
O O14 0.226124 0.003370 0.597069
O O15 0.298429 0.103663 0.732629
O O16 0.349670 0.184871 0.885726
#
# Coordination Sequence:
#
# PCOD8042413 Si02
#       8
#     2   2   2   2   2   2   2   2
#     4  10  19  35  55  82 114 147 183 224 279 330
#     4  10  21  35  55  85 117 150 182 226 278 337
#     4   9  22  38  55  83 115 150 186 225 278 335
#     4  11  21  34  56  90 118 143 184 230 278 332
#     4   9  21  39  58  82 108 144 193 236 278 327
#     4  10  20  37  60  82 105 146 193 234 280 325
#     4  12  21  37  59  84 116 151 184 226 279 336
#     4  11  18  35  58  82 113 147 186 235 278 325
#
# _framework density 19.181902999999998
#
# number of rings (size 3 to 8) (size 9 to 14) (size 15 to 20)
#    0.000    1.750    2.500    3.375    0.000    3.000 
#    4.500    0.000    0.000    0.750    0.000    0.000 
#    0.000    0.000    0.000    0.000    0.000    0.000 
#
# Total GULP energy -198315.424770 kJ/mol
# GULP energy per Si atom -12394.714048 kJ/mol
# Density = 1.913824 g / cm^3
# Si number density = 19.181903 Si / 1000 Ang^3
#
#
#
# Elastic Constant Matrix: (Units=GPa)
#
#
# Indices 1 2 3 4 5 6 
#
# 1 90.7330 38.4098 36.8474 10.6456 -3.0275 1.9425
# 2 38.4098 103.9968 31.5648 8.4579 4.4138 -3.4785
# 3 36.8474 31.5648 69.0267 7.2107 -0.4050 -3.0916
# 4 10.6456 8.4579 7.2107 17.0627 1.7050 3.6232
# 5 -3.0275 4.4138 -0.4050 1.7050 35.6037 2.4173
# 6 1.9425 -3.4785 -3.0916 3.6232 2.4173 10.8247
#
#
#
# Elastic Compliance Matrix: (Units=1/GPa)
#
#
# Indices 1 2 3 4 5 6 
#
# 1 0.016007 -0.003828 -0.006534 -0.004503 0.002315 -0.004978
# 2 -0.003828 0.012521 -0.003089 -0.003461 -0.002118 0.005460
# 3 -0.006534 -0.003089 0.020192 -0.004495 -0.000237 0.007504
# 4 -0.004503 -0.003461 -0.004495 0.070467 -0.001696 -0.024796
# 5 0.002315 -0.002118 -0.000237 -0.001696 0.029107 -0.007096
# 6 -0.004978 0.005460 0.007504 -0.024796 -0.007096 0.107057
#
#
# Mechanical properties :
#
#
# Convention : Reuss Voigt Hill
#
# Bulk Modulus (GPa) = 45.82980 53.04450 49.43715
# Shear Modulus (GPa) = 17.26978 23.16050 20.21514
#
# Velocity S-wave (km/s) = 3.00378 3.47856 3.24985
# Velocity P-wave (km/s) = 5.99786 6.62173 6.31750
#
# Compressibility (1/GPa) = 0.02181986
#
# Stress axis : x y z
#
# Youngs Moduli (GPa) = 62.47216 79.86727 49.52554
#
# Poissons Ratio (x) = 0.30569 0.32358
# Poissons Ratio (y) = 0.23911 0.15297
# Poissons Ratio (z) = 0.40817 0.24669
#
# Static dielectric constant tensor:
#      x y z
#    x 3.592260 0.066440 -0.094180 
#    y 0.066440 3.238290 -0.046240 
#    z -0.094180 -0.046240 3.528950 
# 
# 
# High freq. dielectric constant tensor:
#      x y z
#    x 1.747050 0.002980 -0.011270 
#    y 0.002980 1.723200 -0.002000 
#    z -0.011270 -0.002000 1.740250 
# 
# From -- ./inp_files/252253.got.cif
#   From: 2010.06.25/outbox.cif.g09.slc.cpg/sg2_127_cif.got.tgz:252253.got - 2010.06.27 13:26:56.
