data_PCOD8042253
_publ_section_title
;
Structure prediction by ZEFSAII (Michael W. Deem and Ramdas Pophale) SiO2 
 PCOD8042253
Probable space group: P -1
;
_chemical_formula_sum "Si O2"
_cell_formula_units_Z 16
_cell_length_a 14.610869
_cell_length_b 14.752806
_cell_length_c 13.345328
_cell_angle_alpha 151.300144
_cell_angle_beta 150.129537
_cell_angle_gamma 33.454880
_cell_volume 654.518455
_symmetry_space_group_name_H-M "P -1"
_symmetry_group_IT_number 2
_symmetry_cell_setting 'triclinic'
loop_
_space_group_symop_operation_xyz
x,y,z
-x,-y,-z
loop_
_atom_site_type_symbol
_atom_site_label
_atom_site_fract_x
_atom_site_fract_y
_atom_site_fract_z
Si Si1 0.843152 0.436963 0.021698
Si Si2 0.721631 0.865447 0.264504
Si Si3 0.586374 0.199347 0.238514
Si Si4 0.939346 0.971057 0.247621
Si Si5 0.857135 0.064690 0.048646
Si Si6 0.434211 0.154742 0.419108
Si Si7 0.244959 0.762411 0.074871
Si Si8 0.471443 0.401368 0.524349
O O1 0.810659 0.409248 0.083251
O O2 0.656724 0.428131 0.777945
O O3 0.864773 0.651956 0.230799
O O4 0.021173 0.256584 0.972391
O O5 0.581991 0.966938 0.321070
O O6 0.862938 0.993618 0.494757
O O7 0.597996 0.840486 0.026484
O O8 0.781985 0.016349 0.230598
O O9 0.536994 0.223052 0.332302
O O10 0.639557 0.393254 0.436717
O O11 0.837894 0.116922 0.199116
O O12 0.742029 0.906274 0.760749
O O13 0.765515 0.257482 0.076140
O O14 0.084775 0.971730 0.152693
O O15 0.544633 0.227600 0.684224
O O16 0.351096 0.331125 0.428640
#
# Coordination Sequence:
#
# PCOD8042253 Si02
#       8
#     2   2   2   2   2   2   2   2
#     4   9  20  39  60  83 123 155 190 248 291 337
#     4  11  21  39  59  85 121 156 195 242 288 346
#     4  10  22  39  63  86 120 155 196 243 292 351
#     4  11  21  40  60  87 117 160 193 242 294 345
#     4  10  19  34  61  85 113 156 193 237 296 343
#     4  11  19  37  62  84 116 157 194 237 299 343
#     4   9  19  37  58  84 119 149 193 245 287 345
#     4   9  20  41  61  89 119 153 196 245 291 350
#
# _framework density 24.445452
#
# number of rings (size 3 to 8) (size 9 to 14) (size 15 to 20)
#    0.000    2.000    5.000    0.375    0.000    3.000 
#    0.000    9.375    2.750    0.000    0.000    0.000 
#    0.000    0.000    0.000    0.000    0.000    0.000 
#
# Total GULP energy -198291.256416 kJ/mol
# GULP energy per Si atom -12393.203526 kJ/mol
# Density = 2.438981 g / cm^3
# Si number density = 24.445452 Si / 1000 Ang^3
#
#
#
# Elastic Constant Matrix: (Units=GPa)
#
#
# Indices 1 2 3 4 5 6 
#
# 1 39.4359 0.7835 -4.3518 -5.3958 2.8983 3.1778
# 2 0.7835 49.2097 11.4450 3.1731 7.3597 4.0919
# 3 -4.3518 11.4450 60.3337 -2.2769 15.0825 -5.6049
# 4 -5.3958 3.1731 -2.2769 35.3428 0.1634 -4.3800
# 5 2.8983 7.3597 15.0825 0.1634 28.1677 -4.6565
# 6 3.1778 4.0919 -5.6049 -4.3800 -4.6565 31.1708
#
#
#
# Elastic Compliance Matrix: (Units=1/GPa)
#
#
# Indices 1 2 3 4 5 6 
#
# 1 0.026801 -0.000537 0.003158 0.004090 -0.004699 -0.002221
# 2 -0.000537 0.022447 -0.003691 -0.002890 -0.004584 -0.004647
# 3 0.003158 -0.003691 0.020297 0.002501 -0.009796 0.002700
# 4 0.004090 -0.002890 0.002501 0.029905 -0.000426 0.004551
# 5 -0.004699 -0.004584 -0.009796 -0.000426 0.043380 0.005740
# 6 -0.002221 -0.004647 0.002700 0.004551 0.005740 0.034900
#
#
# Mechanical properties :
#
#
# Convention : Reuss Voigt Hill
#
# Bulk Modulus (GPa) = 14.83638 18.30362 16.57000
# Shear Modulus (GPa) = 24.71105 28.34311 26.52708
#
# Velocity S-wave (km/s) = 3.18286 3.40875 3.29774
# Velocity P-wave (km/s) = 4.42604 4.79548 4.61446
#
# Compressibility (1/GPa) = 0.06740187
#
# Stress axis : x y z
#
# Youngs Moduli (GPa) = 37.31248 44.55007 49.26913
#
# Poissons Ratio (x) = 0.02394 -0.15558
# Poissons Ratio (y) = 0.02005 0.18187
# Poissons Ratio (z) = -0.11782 0.16445
#
# Static dielectric constant tensor:
#      x y z
#    x 4.350990 0.501570 0.008160 
#    y 0.501570 4.962630 0.246110 
#    z 0.008160 0.246110 4.454020 
# 
# 
# High freq. dielectric constant tensor:
#      x y z
#    x 1.955440 0.025390 0.004960 
#    y 0.025390 1.972140 -0.012840 
#    z 0.004960 -0.012840 1.959170 
# 
# From -- ./inp_files/534649.got.cif
#   From: 2010.06.25/outbox.cif.g09.slc.cpg/sg2_268_cif.got.tgz:534649.got - 2010.06.27 13:26:56.
