data_PCOD8042800
_publ_section_title
;
Structure prediction by ZEFSAII (Michael W. Deem and Ramdas Pophale) SiO2 
 PCOD8042800
Probable space group: P -1
;
_chemical_formula_sum "Si O2"
_cell_formula_units_Z 16
_cell_length_a 8.563193
_cell_length_b 16.974063
_cell_length_c 8.459275
_cell_angle_alpha 58.599004
_cell_angle_beta 88.354657
_cell_angle_gamma 48.330934
_cell_volume 679.728286
_symmetry_space_group_name_H-M "P -1"
_symmetry_group_IT_number 2
_symmetry_cell_setting 'triclinic'
loop_
_space_group_symop_operation_xyz
x,y,z
-x,-y,-z
loop_
_atom_site_type_symbol
_atom_site_label
_atom_site_fract_x
_atom_site_fract_y
_atom_site_fract_z
Si Si1 0.487721 0.888030 0.258979
Si Si2 0.700890 0.327229 0.541665
Si Si3 0.571645 0.673682 0.660348
Si Si4 0.507955 0.081974 0.137303
Si Si5 0.244779 0.884764 0.714207
Si Si6 0.237269 0.499769 0.582891
Si Si7 0.970417 0.099541 0.008905
Si Si8 0.061779 0.392396 0.819699
O O1 0.629182 0.737223 0.483111
O O2 0.580409 0.941914 0.274721
O O3 0.487811 0.879106 0.080093
O O4 0.211343 0.007663 0.198241
O O5 0.660402 0.284080 0.431572
O O6 0.471220 0.395608 0.576199
O O7 0.737637 0.417640 0.399816
O O8 0.923656 0.204528 0.779430
O O9 0.485480 0.745639 0.759199
O O10 0.827458 0.504041 0.826877
O O11 0.708036 0.035171 0.296186
O O12 0.239232 0.232327 0.049542
O O13 0.229593 0.822297 0.930198
O O14 0.000000 0.000000 0.500000
O O15 0.010283 0.604642 0.359903
O O16 0.209402 0.423446 0.776902
O O17 0.000000 0.000000 0.000000
#
# Coordination Sequence:
#
# PCOD8042800 Si02
#       8
#     2   2   2   2   2   2   2   2
#     4  11  22  40  64 102 121 167 218 272 315 372
#     4  10  19  35  61  96 122 165 212 264 308 369
#     4  11  23  40  62  91 135 169 211 253 333 384
#     4  11  24  40  68  95 129 164 222 264 317 375
#     4  12  24  43  62  92 129 177 206 266 324 391
#     4   9  18  33  64  91 125 162 211 260 315 364
#     4  12  20  37  64  89 124 163 210 265 309 368
#     4  10  20  40  60  95 132 168 206 269 313 385
#
# _framework density 23.538817000000002
#
# number of rings (size 3 to 8) (size 9 to 14) (size 15 to 20)
#    0.000    1.250    3.750    3.750    0.000    2.000 
#    0.000    0.000    0.000   15.750    0.000    0.000 
#    0.000    0.000    0.000    0.000    0.000    0.000 
#
# Total GULP energy -198258.368072 kJ/mol
# GULP energy per Si atom -12391.148005 kJ/mol
# Density = 2.348524 g / cm^3
# Si number density = 23.538817 Si / 1000 Ang^3
#
#
#
# Elastic Constant Matrix: (Units=GPa)
#
#
# Indices 1 2 3 4 5 6 
#
# 1 94.1151 41.6064 10.9655 11.5723 9.0644 21.9404
# 2 41.6064 99.5538 24.1824 12.8330 -0.7218 10.0121
# 3 10.9655 24.1824 32.7768 -4.1998 9.6132 9.9825
# 4 11.5723 12.8330 -4.1998 34.7566 -1.8035 3.5457
# 5 9.0644 -0.7218 9.6132 -1.8035 31.8164 -0.7685
# 6 21.9404 10.0121 9.9825 3.5457 -0.7685 41.0653
#
#
#
# Elastic Compliance Matrix: (Units=1/GPa)
#
#
# Indices 1 2 3 4 5 6 
#
# 1 0.015613 -0.006328 0.003190 -0.002014 -0.005851 -0.007510
# 2 -0.006328 0.016392 -0.013441 -0.005589 0.005997 0.003246
# 3 0.003190 -0.013441 0.048729 0.010144 -0.015639 -0.011442
# 4 -0.002014 -0.005589 0.010144 0.032984 -0.000818 -0.002890
# 5 -0.005851 0.005997 -0.015639 -0.000818 0.038063 0.006249
# 6 -0.007510 0.003246 -0.011442 -0.002890 0.006249 0.030720
#
#
# Mechanical properties :
#
#
# Convention : Reuss Voigt Hill
#
# Bulk Modulus (GPa) = 21.01780 42.21715 31.61748
# Shear Modulus (GPa) = 21.59677 31.50708 26.55193
#
# Velocity S-wave (km/s) = 3.03231 3.66254 3.36222
# Velocity P-wave (km/s) = 4.60524 5.98830 5.34172
#
# Compressibility (1/GPa) = 0.04757871
#
# Stress axis : x y z
#
# Youngs Moduli (GPa) = 64.04995 61.00677 20.52146
#
# Poissons Ratio (x) = 0.38602 -0.06547
# Poissons Ratio (y) = 0.40528 0.27582
# Poissons Ratio (z) = -0.20435 0.81996
#
# Static dielectric constant tensor:
#      x y z
#    x 1.186360 1.704110 -1.962880 
#    y 1.704110 3.448330 1.004240 
#    z -1.962880 1.004240 2.577810 
# 
# 
# High freq. dielectric constant tensor:
#      x y z
#    x 1.938700 0.002050 0.018340 
#    y 0.002050 1.932290 -0.014140 
#    z 0.018340 -0.014140 1.892750 
# 
# From -- ./inp_files/217051.got.cif
#   From: 2010.06.25/outbox.cif.g09.slc.cpg/sg2_109_cif.got.tgz:217051.got - 2010.06.27 13:26:56.
