data_PCOD8042344
_publ_section_title
;
Structure prediction by ZEFSAII (Michael W. Deem and Ramdas Pophale) SiO2 
 PCOD8042344
Probable space group: P -1
;
_chemical_formula_sum "Si O2"
_cell_formula_units_Z 12
_cell_length_a 14.610036
_cell_length_b 15.942182
_cell_length_c 11.052438
_cell_angle_alpha 143.471764
_cell_angle_beta 29.104564
_cell_angle_gamma 152.540188
_cell_volume 572.793170
_symmetry_space_group_name_H-M "P -1"
_symmetry_group_IT_number 2
_symmetry_cell_setting 'triclinic'
loop_
_space_group_symop_operation_xyz
x,y,z
-x,-y,-z
loop_
_atom_site_type_symbol
_atom_site_label
_atom_site_fract_x
_atom_site_fract_y
_atom_site_fract_z
Si Si1 0.065240 0.244890 0.906530
Si Si2 0.696246 0.901638 0.474856
Si Si3 0.525216 0.989488 0.317852
Si Si4 0.063111 0.215294 0.600793
Si Si5 0.664213 0.221400 0.070390
Si Si6 0.440177 0.660966 0.911588
O O1 0.185960 0.193889 0.806292
O O2 0.065598 0.167946 0.684260
O O3 0.217519 0.461183 0.983369
O O4 0.794263 0.158501 0.157722
O O5 0.426393 0.744802 0.663206
O O6 0.672719 0.001683 0.508050
O O7 0.876707 0.042257 0.533028
O O8 0.500000 0.000000 0.500000
O O9 0.480789 0.803506 0.127237
O O10 0.327740 0.331152 0.367067
O O11 0.955458 0.324509 0.857642
O O12 0.614619 0.296251 0.102670
O O13 0.500000 0.000000 0.000000
#
# Coordination Sequence:
#
# PCOD8042344 Si02
#       6
#     2   2   2   2   2   2
#     4  12  25  40  69 102 135 164 212 272 331 392
#     4  11  21  41  66  97 132 174 214 260 328 391
#     4  12  27  49  67  85 129 186 228 270 311 371
#     4  11  20  37  67  99 138 160 196 267 338 397
#     4  10  19  34  64  97 135 166 201 251 333 392
#     4  12  24  41  66 104 132 169 213 265 330 396
#
# _framework density 20.949971000000001
#
# number of rings (size 3 to 8) (size 9 to 14) (size 15 to 20)
#    0.000    0.667    8.333    2.000    0.000    3.333 
#    0.000    0.833    0.000    0.000    0.000    0.000 
#    0.000    0.000    0.000    0.000    0.000    0.000 
#
# Total GULP energy -148681.339102 kJ/mol
# GULP energy per Si atom -12390.111592 kJ/mol
# Density = 2.090229 g / cm^3
# Si number density = 20.949971 Si / 1000 Ang^3
#
#
#
# Elastic Constant Matrix: (Units=GPa)
#
#
# Indices 1 2 3 4 5 6 
#
# 1 86.5791 48.7969 54.5872 5.7892 -0.2817 5.2486
# 2 48.7969 112.2798 47.0779 -8.1759 -7.5119 -1.2169
# 3 54.5872 47.0779 78.6856 1.3472 -11.7137 5.7432
# 4 5.7892 -8.1759 1.3472 16.6492 -6.8757 -8.6786
# 5 -0.2817 -7.5119 -11.7137 -6.8757 45.1763 -0.8137
# 6 5.2486 -1.2169 5.7432 -8.6786 -0.8137 13.0197
#
#
#
# Elastic Compliance Matrix: (Units=1/GPa)
#
#
# Indices 1 2 3 4 5 6 
#
# 1 0.031071 -0.012002 -0.012953 -0.038237 -0.011595 -0.034146
# 2 -0.012002 0.019683 -0.005259 0.034258 0.007630 0.032310
# 3 -0.012953 -0.005259 0.026257 -0.002105 0.005390 -0.007918
# 4 -0.038237 0.034258 -0.002105 0.177608 0.034467 0.140088
# 5 -0.011595 0.007630 0.005390 0.034467 0.030478 0.027889
# 6 -0.034146 0.032310 -0.007918 0.140088 0.027889 0.192207
#
#
# Mechanical properties :
#
#
# Convention : Reuss Voigt Hill
#
# Bulk Modulus (GPa) = 60.30351 64.27429 62.28890
# Shear Modulus (GPa) = 9.20372 23.44119 16.32245
#
# Velocity S-wave (km/s) = 2.09827 3.34864 2.79429
# Velocity P-wave (km/s) = 5.89214 6.76001 6.34094
#
# Compressibility (1/GPa) = 0.01658278
#
# Stress axis : x y z
#
# Youngs Moduli (GPa) = 32.18478 50.80614 38.08462
#
# Poissons Ratio (x) = 0.60980 0.49331
# Poissons Ratio (y) = 0.38630 0.20027
# Poissons Ratio (z) = 0.41689 0.26717
#
# Static dielectric constant tensor:
#      x y z
#    x 3.928600 -0.120280 -0.812710 
#    y -0.120280 2.693800 0.199460 
#    z -0.812710 0.199460 4.912640 
# 
# 
# High freq. dielectric constant tensor:
#      x y z
#    x 1.802910 -0.003440 -0.043040 
#    y -0.003440 1.806700 0.001270 
#    z -0.043040 0.001270 1.826810 
# 
# From -- ./inp_files/454053.got.cif
#   From: 2010.06.25/outbox.cif.g09.slc.cpg/sg2_228_cif.got.tgz:454053.got - 2010.06.27 13:26:56.
