data_PCOD8042303
_publ_section_title
;
Structure prediction by ZEFSAII (Michael W. Deem and Ramdas Pophale) SiO2 
 PCOD8042303
Probable space group: P -1
;
_chemical_formula_sum "Si O2"
_cell_formula_units_Z 16
_cell_length_a 11.134416
_cell_length_b 14.353684
_cell_length_c 11.847154
_cell_angle_alpha 64.418066
_cell_angle_beta 129.940528
_cell_angle_gamma 149.937328
_cell_volume 688.392727
_symmetry_space_group_name_H-M "P -1"
_symmetry_group_IT_number 2
_symmetry_cell_setting 'triclinic'
loop_
_space_group_symop_operation_xyz
x,y,z
-x,-y,-z
loop_
_atom_site_type_symbol
_atom_site_label
_atom_site_fract_x
_atom_site_fract_y
_atom_site_fract_z
Si Si1 0.195980 0.267843 0.407876
Si Si2 0.324190 0.712856 0.124355
Si Si3 0.019644 0.238285 0.882819
Si Si4 0.178718 0.851316 0.957512
Si Si5 0.689778 0.904970 0.452228
Si Si6 0.693959 0.922620 0.689278
Si Si7 0.688633 0.848149 0.086916
Si Si8 0.527979 0.367053 0.145597
O O1 0.500000 0.500000 0.500000
O O2 0.246218 0.179983 0.439182
O O3 0.049691 0.252399 0.226936
O O4 0.962939 0.123486 0.447016
O O5 0.390917 0.740910 0.282104
O O6 0.556891 0.764537 0.178466
O O7 0.390134 0.870175 0.041280
O O8 0.000000 0.500000 0.000000
O O9 0.192931 0.399821 0.805752
O O10 0.216060 0.250912 0.035517
O O11 0.732289 0.034752 0.746441
O O12 0.965557 0.274742 0.945638
O O13 0.311475 0.029196 0.999056
O O14 0.598694 0.908025 0.514708
O O15 0.449961 0.705323 0.704046
O O16 0.006437 0.040913 0.794346
O O17 0.459497 0.677511 0.946615
#
# Coordination Sequence:
#
# PCOD8042303 Si02
#       8
#     2   2   2   2   2   2   2   2
#     4  11  23  40  64  93 125 164 208 264 316 369
#     4  12  26  41  61  92 128 171 212 256 310 381
#     4  10  20  34  61  96 118 160 207 259 306 368
#     4  12  21  41  65  90 129 165 212 255 314 370
#     4  11  23  41  61  91 128 165 208 257 316 371
#     4  11  20  39  63  91 128 157 202 265 316 358
#     4  11  19  38  63  89 122 163 203 260 307 364
#     4  10  19  34  62  93 124 154 208 257 310 362
#
# _framework density 23.242546999999998
#
# number of rings (size 3 to 8) (size 9 to 14) (size 15 to 20)
#    0.000    1.000    5.000    3.375    0.000    4.000 
#    0.000    0.625    0.000    1.500    0.000    0.000 
#    0.000    0.000    0.000    0.000    0.000    0.000 
#
# Total GULP energy -198211.387252 kJ/mol
# GULP energy per Si atom -12388.211703 kJ/mol
# Density = 2.318965 g / cm^3
# Si number density = 23.242547 Si / 1000 Ang^3
#
#
#
# Elastic Constant Matrix: (Units=GPa)
#
#
# Indices 1 2 3 4 5 6 
#
# 1 58.9334 -7.1364 25.7540 -4.8974 -11.1597 -8.6774
# 2 -7.1364 92.9750 27.5952 -1.3491 -16.7342 -7.5283
# 3 25.7540 27.5952 118.7158 -7.7790 -30.3447 3.0601
# 4 -4.8974 -1.3491 -7.7790 23.3054 7.0644 -4.6383
# 5 -11.1597 -16.7342 -30.3447 7.0644 40.3554 -4.7191
# 6 -8.6774 -7.5283 3.0601 -4.6383 -4.7191 20.1991
#
#
#
# Elastic Compliance Matrix: (Units=1/GPa)
#
#
# Indices 1 2 3 4 5 6 
#
# 1 0.023726 0.005751 -0.004990 0.004900 0.006167 0.015658
# 2 0.005751 0.014024 -0.003158 0.001108 0.005986 0.009829
# 3 -0.004990 -0.003158 0.011813 0.000238 0.005716 -0.003720
# 4 0.004900 0.001108 0.000238 0.048048 -0.004973 0.012353
# 5 0.006167 0.005986 0.005716 -0.004973 0.035440 0.011152
# 6 0.015658 0.009829 -0.003720 0.012353 0.011152 0.065903
#
#
# Mechanical properties :
#
#
# Convention : Reuss Voigt Hill
#
# Bulk Modulus (GPa) = 22.33731 40.33885 31.33808
# Shear Modulus (GPa) = 22.86550 31.73273 27.29911
#
# Velocity S-wave (km/s) = 3.13993 3.69899 3.43086
# Velocity P-wave (km/s) = 4.77252 5.96964 5.40433
#
# Compressibility (1/GPa) = 0.04476814
#
# Stress axis : x y z
#
# Youngs Moduli (GPa) = 42.14816 71.30795 84.65460
#
# Poissons Ratio (x) = -0.41009 0.42243
# Poissons Ratio (y) = -0.24240 0.26734
# Poissons Ratio (z) = 0.21032 0.22519
#
# Static dielectric constant tensor:
#      x y z
#    x 4.642380 0.018920 -0.389370 
#    y 0.018920 4.286110 -0.203080 
#    z -0.389370 -0.203080 4.092020 
# 
# 
# High freq. dielectric constant tensor:
#      x y z
#    x 1.921070 -0.005800 -0.026150 
#    y -0.005800 1.921360 -0.017020 
#    z -0.026150 -0.017020 1.899900 
# 
# From -- ./inp_files/432763.got.cif
#   From: 2010.06.25/outbox.cif.g09.slc.cpg/sg2_217_cif.got.tgz:432763.got - 2010.06.27 13:26:56.
