data_PCOD8042229
_publ_section_title
;
Structure prediction by ZEFSAII (Michael W. Deem and Ramdas Pophale) SiO2 
 PCOD8042229
Probable space group: P -1
;
_chemical_formula_sum "Si O2"
_cell_formula_units_Z 16
_cell_length_a 8.472054
_cell_length_b 16.127689
_cell_length_c 11.385005
_cell_angle_alpha 96.967146
_cell_angle_beta 66.167685
_cell_angle_gamma 141.006304
_cell_volume 843.673048
_symmetry_space_group_name_H-M "P -1"
_symmetry_group_IT_number 2
_symmetry_cell_setting 'triclinic'
loop_
_space_group_symop_operation_xyz
x,y,z
-x,-y,-z
loop_
_atom_site_type_symbol
_atom_site_label
_atom_site_fract_x
_atom_site_fract_y
_atom_site_fract_z
Si Si1 0.521378 0.094948 0.859183
Si Si2 0.405847 0.216292 0.625989
Si Si3 0.609171 0.416268 0.420434
Si Si4 0.968974 0.160201 0.874243
Si Si5 0.255906 0.641656 0.221034
Si Si6 0.564818 0.100306 0.583435
Si Si7 0.766697 0.607681 0.598913
Si Si8 0.482225 0.555303 0.122172
O O1 0.792785 0.155197 0.846085
O O2 0.571544 0.214132 0.863304
O O3 0.486271 0.044326 0.730204
O O4 0.229145 0.964438 0.994342
O O5 0.491851 0.283138 0.482942
O O6 0.664825 0.335265 0.660931
O O7 0.364459 0.100701 0.605671
O O8 0.111805 0.144789 0.747196
O O9 0.617582 0.480083 0.541302
O O10 0.389296 0.365045 0.379163
O O11 0.917090 0.524121 0.285202
O O12 0.200863 0.306418 0.897235
O O13 0.347984 0.590849 0.122751
O O14 0.897084 0.256456 0.506578
O O15 0.500000 0.000000 0.500000
O O16 0.724277 0.567107 0.739901
O O17 0.500000 0.500000 0.000000
#
# Coordination Sequence:
#
# PCOD8042229 Si02
#       8
#     2   2   2   2   2   2   2   2
#     4  10  21  39  61  83 112 152 195 233 275 333
#     4  10  19  34  60  87 111 146 191 234 275 334
#     4  11  18  35  64  89 108 137 196 241 275 328
#     4  10  21  39  61  83 112 152 195 233 275 333
#     4  10  19  34  60  87 111 146 191 234 275 334
#     4  11  24  38  58  85 120 149 185 233 288 336
#     4  11  21  36  61  86 114 145 183 237 289 331
#     4  11  24  38  58  85 120 149 185 233 288 336
#
# _framework density 18.964693
#
# number of rings (size 3 to 8) (size 9 to 14) (size 15 to 20)
#    0.000    1.500    5.000    2.625    1.750    4.500 
#    0.000    5.000    0.000    0.000    0.000    0.000 
#    0.000    0.000    0.000    0.000    0.000    0.000 
#
# Total GULP energy -198443.160425 kJ/mol
# GULP energy per Si atom -12402.697527 kJ/mol
# Density = 1.892153 g / cm^3
# Si number density = 18.964693 Si / 1000 Ang^3
#
#
#
# Elastic Constant Matrix: (Units=GPa)
#
#
# Indices 1 2 3 4 5 6 
#
# 1 94.6631 30.6245 27.8755 -5.9813 1.1649 -19.7459
# 2 30.6245 62.9755 38.9080 7.9800 0.2658 -20.1948
# 3 27.8755 38.9080 71.8132 -5.0883 4.8955 -16.2632
# 4 -5.9813 7.9800 -5.0883 35.0258 -5.9478 -8.1065
# 5 1.1649 0.2658 4.8955 -5.9478 31.2250 -5.9057
# 6 -19.7459 -20.1948 -16.2632 -8.1065 -5.9057 26.0920
#
#
#
# Elastic Compliance Matrix: (Units=1/GPa)
#
#
# Indices 1 2 3 4 5 6 
#
# 1 0.014546 -0.004152 -0.000971 0.005959 0.002601 0.009630
# 2 -0.004152 0.030142 -0.012940 -0.006517 0.002712 0.010711
# 3 -0.000971 -0.012940 0.023204 0.007314 -0.001010 0.005756
# 4 0.005959 -0.006517 0.007314 0.037827 0.009273 0.017876
# 5 0.002601 0.002712 -0.001010 0.009273 0.036592 0.014601
# 6 0.009630 0.010711 0.005756 0.017876 0.014601 0.066350
#
#
# Mechanical properties :
#
#
# Convention : Reuss Voigt Hill
#
# Bulk Modulus (GPa) = 31.48067 47.14085 39.31076
# Shear Modulus (GPa) = 19.57901 27.27149 23.42525
#
# Velocity S-wave (km/s) = 3.21657 3.79623 3.51836
# Velocity P-wave (km/s) = 5.51641 6.64276 6.10561
#
# Compressibility (1/GPa) = 0.03176552
#
# Stress axis : x y z
#
# Youngs Moduli (GPa) = 68.74701 33.17638 43.09685
#
# Poissons Ratio (x) = 0.13774 0.04186
# Poissons Ratio (y) = 0.28541 0.55768
# Poissons Ratio (z) = 0.06677 0.42931
#
# Static dielectric constant tensor:
#      x y z
#    x 3.866780 -0.256380 -0.054480 
#    y -0.256380 3.324200 -0.130900 
#    z -0.054480 -0.130900 3.389100 
# 
# 
# High freq. dielectric constant tensor:
#      x y z
#    x 1.756890 -0.015320 -0.005840 
#    y -0.015320 1.707510 -0.021230 
#    z -0.005840 -0.021230 1.732670 
# 
# From -- ./inp_files/243036.got.cif
#   From: 2010.06.25/outbox.cif.g09.slc.cpg/sg2_122_cif.got.tgz:243036.got - 2010.06.27 13:26:56.
