data_PCOD8042328
_publ_section_title
;
Structure prediction by ZEFSAII (Michael W. Deem and Ramdas Pophale) SiO2 
 PCOD8042328
Probable space group: P -1
;
_chemical_formula_sum "Si O2"
_cell_formula_units_Z 16
_cell_length_a 16.301239
_cell_length_b 20.322700
_cell_length_c 11.151426
_cell_angle_alpha 141.783686
_cell_angle_beta 23.116855
_cell_angle_gamma 151.543226
_cell_volume 685.915654
_symmetry_space_group_name_H-M "P -1"
_symmetry_group_IT_number 2
_symmetry_cell_setting 'triclinic'
loop_
_space_group_symop_operation_xyz
x,y,z
-x,-y,-z
loop_
_atom_site_type_symbol
_atom_site_label
_atom_site_fract_x
_atom_site_fract_y
_atom_site_fract_z
Si Si1 0.816802 0.650159 0.539897
Si Si2 0.477145 0.236210 0.516683
Si Si3 0.686778 0.043013 0.695860
Si Si4 0.864703 0.384311 0.737662
Si Si5 0.912209 0.620064 0.114802
Si Si6 0.379641 0.100780 0.040574
Si Si7 0.830523 0.809123 0.351330
Si Si8 0.602526 0.432101 0.832433
O O1 0.011598 0.813462 0.479758
O O2 0.964012 0.615739 0.383747
O O3 0.747863 0.573943 0.395454
O O4 0.533260 0.607973 0.911028
O O5 0.349412 0.275629 0.646465
O O6 0.494155 0.293685 0.707090
O O7 0.281172 0.069627 0.543377
O O8 0.772888 0.298030 0.160526
O O9 0.549791 0.054448 0.784243
O O10 0.500000 0.000000 0.000000
O O11 0.064586 0.455867 0.454717
O O12 0.584866 0.230483 0.859032
O O13 0.781130 0.476392 0.018349
O O14 0.899293 0.721818 0.198056
O O15 0.335413 0.166260 0.304537
O O16 0.099186 0.963661 0.167306
O O17 0.500000 0.500000 0.000000
#
# Coordination Sequence:
#
# PCOD8042328 Si02
#       8
#     2   2   2   2   2   2   2   2
#     4  10  19  34  63  94 122 165 212 256 315 372
#     4  11  21  38  66  96 126 164 211 258 317 372
#     4  11  17  34  62  94 126 161 205 264 316 369
#     4   9  20  38  62  86 128 169 208 258 313 372
#     4  11  21  38  66  99 125 163 211 264 317 372
#     4  10  20  35  56  96 128 162 198 265 323 364
#     4  11  22  35  64  99 132 154 208 270 315 373
#     4   9  21  40  62  89 124 174 214 254 310 379
#
# _framework density 23.326485000000002
#
# number of rings (size 3 to 8) (size 9 to 14) (size 15 to 20)
#    0.000    1.750    3.750    1.125    1.750    3.000 
#    0.000    0.000    0.000   26.250    0.000    0.000 
#    0.000    0.000    0.000    0.000    0.000    0.000 
#
# Total GULP energy -198327.762875 kJ/mol
# GULP energy per Si atom -12395.485180 kJ/mol
# Density = 2.327339 g / cm^3
# Si number density = 23.326485 Si / 1000 Ang^3
#
#
#
# Elastic Constant Matrix: (Units=GPa)
#
#
# Indices 1 2 3 4 5 6 
#
# 1 66.1816 24.3157 40.7483 -5.4555 0.9077 -7.5459
# 2 24.3157 109.0150 54.6120 -1.4345 8.4662 -21.7371
# 3 40.7483 54.6120 147.3336 -15.7424 26.7014 -2.6739
# 4 -5.4555 -1.4345 -15.7424 38.4861 -0.8722 -0.6251
# 5 0.9077 8.4662 26.7014 -0.8722 30.6926 -1.0439
# 6 -7.5459 -21.7371 -2.6739 -0.6251 -1.0439 15.9912
#
#
#
# Elastic Compliance Matrix: (Units=1/GPa)
#
#
# Indices 1 2 3 4 5 6 
#
# 1 0.019907 0.000038 -0.006235 0.000532 0.005138 0.008759
# 2 0.000038 0.016318 -0.006104 -0.001505 0.001487 0.021216
# 3 -0.006235 -0.006104 0.012701 0.003715 -0.009402 -0.009584
# 4 0.000532 -0.001505 0.003715 0.027472 -0.002060 -0.000234
# 5 0.005138 0.001487 -0.009402 -0.002060 0.040324 0.005426
# 6 0.008759 0.021216 -0.009584 -0.000234 0.005426 0.094249
#
#
# Mechanical properties :
#
#
# Convention : Reuss Voigt Hill
#
# Bulk Modulus (GPa) = 41.11359 62.43136 51.77248
# Shear Modulus (GPa) = 20.51850 30.55760 25.53805
#
# Velocity S-wave (km/s) = 2.96906 3.62331 3.31238
# Velocity P-wave (km/s) = 5.42377 6.65784 6.07224
#
# Compressibility (1/GPa) = 0.02432286
#
# Stress axis : x y z
#
# Youngs Moduli (GPa) = 50.23338 61.28315 78.73176
#
# Poissons Ratio (x) = -0.00231 0.49090
# Poissons Ratio (y) = -0.00189 0.48059
# Poissons Ratio (z) = 0.31321 0.37408
#
# Static dielectric constant tensor:
#      x y z
#    x 3.580190 -0.651550 -0.365830 
#    y -0.651550 4.362940 -0.660590 
#    z -0.365830 -0.660590 4.278830 
# 
# 
# High freq. dielectric constant tensor:
#      x y z
#    x 1.890170 -0.011960 -0.019890 
#    y -0.011960 1.940430 -0.005630 
#    z -0.019890 -0.005630 1.918750 
# 
# From -- ./inp_files/467118.got.cif
#   From: 2010.06.25/outbox.cif.g09.slc.cpg/sg2_234_cif.got.tgz:467118.got - 2010.06.27 13:26:56.
