data_PCOD8042771
_publ_section_title
;
Structure prediction by ZEFSAII (Michael W. Deem and Ramdas Pophale) SiO2 
 PCOD8042771
Probable space group: P -1
;
_chemical_formula_sum "Si O2"
_cell_formula_units_Z 16
_cell_length_a 13.241403
_cell_length_b 10.798541
_cell_length_c 14.638252
_cell_angle_alpha 56.637754
_cell_angle_beta 134.552912
_cell_angle_gamma 148.283904
_cell_volume 777.959698
_symmetry_space_group_name_H-M "P -1"
_symmetry_group_IT_number 2
_symmetry_cell_setting 'triclinic'
loop_
_space_group_symop_operation_xyz
x,y,z
-x,-y,-z
loop_
_atom_site_type_symbol
_atom_site_label
_atom_site_fract_x
_atom_site_fract_y
_atom_site_fract_z
Si Si1 0.923699 0.531773 0.073072
Si Si2 0.818294 0.739508 0.027526
Si Si3 0.480620 0.563777 0.757612
Si Si4 0.217584 0.058145 0.794093
Si Si5 0.330829 0.878915 0.059846
Si Si6 0.089128 0.991938 0.268218
Si Si7 0.025780 0.356164 0.540600
Si Si8 0.838418 0.213246 0.279289
O O1 0.819977 0.590767 0.030497
O O2 0.975200 0.453042 0.215593
O O3 0.160504 0.767051 0.080551
O O4 0.748268 0.323285 0.971467
O O5 0.575184 0.617977 0.899880
O O6 0.878045 0.766772 0.160548
O O7 0.000000 0.000000 0.000000
O O8 0.379506 0.324386 0.758242
O O9 0.681795 0.777227 0.731036
O O10 0.290578 0.533807 0.647929
O O11 0.129627 0.913336 0.703807
O O12 0.997951 0.937794 0.758590
O O13 0.348852 0.042273 0.944254
O O14 0.574884 0.043158 0.190202
O O15 0.132048 0.885584 0.403692
O O16 0.000000 0.500000 0.500000
O O17 0.951394 0.281029 0.420169
#
# Coordination Sequence:
#
# PCOD8042771 Si02
#       8
#     2   2   2   2   2   2   2   2
#     4  10  20  36  59  90 119 148 192 238 289 342
#     4  10  19  35  61  88 113 147 190 238 290 338
#     4  10  22  40  61  85 117 151 188 243 290 334
#     4  10  21  38  60  89 116 144 193 243 287 341
#     4  10  20  35  61  90 118 151 186 238 293 339
#     4  10  23  40  61  87 115 151 193 239 289 340
#     4  11  26  42  58  84 117 155 198 233 278 348
#     4  11  23  38  58  85 119 157 191 233 284 340
#
# _framework density 20.566621000000001
#
# number of rings (size 3 to 8) (size 9 to 14) (size 15 to 20)
#    0.000    1.750    0.000    5.250    0.000   10.500 
#    0.000    1.250    0.000    0.000    0.000    0.000 
#    0.000    0.000    0.000    0.000    0.000    0.000 
#
# Total GULP energy -198373.093222 kJ/mol
# GULP energy per Si atom -12398.318326 kJ/mol
# Density = 2.051981 g / cm^3
# Si number density = 20.566621 Si / 1000 Ang^3
#
#
#
# Elastic Constant Matrix: (Units=GPa)
#
#
# Indices 1 2 3 4 5 6 
#
# 1 111.3670 48.4428 62.7887 11.0444 10.6107 -10.4777
# 2 48.4428 97.9762 42.5804 -3.8659 5.6693 4.2629
# 3 62.7887 42.5804 136.2630 8.9600 -8.6224 -7.4398
# 4 11.0444 -3.8659 8.9600 21.9070 3.1406 1.8992
# 5 10.6107 5.6693 -8.6224 3.1406 35.8213 -5.3163
# 6 -10.4777 4.2629 -7.4398 1.8992 -5.3163 40.1539
#
#
#
# Elastic Compliance Matrix: (Units=1/GPa)
#
#
# Indices 1 2 3 4 5 6 
#
# 1 0.015685 -0.005760 -0.005040 -0.006623 -0.003836 0.003576
# 2 -0.005760 0.014962 -0.002920 0.007497 -0.002666 -0.004340
# 3 -0.005040 -0.002920 0.011242 -0.003494 0.005255 0.001939
# 4 -0.006623 0.007497 -0.003494 0.053110 -0.005677 -0.006435
# 5 -0.003836 -0.002666 0.005255 -0.005677 0.031943 0.004753
# 6 0.003576 -0.004340 0.001939 -0.006435 0.004753 0.027591
#
#
# Mechanical properties :
#
#
# Convention : Reuss Voigt Hill
#
# Bulk Modulus (GPa) = 69.20546 72.58111 70.89328
# Shear Modulus (GPa) = 26.76832 32.36273 29.56552
#
# Velocity S-wave (km/s) = 3.61160 3.97111 3.79562
# Velocity P-wave (km/s) = 7.14941 7.50957 7.33170
#
# Compressibility (1/GPa) = 0.01444973
#
# Stress axis : x y z
#
# Youngs Moduli (GPa) = 63.75620 66.83407 88.95582
#
# Poissons Ratio (x) = 0.38495 0.44830
# Poissons Ratio (y) = 0.36722 0.25976
# Poissons Ratio (z) = 0.32130 0.19516
#
# Static dielectric constant tensor:
#      x y z
#    x 2.206630 1.289190 0.041190 
#    y 1.289190 2.752580 -0.118560 
#    z 0.041190 -0.118560 3.960870 
# 
# 
# High freq. dielectric constant tensor:
#      x y z
#    x 1.809550 -0.000970 0.000960 
#    y -0.000970 1.813820 -0.011240 
#    z 0.000960 -0.011240 1.796180 
# 
# From -- ./inp_files/532413.got.cif
#   From: 2010.06.25/outbox.cif.g09.slc.cpg/sg2_267_cif.got.tgz:532413.got - 2010.06.27 13:26:56.
