data_PCOD8042809
_publ_section_title
;
Structure prediction by ZEFSAII (Michael W. Deem and Ramdas Pophale) SiO2 
 PCOD8042809
Probable space group: P -1
;
_chemical_formula_sum "Si O2"
_cell_formula_units_Z 16
_cell_length_a 12.024262
_cell_length_b 9.377489
_cell_length_c 22.794642
_cell_angle_alpha 54.817986
_cell_angle_beta 28.500174
_cell_angle_gamma 44.712424
_cell_volume 853.857303
_symmetry_space_group_name_H-M "P -1"
_symmetry_group_IT_number 2
_symmetry_cell_setting 'triclinic'
loop_
_space_group_symop_operation_xyz
x,y,z
-x,-y,-z
loop_
_atom_site_type_symbol
_atom_site_label
_atom_site_fract_x
_atom_site_fract_y
_atom_site_fract_z
Si Si1 0.518354 0.894154 0.455182
Si Si2 0.794592 0.349588 0.925638
Si Si3 0.014468 0.850169 0.688659
Si Si4 0.225366 0.922801 0.787578
Si Si5 0.002404 0.475297 0.297216
Si Si6 0.491088 0.610074 0.840037
Si Si7 0.076230 0.174808 0.137092
Si Si8 0.559242 0.204125 0.874372
O O1 0.233096 0.918351 0.564612
O O2 0.747396 0.652244 0.409793
O O3 0.500000 0.000000 0.500000
O O4 0.586662 0.007570 0.346940
O O5 0.980324 0.435163 0.795390
O O6 0.500000 0.500000 0.000000
O O7 0.761589 0.354452 0.010066
O O8 0.931236 0.115432 0.896994
O O9 0.039465 0.712089 0.654163
O O10 0.056539 0.730761 0.759838
O O11 0.711747 0.059413 0.781200
O O12 0.390380 0.792757 0.797960
O O13 0.164927 0.785233 0.804701
O O14 0.272634 0.393730 0.230103
O O15 0.597476 0.396816 0.807628
O O16 0.287408 0.928059 0.106495
O O17 0.240441 0.273486 0.009519
#
# Coordination Sequence:
#
# PCOD8042809 Si02
#       8
#     2   2   2   2   2   2   2   2
#     4  11  20  39  61  82 111 148 203 239 271 334
#     4   9  19  33  58  81 113 147 189 228 276 336
#     4  10  19  35  62  83 108 145 198 241 273 321
#     4  11  22  35  56  89 116 152 184 238 286 344
#     4  10  21  35  60  86 109 150 193 233 282 339
#     4  11  21  36  55  86 123 148 183 228 300 344
#     4   9  18  34  60  82 113 142 199 228 286 326
#     4   9  19  34  58  85 109 148 189 235 279 338
#
# _framework density 18.738495
#
# number of rings (size 3 to 8) (size 9 to 14) (size 15 to 20)
#    0.750    1.250    1.250    4.500    3.500    0.500 
#    0.000    3.125    2.750    0.000    0.000    0.000 
#    0.000    0.000    0.000    0.000    0.000    0.000 
#
# Total GULP energy -198281.563500 kJ/mol
# GULP energy per Si atom -12392.597719 kJ/mol
# Density = 1.869585 g / cm^3
# Si number density = 18.738495 Si / 1000 Ang^3
#
#
#
# Elastic Constant Matrix: (Units=GPa)
#
#
# Indices 1 2 3 4 5 6 
#
# 1 85.3823 57.4737 41.0589 -5.5978 -2.3591 9.9385
# 2 57.4737 101.2764 40.2815 -0.0038 6.3326 17.8783
# 3 41.0589 40.2815 102.3827 -0.7149 -3.3912 7.6520
# 4 -5.5978 -0.0038 -0.7149 24.0715 11.2892 2.8528
# 5 -2.3591 6.3326 -3.3912 11.2892 27.4944 -5.0670
# 6 9.9385 17.8783 7.6520 2.8528 -5.0670 35.2470
#
#
#
# Elastic Compliance Matrix: (Units=1/GPa)
#
#
# Indices 1 2 3 4 5 6 
#
# 1 0.021064 -0.010455 -0.004258 0.003686 0.002234 0.000311
# 2 -0.010455 0.018693 -0.002866 0.001934 -0.007672 -0.007171
# 3 -0.004258 -0.002866 0.012645 -0.001956 0.002743 0.000462
# 4 0.003686 0.001934 -0.001956 0.055096 -0.024765 -0.009615
# 5 0.002234 -0.007672 0.002743 -0.024765 0.051050 0.012009
# 6 0.000311 -0.007171 0.000462 -0.009615 0.012009 0.034325
#
#
# Mechanical properties :
#
#
# Convention : Reuss Voigt Hill
#
# Bulk Modulus (GPa) = 57.98978 62.96330 60.47654
# Shear Modulus (GPa) = 21.38780 27.37773 24.38276
#
# Velocity S-wave (km/s) = 3.38210 3.82650 3.61115
# Velocity P-wave (km/s) = 6.80188 7.29362 7.05203
#
# Compressibility (1/GPa) = 0.01724442
#
# Stress axis : x y z
#
# Youngs Moduli (GPa) = 47.47422 53.49696 79.08177
#
# Poissons Ratio (x) = 0.55930 0.33670
# Poissons Ratio (y) = 0.49633 0.22668
# Poissons Ratio (z) = 0.20212 0.15334
#
# Static dielectric constant tensor:
#      x y z
#    x 3.165690 0.145170 0.137280 
#    y 0.145170 3.269010 0.076810 
#    z 0.137280 0.076810 3.637970 
# 
# 
# High freq. dielectric constant tensor:
#      x y z
#    x 1.698830 0.022550 0.000460 
#    y 0.022550 1.713040 0.003350 
#    z 0.000460 0.003350 1.729130 
# 
# From -- ./inp_files/609813.got.cif
#   From: 2010.06.25/outbox.cif.g09.slc.cpg/sg2_305_cif.got.tgz:609813.got - 2010.06.27 13:26:56.
