data_PCOD8042016
_publ_section_title
;
Structure prediction by ZEFSAII (Michael W. Deem and Ramdas Pophale) SiO2 
 PCOD8042016
Probable space group: P -1
;
_chemical_formula_sum "Si O2"
_cell_formula_units_Z 16
_cell_length_a 16.124516
_cell_length_b 5.234737
_cell_length_c 10.442539
_cell_angle_alpha 89.694607
_cell_angle_beta 120.960582
_cell_angle_gamma 98.936176
_cell_volume 743.770888
_symmetry_space_group_name_H-M "P -1"
_symmetry_group_IT_number 2
_symmetry_cell_setting 'triclinic'
loop_
_space_group_symop_operation_xyz
x,y,z
-x,-y,-z
loop_
_atom_site_type_symbol
_atom_site_label
_atom_site_fract_x
_atom_site_fract_y
_atom_site_fract_z
Si Si1 0.728177 0.642495 0.149443
Si Si2 0.595927 0.049942 0.665291
Si Si3 0.665028 0.113126 0.972755
Si Si4 0.862276 0.215005 0.654876
Si Si5 0.856462 0.208680 0.951136
Si Si6 0.080310 0.261520 0.868861
Si Si7 0.240397 0.331447 0.527448
Si Si8 0.383147 0.438695 0.425604
O O1 0.663722 0.371237 0.052173
O O2 0.834956 0.692215 0.170533
O O3 0.740915 0.623556 0.309375
O O4 0.668238 0.872401 0.069680
O O5 0.661138 0.325850 0.673838
O O6 0.500000 0.000000 0.500000
O O7 0.658303 0.822457 0.686393
O O8 0.571708 0.055211 0.799537
O O9 0.752503 0.145611 0.939298
O O10 0.829610 0.477607 0.579469
O O11 0.977447 0.241201 0.713370
O O12 0.805548 0.967217 0.533856
O O13 0.843119 0.175887 0.789862
O O14 0.909600 0.500388 0.024344
O O15 0.921790 0.003734 0.054121
O O16 0.347112 0.401295 0.543051
O O17 0.500000 0.500000 0.500000
#
# Coordination Sequence:
#
# PCOD8042016 Si02
#       8
#     2   2   2   2   2   2   2   2
#     4  10  23  38  56  80 116 163 199 226 271 343
#     4  10  20  36  64  94 114 138 181 237 298 348
#     4  10  19  36  59  82 114 153 190 232 281 340
#     4  12  23  35  58  86 117 150 193 249 290 331
#     4  10  19  34  56  83 113 149 196 237 288 340
#     4  10  21  37  55  81 118 156 191 239 290 336
#     4  12  24  38  57  85 114 152 200 237 282 342
#     4  10  21  38  61  86 115 142 178 240 299 339
#
# _framework density 21.512001999999999
#
# number of rings (size 3 to 8) (size 9 to 14) (size 15 to 20)
#    0.000    1.500    0.000    6.000    0.000    3.000 
#    0.000    0.000    0.000   18.000    0.000    0.000 
#    0.000    0.000    0.000    0.000    0.000    0.000 
#
# Total GULP energy -198339.527066 kJ/mol
# GULP energy per Si atom -12396.220442 kJ/mol
# Density = 2.146304 g / cm^3
# Si number density = 21.512002 Si / 1000 Ang^3
#
#
#
# Elastic Constant Matrix: (Units=GPa)
#
#
# Indices 1 2 3 4 5 6 
#
# 1 47.1622 19.9660 34.0047 4.6234 -6.9979 0.7852
# 2 19.9660 158.9262 28.7343 7.8093 -12.8028 -16.6549
# 3 34.0047 28.7343 126.0870 7.9476 -23.1153 4.8720
# 4 4.6234 7.8093 7.9476 33.7157 -2.2638 -8.3143
# 5 -6.9979 -12.8028 -23.1153 -2.2638 36.9739 2.0005
# 6 0.7852 -16.6549 4.8720 -8.3143 2.0005 12.7538
#
#
#
# Elastic Compliance Matrix: (Units=1/GPa)
#
#
# Indices 1 2 3 4 5 6 
#
# 1 0.027274 -0.002580 -0.006357 -0.002716 0.000369 -0.004449
# 2 -0.002580 0.008210 -0.001656 0.002029 0.000755 0.012716
# 3 -0.006357 -0.001656 0.011666 -0.003414 0.005814 -0.009365
# 4 -0.002716 0.002029 -0.003414 0.037354 -0.001209 0.028662
# 5 0.000369 0.000755 0.005814 -0.001209 0.031315 -0.006958
# 6 -0.004449 0.012716 -0.009365 0.028662 -0.006958 0.118641
#
#
# Mechanical properties :
#
#
# Convention : Reuss Voigt Hill
#
# Bulk Modulus (GPa) = 38.51528 55.28727 46.90127
# Shear Modulus (GPa) = 18.91791 33.32005 26.11898
#
# Velocity S-wave (km/s) = 2.96871 3.93988 3.48826
# Velocity P-wave (km/s) = 5.44921 6.81567 6.17038
#
# Compressibility (1/GPa) = 0.02596372
#
# Stress axis : x y z
#
# Youngs Moduli (GPa) = 36.66459 121.80974 85.72114
#
# Poissons Ratio (x) = 0.31429 0.54492
# Poissons Ratio (y) = 0.09460 0.14194
# Poissons Ratio (z) = 0.23307 0.20170
#
# Static dielectric constant tensor:
#      x y z
#    x 5.147370 -7.176840 -0.145160 
#    y -7.176840 39.002710 1.013870 
#    z -0.145160 1.013870 3.922530 
# 
# 
# High freq. dielectric constant tensor:
#      x y z
#    x 1.821070 -0.011440 0.000890 
#    y -0.011440 1.877500 0.000850 
#    z 0.000890 0.000850 1.843130 
# 
# From -- ./inp_files/137361.got.cif
#   From: 2010.06.25/outbox.cif.g09.slc.cpg/sg2_69_cif.got.tgz:137361.got - 2010.06.27 13:26:56.
