data_PCOD8042632
_publ_section_title
;
Structure prediction by ZEFSAII (Michael W. Deem and Ramdas Pophale) SiO2 
 PCOD8042632
Probable space group: P -1
;
_chemical_formula_sum "Si O2"
_cell_formula_units_Z 14
_cell_length_a 13.863736
_cell_length_b 9.387982
_cell_length_c 8.678985
_cell_angle_alpha 68.820413
_cell_angle_beta 48.416974
_cell_angle_gamma 100.216414
_cell_volume 631.403317
_symmetry_space_group_name_H-M "P -1"
_symmetry_group_IT_number 2
_symmetry_cell_setting 'triclinic'
loop_
_space_group_symop_operation_xyz
x,y,z
-x,-y,-z
loop_
_atom_site_type_symbol
_atom_site_label
_atom_site_fract_x
_atom_site_fract_y
_atom_site_fract_z
Si Si1 0.590405 0.818579 0.755003
Si Si2 0.072214 0.410279 0.366080
Si Si3 0.189456 0.171533 0.735721
Si Si4 0.257078 0.867846 0.284684
Si Si5 0.372496 0.074676 0.770319
Si Si6 0.343497 0.747366 0.790131
Si Si7 0.295897 0.534604 0.344450
O O1 0.720156 0.816508 0.521529
O O2 0.452643 0.795208 0.805989
O O3 0.687044 0.022054 0.657631
O O4 0.486144 0.643321 0.058031
O O5 0.184988 0.399654 0.369923
O O6 0.000000 0.500000 0.500000
O O7 0.925744 0.208443 0.530765
O O8 0.176517 0.539300 0.058059
O O9 0.233479 0.384121 0.611096
O O10 0.266354 0.149316 0.815825
O O11 0.000000 0.000000 0.000000
O O12 0.269773 0.694225 0.350073
O O13 0.365164 0.015915 0.976386
O O14 0.308607 0.904345 0.778640
O O15 0.562478 0.236716 0.470037
#
# Coordination Sequence:
#
# PCOD8042632 Si02
#       7
#     2   2   2   2   2   2   2
#     4  10  21  40  63  90 116 157 199 248 290 351
#     4   9  16  31  56  87 112 152 199 235 277 354
#     4  11  24  39  60  85 127 159 195 236 305 356
#     4  11  20  36  67  91 116 147 207 252 291 331
#     4  10  19  35  59  86 115 155 200 239 289 351
#     4   9  18  34  60  85 115 155 203 234 286 351
#     4  10  20  38  61  88 116 161 199 235 288 371
#
# _framework density 22.172834000000002
#
# number of rings (size 3 to 8) (size 9 to 14) (size 15 to 20)
#    0.000    2.000    4.286    1.714    2.000    0.000 
#    0.000    5.714    0.000    0.000    0.000    0.000 
#    0.000    0.000    0.000    0.000    0.000    0.000 
#
# Total GULP energy -173458.383872 kJ/mol
# GULP energy per Si atom -12389.884562 kJ/mol
# Density = 2.212237 g / cm^3
# Si number density = 22.172834 Si / 1000 Ang^3
#
#
#
# Elastic Constant Matrix: (Units=GPa)
#
#
# Indices 1 2 3 4 5 6 
#
# 1 58.2023 33.0362 19.1921 -9.3634 -4.0919 -9.1973
# 2 33.0362 56.7611 27.5700 -8.0343 3.9207 1.5761
# 3 19.1921 27.5700 129.8415 -13.3325 -12.2520 -1.8161
# 4 -9.3634 -8.0343 -13.3325 25.0271 -6.6686 1.6274
# 5 -4.0919 3.9207 -12.2520 -6.6686 38.7773 -14.2450
# 6 -9.1973 1.5761 -1.8161 1.6274 -14.2450 32.1816
#
#
#
# Elastic Compliance Matrix: (Units=1/GPa)
#
#
# Indices 1 2 3 4 5 6 
#
# 1 0.033071 -0.020220 0.001897 0.009492 0.013691 0.016129
# 2 -0.020220 0.033002 -0.005632 -0.002445 -0.012489 -0.013117
# 3 0.001897 -0.005632 0.009831 0.005553 0.006248 0.003858
# 4 0.009492 -0.002445 0.005553 0.048949 0.013933 0.006838
# 5 0.013691 -0.012489 0.006248 0.013933 0.041078 0.022355
# 6 0.016129 -0.013117 0.003858 0.006838 0.022355 0.046093
#
#
# Mechanical properties :
#
#
# Convention : Reuss Voigt Hill
#
# Bulk Modulus (GPa) = 35.72006 44.93350 40.32678
# Shear Modulus (GPa) = 18.56908 30.19765 24.38337
#
# Velocity S-wave (km/s) = 2.89705 3.69443 3.31976
# Velocity P-wave (km/s) = 5.22832 6.20544 5.73772
#
# Compressibility (1/GPa) = 0.02799547
#
# Stress axis : x y z
#
# Youngs Moduli (GPa) = 30.23792 30.30094 101.72093
#
# Poissons Ratio (x) = 0.61267 -0.19299
# Poissons Ratio (y) = 0.61140 0.57289
# Poissons Ratio (z) = -0.05737 0.17065
#
# Static dielectric constant tensor:
#      x y z
#    x 4.185800 -0.054620 -0.267980 
#    y -0.054620 3.572440 -0.212580 
#    z -0.267980 -0.212580 4.618610 
# 
# 
# High freq. dielectric constant tensor:
#      x y z
#    x 1.860180 -0.013790 -0.006740 
#    y -0.013790 1.825300 -0.013640 
#    z -0.006740 -0.013640 1.893320 
# 
# From -- ./inp_files/294749.got.cif
#   From: 2010.06.25/outbox.cif.g09.slc.cpg/sg2_148_cif.got.tgz:294749.got - 2010.06.27 13:26:56.
