data_PCOD8042495
_publ_section_title
;
Structure prediction by ZEFSAII (Michael W. Deem and Ramdas Pophale) SiO2 
 PCOD8042495
Probable space group: P -1
;
_chemical_formula_sum "Si O2"
_cell_formula_units_Z 14
_cell_length_a 11.831406
_cell_length_b 9.538080
_cell_length_c 16.306672
_cell_angle_alpha 127.515783
_cell_angle_beta 149.580328
_cell_angle_gamma 55.140536
_cell_volume 734.092455
_symmetry_space_group_name_H-M "P -1"
_symmetry_group_IT_number 2
_symmetry_cell_setting 'triclinic'
loop_
_space_group_symop_operation_xyz
x,y,z
-x,-y,-z
loop_
_atom_site_type_symbol
_atom_site_label
_atom_site_fract_x
_atom_site_fract_y
_atom_site_fract_z
Si Si1 0.643393 0.719097 0.724786
Si Si2 0.071683 0.242084 0.688658
Si Si3 0.900150 0.189500 0.972433
Si Si4 0.377258 0.511145 0.013710
Si Si5 0.255885 0.017335 0.571044
Si Si6 0.432254 0.285540 0.662567
Si Si7 0.322230 0.468166 0.492601
O O1 0.534618 0.581985 0.666479
O O2 0.659924 0.656729 0.619123
O O3 0.895610 0.731973 0.919690
O O4 0.498778 0.911354 0.702990
O O5 0.258256 0.331200 0.890262
O O6 0.195702 0.126320 0.654025
O O7 0.905839 0.399428 0.600075
O O8 0.929467 0.118618 0.612496
O O9 0.814369 0.317388 0.041524
O O10 0.687422 0.183904 0.776020
O O11 0.000000 0.000000 0.000000
O O12 0.500000 0.500000 0.000000
O O13 0.556133 0.541154 0.208770
O O14 0.270220 0.150708 0.551629
O O15 0.329337 0.344952 0.532734
#
# Coordination Sequence:
#
# PCOD8042495 Si02
#       7
#     2   2   2   2   2   2   2
#     4  10  19  37  57  78 109 153 180 224 283 336
#     4  10  19  37  59  80 109 155 183 217 285 336
#     4  10  19  35  57  82 111 148 183 226 282 325
#     4  10  19  36  59  82 107 150 184 224 273 339
#     4  10  20  34  57  83 111 146 187 229 267 331
#     4  10  21  34  58  86 109 139 191 241 260 324
#     4  10  21  35  58  81 110 142 192 229 274 328
#
# _framework density 19.071168
#
# number of rings (size 3 to 8) (size 9 to 14) (size 15 to 20)
#    0.857    1.143    4.286    0.000    0.000    1.714 
#    0.000    0.000    0.000    7.714    0.000    0.000 
#    0.000    0.000    0.000    0.000    0.000    0.000 
#
# Total GULP energy -173476.440841 kJ/mol
# GULP energy per Si atom -12391.174346 kJ/mol
# Density = 1.902776 g / cm^3
# Si number density = 19.071168 Si / 1000 Ang^3
#
#
#
# Elastic Constant Matrix: (Units=GPa)
#
#
# Indices 1 2 3 4 5 6 
#
# 1 70.5924 41.3297 18.9483 -1.3105 11.9693 0.2478
# 2 41.3297 99.6647 31.6260 9.5951 2.9828 -0.1614
# 3 18.9483 31.6260 62.9310 17.6593 16.2143 12.8585
# 4 -1.3105 9.5951 17.6593 27.7150 4.2645 9.2896
# 5 11.9693 2.9828 16.2143 4.2645 27.1512 -1.3315
# 6 0.2478 -0.1614 12.8585 9.2896 -1.3315 46.7429
#
#
#
# Elastic Compliance Matrix: (Units=1/GPa)
#
#
# Indices 1 2 3 4 5 6 
#
# 1 0.021279 -0.008782 -0.001349 0.006703 -0.008729 -0.001353
# 2 -0.008782 0.015952 -0.006682 -0.003693 0.006830 0.002868
# 3 -0.001349 -0.006682 0.027486 -0.011251 -0.013599 -0.005728
# 4 0.006703 -0.003693 -0.011251 0.047587 -0.003624 -0.006514
# 5 -0.008729 0.006830 -0.013599 -0.003624 0.048910 0.005924
# 6 -0.001353 0.002868 -0.005728 -0.006514 0.005924 0.024450
#
#
# Mechanical properties :
#
#
# Convention : Reuss Voigt Hill
#
# Bulk Modulus (GPa) = 32.16370 46.33290 39.24830
# Shear Modulus (GPa) = 21.77206 29.74078 25.75642
#
# Velocity S-wave (km/s) = 3.38246 3.95329 3.67896
# Velocity P-wave (km/s) = 5.67066 6.72201 6.21859
#
# Compressibility (1/GPa) = 0.03109095
#
# Stress axis : x y z
#
# Youngs Moduli (GPa) = 46.99482 62.68974 36.38211
#
# Poissons Ratio (x) = 0.55056 0.04907
# Poissons Ratio (y) = 0.41272 0.24310
# Poissons Ratio (z) = 0.06338 0.41888
#
# Static dielectric constant tensor:
#      x y z
#    x 3.408000 -0.151600 0.493800 
#    y -0.151600 3.530970 0.366170 
#    z 0.493800 0.366170 3.668370 
# 
# 
# High freq. dielectric constant tensor:
#      x y z
#    x 1.727610 -0.019670 0.036950 
#    y -0.019670 1.739110 0.026250 
#    z 0.036950 0.026250 1.731740 
# 
# From -- ./inp_files/163043.got.cif
#   From: 2010.06.25/outbox.cif.g09.slc.cpg/sg2_82_cif.got.tgz:163043.got - 2010.06.27 13:26:56.
