data_PCOD8042789
_publ_section_title
;
Structure prediction by ZEFSAII (Michael W. Deem and Ramdas Pophale) SiO2 
 PCOD8042789
Probable space group: P -1
;
_chemical_formula_sum "Si O2"
_cell_formula_units_Z 16
_cell_length_a 8.437988
_cell_length_b 13.043815
_cell_length_c 14.736907
_cell_angle_alpha 106.687504
_cell_angle_beta 149.089823
_cell_angle_gamma 80.739891
_cell_volume 785.991655
_symmetry_space_group_name_H-M "P -1"
_symmetry_group_IT_number 2
_symmetry_cell_setting 'triclinic'
loop_
_space_group_symop_operation_xyz
x,y,z
-x,-y,-z
loop_
_atom_site_type_symbol
_atom_site_label
_atom_site_fract_x
_atom_site_fract_y
_atom_site_fract_z
Si Si1 0.000628 0.119188 0.494698
Si Si2 0.878719 0.725672 0.080405
Si Si3 0.983011 0.733653 0.782979
Si Si4 0.651030 0.274514 0.854090
Si Si5 0.746949 0.266144 0.548424
Si Si6 0.853411 0.499907 0.662998
Si Si7 0.616736 0.119162 0.123895
Si Si8 0.354778 0.499869 0.030563
O O1 0.354227 0.180458 0.668753
O O2 0.814813 0.175840 0.491354
O O3 0.804590 0.113901 0.306213
O O4 0.000000 0.000000 0.500000
O O5 0.111742 0.724202 0.111429
O O6 0.081646 0.749357 0.277085
O O7 0.676799 0.820061 0.990267
O O8 0.631399 0.610735 0.935472
O O9 0.624321 0.745856 0.623938
O O10 0.008489 0.613985 0.721011
O O11 0.138828 0.823650 0.814324
O O12 0.173232 0.749454 0.974124
O O13 0.520041 0.389711 0.824406
O O14 0.893697 0.385653 0.606786
O O15 0.500000 0.500000 0.500000
O O16 0.985893 0.500052 0.831154
O O17 0.500000 0.000000 0.000000
O O18 0.500000 0.500000 0.000000
#
# Coordination Sequence:
#
# PCOD8042789 Si02
#       8
#     2   2   2   2   2   2   2   2
#     4  12  26  44  63  87 118 161 212 262 311 368
#     4  11  22  39  63  95 129 165 205 252 306 367
#     4  10  20  39  64  92 125 162 201 250 306 365
#     4  11  22  39  63  95 129 165 205 252 306 367
#     4  10  20  39  64  92 125 162 201 250 306 365
#     4   8  16  31  57  88 120 154 190 233 291 354
#     4  12  26  44  63  87 118 161 212 262 311 368
#     4  10  19  35  61  92 128 168 202 243 301 364
#
# _framework density 20.356449000000001
#
# number of rings (size 3 to 8) (size 9 to 14) (size 15 to 20)
#    0.000    1.500    0.000    7.125    0.000    1.000 
#    0.000   10.000    0.000    0.000    0.000    0.000 
#    0.000    0.000    0.000    0.000    0.000    0.000 
#
# Total GULP energy -198224.324110 kJ/mol
# GULP energy per Si atom -12389.020257 kJ/mol
# Density = 2.031012 g / cm^3
# Si number density = 20.356449 Si / 1000 Ang^3
#
#
#
# Elastic Constant Matrix: (Units=GPa)
#
#
# Indices 1 2 3 4 5 6 
#
# 1 151.9954 89.0650 59.7276 11.3997 -1.4866 0.6121
# 2 89.0650 193.7254 78.1048 22.0933 -4.4437 -5.9887
# 3 59.7276 78.1048 142.1671 -0.0156 -5.3615 4.2924
# 4 11.3997 22.0933 -0.0156 41.4600 2.9273 1.6259
# 5 -1.4866 -4.4437 -5.3615 2.9273 35.3339 -1.9933
# 6 0.6121 -5.9887 4.2924 1.6259 -1.9933 32.9766
#
#
#
# Elastic Compliance Matrix: (Units=1/GPa)
#
#
# Indices 1 2 3 4 5 6 
#
# 1 0.009476 -0.003461 -0.002076 -0.000719 -0.000321 -0.000518
# 2 -0.003461 0.008613 -0.003315 -0.003792 0.000878 0.002300
# 3 -0.002076 -0.003315 0.009811 0.002368 0.000680 -0.001916
# 4 -0.000719 -0.003792 0.002368 0.026610 -0.002490 -0.002446
# 5 -0.000321 0.000878 0.000680 -0.002490 0.028817 0.001942
# 6 -0.000518 0.002300 -0.001916 -0.002446 0.001942 0.031239
#
#
# Mechanical properties :
#
#
# Convention : Reuss Voigt Hill
#
# Bulk Modulus (GPa) = 98.07262 104.63140 101.35201
# Shear Modulus (GPa) = 36.85429 39.35348 38.10388
#
# Velocity S-wave (km/s) = 4.25955 4.40161 4.33116
# Velocity P-wave (km/s) = 8.51316 8.79451 8.65498
#
# Compressibility (1/GPa) = 0.01019653
#
# Stress axis : x y z
#
# Youngs Moduli (GPa) = 105.53171 116.10208 101.92570
#
# Poissons Ratio (x) = 0.40181 0.21162
# Poissons Ratio (y) = 0.36522 0.33785
# Poissons Ratio (z) = 0.21911 0.38484
#
# Static dielectric constant tensor:
#      x y z
#    x 3.422510 -0.186420 0.175090 
#    y -0.186420 4.757690 0.247560 
#    z 0.175090 0.247560 4.214650 
# 
# 
# High freq. dielectric constant tensor:
#      x y z
#    x 1.782130 -0.007830 0.014680 
#    y -0.007830 1.811120 0.001420 
#    z 0.014680 0.001420 1.811690 
# 
# From -- ./inp_files/500491.got.cif
#   From: 2010.06.25/outbox.cif.g09.slc.cpg/sg2_251_cif.got.tgz:500491.got - 2010.06.27 13:26:56.
