data_PCOD8042516
_publ_section_title
;
Structure prediction by ZEFSAII (Michael W. Deem and Ramdas Pophale) SiO2 
 PCOD8042516
Probable space group: P -1
;
_chemical_formula_sum "Si O2"
_cell_formula_units_Z 16
_cell_length_a 15.607064
_cell_length_b 6.057854
_cell_length_c 13.781959
_cell_angle_alpha 86.142759
_cell_angle_beta 32.916416
_cell_angle_gamma 76.182648
_cell_volume 665.318485
_symmetry_space_group_name_H-M "P -1"
_symmetry_group_IT_number 2
_symmetry_cell_setting 'triclinic'
loop_
_space_group_symop_operation_xyz
x,y,z
-x,-y,-z
loop_
_atom_site_type_symbol
_atom_site_label
_atom_site_fract_x
_atom_site_fract_y
_atom_site_fract_z
Si Si1 0.676147 0.009490 0.735197
Si Si2 0.593152 0.584566 0.132360
Si Si3 0.887239 0.630856 0.238140
Si Si4 0.645368 0.365680 0.481981
Si Si5 0.327082 0.967507 0.692889
Si Si6 0.835737 0.814459 0.973457
Si Si7 0.086050 0.033508 0.649045
Si Si8 0.441887 0.724462 0.981475
O O1 0.861318 0.942173 0.513378
O O2 0.601513 0.798587 0.796170
O O3 0.560845 0.245552 0.786225
O O4 0.685156 0.061707 0.840570
O O5 0.537947 0.547342 0.296151
O O6 0.648591 0.335631 0.027108
O O7 0.737181 0.699531 0.998176
O O8 0.716436 0.577055 0.421758
O O9 0.839884 0.836599 0.197606
O O10 0.957890 0.712703 0.266106
O O11 0.034685 0.389241 0.076192
O O12 0.647638 0.292760 0.367446
O O13 0.752788 0.130448 0.441707
O O14 0.500000 0.000000 0.500000
O O15 0.291007 0.987957 0.841928
O O16 0.933294 0.934955 0.805953
O O17 0.500000 0.500000 0.000000
#
# Coordination Sequence:
#
# PCOD8042516 Si02
#       8
#     2   2   2   2   2   2   2   2
#     4   9  18  36  61  86 116 151 190 231 291 344
#     4  10  19  35  57  87 116 147 195 243 282 344
#     4  10  22  38  58  82 113 160 198 238 295 342
#     4   9  19  37  58  81 110 152 201 242 281 339
#     4  11  22  39  57  84 117 155 200 250 288 333
#     4  11  23  38  56  85 121 153 197 242 293 345
#     4   9  20  37  57  80 117 157 188 234 290 347
#     4   9  18  33  61  93 115 144 191 239 281 343
#
# _framework density 24.048632999999999
#
# number of rings (size 3 to 8) (size 9 to 14) (size 15 to 20)
#    0.000    2.250    1.250    1.125    0.000    8.000 
#    2.250    0.625    0.000    7.500    0.000    0.000 
#    0.000    0.000    0.000    0.000    0.000    0.000 
#
# Total GULP energy -198273.304421 kJ/mol
# GULP energy per Si atom -12392.081526 kJ/mol
# Density = 2.399390 g / cm^3
# Si number density = 24.048633 Si / 1000 Ang^3
#
#
#
# Elastic Constant Matrix: (Units=GPa)
#
#
# Indices 1 2 3 4 5 6 
#
# 1 69.9846 35.2137 51.6443 0.6485 18.5390 39.8600
# 2 35.2137 107.4464 54.6257 -4.1009 17.6130 53.1177
# 3 51.6443 54.6257 167.4806 -13.9408 26.7407 42.8532
# 4 0.6485 -4.1009 -13.9408 32.0666 4.6893 -10.7991
# 5 18.5390 17.6130 26.7407 4.6893 30.2949 5.4744
# 6 39.8600 53.1177 42.8532 -10.7991 5.4744 56.7680
#
#
#
# Elastic Compliance Matrix: (Units=1/GPa)
#
#
# Indices 1 2 3 4 5 6 
#
# 1 0.032647 0.006061 -0.003841 -0.008203 -0.014164 -0.025889
# 2 0.006061 0.020465 -0.001779 -0.004304 -0.009400 -0.021974
# 3 -0.003841 -0.001779 0.009252 0.004185 -0.005190 -0.001326
# 4 -0.008203 -0.004304 0.004185 0.038128 -0.004663 0.014331
# 5 -0.014164 -0.009400 -0.005190 -0.004663 0.049370 0.017010
# 6 -0.025889 -0.021974 -0.001326 0.014331 0.017010 0.058442
#
#
# Mechanical properties :
#
#
# Convention : Reuss Voigt Hill
#
# Bulk Modulus (GPa) = 15.81133 69.76433 42.78783
# Shear Modulus (GPa) = 21.88156 37.38776 29.63466
#
# Velocity S-wave (km/s) = 3.01971 3.94721 3.51419
# Velocity P-wave (km/s) = 4.32980 7.06022 5.85636
#
# Compressibility (1/GPa) = 0.06324577
#
# Stress axis : x y z
#
# Youngs Moduli (GPa) = 30.63061 48.86475 108.08931
#
# Poissons Ratio (x) = -0.29616 0.41515
# Poissons Ratio (y) = -0.18564 0.19226
# Poissons Ratio (z) = 0.11765 0.08692
#
# Static dielectric constant tensor:
#      x y z
#    x 4.233220 0.331030 0.429410 
#    y 0.331030 4.428320 0.316540 
#    z 0.429410 0.316540 4.561630 
# 
# 
# High freq. dielectric constant tensor:
#      x y z
#    x 1.924930 0.016350 0.014170 
#    y 0.016350 1.962490 0.005340 
#    z 0.014170 0.005340 1.949580 
# 
# From -- ./inp_files/48565.got.cif
#   From: 2010.06.25/outbox.cif.g09.slc.cpg/sg2_25_cif.got.tgz:48565.got - 2010.06.27 13:26:56.
