data_PCOD8042321
_publ_section_title
;
Structure prediction by ZEFSAII (Michael W. Deem and Ramdas Pophale) SiO2 
 PCOD8042321
Probable space group: P -1
;
_chemical_formula_sum "Si O2"
_cell_formula_units_Z 16
_cell_length_a 10.142367
_cell_length_b 21.257697
_cell_length_c 19.473057
_cell_angle_alpha 29.207454
_cell_angle_beta 27.261995
_cell_angle_gamma 26.312255
_cell_volume 790.426024
_symmetry_space_group_name_H-M "P -1"
_symmetry_group_IT_number 2
_symmetry_cell_setting 'triclinic'
loop_
_space_group_symop_operation_xyz
x,y,z
-x,-y,-z
loop_
_atom_site_type_symbol
_atom_site_label
_atom_site_fract_x
_atom_site_fract_y
_atom_site_fract_z
Si Si1 0.051138 0.066733 0.063611
Si Si2 0.729897 0.587988 0.740244
Si Si3 0.599858 0.816247 0.972007
Si Si4 0.735148 0.061078 0.355213
Si Si5 0.854191 0.470379 0.937427
Si Si6 0.600419 0.098156 0.721266
Si Si7 0.495657 0.684321 0.011876
Si Si8 0.037620 0.409847 0.636674
O O1 0.940868 0.071743 0.187020
O O2 0.312881 0.127058 0.884622
O O3 0.716339 0.166508 0.078449
O O4 0.235155 0.899687 0.101022
O O5 0.503733 0.771395 0.660412
O O6 0.925175 0.538802 0.770713
O O7 0.992563 0.513112 0.626209
O O8 0.511694 0.510044 0.916462
O O9 0.680046 0.945171 0.789034
O O10 0.623362 0.721864 0.985259
O O11 0.860361 0.706107 0.014883
O O12 0.500000 0.000000 0.500000
O O13 0.035783 0.938601 0.383598
O O14 0.830699 0.566298 0.924685
O O15 0.415964 0.252186 0.613813
O O16 0.263441 0.620379 0.201086
O O17 0.000000 0.500000 0.500000
#
# Coordination Sequence:
#
# PCOD8042321 Si02
#       8
#     2   2   2   2   2   2   2   2
#     4   9  20  36  63  88 118 154 206 250 291 356
#     4  10  21  39  59  87 119 163 196 250 311 354
#     4  10  20  33  64  93 119 150 212 251 292 350
#     4  12  23  41  60  92 126 157 200 257 308 365
#     4  10  19  34  63  90 119 152 206 252 299 352
#     4   9  22  40  65  89 114 164 208 247 300 361
#     4  10  19  37  60  92 119 160 202 255 295 356
#     4  10  23  41  62  84 126 163 200 247 307 373
#
# _framework density 20.242246999999999
#
# number of rings (size 3 to 8) (size 9 to 14) (size 15 to 20)
#    0.750    1.250    2.500    1.125    3.500    1.000 
#    2.250    2.500    0.000    0.000    0.000    0.000 
#    0.000    0.000    0.000    0.000    0.000    0.000 
#
# Total GULP energy -198247.793274 kJ/mol
# GULP energy per Si atom -12390.487080 kJ/mol
# Density = 2.019617 g / cm^3
# Si number density = 20.242247 Si / 1000 Ang^3
#
#
#
# Elastic Constant Matrix: (Units=GPa)
#
#
# Indices 1 2 3 4 5 6 
#
# 1 99.3165 52.7728 41.2174 -8.9055 8.8816 -0.1971
# 2 52.7728 133.6534 44.0058 -15.6531 26.7213 -6.4768
# 3 41.2174 44.0058 60.1601 -12.6270 17.4853 -2.3227
# 4 -8.9055 -15.6531 -12.6270 15.3630 -6.4848 14.9030
# 5 8.8816 26.7213 17.4853 -6.4848 32.5050 -1.2202
# 6 -0.1971 -6.4768 -2.3227 14.9030 -1.2202 36.0342
#
#
#
# Elastic Compliance Matrix: (Units=1/GPa)
#
#
# Indices 1 2 3 4 5 6 
#
# 1 0.015543 -0.004014 -0.008742 0.000655 0.003836 -0.001341
# 2 -0.004014 0.011870 -0.003161 0.004997 -0.005978 -0.000361
# 3 -0.008742 -0.003161 0.031528 0.022018 -0.007879 -0.007957
# 4 0.000655 0.004997 0.022018 0.152066 0.011948 -0.060166
# 5 0.003836 -0.005978 -0.007879 0.011948 0.041061 -0.005112
# 6 -0.001341 -0.000361 -0.007957 -0.060166 -0.005112 0.051876
#
#
# Mechanical properties :
#
#
# Convention : Reuss Voigt Hill
#
# Bulk Modulus (GPa) = 36.88922 63.23578 50.06250
# Shear Modulus (GPa) = 14.50063 27.12271 20.81167
#
# Velocity S-wave (km/s) = 2.67938 3.66444 3.20993
# Velocity P-wave (km/s) = 5.27594 7.01509 6.20673
#
# Compressibility (1/GPa) = 0.02710819
#
# Stress axis : x y z
#
# Youngs Moduli (GPa) = 64.33934 84.24261 31.71833
#
# Poissons Ratio (x) = 0.33814 0.27727
# Poissons Ratio (y) = 0.25825 0.10025
# Poissons Ratio (z) = 0.56244 0.26625
#
# Static dielectric constant tensor:
#      x y z
#    x 3.598040 -0.034140 0.186020 
#    y -0.034140 3.941800 -0.049200 
#    z 0.186020 -0.049200 3.266090 
# 
# 
# High freq. dielectric constant tensor:
#      x y z
#    x 1.780660 -0.003340 0.018490 
#    y -0.003340 1.810710 -0.008630 
#    z 0.018490 -0.008630 1.745640 
# 
# From -- ./inp_files/507281.got.cif
#   From: 2010.06.25/outbox.cif.g09.slc.cpg/sg2_254_cif.got.tgz:507281.got - 2010.06.27 13:26:56.
