data_PCOD8042417
_publ_section_title
;
Structure prediction by ZEFSAII (Michael W. Deem and Ramdas Pophale) SiO2 
 PCOD8042417
Probable space group: P -1
;
_chemical_formula_sum "Si O2"
_cell_formula_units_Z 14
_cell_length_a 8.034498
_cell_length_b 9.370746
_cell_length_c 12.593819
_cell_angle_alpha 50.888431
_cell_angle_beta 56.793872
_cell_angle_gamma 56.943792
_cell_volume 585.639754
_symmetry_space_group_name_H-M "P -1"
_symmetry_group_IT_number 2
_symmetry_cell_setting 'triclinic'
loop_
_space_group_symop_operation_xyz
x,y,z
-x,-y,-z
loop_
_atom_site_type_symbol
_atom_site_label
_atom_site_fract_x
_atom_site_fract_y
_atom_site_fract_z
Si Si1 0.687772 0.159869 0.921580
Si Si2 0.371203 0.556242 0.901766
Si Si3 0.111836 0.591043 0.175410
Si Si4 0.641928 0.145023 0.506394
Si Si5 0.651362 0.984810 0.800461
Si Si6 0.657191 0.740266 0.617903
Si Si7 0.058772 0.642226 0.793026
O O1 0.524633 0.374397 0.870534
O O2 0.903096 0.190196 0.883099
O O3 0.742994 0.070709 0.827825
O O4 0.580532 0.029306 0.089127
O O5 0.455743 0.738804 0.761950
O O6 0.145438 0.594360 0.904232
O O7 0.326910 0.535482 0.052624
O O8 0.148519 0.447280 0.331794
O O9 0.928908 0.558189 0.181690
O O10 0.415262 0.258831 0.480469
O O11 0.812457 0.248601 0.371350
O O12 0.622701 0.135807 0.643873
O O13 0.722410 0.929450 0.531146
O O14 0.814428 0.773349 0.817598
#
# Coordination Sequence:
#
# PCOD8042417 Si02
#       7
#     2   2   2   2   2   2   2
#     4  10  22  37  60  80 114 142 193 220 291 314
#     4  10  19  36  59  85 107 148 188 234 261 335
#     4  11  19  35  58  83 108 147 187 234 260 334
#     4  10  19  35  55  84 113 146 185 229 264 338
#     4  11  21  37  58  85 112 147 176 244 270 328
#     4   9  18  31  57  82 104 141 197 218 263 317
#     4  11  22  33  62  84 112 143 190 221 285 319
#
# _framework density 23.905484000000001
#
# number of rings (size 3 to 8) (size 9 to 14) (size 15 to 20)
#    0.000    1.714    2.857    3.429    0.000    0.000 
#    0.000    7.857    9.429    0.000    0.000    0.000 
#    0.000    0.000    0.000    0.000    0.000    0.000 
#
# Total GULP energy -173468.056349 kJ/mol
# GULP energy per Si atom -12390.575453 kJ/mol
# Density = 2.385107 g / cm^3
# Si number density = 23.905484 Si / 1000 Ang^3
#
#
#
# Elastic Constant Matrix: (Units=GPa)
#
#
# Indices 1 2 3 4 5 6 
#
# 1 75.9581 23.7125 24.2421 -0.7248 2.7972 37.5964
# 2 23.7125 65.2940 29.3063 -4.3828 -2.4963 40.0979
# 3 24.2421 29.3063 81.0930 5.1801 20.1267 19.8610
# 4 -0.7248 -4.3828 5.1801 24.9832 10.3387 -2.0316
# 5 2.7972 -2.4963 20.1267 10.3387 42.9870 -14.2517
# 6 37.5964 40.0979 19.8610 -2.0316 -14.2517 49.4355
#
#
#
# Elastic Compliance Matrix: (Units=1/GPa)
#
#
# Indices 1 2 3 4 5 6 
#
# 1 0.026040 0.009583 -0.001217 0.005127 -0.011844 -0.030293
# 2 0.009583 0.038433 -0.004856 0.009577 -0.011495 -0.039431
# 3 -0.001217 -0.004856 0.018499 -0.000821 -0.010536 -0.005639
# 4 0.005127 0.009577 -0.000821 0.047250 -0.015338 -0.013818
# 5 -0.011844 -0.011495 -0.010536 -0.015338 0.043409 0.034448
# 6 -0.030293 -0.039431 -0.005639 -0.013818 0.034448 0.086878
#
#
# Mechanical properties :
#
#
# Convention : Reuss Voigt Hill
#
# Bulk Modulus (GPa) = 11.11185 41.87412 26.49298
# Shear Modulus (GPa) = 17.63762 33.15343 25.39552
#
# Velocity S-wave (km/s) = 2.71921 3.72809 3.26288
# Velocity P-wave (km/s) = 3.81013 6.00717 5.03007
#
# Compressibility (1/GPa) = 0.08999403
#
# Stress axis : x y z
#
# Youngs Moduli (GPa) = 38.40176 26.01923 54.05806
#
# Poissons Ratio (x) = -0.24935 0.06577
# Poissons Ratio (y) = -0.36802 0.26250
# Poissons Ratio (z) = 0.04672 0.12635
#
# Static dielectric constant tensor:
#      x y z
#    x 4.564030 0.569850 0.048370 
#    y 0.569850 3.931120 -0.346680 
#    z 0.048370 -0.346680 4.379470 
# 
# 
# High freq. dielectric constant tensor:
#      x y z
#    x 1.959380 0.046860 0.008000 
#    y 0.046860 1.900780 -0.029170 
#    z 0.008000 -0.029170 1.954400 
# 
# From -- ./inp_files/186995.got.cif
#   From: 2010.06.25/outbox.cif.g09.slc.cpg/sg2_94_cif.got.tgz:186995.got - 2010.06.27 13:26:56.
