data_PCOD8042400
_publ_section_title
;
Structure prediction by ZEFSAII (Michael W. Deem and Ramdas Pophale) SiO2 
 PCOD8042400
Probable space group: P -1
;
_chemical_formula_sum "Si O2"
_cell_formula_units_Z 14
_cell_length_a 19.201719
_cell_length_b 12.875697
_cell_length_c 16.165242
_cell_angle_alpha 26.449883
_cell_angle_beta 151.025741
_cell_angle_gamma 152.046744
_cell_volume 763.989565
_symmetry_space_group_name_H-M "P -1"
_symmetry_group_IT_number 2
_symmetry_cell_setting 'triclinic'
loop_
_space_group_symop_operation_xyz
x,y,z
-x,-y,-z
loop_
_atom_site_type_symbol
_atom_site_label
_atom_site_fract_x
_atom_site_fract_y
_atom_site_fract_z
Si Si1 0.277523 0.790529 0.999729
Si Si2 0.576009 0.686055 0.636518
Si Si3 0.442890 0.100076 0.207537
Si Si4 0.830181 0.793461 0.696285
Si Si5 0.506433 0.551371 0.841179
Si Si6 0.193465 0.076093 0.850775
Si Si7 0.610346 0.829493 0.298084
O O1 0.159776 0.479343 0.097397
O O2 0.202376 0.916804 0.894382
O O3 0.461027 0.851012 0.172696
O O4 0.282733 0.906897 0.830639
O O5 0.752384 0.827559 0.676297
O O6 0.602652 0.626464 0.801360
O O7 0.461061 0.418121 0.661067
O O8 0.496708 0.877972 0.413220
O O9 0.453109 0.185277 0.253083
O O10 0.257675 0.983313 0.064688
O O11 0.556053 0.358459 0.084312
O O12 0.721148 0.793850 0.506543
O O13 0.011398 0.029806 0.708262
O O14 0.311563 0.388781 0.735732
#
# Coordination Sequence:
#
# PCOD8042400 Si02
#       7
#     2   2   2   2   2   2   2
#     4  10  19  35  55  74 110 145 178 201 254 321
#     4  11  19  35  58  78 102 140 179 215 254 313
#     4   9  19  37  62  74  99 139 183 216 257 312
#     4  11  23  32  51  85 112 134 172 217 264 304
#     4   9  20  37  60  76  98 139 187 211 256 319
#     4  10  19  38  52  78 112 135 170 223 262 303
#     4  10  20  34  54  81 105 143 179 207 249 322
#
# _framework density 18.324857000000002
#
# number of rings (size 3 to 8) (size 9 to 14) (size 15 to 20)
#    0.857    1.143    1.429    4.286    0.000    0.571 
#    2.571    1.429    0.000    0.000    0.000    0.000 
#    0.000    0.000    0.000    0.000    0.000    0.000 
#
# Total GULP energy -173527.694049 kJ/mol
# GULP energy per Si atom -12394.835289 kJ/mol
# Density = 1.828315 g / cm^3
# Si number density = 18.324857 Si / 1000 Ang^3
#
#
#
# Elastic Constant Matrix: (Units=GPa)
#
#
# Indices 1 2 3 4 5 6 
#
# 1 110.2383 34.5276 38.2559 21.0941 -11.3453 -1.0491
# 2 34.5276 28.2589 4.4963 5.4053 0.3907 7.7445
# 3 38.2559 4.4963 61.1927 -5.2495 -5.5288 1.4190
# 4 21.0941 5.4053 -5.2495 17.4746 2.0281 -0.9809
# 5 -11.3453 0.3907 -5.5288 2.0281 22.0844 0.1161
# 6 -1.0491 7.7445 1.4190 -0.9809 0.1161 19.0214
#
#
#
# Elastic Compliance Matrix: (Units=1/GPa)
#
#
# Indices 1 2 3 4 5 6 
#
# 1 0.046200 -0.048541 -0.028162 -0.050560 0.022072 0.021670
# 2 -0.048541 0.095177 0.025380 0.037186 -0.023465 -0.041261
# 3 -0.028162 0.025380 0.034681 0.036971 -0.009564 -0.012509
# 4 -0.050560 0.037186 0.036971 0.120350 -0.028353 -0.014307
# 5 0.022072 -0.023465 -0.009564 -0.028353 0.057194 0.009673
# 6 0.021670 -0.041261 -0.012509 -0.014307 0.009673 0.070703
#
#
# Mechanical properties :
#
#
# Convention : Reuss Voigt Hill
#
# Bulk Modulus (GPa) = 13.62186 39.36103 26.49145
# Shear Modulus (GPa) = 9.06750 19.87674 14.47212
#
# Velocity S-wave (km/s) = 2.22687 3.29703 2.81330
# Velocity P-wave (km/s) = 3.74988 6.00168 5.00408
#
# Compressibility (1/GPa) = 0.07341140
#
# Stress axis : x y z
#
# Youngs Moduli (GPa) = 21.64502 10.50678 28.83460
#
# Poissons Ratio (x) = 0.51001 0.81204
# Poissons Ratio (y) = 1.05066 -0.73181
# Poissons Ratio (z) = 0.60957 -0.26666
#
# Static dielectric constant tensor:
#      x y z
#    x 3.452310 -0.041440 -0.108590 
#    y -0.041440 3.230500 -0.181510 
#    z -0.108590 -0.181510 3.291660 
# 
# 
# High freq. dielectric constant tensor:
#      x y z
#    x 1.713230 -0.009290 -0.011620 
#    y -0.009290 1.686050 -0.017550 
#    z -0.011620 -0.017550 1.700930 
# 
# From -- ./inp_files/201769.got.cif
#   From: 2010.06.25/outbox.cif.g09.slc.cpg/sg2_101_cif.got.tgz:201769.got - 2010.06.27 13:26:56.
