data_PCOD8042464
_publ_section_title
;
Structure prediction by ZEFSAII (Michael W. Deem and Ramdas Pophale) SiO2 
 PCOD8042464
Probable space group: P -1
;
_chemical_formula_sum "Si O2"
_cell_formula_units_Z 16
_cell_length_a 15.663100
_cell_length_b 10.597827
_cell_length_c 14.461271
_cell_angle_alpha 124.889259
_cell_angle_beta 28.553818
_cell_angle_gamma 138.036543
_cell_volume 742.081052
_symmetry_space_group_name_H-M "P -1"
_symmetry_group_IT_number 2
_symmetry_cell_setting 'triclinic'
loop_
_space_group_symop_operation_xyz
x,y,z
-x,-y,-z
loop_
_atom_site_type_symbol
_atom_site_label
_atom_site_fract_x
_atom_site_fract_y
_atom_site_fract_z
Si Si1 0.172784 0.576454 0.655897
Si Si2 0.030374 0.251485 0.510352
Si Si3 0.235459 0.460438 0.012161
Si Si4 0.323737 0.157540 0.748771
Si Si5 0.259981 0.368450 0.624388
Si Si6 0.237129 0.361117 0.169403
Si Si7 0.027703 0.965968 0.112771
Si Si8 0.316637 0.177464 0.319750
O O1 0.420432 0.767726 0.470179
O O2 0.200821 0.502720 0.694849
O O3 0.055298 0.406883 0.620117
O O4 0.003854 0.631575 0.849417
O O5 0.091777 0.344342 0.388016
O O6 0.200064 0.202406 0.354681
O O7 0.775776 0.045929 0.673841
O O8 0.197937 0.447625 0.153214
O O9 0.327584 0.342886 0.843987
O O10 0.416079 0.683537 0.899168
O O11 0.181294 0.053897 0.746947
O O12 0.204083 0.003593 0.882088
O O13 0.500000 0.500000 0.500000
O O14 0.065194 0.230125 0.826422
O O15 0.262021 0.237835 0.491083
O O16 0.500000 0.500000 0.000000
O O17 0.153560 0.144287 0.138454
#
# Coordination Sequence:
#
# PCOD8042464 Si02
#       8
#     2   2   2   2   2   2   2   2
#     4  11  23  38  62  89 123 160 196 248 306 351
#     4  10  19  35  56  86 118 162 197 247 292 346
#     4  11  22  39  61  90 122 161 197 246 305 354
#     4  10  20  42  61  86 122 153 200 250 302 354
#     4  11  19  37  65  87 115 159 204 245 297 357
#     4  11  20  36  63  90 118 159 205 241 296 359
#     4  10  20  36  67  89 112 163 204 242 302 356
#     4  10  19  35  57  85 123 152 203 247 293 351
#
# _framework density 21.560987000000001
#
# number of rings (size 3 to 8) (size 9 to 14) (size 15 to 20)
#    0.000    1.500    6.250    0.750    0.000    1.000 
#    0.000    9.375    0.000    0.000    0.000    0.000 
#    0.000    0.000    0.000    0.000    0.000    0.000 
#
# Total GULP energy -198396.332095 kJ/mol
# GULP energy per Si atom -12399.770756 kJ/mol
# Density = 2.151191 g / cm^3
# Si number density = 21.560987 Si / 1000 Ang^3
#
#
#
# Elastic Constant Matrix: (Units=GPa)
#
#
# Indices 1 2 3 4 5 6 
#
# 1 110.5365 17.3339 41.9280 -16.6984 7.6266 -2.4581
# 2 17.3339 48.9139 23.6248 -32.0546 3.3022 8.0793
# 3 41.9280 23.6248 128.8275 -43.3442 -2.2204 -16.8159
# 4 -16.6984 -32.0546 -43.3442 37.1683 -4.1673 3.2744
# 5 7.6266 3.3022 -2.2204 -4.1673 41.8465 -9.6606
# 6 -2.4581 8.0793 -16.8159 3.2744 -9.6606 32.2852
#
#
#
# Elastic Compliance Matrix: (Units=1/GPa)
#
#
# Indices 1 2 3 4 5 6 
#
# 1 0.010839 -0.003813 -0.004119 -0.003428 -0.002405 -0.000738
# 2 -0.003813 0.062681 0.008920 0.064179 -0.001617 -0.018323
# 3 -0.004119 0.008920 0.016770 0.025478 0.004626 0.004989
# 4 -0.003428 0.064179 0.025478 0.112134 0.005102 -0.012897
# 5 -0.002405 -0.001617 0.004626 0.005102 0.027611 0.010375
# 6 -0.000738 -0.018323 0.004989 -0.012897 0.010375 0.042514
#
#
# Mechanical properties :
#
#
# Convention : Reuss Voigt Hill
#
# Bulk Modulus (GPa) = 10.83836 50.45014 30.64425
# Shear Modulus (GPa) = 16.59309 35.95274 26.27291
#
# Velocity S-wave (km/s) = 2.77716 4.08792 3.49455
# Velocity P-wave (km/s) = 3.91423 6.76248 5.52505
#
# Compressibility (1/GPa) = 0.09226492
#
# Stress axis : x y z
#
# Youngs Moduli (GPa) = 92.25917 15.95382 59.62897
#
# Poissons Ratio (x) = 0.06084 0.24563
# Poissons Ratio (y) = 0.35183 -0.53190
# Poissons Ratio (z) = 0.38005 -0.14231
#
# Static dielectric constant tensor:
#      x y z
#    x 4.156060 0.102560 0.215170 
#    y 0.102560 3.827120 -0.484030 
#    z 0.215170 -0.484030 3.806440 
# 
# 
# High freq. dielectric constant tensor:
#      x y z
#    x 1.848480 0.015870 0.016850 
#    y 0.015870 1.835520 -0.041350 
#    z 0.016850 -0.041350 1.834590 
# 
# From -- ./inp_files/354442.got.cif
#   From: 2010.06.25/outbox.cif.g09.slc.cpg/sg2_178_cif.got.tgz:354442.got - 2010.06.27 13:26:56.
