data_PCOD8042788
_publ_section_title
;
Structure prediction by ZEFSAII (Michael W. Deem and Ramdas Pophale) SiO2 
 PCOD8042788
Probable space group: P -1
;
_chemical_formula_sum "Si O2"
_cell_formula_units_Z 12
_cell_length_a 14.844257
_cell_length_b 9.596998
_cell_length_c 9.473404
_cell_angle_alpha 135.761920
_cell_angle_beta 137.336026
_cell_angle_gamma 41.504037
_cell_volume 563.299557
_symmetry_space_group_name_H-M "P -1"
_symmetry_group_IT_number 2
_symmetry_cell_setting 'triclinic'
loop_
_space_group_symop_operation_xyz
x,y,z
-x,-y,-z
loop_
_atom_site_type_symbol
_atom_site_label
_atom_site_fract_x
_atom_site_fract_y
_atom_site_fract_z
Si Si1 0.163246 0.239852 0.241395
Si Si2 0.301136 0.835082 0.328194
Si Si3 0.050219 0.850915 0.242236
Si Si4 0.168786 0.682457 0.556856
Si Si5 0.463939 0.028219 0.310388
Si Si6 0.502993 0.409620 0.090720
O O1 0.157101 0.470780 0.461638
O O2 0.209626 0.050739 0.278482
O O3 0.283059 0.162932 0.193086
O O4 0.003952 0.283905 0.025038
O O5 0.199371 0.849705 0.353522
O O6 0.358002 0.594309 0.141425
O O7 0.452261 0.838773 0.561610
O O8 0.083931 0.731809 0.345594
O O9 0.915733 0.107514 0.282708
O O10 0.339005 0.635807 0.690742
O O11 0.500000 0.000000 0.500000
O O12 0.518905 0.810317 0.115675
O O13 0.500000 0.500000 0.000000
#
# Coordination Sequence:
#
# PCOD8042788 Si02
#       6
#     2   2   2   2   2   2
#     4  11  20  40  66  90 119 167 206 250 301 370
#     4  11  23  38  65  98 122 150 215 264 294 350
#     4  11  25  42  59  93 129 164 202 253 306 364
#     4  11  24  41  65  85 128 172 201 240 318 374
#     4  10  19  35  61  92 118 153 201 249 303 358
#     4  12  19  38  66  91 120 162 204 251 307 363
#
# _framework density 21.303052999999998
#
# number of rings (size 3 to 8) (size 9 to 14) (size 15 to 20)
#    0.000    1.000    6.667    2.000    0.000    2.667 
#    0.000    0.833    0.000    0.000    0.000    0.000 
#    0.000    0.000    0.000    0.000    0.000    0.000 
#
# Total GULP energy -148753.599161 kJ/mol
# GULP energy per Si atom -12396.133263 kJ/mol
# Density = 2.125457 g / cm^3
# Si number density = 21.303053 Si / 1000 Ang^3
#
#
#
# Elastic Constant Matrix: (Units=GPa)
#
#
# Indices 1 2 3 4 5 6 
#
# 1 93.3222 9.3103 6.2757 6.7470 13.9044 -10.5928
# 2 9.3103 80.4638 22.7340 20.7005 -5.2951 -11.4164
# 3 6.2757 22.7340 86.0102 18.8710 15.2573 5.4769
# 4 6.7470 20.7005 18.8710 35.3296 -1.8231 4.7258
# 5 13.9044 -5.2951 15.2573 -1.8231 28.3202 3.1108
# 6 -10.5928 -11.4164 5.4769 4.7258 3.1108 17.4864
#
#
#
# Elastic Compliance Matrix: (Units=1/GPa)
#
#
# Indices 1 2 3 4 5 6 
#
# 1 0.013546 0.000618 0.000819 -0.005343 -0.008563 0.011320
# 2 0.000618 0.018910 -0.004208 -0.011001 0.002980 0.016481
# 3 0.000819 -0.004208 0.016034 -0.006248 -0.009807 -0.003840
# 4 -0.005343 -0.011001 -0.006248 0.042456 0.009031 -0.021543
# 5 -0.008563 0.002980 -0.009807 0.009031 0.047145 -0.010998
# 6 0.011320 0.016481 -0.003840 -0.021543 -0.010998 0.083787
#
#
# Mechanical properties :
#
#
# Convention : Reuss Voigt Hill
#
# Bulk Modulus (GPa) = 23.28373 37.38178 30.33276
# Shear Modulus (GPa) = 20.68379 30.99234 25.83806
#
# Velocity S-wave (km/s) = 3.11936 3.81836 3.48642
# Velocity P-wave (km/s) = 4.89156 6.08486 5.52055
#
# Compressibility (1/GPa) = 0.04294844
#
# Stress axis : x y z
#
# Youngs Moduli (GPa) = 73.82281 52.88197 62.36753
#
# Poissons Ratio (x) = -0.03271 -0.05105
# Poissons Ratio (y) = -0.04566 0.26243
# Poissons Ratio (z) = -0.06043 0.22252
#
# Static dielectric constant tensor:
#      x y z
#    x 3.571790 0.113010 0.259310 
#    y 0.113010 3.074860 0.172260 
#    z 0.259310 0.172260 3.676420 
# 
# 
# High freq. dielectric constant tensor:
#      x y z
#    x 1.810340 -0.017370 0.023340 
#    y -0.017370 1.833750 0.011890 
#    z 0.023340 0.011890 1.840140 
# 
# From -- ./inp_files/296996.got.cif
#   From: 2010.06.25/outbox.cif.g09.slc.cpg/sg2_149_cif.got.tgz:296996.got - 2010.06.27 13:26:56.
