data_PCOD8042831
_publ_section_title
;
Structure prediction by ZEFSAII (Michael W. Deem and Ramdas Pophale) SiO2 
 PCOD8042831
Probable space group: P -1
;
_chemical_formula_sum "Si O2"
_cell_formula_units_Z 16
_cell_length_a 5.109881
_cell_length_b 18.446345
_cell_length_c 9.334846
_cell_angle_alpha 111.300722
_cell_angle_beta 77.219825
_cell_angle_gamma 101.040560
_cell_volume 793.468190
_symmetry_space_group_name_H-M "P -1"
_symmetry_group_IT_number 2
_symmetry_cell_setting 'triclinic'
loop_
_space_group_symop_operation_xyz
x,y,z
-x,-y,-z
loop_
_atom_site_type_symbol
_atom_site_label
_atom_site_fract_x
_atom_site_fract_y
_atom_site_fract_z
Si Si1 0.491550 0.817849 0.040677
Si Si2 0.917534 0.622947 0.825386
Si Si3 0.703422 0.990403 0.094602
Si Si4 0.561877 0.075553 0.447764
Si Si5 0.085753 0.179088 0.529732
Si Si6 0.736266 0.730977 0.708068
Si Si7 0.456184 0.571311 0.657065
Si Si8 0.093366 0.252328 0.872804
O O1 0.559928 0.789695 0.853304
O O2 0.618250 0.906563 0.116410
O O3 0.628658 0.767986 0.106450
O O4 0.167795 0.806974 0.088684
O O5 0.954052 0.699680 0.769502
O O6 0.634149 0.570827 0.781647
O O7 0.145001 0.565935 0.735653
O O8 0.933575 0.657950 0.010357
O O9 0.686344 0.055027 0.265328
O O10 0.500000 0.000000 0.000000
O O11 0.000000 0.000000 0.000000
O O12 0.292252 0.115522 0.481897
O O13 0.782968 0.135280 0.545479
O O14 0.500000 0.000000 0.500000
O O15 0.115696 0.222979 0.407054
O O16 0.123385 0.246469 0.694434
O O17 0.541269 0.653641 0.622080
O O18 0.500000 0.500000 0.500000
#
# Coordination Sequence:
#
# PCOD8042831 Si02
#       8
#     2   2   2   2   2   2   2   2
#     4  11  21  38  58  78 110 150 196 239 282 348
#     4   9  19  35  58  86 116 148 193 230 273 352
#     4  12  24  39  58  82 109 149 194 248 298 341
#     4  12  26  43  56  83 119 157 200 242 302 351
#     4  12  25  38  62  84 118 155 194 253 290 334
#     4   9  22  35  60  88 116 144 198 237 288 333
#     4  10  19  35  62  91 119 147 184 232 285 344
#     4  11  20  38  57  83 108 153 193 233 278 341
#
# _framework density 20.164641
#
# number of rings (size 3 to 8) (size 9 to 14) (size 15 to 20)
#    0.750    0.500    1.250    6.000    1.750    1.000 
#    0.000    0.000    0.000    1.500    0.000    0.000 
#    0.000    0.000    0.000    0.000    0.000    0.000 
#
# Total GULP energy -198341.425990 kJ/mol
# GULP energy per Si atom -12396.339124 kJ/mol
# Density = 2.011875 g / cm^3
# Si number density = 20.164641 Si / 1000 Ang^3
#
#
#
# Elastic Constant Matrix: (Units=GPa)
#
#
# Indices 1 2 3 4 5 6 
#
# 1 109.2666 4.8576 20.6344 3.0772 -5.3535 3.2922
# 2 4.8576 30.2459 14.3380 11.9215 4.7408 4.4586
# 3 20.6344 14.3380 128.6823 14.9084 11.0061 -5.5271
# 4 3.0772 11.9215 14.9084 37.3524 1.9590 -1.4340
# 5 -5.3535 4.7408 11.0061 1.9590 31.7711 6.6348
# 6 3.2922 4.4586 -5.5271 -1.4340 6.6348 25.4344
#
#
#
# Elastic Compliance Matrix: (Units=1/GPa)
#
#
# Indices 1 2 3 4 5 6 
#
# 1 0.009739 -0.000797 -0.001808 -0.000064 0.002863 -0.002264
# 2 -0.000797 0.040945 -0.003146 -0.011895 -0.002814 -0.007695
# 3 -0.001808 -0.003146 0.009125 -0.002162 -0.003612 0.003589
# 4 -0.000064 -0.011895 -0.002162 0.031577 -0.000153 0.003444
# 5 0.002863 -0.002814 -0.003612 -0.000153 0.035724 -0.009990
# 6 -0.002264 -0.007695 0.003589 0.003444 -0.009990 0.044539
#
#
# Mechanical properties :
#
#
# Convention : Reuss Voigt Hill
#
# Bulk Modulus (GPa) = 20.70064 38.65053 29.67559
# Shear Modulus (GPa) = 25.09361 34.13590 29.61476
#
# Velocity S-wave (km/s) = 3.53148 4.11890 3.83645
# Velocity P-wave (km/s) = 5.18812 6.46758 5.86286
#
# Compressibility (1/GPa) = 0.04830767
#
# Stress axis : x y z
#
# Youngs Moduli (GPa) = 102.68002 24.42271 109.58852
#
# Poissons Ratio (x) = 0.01947 0.19809
# Poissons Ratio (y) = 0.08185 0.34478
# Poissons Ratio (z) = 0.18560 0.07684
#
# Static dielectric constant tensor:
#      x y z
#    x 3.762980 -0.046750 -0.119230 
#    y -0.046750 3.428380 0.483890 
#    z -0.119230 0.483890 4.198760 
# 
# 
# High freq. dielectric constant tensor:
#      x y z
#    x 1.801320 0.006840 -0.000470 
#    y 0.006840 1.745420 0.024350 
#    z -0.000470 0.024350 1.796360 
# 
# From -- ./inp_files/140617.got.cif
#   From: 2010.06.25/outbox.cif.g09.slc.cpg/sg2_71_cif.got.tgz:140617.got - 2010.06.27 13:26:56.
