data_PCOD8042326
_publ_section_title
;
Structure prediction by ZEFSAII (Michael W. Deem and Ramdas Pophale) SiO2 
 PCOD8042326
Probable space group: P -1
;
_chemical_formula_sum "Si O2"
_cell_formula_units_Z 14
_cell_length_a 9.542793
_cell_length_b 22.680354
_cell_length_c 9.170038
_cell_angle_alpha 133.768341
_cell_angle_beta 30.927915
_cell_angle_gamma 131.437081
_cell_volume 724.007303
_symmetry_space_group_name_H-M "P -1"
_symmetry_group_IT_number 2
_symmetry_cell_setting 'triclinic'
loop_
_space_group_symop_operation_xyz
x,y,z
-x,-y,-z
loop_
_atom_site_type_symbol
_atom_site_label
_atom_site_fract_x
_atom_site_fract_y
_atom_site_fract_z
Si Si1 0.945590 0.750884 0.066222
Si Si2 0.566062 0.317281 0.132687
Si Si3 0.342182 0.362823 0.112560
Si Si4 0.411512 0.833885 0.965203
Si Si5 0.924187 0.910843 0.486353
Si Si6 0.102464 0.533390 0.306524
Si Si7 0.835142 0.625517 0.202733
O O1 0.840534 0.839386 0.314014
O O2 0.800529 0.692558 0.225954
O O3 0.873952 0.705990 0.900403
O O4 0.277936 0.771519 0.843849
O O5 0.467278 0.318834 0.058090
O O6 0.490706 0.221463 0.088943
O O7 0.427521 0.379253 0.464209
O O8 0.894727 0.346918 0.892195
O O9 0.150729 0.424930 0.453817
O O10 0.596642 0.405222 0.852533
O O11 0.663598 0.905742 0.815926
O O12 0.176960 0.886332 0.314112
O O13 0.000000 0.000000 0.500000
O O14 0.000000 0.500000 0.500000
O O15 0.151670 0.462361 0.030785
#
# Coordination Sequence:
#
# PCOD8042326 Si02
#       7
#     2   2   2   2   2   2   2
#     4   9  22  35  62  84 114 154 190 238 287 348
#     4  11  22  40  59  86 115 160 195 241 288 356
#     4  12  26  38  60  88 117 155 204 241 296 339
#     4   9  19  36  59  85 114 152 181 238 286 341
#     4  10  19  34  63  93 110 143 196 238 277 345
#     4  12  26  39  59  86 116 156 202 258 285 333
#     4  11  22  40  61  77 119 159 200 233 301 336
#
# _framework density 19.336822000000002
#
# number of rings (size 3 to 8) (size 9 to 14) (size 15 to 20)
#    0.857    0.571    2.857    2.571    4.000    3.429 
#    0.000    0.000    0.000    1.714    0.000    0.000 
#    0.000    0.000    0.000    0.000    0.000    0.000 
#
# Total GULP energy -173458.748911 kJ/mol
# GULP energy per Si atom -12389.910636 kJ/mol
# Density = 1.929281 g / cm^3
# Si number density = 19.336822 Si / 1000 Ang^3
#
#
#
# Elastic Constant Matrix: (Units=GPa)
#
#
# Indices 1 2 3 4 5 6 
#
# 1 101.9398 39.5710 16.1552 7.0045 -4.0606 -9.9816
# 2 39.5710 102.6182 26.2834 -1.0112 -5.2986 -11.7370
# 3 16.1552 26.2834 87.9805 -8.0393 -12.4967 -4.8078
# 4 7.0045 -1.0112 -8.0393 32.0691 0.1937 -4.6242
# 5 -4.0606 -5.2986 -12.4967 0.1937 25.3325 0.2433
# 6 -9.9816 -11.7370 -4.8078 -4.6242 0.2433 16.5882
#
#
#
# Elastic Compliance Matrix: (Units=1/GPa)
#
#
# Indices 1 2 3 4 5 6 
#
# 1 0.012048 -0.003998 -0.000975 -0.002511 0.000601 0.003430
# 2 -0.003998 0.012690 -0.002469 0.001556 0.000723 0.006281
# 3 -0.000975 -0.002469 0.013633 0.003894 0.005998 0.002616
# 4 -0.002511 0.001556 0.003894 0.034223 0.001484 0.010237
# 5 0.000601 0.000723 0.005998 0.001484 0.042647 0.002400
# 6 0.003430 0.006281 0.002616 0.010237 0.002400 0.070368
#
#
# Mechanical properties :
#
#
# Convention : Reuss Voigt Hill
#
# Bulk Modulus (GPa) = 42.57344 50.72863 46.65104
# Shear Modulus (GPa) = 24.00124 28.83319 26.41722
#
# Velocity S-wave (km/s) = 3.52692 3.86567 3.70017
# Velocity P-wave (km/s) = 6.21692 6.79821 6.51405
#
# Compressibility (1/GPa) = 0.02348882
#
# Stress axis : x y z
#
# Youngs Moduli (GPa) = 82.99886 78.80323 73.34964
#
# Poissons Ratio (x) = 0.31504 0.07150
# Poissons Ratio (y) = 0.33181 0.18108
# Poissons Ratio (z) = 0.08090 0.19455
#
# Static dielectric constant tensor:
#      x y z
#    x 3.306900 -0.049780 -0.294700 
#    y -0.049780 3.477510 -0.117600 
#    z -0.294700 -0.117600 3.631320 
# 
# 
# High freq. dielectric constant tensor:
#      x y z
#    x 1.726200 -0.010750 -0.027680 
#    y -0.010750 1.740800 -0.011220 
#    z -0.027680 -0.011220 1.760080 
# 
# From -- ./inp_files/226408.got.cif
#   From: 2010.06.25/outbox.cif.g09.slc.cpg/sg2_114_cif.got.tgz:226408.got - 2010.06.27 13:26:56.
