data_PCOD8042159
_publ_section_title
;
Structure prediction by ZEFSAII (Michael W. Deem and Ramdas Pophale) SiO2 
 PCOD8042159
Probable space group: P -1
;
_chemical_formula_sum "Si O2"
_cell_formula_units_Z 16
_cell_length_a 8.228193
_cell_length_b 10.068502
_cell_length_c 14.111576
_cell_angle_alpha 117.365467
_cell_angle_beta 54.280005
_cell_angle_gamma 132.870349
_cell_volume 691.786483
_symmetry_space_group_name_H-M "P -1"
_symmetry_group_IT_number 2
_symmetry_cell_setting 'triclinic'
loop_
_space_group_symop_operation_xyz
x,y,z
-x,-y,-z
loop_
_atom_site_type_symbol
_atom_site_label
_atom_site_fract_x
_atom_site_fract_y
_atom_site_fract_z
Si Si1 0.651484 0.236827 0.551075
Si Si2 0.299368 0.340237 0.773498
Si Si3 0.920522 0.986644 0.129122
Si Si4 0.009293 0.309465 0.693158
Si Si5 0.513171 0.981080 0.674374
Si Si6 0.984894 0.437117 0.346699
Si Si7 0.776180 0.811059 0.557115
Si Si8 0.273442 0.280521 0.238847
O O1 0.459069 0.288711 0.642768
O O2 0.558826 0.041730 0.566590
O O3 0.732444 0.259702 0.419449
O O4 0.906469 0.382609 0.565713
O O5 0.220046 0.224074 0.859256
O O6 0.064124 0.282577 0.772445
O O7 0.437171 0.559430 0.813977
O O8 0.747119 0.060186 0.218621
O O9 0.162971 0.104109 0.151477
O O10 0.000000 0.000000 0.000000
O O11 0.047175 0.504343 0.727702
O O12 0.219450 0.333270 0.557737
O O13 0.728043 0.147595 0.717770
O O14 0.533575 0.810332 0.629659
O O15 0.179378 0.391495 0.259409
O O16 0.816290 0.784694 0.644791
O O17 0.000000 0.000000 0.500000
#
# Coordination Sequence:
#
# PCOD8042159 Si02
#       8
#     2   2   2   2   2   2   2   2
#     4   8  15  29  50  80 121 164 196 231 282 351
#     4  10  22  39  60  90 124 157 199 251 303 363
#     4  11  25  46  68  85 111 157 213 272 318 350
#     4  10  19  34  58  92 135 166 189 231 293 371
#     4   9  19  36  58  85 121 162 205 252 299 355
#     4   9  16  30  52  84 123 163 200 228 280 360
#     4  10  19  34  58  95 135 166 196 233 291 371
#     4  11  23  39  62  91 125 163 206 252 300 360
#
# _framework density 23.128526000000001
#
# number of rings (size 3 to 8) (size 9 to 14) (size 15 to 20)
#    0.000    2.250    0.000    6.000    0.000    4.500 
#    0.000    8.750    0.000    2.250    0.000    0.000 
#    0.000    0.000    0.000    0.000    0.000    0.000 
#
# Total GULP energy -198243.227859 kJ/mol
# GULP energy per Si atom -12390.201741 kJ/mol
# Density = 2.307588 g / cm^3
# Si number density = 23.128526 Si / 1000 Ang^3
#
#
#
# Elastic Constant Matrix: (Units=GPa)
#
#
# Indices 1 2 3 4 5 6 
#
# 1 123.2227 32.0634 31.0834 -7.6198 17.3470 -4.6137
# 2 32.0634 82.8010 17.9791 -12.4731 14.2148 1.2702
# 3 31.0834 17.9791 103.3351 -15.5989 17.2031 2.4631
# 4 -7.6198 -12.4731 -15.5989 21.6043 -3.7895 5.1944
# 5 17.3470 14.2148 17.2031 -3.7895 24.7881 1.0528
# 6 -4.6137 1.2702 2.4631 5.1944 1.0528 40.3370
#
#
#
# Elastic Compliance Matrix: (Units=1/GPa)
#
#
# Indices 1 2 3 4 5 6 
#
# 1 0.009945 -0.002836 -0.001938 -0.000626 -0.004149 0.001534
# 2 -0.002836 0.015238 0.000320 0.007407 -0.005774 -0.001627
# 3 -0.001938 0.000320 0.012467 0.007858 -0.006199 -0.001843
# 4 -0.000626 0.007407 0.007858 0.057992 -0.000047 -0.008251
# 5 -0.004149 -0.005774 -0.006199 -0.000047 0.050905 -0.001237
# 6 0.001534 -0.001627 -0.001843 -0.008251 -0.001237 0.026225
#
#
# Mechanical properties :
#
#
# Convention : Reuss Voigt Hill
#
# Bulk Modulus (GPa) = 34.79300 52.40119 43.59710
# Shear Modulus (GPa) = 26.14237 32.56140 29.35189
#
# Velocity S-wave (km/s) = 3.36565 3.75620 3.56628
# Velocity P-wave (km/s) = 5.49359 6.44343 5.98737
#
# Compressibility (1/GPa) = 0.02874141
#
# Stress axis : x y z
#
# Youngs Moduli (GPa) = 100.55244 65.62658 80.21226
#
# Poissons Ratio (x) = 0.18610 0.15548
# Poissons Ratio (y) = 0.28513 -0.02566
# Poissons Ratio (z) = 0.19491 -0.02100
#
# Static dielectric constant tensor:
#      x y z
#    x 4.697070 -0.002260 0.163900 
#    y -0.002260 4.776770 -0.042110 
#    z 0.163900 -0.042110 3.448020 
# 
# 
# High freq. dielectric constant tensor:
#      x y z
#    x 1.935120 0.003520 0.028660 
#    y 0.003520 1.945270 -0.011060 
#    z 0.028660 -0.011060 1.832410 
# 
# From -- ./inp_files/390664.got.cif
#   From: 2010.06.25/outbox.cif.g09.slc.cpg/sg2_196_cif.got.tgz:390664.got - 2010.06.27 13:26:56.
