data_PCOD8042301
_publ_section_title
;
Structure prediction by ZEFSAII (Michael W. Deem and Ramdas Pophale) SiO2 
 PCOD8042301
Probable space group: P -1
;
_chemical_formula_sum "Si O2"
_cell_formula_units_Z 14
_cell_length_a 12.990672
_cell_length_b 16.866703
_cell_length_c 10.425532
_cell_angle_alpha 147.682524
_cell_angle_beta 147.702007
_cell_angle_gamma 35.685769
_cell_volume 613.025630
_symmetry_space_group_name_H-M "P -1"
_symmetry_group_IT_number 2
_symmetry_cell_setting 'triclinic'
loop_
_space_group_symop_operation_xyz
x,y,z
-x,-y,-z
loop_
_atom_site_type_symbol
_atom_site_label
_atom_site_fract_x
_atom_site_fract_y
_atom_site_fract_z
Si Si1 0.296558 0.754585 0.160669
Si Si2 0.035014 0.254820 0.368234
Si Si3 0.794984 0.037514 0.414097
Si Si4 0.145733 0.411975 0.920364
Si Si5 0.461522 0.149677 0.025125
Si Si6 0.686531 0.838814 0.677912
Si Si7 0.923043 0.426364 0.185523
O O1 0.181566 0.895407 0.330433
O O2 0.527765 0.743687 0.364433
O O3 0.273580 0.595653 0.979604
O O4 0.167318 0.788774 0.936482
O O5 0.060579 0.281247 0.582280
O O6 0.235604 0.130029 0.340039
O O7 0.023338 0.417945 0.498840
O O8 0.730600 0.882759 0.153722
O O9 0.612991 0.167598 0.320346
O O10 0.000000 0.000000 0.500000
O O11 0.371992 0.314618 0.079627
O O12 0.152267 0.539619 0.996017
O O13 0.000000 0.500000 0.000000
O O14 0.581326 0.006945 0.862127
O O15 0.878437 0.734013 0.822932
#
# Coordination Sequence:
#
# PCOD8042301 Si02
#       7
#     2   2   2   2   2   2   2
#     4  10  19  34  62  93 109 151 205 247 288 339
#     4   9  21  38  60  88 121 156 191 248 299 343
#     4  10  21  35  63  88 119 151 204 248 282 351
#     4  10  24  41  60  82 128 166 186 240 309 359
#     4  10  23  40  60  89 118 162 196 239 304 345
#     4  10  19  37  66  89 113 151 209 249 281 350
#     4   9  21  38  59  87 120 157 190 246 298 342
#
# _framework density 22.837544999999999
#
# number of rings (size 3 to 8) (size 9 to 14) (size 15 to 20)
#    0.857    1.429    0.000    3.429    8.000    2.857 
#    0.000    6.429    0.000    0.000    0.000    0.000 
#    0.000    0.000    0.000    0.000    0.000    0.000 
#
# Total GULP energy -173448.872921 kJ/mol
# GULP energy per Si atom -12389.205209 kJ/mol
# Density = 2.278557 g / cm^3
# Si number density = 22.837545 Si / 1000 Ang^3
#
#
#
# Elastic Constant Matrix: (Units=GPa)
#
#
# Indices 1 2 3 4 5 6 
#
# 1 70.2047 26.1652 20.8117 -10.4058 -11.5567 -8.7690
# 2 26.1652 103.9412 11.4873 -12.1412 -4.6806 -3.6244
# 3 20.8117 11.4873 81.7768 -15.7823 -6.1476 0.8248
# 4 -10.4058 -12.1412 -15.7823 29.7284 -4.4375 -9.4263
# 5 -11.5567 -4.6806 -6.1476 -4.4375 40.3899 -1.1170
# 6 -8.7690 -3.6244 0.8248 -9.4263 -1.1170 20.4946
#
#
#
# Elastic Compliance Matrix: (Units=1/GPa)
#
#
# Indices 1 2 3 4 5 6 
#
# 1 0.020202 -0.002938 -0.002515 0.009626 0.006474 0.013006
# 2 -0.002938 0.011031 0.000139 0.004616 0.001045 0.002868
# 3 -0.002515 0.000139 0.014544 0.007944 0.002442 0.002150
# 4 0.009626 0.004616 0.007944 0.054389 0.011310 0.030247
# 5 0.006474 0.001045 0.002442 0.011310 0.028613 0.009618
# 6 0.013006 0.002868 0.002150 0.030247 0.009618 0.069215
#
#
# Mechanical properties :
#
#
# Convention : Reuss Voigt Hill
#
# Bulk Modulus (GPa) = 28.45114 41.42789 34.93952
# Shear Modulus (GPa) = 22.69236 31.28649 26.98943
#
# Velocity S-wave (km/s) = 3.15563 3.70531 3.44146
# Velocity P-wave (km/s) = 5.07567 6.04032 5.57888
#
# Compressibility (1/GPa) = 0.03514798
#
# Stress axis : x y z
#
# Youngs Moduli (GPa) = 49.50074 90.65085 68.75692
#
# Poissons Ratio (x) = 0.26633 0.17294
# Poissons Ratio (y) = 0.14543 -0.00953
# Poissons Ratio (z) = 0.12450 -0.01256
#
# Static dielectric constant tensor:
#      x y z
#    x 3.998500 0.002620 -0.135540 
#    y 0.002620 3.821310 -0.151760 
#    z -0.135540 -0.151760 4.259620 
# 
# 
# High freq. dielectric constant tensor:
#      x y z
#    x 1.890960 -0.008310 -0.019660 
#    y -0.008310 1.878800 -0.007900 
#    z -0.019660 -0.007900 1.907750 
# 
# From -- ./inp_files/457379.got.cif
#   From: 2010.06.25/outbox.cif.g09.slc.cpg/sg2_229_cif.got.tgz:457379.got - 2010.06.27 13:26:56.
