data_PCOD8042571
_publ_section_title
;
Structure prediction by ZEFSAII (Michael W. Deem and Ramdas Pophale) SiO2 
 PCOD8042571
Probable space group: P -1
;
_chemical_formula_sum "Si O2"
_cell_formula_units_Z 16
_cell_length_a 8.078269
_cell_length_b 15.494595
_cell_length_c 8.997161
_cell_angle_alpha 78.714578
_cell_angle_beta 57.532290
_cell_angle_gamma 50.476878
_cell_volume 714.246170
_symmetry_space_group_name_H-M "P -1"
_symmetry_group_IT_number 2
_symmetry_cell_setting 'triclinic'
loop_
_space_group_symop_operation_xyz
x,y,z
-x,-y,-z
loop_
_atom_site_type_symbol
_atom_site_label
_atom_site_fract_x
_atom_site_fract_y
_atom_site_fract_z
Si Si1 0.804463 0.608606 0.902719
Si Si2 0.961782 0.191596 0.353708
Si Si3 0.301788 0.563170 0.710557
Si Si4 0.490249 0.758711 0.269063
Si Si5 0.264292 0.313450 0.519130
Si Si6 0.307567 0.975051 0.100927
Si Si7 0.588704 0.832870 0.756155
Si Si8 0.711152 0.514174 0.714319
O O1 0.738626 0.709072 0.797979
O O2 0.747445 0.537338 0.858130
O O3 0.108156 0.534479 0.824194
O O4 0.626917 0.657807 0.116288
O O5 0.869168 0.299873 0.263689
O O6 0.754738 0.223352 0.562732
O O7 0.222325 0.137715 0.336312
O O8 0.026214 0.091933 0.242005
O O9 0.500000 0.500000 0.500000
O O10 0.465345 0.522319 0.800176
O O11 0.689790 0.716518 0.319906
O O12 0.405733 0.876177 0.205531
O O13 0.446674 0.189000 0.389193
O O14 0.330478 0.394637 0.415182
O O15 0.965762 0.384498 0.596770
O O16 0.322929 0.929019 0.940984
O O17 0.500000 0.000000 0.000000
#
# Coordination Sequence:
#
# PCOD8042571 Si02
#       8
#     2   2   2   2   2   2   2   2
#     4   9  21  36  57  84 122 156 198 241 294 351
#     4  10  19  35  60  88 113 154 200 240 296 355
#     4  11  20  37  64  88 114 166 204 233 293 364
#     4  11  21  37  59  89 119 149 195 253 298 343
#     4  10  19  35  58  87 118 151 197 245 293 347
#     4   9  19  38  63  81 114 158 194 243 302 358
#     4   8  17  36  59  81 113 153 193 241 294 352
#     4  10  19  37  58  85 121 165 196 236 293 356
#
# _framework density 22.401239
#
# number of rings (size 3 to 8) (size 9 to 14) (size 15 to 20)
#    0.000    2.250    1.250    4.125    0.000    0.500 
#    2.250    3.750    2.750    0.000    0.000    0.000 
#    0.000    0.000    0.000    0.000    0.000    0.000 
#
# Total GULP energy -198264.707389 kJ/mol
# GULP energy per Si atom -12391.544212 kJ/mol
# Density = 2.235025 g / cm^3
# Si number density = 22.401239 Si / 1000 Ang^3
#
#
#
# Elastic Constant Matrix: (Units=GPa)
#
#
# Indices 1 2 3 4 5 6 
#
# 1 115.1795 17.2647 54.7667 13.1799 15.1975 -7.4104
# 2 17.2647 76.6187 29.7470 17.2916 14.1854 8.1885
# 3 54.7667 29.7470 138.4836 36.3317 11.5797 2.3751
# 4 13.1799 17.2916 36.3317 38.1557 7.1559 2.0390
# 5 15.1975 14.1854 11.5797 7.1559 40.6745 5.2179
# 6 -7.4104 8.1885 2.3751 2.0390 5.2179 19.3714
#
#
#
# Elastic Compliance Matrix: (Units=1/GPa)
#
#
# Indices 1 2 3 4 5 6 
#
# 1 0.011773 -0.001150 -0.004492 0.001089 -0.003735 0.006432
# 2 -0.001150 0.016121 -0.001421 -0.004642 -0.003237 -0.005720
# 3 -0.004492 -0.001421 0.011610 -0.008888 0.000661 -0.001784
# 4 0.001089 -0.004642 -0.008888 0.036905 -0.002794 0.000337
# 5 -0.003735 -0.003237 0.000661 -0.002794 0.028374 -0.007490
# 6 0.006432 -0.005720 -0.001784 0.000337 -0.007490 0.058702
#
#
# Mechanical properties :
#
#
# Convention : Reuss Voigt Hill
#
# Bulk Modulus (GPa) = 39.40751 59.31539 49.36145
# Shear Modulus (GPa) = 26.87147 34.87389 30.87268
#
# Velocity S-wave (km/s) = 3.46721 3.94989 3.71640
# Velocity P-wave (km/s) = 5.80160 6.88028 6.36384
#
# Compressibility (1/GPa) = 0.02537587
#
# Stress axis : x y z
#
# Youngs Moduli (GPa) = 84.94244 62.03094 86.13222
#
# Poissons Ratio (x) = 0.07135 0.38694
# Poissons Ratio (y) = 0.09771 0.12241
# Poissons Ratio (z) = 0.38160 0.08816
#
# Static dielectric constant tensor:
#      x y z
#    x 4.116750 0.332570 0.172170 
#    y 0.332570 4.900460 0.240720 
#    z 0.172170 0.240720 4.354980 
# 
# 
# High freq. dielectric constant tensor:
#      x y z
#    x 1.865240 0.010780 0.006290 
#    y 0.010780 1.872470 0.021500 
#    z 0.006290 0.021500 1.886430 
# 
# From -- ./inp_files/214983.got.cif
#   From: 2010.06.25/outbox.cif.g09.slc.cpg/sg2_108_cif.got.tgz:214983.got - 2010.06.27 13:26:56.
