data_PCOD8042880
_publ_section_title
;
Structure prediction by ZEFSAII (Michael W. Deem and Ramdas Pophale) SiO2 
 PCOD8042880
Probable space group: P -1
;
_chemical_formula_sum "Si O2"
_cell_formula_units_Z 16
_cell_length_a 9.231752
_cell_length_b 9.760961
_cell_length_c 18.973789
_cell_angle_alpha 137.157850
_cell_angle_beta 41.493534
_cell_angle_gamma 121.316591
_cell_volume 768.611812
_symmetry_space_group_name_H-M "P -1"
_symmetry_group_IT_number 2
_symmetry_cell_setting 'triclinic'
loop_
_space_group_symop_operation_xyz
x,y,z
-x,-y,-z
loop_
_atom_site_type_symbol
_atom_site_label
_atom_site_fract_x
_atom_site_fract_y
_atom_site_fract_z
Si Si1 0.103497 0.296085 0.084563
Si Si2 0.574076 0.289013 0.424764
Si Si3 0.353874 0.895429 0.812951
Si Si4 0.062417 0.273724 0.246305
Si Si5 0.574126 0.625453 0.738191
Si Si6 0.033285 0.604193 0.103669
Si Si7 0.410358 0.224938 0.603431
Si Si8 0.286451 0.872706 0.028411
O O1 0.112849 0.383493 0.194546
O O2 0.863158 0.218689 0.133200
O O3 0.133768 0.458598 0.073331
O O4 0.306032 0.128112 0.939415
O O5 0.500000 0.500000 0.500000
O O6 0.587272 0.115227 0.295104
O O7 0.395459 0.238119 0.529048
O O8 0.815541 0.313471 0.378366
O O9 0.560717 0.781614 0.735791
O O10 0.214851 0.345519 0.280160
O O11 0.096425 0.030665 0.127707
O O12 0.579823 0.390726 0.627239
O O13 0.343313 0.683713 0.884612
O O14 0.817353 0.727935 0.257136
O O15 0.209190 0.775490 0.092971
O O16 0.000000 0.500000 0.000000
O O17 0.500000 0.000000 0.500000
O O18 0.500000 0.000000 0.000000
#
# Coordination Sequence:
#
# PCOD8042880 Si02
#       8
#     2   2   2   2   2   2   2   2
#     4  10  20  35  65  99 127 171 223 277 338 386
#     4  11  22  39  60  92 128 177 227 267 319 394
#     4  10  19  35  63  96 131 170 226 277 323 399
#     4  10  22  38  69  94 135 179 218 271 344 404
#     4  11  20  41  63  99 132 172 222 274 333 401
#     4  12  23  40  68  99 131 174 227 284 329 384
#     4  12  25  39  63  96 133 173 226 280 324 390
#     4  10  21  39  65  96 134 168 210 272 343 399
#
# _framework density 20.816749999999999
#
# number of rings (size 3 to 8) (size 9 to 14) (size 15 to 20)
#    0.000    1.250    5.000    1.500    5.250    0.500 
#    0.000    2.500    5.500    1.500    0.000    0.000 
#    0.000    0.000    0.000    0.000    0.000    0.000 
#
# Total GULP energy -198236.668281 kJ/mol
# GULP energy per Si atom -12389.791768 kJ/mol
# Density = 2.076937 g / cm^3
# Si number density = 20.816750 Si / 1000 Ang^3
#
#
#
# Elastic Constant Matrix: (Units=GPa)
#
#
# Indices 1 2 3 4 5 6 
#
# 1 109.5800 41.6512 35.7277 -1.1476 -0.2644 -18.4375
# 2 41.6512 139.3002 54.2077 -7.4269 2.7127 -26.0703
# 3 35.7277 54.2077 128.9260 -3.5280 0.9952 -3.5804
# 4 -1.1476 -7.4269 -3.5280 44.6559 -10.6445 -1.1796
# 5 -0.2644 2.7127 0.9952 -10.6445 31.0886 -1.8207
# 6 -18.4375 -26.0703 -3.5804 -1.1796 -1.8207 26.0291
#
#
#
# Elastic Compliance Matrix: (Units=1/GPa)
#
#
# Indices 1 2 3 4 5 6 
#
# 1 0.011531 -0.001235 -0.002490 0.000251 0.000761 0.006653
# 2 -0.001235 0.010997 -0.003965 0.001823 0.000349 0.009701
# 3 -0.002490 -0.003965 0.009991 -0.000120 -0.000293 -0.004387
# 4 0.000251 0.001823 -0.000120 0.024834 0.008567 0.003713
# 5 0.000761 0.000349 -0.000293 0.008567 0.035302 0.003706
# 6 0.006653 0.009701 -0.004387 0.003713 0.003706 0.052672
#
#
# Mechanical properties :
#
#
# Convention : Reuss Voigt Hill
#
# Bulk Modulus (GPa) = 58.34938 71.21992 64.78465
# Shear Modulus (GPa) = 30.04453 36.76936 33.40695
#
# Velocity S-wave (km/s) = 3.80318 4.20734 4.01036
# Velocity P-wave (km/s) = 6.88306 7.60850 7.25485
#
# Compressibility (1/GPa) = 0.01713814
#
# Stress axis : x y z
#
# Youngs Moduli (GPa) = 86.72246 90.93452 100.09273
#
# Poissons Ratio (x) = 0.11230 0.24927
# Poissons Ratio (y) = 0.10710 0.39685
# Poissons Ratio (z) = 0.21598 0.36054
#
# Static dielectric constant tensor:
#      x y z
#    x 3.642640 -0.285380 -0.011520 
#    y -0.285380 3.782440 0.076060 
#    z -0.011520 0.076060 4.314260 
# 
# 
# High freq. dielectric constant tensor:
#      x y z
#    x 1.796520 -0.028930 0.001370 
#    y -0.028930 1.798880 -0.002100 
#    z 0.001370 -0.002100 1.831970 
# 
# From -- ./inp_files/556483.got.cif
#   From: 2010.06.25/outbox.cif.g09.slc.cpg/sg2_279_cif.got.tgz:556483.got - 2010.06.27 13:26:56.
