data_PCOD8042382
_publ_section_title
;
Structure prediction by ZEFSAII (Michael W. Deem and Ramdas Pophale) SiO2 
 PCOD8042382
Probable space group: P -1
;
_chemical_formula_sum "Si O2"
_cell_formula_units_Z 14
_cell_length_a 8.558586
_cell_length_b 14.289270
_cell_length_c 10.054461
_cell_angle_alpha 117.429024
_cell_angle_beta 43.066580
_cell_angle_gamma 115.984742
_cell_volume 734.706594
_symmetry_space_group_name_H-M "P -1"
_symmetry_group_IT_number 2
_symmetry_cell_setting 'triclinic'
loop_
_space_group_symop_operation_xyz
x,y,z
-x,-y,-z
loop_
_atom_site_type_symbol
_atom_site_label
_atom_site_fract_x
_atom_site_fract_y
_atom_site_fract_z
Si Si1 0.455723 0.281819 0.990105
Si Si2 0.843302 0.225012 0.865388
Si Si3 0.304775 0.360806 0.615570
Si Si4 0.040224 0.852697 0.772041
Si Si5 0.504660 0.239754 0.638325
Si Si6 0.032516 0.081470 0.848676
Si Si7 0.367917 0.592289 0.801719
O O1 0.523634 0.391308 0.104823
O O2 0.192349 0.232457 0.153900
O O3 0.627166 0.199564 0.880679
O O4 0.501190 0.304599 0.821150
O O5 0.079113 0.272213 0.671833
O O6 0.871986 0.118530 0.857287
O O7 0.802744 0.320313 0.056260
O O8 0.474640 0.319542 0.589627
O O9 0.235413 0.471506 0.786605
O O10 0.423341 0.382247 0.414648
O O11 0.253001 0.799736 0.555573
O O12 0.023836 0.955008 0.756433
O O13 0.078625 0.891082 0.924998
O O14 0.297844 0.138837 0.705762
#
# Coordination Sequence:
#
# PCOD8042382 Si02
#       7
#     2   2   2   2   2   2   2
#     4   9  22  33  52  79 113 129 171 210 275 288
#     4   9  19  35  54  76 105 134 170 220 250 307
#     4  10  19  35  60  74 100 139 184 200 258 307
#     4  10  19  35  54  76 110 137 167 221 248 313
#     4  10  20  35  54  80 102 141 169 217 250 313
#     4   9  19  35  56  78  99 140 183 201 259 304
#     4   9  20  35  54  81 100 137 172 218 253 309
#
# _framework density 19.055226000000001
#
# number of rings (size 3 to 8) (size 9 to 14) (size 15 to 20)
#    0.857    1.714    0.000    1.714    2.000    1.143 
#    0.000    1.429    0.000    0.000    0.000    0.000 
#    0.000    0.000    0.000    0.000    0.000    0.000 
#
# Total GULP energy -173510.706596 kJ/mol
# GULP energy per Si atom -12393.621900 kJ/mol
# Density = 1.901186 g / cm^3
# Si number density = 19.055226 Si / 1000 Ang^3
#
#
#
# Elastic Constant Matrix: (Units=GPa)
#
#
# Indices 1 2 3 4 5 6 
#
# 1 53.8052 -10.8194 22.5149 5.2156 -3.1344 -4.0511
# 2 -10.8194 37.4590 13.9305 3.8409 -3.9735 -12.9830
# 3 22.5149 13.9305 79.9053 1.6927 -7.7484 -0.0453
# 4 5.2156 3.8409 1.6927 16.0431 -0.8229 -4.8240
# 5 -3.1344 -3.9735 -7.7484 -0.8229 26.8102 5.8181
# 6 -4.0511 -12.9830 -0.0453 -4.8240 5.8181 19.7195
#
#
#
# Elastic Compliance Matrix: (Units=1/GPa)
#
#
# Indices 1 2 3 4 5 6 
#
# 1 0.029327 0.019419 -0.011570 -0.007855 -0.001001 0.017157
# 2 0.019419 0.050700 -0.014405 -0.006057 -0.002506 0.036594
# 3 -0.011570 -0.014405 0.018705 0.001625 0.004751 -0.012822
# 4 -0.007855 -0.006057 0.001625 0.069674 -0.001808 0.011980
# 5 -0.001001 -0.002506 0.004751 -0.001808 0.041267 -0.014462
# 6 0.017157 0.036594 -0.012822 0.011980 -0.014462 0.085497
#
#
# Mechanical properties :
#
#
# Convention : Reuss Voigt Hill
#
# Bulk Modulus (GPa) = 11.67940 24.71351 18.19645
# Shear Modulus (GPa) = 14.84472 22.21747 18.53109
#
# Velocity S-wave (km/s) = 2.79415 3.41831 3.12187
# Velocity P-wave (km/s) = 4.06845 5.34578 4.75024
#
# Compressibility (1/GPa) = 0.08562081
#
# Stress axis : x y z
#
# Youngs Moduli (GPa) = 34.09863 19.72391 53.46138
#
# Poissons Ratio (x) = -0.38302 0.61854
# Poissons Ratio (y) = -0.66216 0.77009
# Poissons Ratio (z) = 0.39452 0.28411
#
# Static dielectric constant tensor:
#      x y z
#    x 3.341390 -0.093520 -0.031470 
#    y -0.093520 3.336030 -0.038170 
#    z -0.031470 -0.038170 3.423530 
# 
# 
# High freq. dielectric constant tensor:
#      x y z
#    x 1.730970 -0.006300 -0.007150 
#    y -0.006300 1.724710 -0.008100 
#    z -0.007150 -0.008100 1.746720 
# 
# From -- ./inp_files/45007.got.cif
#   From: 2010.06.25/outbox.cif.g09.slc.cpg/sg2_23_cif.got.tgz:45007.got - 2010.06.27 13:26:56.
