data_PCOD8042578
_publ_section_title
;
Structure prediction by ZEFSAII (Michael W. Deem and Ramdas Pophale) SiO2 
 PCOD8042578
Probable space group: P -1
;
_chemical_formula_sum "Si O2"
_cell_formula_units_Z 16
_cell_length_a 21.516029
_cell_length_b 15.922403
_cell_length_c 8.852545
_cell_angle_alpha 49.979380
_cell_angle_beta 130.227402
_cell_angle_gamma 159.659329
_cell_volume 796.782331
_symmetry_space_group_name_H-M "P -1"
_symmetry_group_IT_number 2
_symmetry_cell_setting 'triclinic'
loop_
_space_group_symop_operation_xyz
x,y,z
-x,-y,-z
loop_
_atom_site_type_symbol
_atom_site_label
_atom_site_fract_x
_atom_site_fract_y
_atom_site_fract_z
Si Si1 0.169591 0.967487 0.495999
Si Si2 0.184175 0.394916 0.816173
Si Si3 0.699036 0.744844 0.137644
Si Si4 0.646089 0.435638 0.417403
Si Si5 0.388812 0.018497 0.713986
Si Si6 0.014068 0.213222 0.275591
Si Si7 0.732186 0.368234 0.033627
Si Si8 0.331026 0.337445 0.140212
O O1 0.015534 0.817099 0.309487
O O2 0.107030 0.884485 0.666865
O O3 0.245218 0.937865 0.623625
O O4 0.318365 0.242229 0.378015
O O5 0.316577 0.573313 0.675704
O O6 0.233453 0.536643 0.861689
O O7 0.206555 0.295491 0.021411
O O8 0.597938 0.504926 0.252797
O O9 0.542429 0.629492 0.106846
O O10 0.738987 0.814931 0.942095
O O11 0.889359 0.982479 0.247272
O O12 0.484294 0.167751 0.535923
O O13 0.820805 0.653525 0.548007
O O14 0.279112 0.775318 0.796667
O O15 0.542112 0.188988 0.885024
O O16 0.100030 0.409849 0.074489
#
# Coordination Sequence:
#
# PCOD8042578 Si02
#       8
#     2   2   2   2   2   2   2   2
#     4  11  22  38  60  90 117 153 195 240 286 346
#     4  10  22  38  60  86 122 152 189 238 294 347
#     4  10  19  35  58  88 119 154 186 236 292 348
#     4   9  19  39  59  88 118 150 191 239 290 344
#     4  10  22  41  64  82 117 154 198 243 283 344
#     4  10  22  35  58  85 120 154 192 238 287 342
#     4  10  23  43  59  84 117 159 194 239 293 337
#     4  10  21  35  58  88 122 152 188 236 294 348
#
# _framework density 20.080767000000002
#
# number of rings (size 3 to 8) (size 9 to 14) (size 15 to 20)
#    0.000    2.000    1.250    1.500    1.750    6.000 
#    0.000    0.000    0.000    0.000    0.000    0.000 
#    0.000    0.000    0.000    0.000    0.000    0.000 
#
# Total GULP energy -198272.694794 kJ/mol
# GULP energy per Si atom -12392.043425 kJ/mol
# Density = 2.003506 g / cm^3
# Si number density = 20.080767 Si / 1000 Ang^3
#
#
#
# Elastic Constant Matrix: (Units=GPa)
#
#
# Indices 1 2 3 4 5 6 
#
# 1 105.8896 54.1699 52.3949 -10.5053 -3.9600 6.8581
# 2 54.1699 81.0363 44.3696 -15.0592 -13.3851 -6.2024
# 3 52.3949 44.3696 87.2709 -22.5384 -1.7700 0.5100
# 4 -10.5053 -15.0592 -22.5384 32.0701 1.2219 -1.7419
# 5 -3.9600 -13.3851 -1.7700 1.2219 38.9735 3.6201
# 6 6.8581 -6.2024 0.5100 -1.7419 3.6201 27.3817
#
#
#
# Elastic Compliance Matrix: (Units=1/GPa)
#
#
# Indices 1 2 3 4 5 6 
#
# 1 0.017622 -0.009469 -0.006704 -0.003700 -0.001043 -0.006531
# 2 -0.009469 0.023985 -0.005225 0.004653 0.006207 0.007377
# 3 -0.006704 -0.005225 0.020681 0.010013 -0.001944 0.001004
# 4 -0.003700 0.004653 0.010013 0.039423 0.000042 0.004297
# 5 -0.001043 0.006207 -0.001944 0.000042 0.027777 -0.001966
# 6 -0.006531 0.007377 0.001004 0.004297 -0.001966 0.040342
#
#
# Mechanical properties :
#
#
# Convention : Reuss Voigt Hill
#
# Bulk Modulus (GPa) = 51.30425 64.00728 57.65576
# Shear Modulus (GPa) = 22.81811 27.90255 25.36033
#
# Velocity S-wave (km/s) = 3.37459 3.73167 3.55761
# Velocity P-wave (km/s) = 6.38656 7.10712 6.75646
#
# Compressibility (1/GPa) = 0.01949156
#
# Stress axis : x y z
#
# Youngs Moduli (GPa) = 56.74751 41.69258 48.35390
#
# Poissons Ratio (x) = 0.39477 0.32418
# Poissons Ratio (y) = 0.53732 0.25265
# Poissons Ratio (z) = 0.38046 0.21785
#
# Static dielectric constant tensor:
#      x y z
#    x 3.561290 0.251860 -0.156940 
#    y 0.251860 3.584970 -0.015080 
#    z -0.156940 -0.015080 3.801470 
# 
# 
# High freq. dielectric constant tensor:
#      x y z
#    x 1.778250 0.023220 -0.010880 
#    y 0.023220 1.773460 0.004640 
#    z -0.010880 0.004640 1.790630 
# 
# From -- ./inp_files/187390.got.cif
#   From: 2010.06.25/outbox.cif.g09.slc.cpg/sg2_94_cif.got.tgz:187390.got - 2010.06.27 13:26:56.
