data_PCOD8042093
_publ_section_title
;
Structure prediction by ZEFSAII (Michael W. Deem and Ramdas Pophale) SiO2 
 PCOD8042093
Probable space group: P -1
;
_chemical_formula_sum "Si O2"
_cell_formula_units_Z 16
_cell_length_a 10.545916
_cell_length_b 21.195840
_cell_length_c 8.783597
_cell_angle_alpha 41.496319
_cell_angle_beta 123.916531
_cell_angle_gamma 145.645430
_cell_volume 724.479483
_symmetry_space_group_name_H-M "P -1"
_symmetry_group_IT_number 2
_symmetry_cell_setting 'triclinic'
loop_
_space_group_symop_operation_xyz
x,y,z
-x,-y,-z
loop_
_atom_site_type_symbol
_atom_site_label
_atom_site_fract_x
_atom_site_fract_y
_atom_site_fract_z
Si Si1 0.968565 0.079751 0.637980
Si Si2 0.872111 0.113032 0.838915
Si Si3 0.433215 0.183367 0.764692
Si Si4 0.459450 0.616289 0.745130
Si Si5 0.794007 0.637906 0.787844
Si Si6 0.703256 0.346431 0.942988
Si Si7 0.291792 0.218894 0.085804
Si Si8 0.968376 0.343979 0.348231
O O1 0.856696 0.053650 0.771698
O O2 0.213685 0.147267 0.718428
O O3 0.004800 0.191455 0.355223
O O4 0.809516 0.935134 0.697940
O O5 0.846554 0.215377 0.617564
O O6 0.110755 0.206791 0.913289
O O7 0.662739 0.968525 0.055552
O O8 0.571573 0.294234 0.514938
O O9 0.608739 0.259848 0.881780
O O10 0.552854 0.581974 0.746986
O O11 0.647036 0.716157 0.823020
O O12 0.220586 0.462502 0.929791
O O13 0.831809 0.620866 0.671018
O O14 0.918950 0.514426 0.746169
O O15 0.518391 0.324403 0.946394
O O16 0.779743 0.293036 0.194642
#
# Coordination Sequence:
#
# PCOD8042093 Si02
#       8
#     2   2   2   2   2   2   2   2
#     4   9  17  32  56  87 113 137 185 243 274 319
#     4  10  19  34  57  89 113 139 187 247 270 322
#     4  10  19  35  55  83 115 146 187 224 285 328
#     4  10  21  34  58  84 116 152 182 227 278 341
#     4   9  19  36  51  81 117 143 184 227 274 327
#     4  11  21  38  59  84 110 151 187 233 284 328
#     4  11  19  35  61  87 113 147 185 229 286 327
#     4  10  23  37  58  85 114 142 193 238 275 329
#
# _framework density 22.084821000000002
#
# number of rings (size 3 to 8) (size 9 to 14) (size 15 to 20)
#    0.000    2.000    3.750    0.750    0.000    8.500 
#    0.000    0.625    2.750    0.750    0.000    0.000 
#    0.000    0.000    0.000    0.000    0.000    0.000 
#
# Total GULP energy -198229.248501 kJ/mol
# GULP energy per Si atom -12389.328031 kJ/mol
# Density = 2.203455 g / cm^3
# Si number density = 22.084821 Si / 1000 Ang^3
#
#
#
# Elastic Constant Matrix: (Units=GPa)
#
#
# Indices 1 2 3 4 5 6 
#
# 1 13.4301 7.0084 3.5972 6.2796 7.1555 -7.6492
# 2 7.0084 110.8090 70.5398 3.4524 16.6065 -8.3402
# 3 3.5972 70.5398 199.0225 -32.4574 21.7827 0.6636
# 4 6.2796 3.4524 -32.4574 42.4588 -4.7125 -0.5017
# 5 7.1555 16.6065 21.7827 -4.7125 25.5963 -5.9295
# 6 -7.6492 -8.3402 0.6636 -0.5017 -5.9295 10.7969
#
#
#
# Elastic Compliance Matrix: (Units=1/GPa)
#
#
# Indices 1 2 3 4 5 6 
#
# 1 0.161285 0.008039 -0.008793 -0.032664 -0.024235 0.106188
# 2 0.008039 0.014265 -0.005936 -0.007214 -0.004468 0.014290
# 3 -0.008793 -0.005936 0.008959 0.008185 -0.002695 -0.012466
# 4 -0.032664 -0.007214 0.008185 0.035852 0.008094 -0.023106
# 5 -0.024235 -0.004468 -0.002695 0.008094 0.054853 0.010045
# 6 0.106188 0.014290 -0.012466 -0.023106 0.010045 0.184098
#
#
# Mechanical properties :
#
#
# Convention : Reuss Voigt Hill
#
# Bulk Modulus (GPa) = 5.84359 53.95027 29.89693
# Shear Modulus (GPa) = 9.43866 31.91147 20.67507
#
# Velocity S-wave (km/s) = 2.06957 3.80537 3.06300
# Velocity P-wave (km/s) = 2.89180 6.61737 5.10647
#
# Compressibility (1/GPa) = 0.17112760
#
# Stress axis : x y z
#
# Youngs Moduli (GPa) = 6.20021 70.10106 111.61928
#
# Poissons Ratio (x) = -0.56353 0.98147
# Poissons Ratio (y) = -0.04984 0.66262
# Poissons Ratio (z) = 0.05452 0.41615
#
# Static dielectric constant tensor:
#      x y z
#    x 3.583460 -0.084900 0.027030 
#    y -0.084900 3.847590 -0.524320 
#    z 0.027030 -0.524320 4.571600 
# 
# 
# High freq. dielectric constant tensor:
#      x y z
#    x 1.823950 -0.011060 0.004450 
#    y -0.011060 1.851630 -0.035350 
#    z 0.004450 -0.035350 1.881760 
# 
# From -- ./inp_files/206813.got.cif
#   From: 2010.06.25/outbox.cif.g09.slc.cpg/sg2_104_cif.got.tgz:206813.got - 2010.06.27 13:26:56.
