data_PCOD8042685
_publ_section_title
;
Structure prediction by ZEFSAII (Michael W. Deem and Ramdas Pophale) SiO2 
 PCOD8042685
Probable space group: P -1
;
_chemical_formula_sum "Si O2"
_cell_formula_units_Z 16
_cell_length_a 8.350446
_cell_length_b 20.144397
_cell_length_c 19.058006
_cell_angle_alpha 157.914396
_cell_angle_beta 44.465678
_cell_angle_gamma 135.490538
_cell_volume 827.826282
_symmetry_space_group_name_H-M "P -1"
_symmetry_group_IT_number 2
_symmetry_cell_setting 'triclinic'
loop_
_space_group_symop_operation_xyz
x,y,z
-x,-y,-z
loop_
_atom_site_type_symbol
_atom_site_label
_atom_site_fract_x
_atom_site_fract_y
_atom_site_fract_z
Si Si1 0.241019 0.459970 0.739019
Si Si2 0.739985 0.089722 0.976157
Si Si3 0.294155 0.168170 0.675299
Si Si4 0.773224 0.213193 0.622192
Si Si5 0.086626 0.837773 0.626202
Si Si6 0.415799 0.172302 0.486558
Si Si7 0.799585 0.155701 0.861989
Si Si8 0.740120 0.490952 0.380779
O O1 0.413439 0.347090 0.610890
O O2 0.293309 0.461825 0.642728
O O3 0.967475 0.369594 0.749028
O O4 0.299039 0.664980 0.950042
O O5 0.711911 0.075340 0.886493
O O6 0.811104 0.298104 0.180226
O O7 0.941906 0.989577 0.842315
O O8 0.500000 0.000000 0.000000
O O9 0.531260 0.278912 0.746003
O O10 0.296152 0.214469 0.637753
O O11 0.079714 0.220468 0.835442
O O12 0.284131 0.953579 0.470178
O O13 0.867955 0.141639 0.450624
O O14 0.324229 0.862961 0.620353
O O15 0.943163 0.639939 0.496991
O O16 0.269098 0.995129 0.322868
O O17 0.500000 0.500000 0.500000
#
# Coordination Sequence:
#
# PCOD8042685 Si02
#       8
#     2   2   2   2   2   2   2   2
#     4  10  22  37  57  84 117 153 185 233 285 334
#     4  11  21  37  66  86 105 145 197 239 282 325
#     4  10  19  35  60  85 110 157 192 229 281 328
#     4   9  18  36  59  83 114 146 198 237 270 326
#     4  10  20  38  59  86 114 149 184 240 281 329
#     4  11  23  38  56  82 127 153 179 225 294 345
#     4  11  22  38  59  85 117 150 192 232 278 342
#     4  10  20  37  64  84 104 144 199 236 276 331
#
# _framework density 19.327726999999999
#
# number of rings (size 3 to 8) (size 9 to 14) (size 15 to 20)
#    0.000    1.750    3.750    1.125    0.000    2.000 
#    0.000    1.250    0.000    0.000    0.000    0.000 
#    0.000    0.000    0.000    0.000    0.000    0.000 
#
# Total GULP energy -198386.222863 kJ/mol
# GULP energy per Si atom -12399.138929 kJ/mol
# Density = 1.928374 g / cm^3
# Si number density = 19.327727 Si / 1000 Ang^3
#
#
#
# Elastic Constant Matrix: (Units=GPa)
#
#
# Indices 1 2 3 4 5 6 
#
# 1 71.8320 30.3729 38.8362 2.2435 -22.0824 2.1056
# 2 30.3729 102.7917 29.6486 -2.9392 -15.9600 5.0553
# 3 38.8362 29.6486 101.3512 10.7629 -25.3672 -1.6171
# 4 2.2435 -2.9392 10.7629 31.6142 0.8254 -8.0323
# 5 -22.0824 -15.9600 -25.3672 0.8254 24.7074 -0.9676
# 6 2.1056 5.0553 -1.6171 -8.0323 -0.9676 20.3108
#
#
#
# Elastic Compliance Matrix: (Units=1/GPa)
#
#
# Indices 1 2 3 4 5 6 
#
# 1 0.021493 -0.003135 -0.003927 -0.001235 0.013130 -0.001623
# 2 -0.003135 0.011730 -0.001661 0.001272 0.002946 -0.002083
# 3 -0.003927 -0.001661 0.015238 -0.005230 0.011257 0.000502
# 4 -0.001235 0.001272 -0.005230 0.037301 -0.006356 0.013844
# 5 0.013130 0.002946 0.011257 -0.006356 0.065858 -0.000574
# 6 -0.001623 -0.002083 0.000502 0.013844 -0.000574 0.055409
#
#
# Mechanical properties :
#
#
# Convention : Reuss Voigt Hill
#
# Bulk Modulus (GPa) = 32.24289 52.63223 42.43756
# Shear Modulus (GPa) = 21.29348 27.13431 24.21389
#
# Velocity S-wave (km/s) = 3.32280 3.75094 3.54334
# Velocity P-wave (km/s) = 5.60711 6.78601 6.22454
#
# Compressibility (1/GPa) = 0.03101459
#
# Stress axis : x y z
#
# Youngs Moduli (GPa) = 46.52774 85.25108 65.62430
#
# Poissons Ratio (x) = 0.26724 0.25771
# Poissons Ratio (y) = 0.14585 0.10902
# Poissons Ratio (z) = 0.18272 0.14163
#
# Static dielectric constant tensor:
#      x y z
#    x 3.383660 0.088630 -0.132070 
#    y 0.088630 3.751480 0.118590 
#    z -0.132070 0.118590 3.516690 
# 
# 
# High freq. dielectric constant tensor:
#      x y z
#    x 1.731630 0.002430 -0.012810 
#    y 0.002430 1.763150 0.006160 
#    z -0.012810 0.006160 1.747990 
# 
# From -- ./inp_files/267516.got.cif
#   From: 2010.06.25/outbox.cif.g09.slc.cpg/sg2_134_cif.got.tgz:267516.got - 2010.06.27 13:26:56.
