data_PCOD8042116
_publ_section_title
;
Structure prediction by ZEFSAII (Michael W. Deem and Ramdas Pophale) SiO2 
 PCOD8042116
Probable space group: P -1
;
_chemical_formula_sum "Si O2"
_cell_formula_units_Z 16
_cell_length_a 19.369490
_cell_length_b 8.486873
_cell_length_c 7.820290
_cell_angle_alpha 127.106683
_cell_angle_beta 44.728818
_cell_angle_gamma 116.198747
_cell_volume 721.327132
_symmetry_space_group_name_H-M "P -1"
_symmetry_group_IT_number 2
_symmetry_cell_setting 'triclinic'
loop_
_space_group_symop_operation_xyz
x,y,z
-x,-y,-z
loop_
_atom_site_type_symbol
_atom_site_label
_atom_site_fract_x
_atom_site_fract_y
_atom_site_fract_z
Si Si1 0.666883 0.800166 0.072674
Si Si2 0.881914 0.783255 0.597495
Si Si3 0.690785 0.075541 0.509650
Si Si4 0.367469 0.210439 0.267131
Si Si5 0.444349 0.576592 0.984258
Si Si6 0.886299 0.996766 0.237225
Si Si7 0.826047 0.598818 0.229242
Si Si8 0.906793 0.204643 0.680719
O O1 0.645394 0.976531 0.355180
O O2 0.780950 0.738389 0.844923
O O3 0.637577 0.864135 0.971878
O O4 0.602143 0.619197 0.148396
O O5 0.884907 0.652565 0.334253
O O6 0.978669 0.725420 0.495579
O O7 0.891925 0.019467 0.710803
O O8 0.648864 0.292562 0.722958
O O9 0.810566 0.084987 0.288921
O O10 0.660111 0.965012 0.668518
O O11 0.290972 0.388510 0.528952
O O12 0.475462 0.297865 0.185128
O O13 0.500000 0.500000 0.000000
O O14 0.863955 0.132769 0.528889
O O15 0.857941 0.766393 0.148585
O O16 0.000000 0.000000 0.000000
O O17 0.846041 0.383481 0.981007
#
# Coordination Sequence:
#
# PCOD8042116 Si02
#       8
#     2   2   2   2   2   2   2   2
#     4  10  22  40  62  90 124 158 202 256 306 360
#     4   9  19  34  54  87 120 153 202 250 297 363
#     4  11  23  41  65  89 123 167 201 248 313 363
#     4   9  21  42  61  88 125 156 204 257 299 366
#     4  10  23  42  64  94 122 155 210 257 302 370
#     4  10  22  37  54  87 124 155 204 252 295 364
#     4   9  19  35  56  82 115 159 205 247 299 363
#     4  10  19  34  58  82 117 165 202 244 305 358
#
# _framework density 22.181336000000002
#
# number of rings (size 3 to 8) (size 9 to 14) (size 15 to 20)
#    0.000    2.250    0.000    2.250    0.000    9.000 
#    0.000    6.250    0.000    0.000    0.000    0.000 
#    0.000    0.000    0.000    0.000    0.000    0.000 
#
# Total GULP energy -198263.087025 kJ/mol
# GULP energy per Si atom -12391.442939 kJ/mol
# Density = 2.213085 g / cm^3
# Si number density = 22.181336 Si / 1000 Ang^3
#
#
#
# Elastic Constant Matrix: (Units=GPa)
#
#
# Indices 1 2 3 4 5 6 
#
# 1 77.8940 31.1182 35.5569 2.7299 -8.5004 6.5123
# 2 31.1182 60.0690 36.1160 6.9873 -4.0736 14.0014
# 3 35.5569 36.1160 79.0510 19.8271 -2.3187 2.2927
# 4 2.7299 6.9873 19.8271 44.6543 10.3780 -6.1296
# 5 -8.5004 -4.0736 -2.3187 10.3780 40.4547 -6.0026
# 6 6.5123 14.0014 2.2927 -6.1296 -6.0026 32.0701
#
#
#
# Elastic Compliance Matrix: (Units=1/GPa)
#
#
# Indices 1 2 3 4 5 6 
#
# 1 0.018048 -0.005952 -0.005800 0.001866 0.002405 0.000155
# 2 -0.005952 0.028074 -0.009548 -0.001193 -0.000243 -0.010639
# 3 -0.005800 -0.009548 0.021511 -0.007672 0.001407 0.002606
# 4 0.001866 -0.001193 -0.007672 0.028081 -0.006658 0.004812
# 5 0.002405 -0.000243 0.001407 -0.006658 0.027491 0.003390
# 6 0.000155 -0.010639 0.002606 0.004812 0.003390 0.037163
#
#
# Mechanical properties :
#
#
# Convention : Reuss Voigt Hill
#
# Bulk Modulus (GPa) = 39.94965 46.95514 43.45240
# Shear Modulus (GPa) = 23.66153 31.05068 27.35611
#
# Velocity S-wave (km/s) = 3.26963 3.74552 3.51564
# Velocity P-wave (km/s) = 5.68362 6.31823 6.00931
#
# Compressibility (1/GPa) = 0.02503151
#
# Stress axis : x y z
#
# Youngs Moduli (GPa) = 55.40909 35.62034 46.48719
#
# Poissons Ratio (x) = 0.21202 0.26964
# Poissons Ratio (y) = 0.32980 0.44387
# Poissons Ratio (z) = 0.32139 0.34011
#
# Static dielectric constant tensor:
#      x y z
#    x 4.321920 0.430580 -0.245790 
#    y 0.430580 4.107540 -0.256450 
#    z -0.245790 -0.256450 4.006460 
# 
# 
# High freq. dielectric constant tensor:
#      x y z
#    x 1.874000 0.022840 -0.010590 
#    y 0.022840 1.860760 -0.003230 
#    z -0.010590 -0.003230 1.867370 
# 
# From -- ./inp_files/343839.got.cif
#   From: 2010.06.25/outbox.cif.g09.slc.cpg/sg2_172_cif.got.tgz:343839.got - 2010.06.27 13:26:56.
