data_PCOD8042890
_publ_section_title
;
Structure prediction by ZEFSAII (Michael W. Deem and Ramdas Pophale) SiO2 
 PCOD8042890
Probable space group: P -1
;
_chemical_formula_sum "Si O2"
_cell_formula_units_Z 12
_cell_length_a 9.356060
_cell_length_b 14.017895
_cell_length_c 8.954721
_cell_angle_alpha 138.925550
_cell_angle_beta 65.614973
_cell_angle_gamma 92.943338
_cell_volume 633.070704
_symmetry_space_group_name_H-M "P -1"
_symmetry_group_IT_number 2
_symmetry_cell_setting 'triclinic'
loop_
_space_group_symop_operation_xyz
x,y,z
-x,-y,-z
loop_
_atom_site_type_symbol
_atom_site_label
_atom_site_fract_x
_atom_site_fract_y
_atom_site_fract_z
Si Si1 0.261927 0.779377 0.644936
Si Si2 0.576290 0.837787 0.683036
Si Si3 0.764314 0.529378 0.766933
Si Si4 0.842457 0.660152 0.599270
Si Si5 0.342161 0.146574 0.664984
Si Si6 0.896196 0.900101 0.068992
O O1 0.430687 0.774288 0.646622
O O2 0.310166 0.603629 0.346639
O O3 0.197276 0.907608 0.688186
O O4 0.105591 0.829082 0.892798
O O5 0.733880 0.699475 0.540294
O O6 0.649936 0.872883 0.538461
O O7 0.500000 0.000000 0.000000
O O8 0.763654 0.574364 0.646225
O O9 0.959492 0.459700 0.666535
O O10 0.646852 0.686965 0.100195
O O11 0.832082 0.823975 0.870803
O O12 0.162785 0.146780 0.803786
O O13 0.500000 0.000000 0.500000
#
# Coordination Sequence:
#
# PCOD8042890 Si02
#       6
#     2   2   2   2   2   2
#     4  10  19  35  64  86 114 148 193 234 279 340
#     4  12  22  36  60  88 117 150 191 238 286 334
#     4   9  20  37  60  83 112 155 193 229 283 344
#     4   9  18  37  60  83 116 154 187 228 289 346
#     4  11  21  39  60  84 114 154 194 232 284 347
#     4   9  18  38  62  83 112 157 192 221 284 350
#
# _framework density 18.955227000000001
#
# number of rings (size 3 to 8) (size 9 to 14) (size 15 to 20)
#    0.000    2.000    3.333    2.000    0.000    2.000 
#    0.000    0.833    0.000    0.000    0.000    0.000 
#    0.000    0.000    0.000    0.000    0.000    0.000 
#
# Total GULP energy -148808.270294 kJ/mol
# GULP energy per Si atom -12400.689191 kJ/mol
# Density = 1.891208 g / cm^3
# Si number density = 18.955227 Si / 1000 Ang^3
#
#
#
# Elastic Constant Matrix: (Units=GPa)
#
#
# Indices 1 2 3 4 5 6 
#
# 1 94.2670 59.1203 34.4210 -10.4139 -3.5128 -6.5385
# 2 59.1203 119.7019 56.5124 0.1388 4.6193 -4.7068
# 3 34.4210 56.5124 118.1271 11.5204 10.3963 -0.0319
# 4 -10.4139 0.1388 11.5204 42.5727 5.7271 1.8416
# 5 -3.5128 4.6193 10.3963 5.7271 21.0297 7.6193
# 6 -6.5385 -4.7068 -0.0319 1.8416 7.6193 40.4674
#
#
#
# Elastic Compliance Matrix: (Units=1/GPa)
#
#
# Indices 1 2 3 4 5 6 
#
# 1 0.016647 -0.007365 -0.002076 0.004083 0.003989 0.000895
# 2 -0.007365 0.014198 -0.004397 -0.000374 -0.002410 0.000929
# 3 -0.002076 -0.004397 0.011870 -0.003113 -0.004453 0.000142
# 4 0.004083 -0.000374 -0.003113 0.025975 -0.004899 0.000354
# 5 0.003989 -0.002410 -0.004453 -0.004899 0.055884 -0.009938
# 6 0.000895 0.000929 0.000142 0.000354 -0.009938 0.026819
#
#
# Mechanical properties :
#
#
# Convention : Reuss Voigt Hill
#
# Bulk Modulus (GPa) = 66.50286 70.24483 68.37384
# Shear Modulus (GPa) = 27.16177 32.95011 30.05594
#
# Velocity S-wave (km/s) = 3.78953 4.17383 3.98631
# Velocity P-wave (km/s) = 7.36938 7.76959 7.57213
#
# Compressibility (1/GPa) = 0.01503695
#
# Stress axis : x y z
#
# Youngs Moduli (GPa) = 60.07016 70.43399 84.24881
#
# Poissons Ratio (x) = 0.51877 0.17492
# Poissons Ratio (y) = 0.44243 0.37046
# Poissons Ratio (z) = 0.12472 0.30972
#
# Static dielectric constant tensor:
#      x y z
#    x 3.359470 0.180080 -0.152960 
#    y 0.180080 3.686120 0.119170 
#    z -0.152960 0.119170 3.523770 
# 
# 
# High freq. dielectric constant tensor:
#      x y z
#    x 1.714540 0.014130 -0.014880 
#    y 0.014130 1.739610 0.019340 
#    z -0.014880 0.019340 1.735290 
# 
# From -- ./inp_files/145462.got.cif
#   From: 2010.06.25/outbox.cif.g09.slc.cpg/sg2_73_cif.got.tgz:145462.got - 2010.06.27 13:26:56.
