data_PCOD8042416
_publ_section_title
;
Structure prediction by ZEFSAII (Michael W. Deem and Ramdas Pophale) SiO2 
 PCOD8042416
Probable space group: P -1
;
_chemical_formula_sum "Si O2"
_cell_formula_units_Z 14
_cell_length_a 6.506536
_cell_length_b 13.298267
_cell_length_c 9.705658
_cell_angle_alpha 67.552450
_cell_angle_beta 82.406430
_cell_angle_gamma 43.395105
_cell_volume 519.088831
_symmetry_space_group_name_H-M "P -1"
_symmetry_group_IT_number 2
_symmetry_cell_setting 'triclinic'
loop_
_space_group_symop_operation_xyz
x,y,z
-x,-y,-z
loop_
_atom_site_type_symbol
_atom_site_label
_atom_site_fract_x
_atom_site_fract_y
_atom_site_fract_z
Si Si1 0.601574 0.980633 0.285317
Si Si2 0.982677 0.330558 0.445957
Si Si3 0.500467 0.641329 0.949693
Si Si4 0.514702 0.656913 0.452337
Si Si5 0.131195 0.838662 0.130341
Si Si6 0.683684 0.155402 0.378832
Si Si7 0.084207 0.314566 0.132376
O O1 0.679963 0.846378 0.442401
O O2 0.843566 0.882661 0.191238
O O3 0.600505 0.091102 0.318163
O O4 0.248293 0.131724 0.183819
O O5 0.841661 0.474292 0.488152
O O6 0.740955 0.324700 0.470634
O O7 0.027409 0.361537 0.274845
O O8 0.313538 0.736127 0.774276
O O9 0.714066 0.663887 0.956887
O O10 0.278473 0.710035 0.063956
O O11 0.744906 0.443835 0.021118
O O12 0.377071 0.765327 0.269721
O O13 0.562097 0.726972 0.534931
O O14 0.000000 0.000000 0.000000
O O15 0.000000 0.000000 0.500000
#
# Coordination Sequence:
#
# PCOD8042416 Si02
#       7
#     2   2   2   2   2   2   2
#     4  10  21  33  62  84 107 146 187 228 271 323
#     4  10  19  35  56  80 112 149 182 221 273 335
#     4  10  21  33  58  85 111 141 186 231 277 314
#     4  10  21  33  58  82 110 143 188 228 271 323
#     4  11  16  33  55  84 104 140 190 225 264 316
#     4  11  18  36  55  86 112 136 187 238 267 317
#     4  10  19  35  55  83 111 144 187 225 269 333
#
# _framework density 26.970334000000001
#
# number of rings (size 3 to 8) (size 9 to 14) (size 15 to 20)
#    0.000    1.714    7.143    0.429    0.000    0.000 
#    0.000    3.571    0.000    0.857    0.000    0.000 
#    0.000    0.000    0.000    0.000    0.000    0.000 
#
# Total GULP energy -173504.328188 kJ/mol
# GULP energy per Si atom -12393.166299 kJ/mol
# Density = 2.690895 g / cm^3
# Si number density = 26.970334 Si / 1000 Ang^3
#
#
#
# Elastic Constant Matrix: (Units=GPa)
#
#
# Indices 1 2 3 4 5 6 
#
# 1 35.5415 29.4989 15.4269 3.1071 0.5842 -9.4050
# 2 29.4989 232.7839 91.9489 -12.4201 6.7989 -35.5043
# 3 15.4269 91.9489 174.6859 -10.5521 6.0095 -7.8421
# 4 3.1071 -12.4201 -10.5521 67.4047 -12.4313 3.4356
# 5 0.5842 6.7989 6.0095 -12.4313 31.8597 -6.0722
# 6 -9.4050 -35.5043 -7.8421 3.4356 -6.0722 38.2516
#
#
#
# Elastic Compliance Matrix: (Units=1/GPa)
#
#
# Indices 1 2 3 4 5 6 
#
# 1 0.032773 -0.002997 -0.001239 -0.002468 0.000318 0.005294
# 2 -0.002997 0.006604 -0.002967 0.000720 0.000398 0.004783
# 3 -0.001239 -0.002967 0.007383 0.000601 -0.000832 -0.001731
# 4 -0.002468 0.000720 0.000601 0.016314 0.006084 -0.000315
# 5 0.000318 0.000398 -0.000832 0.006084 0.034830 0.005260
# 6 0.005294 0.004783 -0.001731 -0.000315 0.005260 0.032392
#
#
# Mechanical properties :
#
#
# Convention : Reuss Voigt Hill
#
# Bulk Modulus (GPa) = 30.90839 79.64007 55.27423
# Shear Modulus (GPa) = 32.15707 47.91229 40.03468
#
# Velocity S-wave (km/s) = 3.45673 4.21940 3.85697
# Velocity P-wave (km/s) = 5.23613 7.30279 6.35404
#
# Compressibility (1/GPa) = 0.03235368
#
# Stress axis : x y z
#
# Youngs Moduli (GPa) = 30.51291 151.42782 135.44922
#
# Poissons Ratio (x) = 0.45386 0.16782
# Poissons Ratio (y) = 0.09145 0.40185
# Poissons Ratio (z) = 0.03781 0.44926
#
# Static dielectric constant tensor:
#      x y z
#    x 5.105360 -0.827470 0.329700 
#    y -0.827470 5.884890 -0.687800 
#    z 0.329700 -0.687800 6.082120 
# 
# 
# High freq. dielectric constant tensor:
#      x y z
#    x 2.078960 -0.022440 -0.013180 
#    y -0.022440 2.108640 -0.018450 
#    z -0.013180 -0.018450 2.094020 
# 
# From -- ./inp_files/206296.got.cif
#   From: 2010.06.25/outbox.cif.g09.slc.cpg/sg2_104_cif.got.tgz:206296.got - 2010.06.27 13:26:56.
