data_PCOD8042906
_publ_section_title
;
Structure prediction by ZEFSAII (Michael W. Deem and Ramdas Pophale) SiO2 
 PCOD8042906
Probable space group: P -1
;
_chemical_formula_sum "Si O2"
_cell_formula_units_Z 14
_cell_length_a 27.965169
_cell_length_b 13.617014
_cell_length_c 11.452367
_cell_angle_alpha 149.184654
_cell_angle_beta 156.146032
_cell_angle_gamma 19.276883
_cell_volume 581.913250
_symmetry_space_group_name_H-M "P -1"
_symmetry_group_IT_number 2
_symmetry_cell_setting 'triclinic'
loop_
_space_group_symop_operation_xyz
x,y,z
-x,-y,-z
loop_
_atom_site_type_symbol
_atom_site_label
_atom_site_fract_x
_atom_site_fract_y
_atom_site_fract_z
Si Si1 0.266936 0.082156 0.996994
Si Si2 0.281951 0.309879 0.054023
Si Si3 0.895210 0.380409 0.449506
Si Si4 0.671244 0.958886 0.649547
Si Si5 0.255368 0.604935 0.102618
Si Si6 0.377011 0.850151 0.650440
Si Si7 0.600206 0.486722 0.002438
O O1 0.461148 0.746298 0.052499
O O2 0.112953 0.104504 0.679537
O O3 0.187616 0.339451 0.989139
O O4 0.289390 0.157162 0.248066
O O5 0.195075 0.606725 0.100990
O O6 0.489060 0.083367 0.325436
O O7 0.269967 0.169626 0.778879
O O8 0.829321 0.682467 0.634123
O O9 0.784420 0.385530 0.299119
O O10 0.862952 0.355231 0.218686
O O11 0.663309 0.196849 0.880261
O O12 0.230734 0.866392 0.302928
O O13 0.474770 0.282542 0.254627
O O14 0.497940 0.604977 0.772054
#
# Coordination Sequence:
#
# PCOD8042906 Si02
#       7
#     2   2   2   2   2   2   2
#     4  11  25  45  62  96 135 166 213 265 313 380
#     4  11  21  37  66  93 124 170 212 255 321 377
#     4  11  25  43  65  98 130 164 215 266 316 379
#     4  12  22  43  69  93 128 173 214 260 317 377
#     4  10  19  35  64  93 125 164 209 261 318 375
#     4   9  18  34  61  95 122 158 211 259 309 378
#     4  10  22  43  66  93 125 172 213 258 323 371
#
# _framework density 24.058568999999999
#
# number of rings (size 3 to 8) (size 9 to 14) (size 15 to 20)
#    0.000    1.429    5.714    1.714    0.000    1.143 
#    2.571    2.857    0.000    0.000    0.000    0.000 
#    0.000    0.000    0.000    0.000    0.000    0.000 
#
# Total GULP energy -173502.631892 kJ/mol
# GULP energy per Si atom -12393.045135 kJ/mol
# Density = 2.400381 g / cm^3
# Si number density = 24.058569 Si / 1000 Ang^3
#
#
#
# Elastic Constant Matrix: (Units=GPa)
#
#
# Indices 1 2 3 4 5 6 
#
# 1 82.5880 13.7655 61.0801 -2.3873 4.1249 -8.9871
# 2 13.7655 29.9722 35.0917 7.4088 13.1745 -1.1095
# 3 61.0801 35.0917 104.0827 10.4789 -7.0934 -4.0000
# 4 -2.3873 7.4088 10.4789 26.4271 -3.8109 8.9424
# 5 4.1249 13.1745 -7.0934 -3.8109 35.4160 2.4379
# 6 -8.9871 -1.1095 -4.0000 8.9424 2.4379 15.9016
#
#
#
# Elastic Compliance Matrix: (Units=1/GPa)
#
#
# Indices 1 2 3 4 5 6 
#
# 1 0.032589 0.033800 -0.031025 -0.004191 -0.024346 0.019062
# 2 0.033800 0.140479 -0.067154 -0.035521 -0.076475 0.043712
# 3 -0.031025 -0.067154 0.051649 0.008338 0.041229 -0.020238
# 4 -0.004191 -0.035521 0.008338 0.061646 0.024843 -0.041225
# 5 -0.024346 -0.076475 0.041229 0.024843 0.072781 -0.033853
# 6 0.019062 0.043712 -0.020238 -0.041225 -0.033853 0.099992
#
#
# Mechanical properties :
#
#
# Convention : Reuss Voigt Hill
#
# Bulk Modulus (GPa) = 10.42116 48.50196 29.46156
# Shear Modulus (GPa) = 8.06609 22.66267 15.36438
#
# Velocity S-wave (km/s) = 1.83302 3.07250 2.52984
# Velocity P-wave (km/s) = 2.97001 5.72632 4.56134
#
# Compressibility (1/GPa) = 0.09595857
#
# Stress axis : x y z
#
# Youngs Moduli (GPa) = 30.68488 7.11852 19.36164
#
# Poissons Ratio (x) = -0.24061 0.60070
# Poissons Ratio (y) = -1.03716 1.30021
# Poissons Ratio (z) = 0.95201 0.47804
#
# Static dielectric constant tensor:
#      x y z
#    x 4.593210 -0.055200 0.137980 
#    y -0.055200 3.896500 0.231990 
#    z 0.137980 0.231990 4.330200 
# 
# 
# High freq. dielectric constant tensor:
#      x y z
#    x 1.957380 -0.004050 0.003360 
#    y -0.004050 1.912580 0.019250 
#    z 0.003360 0.019250 1.964090 
# 
# From -- ./inp_files/477702.got.cif
#   From: 2010.06.25/outbox.cif.g09.slc.cpg/sg2_239_cif.got.tgz:477702.got - 2010.06.27 13:26:56.
