data_PCOD8042055
_publ_section_title
;
Structure prediction by ZEFSAII (Michael W. Deem and Ramdas Pophale) SiO2 
 PCOD8042055
Probable space group: P -1
;
_chemical_formula_sum "Si O2"
_cell_formula_units_Z 16
_cell_length_a 14.574149
_cell_length_b 12.434392
_cell_length_c 14.024119
_cell_angle_alpha 64.737537
_cell_angle_beta 30.283107
_cell_angle_gamma 44.473246
_cell_volume 757.850772
_symmetry_space_group_name_H-M "P -1"
_symmetry_group_IT_number 2
_symmetry_cell_setting 'triclinic'
loop_
_space_group_symop_operation_xyz
x,y,z
-x,-y,-z
loop_
_atom_site_type_symbol
_atom_site_label
_atom_site_fract_x
_atom_site_fract_y
_atom_site_fract_z
Si Si1 0.117864 0.625141 0.012038
Si Si2 0.649138 0.111684 0.514760
Si Si3 0.444864 0.661486 0.055975
Si Si4 0.274266 0.638304 0.405809
Si Si5 0.222986 0.435282 0.646783
Si Si6 0.104314 0.044950 0.235842
Si Si7 0.139676 0.246424 0.004019
Si Si8 0.903609 0.271208 0.812416
O O1 0.445846 0.445210 0.766180
O O2 0.964973 0.743293 0.009549
O O3 0.083462 0.745582 0.077863
O O4 0.982990 0.569956 0.194122
O O5 0.524053 0.235910 0.484922
O O6 0.863081 0.093650 0.379504
O O7 0.405544 0.200445 0.773738
O O8 0.795681 0.913300 0.428976
O O9 0.292005 0.643960 0.273335
O O10 0.321777 0.705916 0.043271
O O11 0.372315 0.828704 0.097227
O O12 0.777405 0.467446 0.830109
O O13 0.249446 0.511355 0.504819
O O14 0.012400 0.843054 0.603298
O O15 0.105664 0.561793 0.796526
O O16 0.225591 0.088343 0.044833
#
# Coordination Sequence:
#
# PCOD8042055 Si02
#       8
#     2   2   2   2   2   2   2   2
#     4  10  19  35  54  77 110 140 165 213 263 307
#     4  10  19  35  54  77 110 140 165 213 263 307
#     4   9  19  38  54  74 105 139 180 224 246 291
#     4  10  19  34  57  80 104 137 172 212 266 311
#     4  10  20  33  54  85 109 129 168 215 264 321
#     4  10  19  34  57  80 104 137 172 212 266 311
#     4  10  20  33  54  85 109 129 168 215 264 321
#     4   9  20  37  54  72 105 143 181 213 249 303
#
# _framework density 21.112337
#
# number of rings (size 3 to 8) (size 9 to 14) (size 15 to 20)
#    0.000    2.250    0.000    4.125    0.000    4.000 
#    0.000   23.750    0.000   13.500    0.000    0.000 
#    0.000    0.000    0.000    0.000    0.000    0.000 
#
# Total GULP energy -198243.085487 kJ/mol
# GULP energy per Si atom -12390.192843 kJ/mol
# Density = 2.106428 g / cm^3
# Si number density = 21.112337 Si / 1000 Ang^3
#
#
#
# Elastic Constant Matrix: (Units=GPa)
#
#
# Indices 1 2 3 4 5 6 
#
# 1 57.5999 10.7456 6.6785 -0.7030 21.3180 2.6643
# 2 10.7456 121.8867 43.2099 14.7540 9.3540 -2.4492
# 3 6.6785 43.2099 37.6531 5.0810 4.8916 2.7224
# 4 -0.7030 14.7540 5.0810 39.3805 -4.2829 -1.8076
# 5 21.3180 9.3540 4.8916 -4.2829 23.4817 0.5281
# 6 2.6643 -2.4492 2.7224 -1.8076 0.5281 15.1612
#
#
#
# Elastic Compliance Matrix: (Units=1/GPa)
#
#
# Indices 1 2 3 4 5 6 
#
# 1 0.026613 0.000100 -0.001095 -0.002241 -0.024294 -0.003885
# 2 0.000100 0.014826 -0.016483 -0.003557 -0.003325 0.005029
# 3 -0.001095 -0.016483 0.046803 -0.000605 -0.002055 -0.010875
# 4 -0.002241 -0.003557 -0.000605 0.027833 0.008588 0.002947
# 5 -0.024294 -0.003325 -0.002055 0.008588 0.067898 0.002760
# 6 -0.003885 0.005029 -0.010875 0.002947 0.002760 0.069661
#
#
# Mechanical properties :
#
#
# Convention : Reuss Voigt Hill
#
# Bulk Modulus (GPa) = 18.76724 37.60086 28.18405
# Shear Modulus (GPa) = 16.32104 26.03841 21.17972
#
# Velocity S-wave (km/s) = 2.78341 3.51569 3.17076
# Velocity P-wave (km/s) = 4.38615 5.85906 5.17528
#
# Compressibility (1/GPa) = 0.05328435
#
# Stress axis : x y z
#
# Youngs Moduli (GPa) = 37.57549 67.45071 21.36611
#
# Poissons Ratio (x) = -0.00673 0.02341
# Poissons Ratio (y) = -0.00375 0.35218
# Poissons Ratio (z) = 0.04116 1.11179
#
# Static dielectric constant tensor:
#      x y z
#    x 3.639950 -0.009920 0.106230 
#    y -0.009920 4.086220 0.272100 
#    z 0.106230 0.272100 3.840310 
# 
# 
# High freq. dielectric constant tensor:
#      x y z
#    x 1.819780 -0.004140 0.008960 
#    y -0.004140 1.824580 0.021720 
#    z 0.008960 0.021720 1.809750 
# 
# From -- ./inp_files/304602.got.cif
#   From: 2010.06.25/outbox.cif.g09.slc.cpg/sg2_153_cif.got.tgz:304602.got - 2010.06.27 13:26:56.
