data_PCOD8042604
_publ_section_title
;
Structure prediction by ZEFSAII (Michael W. Deem and Ramdas Pophale) SiO2 
 PCOD8042604
Probable space group: P -1
;
_chemical_formula_sum "Si O2"
_cell_formula_units_Z 14
_cell_length_a 10.599199
_cell_length_b 11.929194
_cell_length_c 8.614473
_cell_angle_alpha 79.879542
_cell_angle_beta 85.131490
_cell_angle_gamma 44.618373
_cell_volume 751.864921
_symmetry_space_group_name_H-M "P -1"
_symmetry_group_IT_number 2
_symmetry_cell_setting 'triclinic'
loop_
_space_group_symop_operation_xyz
x,y,z
-x,-y,-z
loop_
_atom_site_type_symbol
_atom_site_label
_atom_site_fract_x
_atom_site_fract_y
_atom_site_fract_z
Si Si1 0.152327 0.534455 0.200912
Si Si2 0.672635 0.914131 0.400967
Si Si3 0.936510 0.328122 0.503317
Si Si4 0.806815 0.623689 0.262252
Si Si5 0.634425 0.388814 0.372895
Si Si6 0.458654 0.766812 0.757117
Si Si7 0.376086 0.426590 0.930528
O O1 0.100582 0.657784 0.311173
O O2 0.330343 0.349555 0.281258
O O3 0.988277 0.553967 0.179925
O O4 0.205938 0.566599 0.027917
O O5 0.695593 0.797274 0.306566
O O6 0.849932 0.815745 0.514261
O O7 0.500000 0.000000 0.500000
O O8 0.646246 0.047865 0.276471
O O9 0.861779 0.498414 0.418471
O O10 0.836513 0.292187 0.427880
O O11 0.677863 0.650112 0.142905
O O12 0.500000 0.500000 0.500000
O O13 0.630986 0.259635 0.354922
O O14 0.572525 0.501568 0.202305
O O15 0.451992 0.716214 0.944520
#
# Coordination Sequence:
#
# PCOD8042604 Si02
#       7
#     2   2   2   2   2   2   2
#     4   9  17  34  54  85 109 140 185 228 279 326
#     4  11  22  35  56  85 120 143 182 233 283 331
#     4  10  20  35  60  84 107 153 190 227 271 327
#     4  10  19  35  59  82 113 145 192 226 276 336
#     4  11  20  37  62  82 107 146 200 230 264 333
#     4  10  21  34  56  81 116 146 181 229 285 314
#     4   9  21  33  59  85 106 147 189 232 278 324
#
# _framework density 18.620367999999999
#
# number of rings (size 3 to 8) (size 9 to 14) (size 15 to 20)
#    0.857    1.143    1.429    4.286    2.000    1.143 
#    0.000    0.000    0.000    4.286    0.000    0.000 
#    0.000    0.000    0.000    0.000    0.000    0.000 
#
# Total GULP energy -173502.459306 kJ/mol
# GULP energy per Si atom -12393.032808 kJ/mol
# Density = 1.857799 g / cm^3
# Si number density = 18.620368 Si / 1000 Ang^3
#
#
#
# Elastic Constant Matrix: (Units=GPa)
#
#
# Indices 1 2 3 4 5 6 
#
# 1 82.3985 48.2189 36.2078 8.0032 7.5624 2.0888
# 2 48.2189 99.3394 38.9348 4.0695 3.8105 1.1634
# 3 36.2078 38.9348 102.7709 3.8427 -7.8902 1.7685
# 4 8.0032 4.0695 3.8427 17.0023 -1.4563 -1.5357
# 5 7.5624 3.8105 -7.8902 -1.4563 37.5450 0.2967
# 6 2.0888 1.1634 1.7685 -1.5357 0.2967 25.0293
#
#
#
# Elastic Compliance Matrix: (Units=1/GPa)
#
#
# Indices 1 2 3 4 5 6 
#
# 1 0.019300 -0.007308 -0.004076 -0.006901 -0.004259 -0.001356
# 2 -0.007308 0.014838 -0.003122 0.000553 -0.000670 0.000183
# 3 -0.004076 -0.003122 0.012646 0.000093 0.003803 -0.000448
# 4 -0.006901 0.000553 0.000093 0.062624 0.003748 0.004342
# 5 -0.004259 -0.000670 0.003803 0.003748 0.028505 0.000010
# 6 -0.001356 0.000183 -0.000448 0.004342 0.000010 0.040356
#
#
# Mechanical properties :
#
#
# Convention : Reuss Voigt Hill
#
# Bulk Modulus (GPa) = 56.27409 59.02575 57.64992
# Shear Modulus (GPa) = 23.45155 26.65846 25.05500
#
# Velocity S-wave (km/s) = 3.55273 3.78786 3.67218
# Velocity P-wave (km/s) = 6.86415 7.13435 7.00056
#
# Compressibility (1/GPa) = 0.01777017
#
# Stress axis : x y z
#
# Youngs Moduli (GPa) = 51.81392 67.39246 79.07945
#
# Poissons Ratio (x) = 0.49253 0.32237
# Poissons Ratio (y) = 0.37867 0.24688
# Poissons Ratio (z) = 0.21122 0.21040
#
# Static dielectric constant tensor:
#      x y z
#    x 3.561360 -0.056240 0.094330 
#    y -0.056240 3.143900 0.012100 
#    z 0.094330 0.012100 3.437490 
# 
# 
# High freq. dielectric constant tensor:
#      x y z
#    x 1.732870 -0.001310 0.008020 
#    y -0.001310 1.686080 0.005980 
#    z 0.008020 0.005980 1.723780 
# 
# From -- ./inp_files/250791.got.cif
#   From: 2010.06.25/outbox.cif.g09.slc.cpg/sg2_126_cif.got.tgz:250791.got - 2010.06.27 13:26:56.
