data_PCOD8042968
_publ_section_title
;
Structure prediction by ZEFSAII (Michael W. Deem and Ramdas Pophale) SiO2 
 PCOD8042968
Probable space group: P -1
;
_chemical_formula_sum "Si O2"
_cell_formula_units_Z 12
_cell_length_a 11.228748
_cell_length_b 23.224459
_cell_length_c 22.830000
_cell_angle_alpha 167.347582
_cell_angle_beta 25.578659
_cell_angle_gamma 150.606648
_cell_volume 560.574912
_symmetry_space_group_name_H-M "P -1"
_symmetry_group_IT_number 2
_symmetry_cell_setting 'triclinic'
loop_
_space_group_symop_operation_xyz
x,y,z
-x,-y,-z
loop_
_atom_site_type_symbol
_atom_site_label
_atom_site_fract_x
_atom_site_fract_y
_atom_site_fract_z
Si Si1 0.221198 0.916396 0.763098
Si Si2 0.835171 0.657217 0.498184
Si Si3 0.698310 0.178366 0.031511
Si Si4 0.175286 0.236720 0.642543
Si Si5 0.035248 0.548230 0.641546
Si Si6 0.478679 0.861452 0.713701
O O1 0.531072 0.799924 0.490037
O O2 0.231279 0.958665 0.872462
O O3 0.015592 0.695368 0.619546
O O4 0.163139 0.189394 0.024693
O O5 0.859975 0.443729 0.221489
O O6 0.517424 0.747797 0.746951
O O7 0.016190 0.544106 0.360775
O O8 0.923799 0.932010 0.704686
O O9 0.538126 0.107064 0.972407
O O10 0.243796 0.241341 0.546827
O O11 0.000000 0.000000 0.500000
O O12 0.000000 0.500000 0.000000
O O13 0.356397 0.622730 0.567179
#
# Coordination Sequence:
#
# PCOD8042968 Si02
#       6
#     2   2   2   2   2   2
#     4  10  24  34  59  81 120 146 181 226 287 346
#     4  10  21  31  55  74 125 147 187 212 269 344
#     4  10  19  36  48  84 108 160 182 224 264 326
#     4  10  23  40  56  81 109 148 195 233 275 322
#     4  12  20  37  52  92 116 154 170 222 289 350
#     4  10  23  34  62  81 122 143 189 230 281 336
#
# _framework density 21.406594999999999
#
# number of rings (size 3 to 8) (size 9 to 14) (size 15 to 20)
#    1.000    0.667    0.000    7.000    0.000    6.667 
#    0.000    0.000    0.000    0.000    0.000   23.333 
#    0.000    0.000    0.000    0.000    0.000    0.000 
#
# Total GULP energy -148662.632761 kJ/mol
# GULP energy per Si atom -12388.552730 kJ/mol
# Density = 2.135787 g / cm^3
# Si number density = 21.406595 Si / 1000 Ang^3
#
#
#
# Elastic Constant Matrix: (Units=GPa)
#
#
# Indices 1 2 3 4 5 6 
#
# 1 135.9285 26.1804 78.6237 0.6201 14.4222 -1.3909
# 2 26.1804 52.1067 26.5369 -2.6840 15.3160 2.3808
# 3 78.6237 26.5369 196.4416 14.2870 21.5675 5.6282
# 4 0.6201 -2.6840 14.2870 20.4423 1.8649 2.6517
# 5 14.4222 15.3160 21.5675 1.8649 49.0977 4.1024
# 6 -1.3909 2.3808 5.6282 2.6517 4.1024 10.4574
#
#
#
# Elastic Compliance Matrix: (Units=1/GPa)
#
#
# Indices 1 2 3 4 5 6 
#
# 1 0.010292 -0.003097 -0.003843 0.001510 -0.000766 0.004060
# 2 -0.003097 0.023690 -0.001616 0.005378 -0.005633 -0.004089
# 3 -0.003843 -0.001616 0.007404 -0.004844 -0.001233 -0.002416
# 4 0.001510 0.005378 -0.004844 0.054598 -0.001078 -0.011838
# 5 -0.000766 -0.005633 -0.001233 -0.001078 0.023527 -0.007112
# 6 0.004060 -0.004089 -0.002416 -0.011838 -0.007112 0.104189
#
#
# Mechanical properties :
#
#
# Convention : Reuss Voigt Hill
#
# Bulk Modulus (GPa) = 41.19628 71.90656 56.55142
# Shear Modulus (GPa) = 20.08814 32.87519 26.48167
#
# Velocity S-wave (km/s) = 3.06667 3.92312 3.52103
# Velocity P-wave (km/s) = 5.64143 7.36104 6.55784
#
# Compressibility (1/GPa) = 0.02427404
#
# Stress axis : x y z
#
# Youngs Moduli (GPa) = 97.16277 42.21178 135.06148
#
# Poissons Ratio (x) = 0.13071 0.51905
# Poissons Ratio (y) = 0.30087 0.21832
# Poissons Ratio (z) = 0.37340 0.06823
#
# Static dielectric constant tensor:
#      x y z
#    x 3.850420 0.011040 -0.043140 
#    y 0.011040 3.463520 0.211030 
#    z -0.043140 0.211030 4.231240 
# 
# 
# High freq. dielectric constant tensor:
#      x y z
#    x 1.844840 -0.001800 -0.000410 
#    y -0.001800 1.767550 0.020960 
#    z -0.000410 0.020960 1.873710 
# 
# From -- ./inp_files/610956.got.cif
#   From: 2010.06.25/outbox.cif.g09.slc.cpg/sg2_306_cif.got.tgz:610956.got - 2010.06.27 13:26:56.
