data_PCOD8042731
_publ_section_title
;
Structure prediction by ZEFSAII (Michael W. Deem and Ramdas Pophale) SiO2 
 PCOD8042731
Probable space group: P -1
;
_chemical_formula_sum "Si O2"
_cell_formula_units_Z 16
_cell_length_a 10.639995
_cell_length_b 16.771123
_cell_length_c 16.327937
_cell_angle_alpha 32.914281
_cell_angle_beta 32.516992
_cell_angle_gamma 54.037513
_cell_volume 775.100897
_symmetry_space_group_name_H-M "P -1"
_symmetry_group_IT_number 2
_symmetry_cell_setting 'triclinic'
loop_
_space_group_symop_operation_xyz
x,y,z
-x,-y,-z
loop_
_atom_site_type_symbol
_atom_site_label
_atom_site_fract_x
_atom_site_fract_y
_atom_site_fract_z
Si Si1 0.805549 0.329550 0.021380
Si Si2 0.403353 0.083606 0.756340
Si Si3 0.909483 0.773917 0.927863
Si Si4 0.918654 0.679891 0.655251
Si Si5 0.761564 0.910042 0.441558
Si Si6 0.503246 0.150931 0.822447
Si Si7 0.990825 0.172333 0.350831
Si Si8 0.066193 0.867577 0.001669
O O1 0.546318 0.171058 0.317783
O O2 0.935184 0.292479 0.901243
O O3 0.996618 0.354204 0.972389
O O4 0.754267 0.488254 0.899491
O O5 0.369624 0.059734 0.892112
O O6 0.706824 0.169908 0.496801
O O7 0.280779 0.921200 0.909535
O O8 0.214342 0.176110 0.764042
O O9 0.855147 0.738153 0.892180
O O10 0.651153 0.760354 0.125175
O O11 0.131063 0.953202 0.665473
O O12 0.855312 0.771925 0.535908
O O13 0.215416 0.711014 0.462773
O O14 0.863671 0.731838 0.730971
O O15 0.862395 0.987153 0.230519
O O16 0.500000 0.000000 0.000000
O O17 0.000000 0.000000 0.500000
#
# Coordination Sequence:
#
# PCOD8042731 Si02
#       8
#     2   2   2   2   2   2   2   2
#     4  11  23  37  57  90 122 154 191 241 305 342
#     4  10  19  35  60  92 109 145 202 246 277 334
#     4  11  20  38  63  87 111 158 199 242 288 341
#     4  11  24  37  61  88 119 158 188 244 299 349
#     4  11  19  38  60  85 116 156 197 236 285 352
#     4  11  19  39  63  86 116 151 200 242 282 354
#     4  11  21  36  59  89 115 149 200 244 286 342
#     4  10  20  36  63  87 113 154 199 242 279 347
#
# _framework density 20.642472999999999
#
# number of rings (size 3 to 8) (size 9 to 14) (size 15 to 20)
#    0.000    1.250    5.000    4.125    0.000    1.000 
#    0.000    0.000    2.750    3.750    0.000    0.000 
#    0.000    0.000    0.000    0.000    0.000    0.000 
#
# Total GULP energy -198221.856253 kJ/mol
# GULP energy per Si atom -12388.866016 kJ/mol
# Density = 2.059549 g / cm^3
# Si number density = 20.642473 Si / 1000 Ang^3
#
#
#
# Elastic Constant Matrix: (Units=GPa)
#
#
# Indices 1 2 3 4 5 6 
#
# 1 64.2044 22.8475 -4.0520 17.8192 6.8736 8.6738
# 2 22.8475 97.7360 20.2832 3.8488 10.4351 7.3503
# 3 -4.0520 20.2832 36.6418 3.0181 3.9050 3.5470
# 4 17.8192 3.8488 3.0181 35.0869 -1.0608 4.0152
# 5 6.8736 10.4351 3.9050 -1.0608 22.0711 2.8320
# 6 8.6738 7.3503 3.5470 4.0152 2.8320 36.6053
#
#
#
# Elastic Compliance Matrix: (Units=1/GPa)
#
#
# Indices 1 2 3 4 5 6 
#
# 1 0.022053 -0.005371 0.007241 -0.011041 -0.005731 -0.003194
# 2 -0.005371 0.013407 -0.007779 0.001905 -0.003117 -0.000633
# 3 0.007241 -0.007779 0.033570 -0.005567 -0.004470 -0.002450
# 4 -0.011041 0.001905 -0.005567 0.034706 0.005377 -0.001450
# 5 -0.005731 -0.003117 -0.004470 0.005377 0.049877 -0.002032
# 6 -0.003194 -0.000633 -0.002450 -0.001450 -0.002032 0.028756
#
#
# Mechanical properties :
#
#
# Convention : Reuss Voigt Hill
#
# Bulk Modulus (GPa) = 17.47862 30.74884 24.11373
# Shear Modulus (GPa) = 23.44581 29.38623 26.41602
#
# Velocity S-wave (km/s) = 3.37383 3.77713 3.58116
# Velocity P-wave (km/s) = 4.86442 5.82671 5.36718
#
# Compressibility (1/GPa) = 0.05721277
#
# Stress axis : x y z
#
# Youngs Moduli (GPa) = 45.34519 74.58775 29.78839
#
# Poissons Ratio (x) = 0.40063 -0.21571
# Poissons Ratio (y) = 0.24356 0.23172
# Poissons Ratio (z) = -0.32836 0.58021
#
# Static dielectric constant tensor:
#      x y z
#    x 4.205560 -0.113950 -0.305860 
#    y -0.113950 3.860390 0.447290 
#    z -0.305860 0.447290 3.717190 
# 
# 
# High freq. dielectric constant tensor:
#      x y z
#    x 1.822520 -0.005160 -0.007470 
#    y -0.005160 1.808820 0.027160 
#    z -0.007470 0.027160 1.768110 
# 
# From -- ./inp_files/176395.got.cif
#   From: 2010.06.25/outbox.cif.g09.slc.cpg/sg2_89_cif.got.tgz:176395.got - 2010.06.27 13:26:56.
