data_PCOD8042080
_publ_section_title
;
Structure prediction by ZEFSAII (Michael W. Deem and Ramdas Pophale) SiO2 
 PCOD8042080
Probable space group: P -1
;
_chemical_formula_sum "Si O2"
_cell_formula_units_Z 12
_cell_length_a 11.772012
_cell_length_b 12.371587
_cell_length_c 7.045685
_cell_angle_alpha 78.753962
_cell_angle_beta 67.992156
_cell_angle_gamma 36.472054
_cell_volume 554.889844
_symmetry_space_group_name_H-M "P -1"
_symmetry_group_IT_number 2
_symmetry_cell_setting 'triclinic'
loop_
_space_group_symop_operation_xyz
x,y,z
-x,-y,-z
loop_
_atom_site_type_symbol
_atom_site_label
_atom_site_fract_x
_atom_site_fract_y
_atom_site_fract_z
Si Si1 0.276482 0.391441 0.855649
Si Si2 0.388098 0.465738 0.071049
Si Si3 0.289635 0.015179 0.301839
Si Si4 0.022611 0.856884 0.270207
Si Si5 0.776128 0.068198 0.980846
Si Si6 0.062333 0.398564 0.299475
O O1 0.470203 0.178240 0.737043
O O2 0.132779 0.513478 0.720025
O O3 0.349360 0.455838 0.878456
O O4 0.161021 0.417377 0.094271
O O5 0.174908 0.639576 0.260010
O O6 0.500000 0.500000 0.000000
O O7 0.545395 0.263977 0.137657
O O8 0.242491 0.024199 0.109204
O O9 0.230340 0.184123 0.319843
O O10 0.155188 0.027563 0.505509
O O11 0.139486 0.888737 0.210006
O O12 0.928843 0.922353 0.097323
O O13 0.000000 0.500000 0.500000
#
# Coordination Sequence:
#
# PCOD8042080 Si02
#       6
#     2   2   2   2   2   2
#     4  10  23  41  59  87 119 150 194 241 288 341
#     4   9  18  36  61  85 114 150 187 233 287 342
#     4  11  22  36  59  85 113 150 194 239 286 341
#     4  10  19  34  57  85 116 153 189 229 287 345
#     4   9  20  36  55  83 119 151 187 236 284 339
#     4  11  24  41  61  83 115 157 197 240 286 339
#
# _framework density 21.625914000000002
#
# number of rings (size 3 to 8) (size 9 to 14) (size 15 to 20)
#    0.000    2.000    0.000    3.000    0.000    6.000 
#    0.000    0.000    0.000   18.000    0.000    0.000 
#    0.000    0.000    0.000    0.000    0.000    0.000 
#
# Total GULP energy -148736.080617 kJ/mol
# GULP energy per Si atom -12394.673385 kJ/mol
# Density = 2.157669 g / cm^3
# Si number density = 21.625914 Si / 1000 Ang^3
#
#
#
# Elastic Constant Matrix: (Units=GPa)
#
#
# Indices 1 2 3 4 5 6 
#
# 1 92.2709 36.3876 22.3800 7.3395 21.6768 -4.4937
# 2 36.3876 106.2319 39.0083 26.5388 0.8010 4.2467
# 3 22.3800 39.0083 74.9473 15.2488 -0.4432 -3.0894
# 4 7.3395 26.5388 15.2488 30.5598 1.7870 -0.1273
# 5 21.6768 0.8010 -0.4432 1.7870 21.2180 8.5138
# 6 -4.4937 4.2467 -3.0894 -0.1273 8.5138 31.0813
#
#
#
# Elastic Compliance Matrix: (Units=1/GPa)
#
#
# Indices 1 2 3 4 5 6 
#
# 1 0.020588 -0.007303 -0.002954 0.004405 -0.025474 0.010677
# 2 -0.007303 0.016444 -0.004355 -0.010985 0.010326 -0.006609
# 3 -0.002954 -0.004355 0.017449 -0.004420 0.003553 0.000911
# 4 0.004405 -0.010985 -0.004420 0.043996 -0.009704 0.004537
# 5 -0.025474 0.010326 0.003553 -0.009704 0.084907 -0.028038
# 6 0.010677 -0.006609 0.000911 0.004537 -0.028038 0.042410
#
#
# Mechanical properties :
#
#
# Convention : Reuss Voigt Hill
#
# Bulk Modulus (GPa) = 39.58904 52.11133 45.85018
# Shear Modulus (GPa) = 18.97994 28.28344 23.63169
#
# Velocity S-wave (km/s) = 2.96573 3.62034 3.30926
# Velocity P-wave (km/s) = 5.48392 6.45173 5.98742
#
# Compressibility (1/GPa) = 0.02525952
#
# Stress axis : x y z
#
# Youngs Moduli (GPa) = 48.57192 60.81091 57.31001
#
# Poissons Ratio (x) = 0.44408 0.16928
# Poissons Ratio (y) = 0.35470 0.24956
# Poissons Ratio (z) = 0.14347 0.26481
#
# Static dielectric constant tensor:
#      x y z
#    x 4.079130 -0.219550 0.013560 
#    y -0.219550 4.379770 0.373070 
#    z 0.013560 0.373070 3.642960 
# 
# 
# High freq. dielectric constant tensor:
#      x y z
#    x 1.857800 -0.008130 0.007220 
#    y -0.008130 1.863270 0.022390 
#    z 0.007220 0.022390 1.820270 
# 
# From -- ./inp_files/27986.got.cif
#   From: 2010.06.25/outbox.cif.g09.slc.cpg/sg2_14_cif.got.tgz:27986.got - 2010.06.27 13:26:56.
