data_PCOD8042020
_publ_section_title
;
Structure prediction by ZEFSAII (Michael W. Deem and Ramdas Pophale) SiO2 
 PCOD8042020
Probable space group: P -1
;
_chemical_formula_sum "Si O2"
_cell_formula_units_Z 16
_cell_length_a 20.817501
_cell_length_b 12.058599
_cell_length_c 15.506013
_cell_angle_alpha 151.493027
_cell_angle_beta 25.651211
_cell_angle_gamma 150.993036
_cell_volume 737.461204
_symmetry_space_group_name_H-M "P -1"
_symmetry_group_IT_number 2
_symmetry_cell_setting 'triclinic'
loop_
_space_group_symop_operation_xyz
x,y,z
-x,-y,-z
loop_
_atom_site_type_symbol
_atom_site_label
_atom_site_fract_x
_atom_site_fract_y
_atom_site_fract_z
Si Si1 0.202371 0.624664 0.623503
Si Si2 0.324567 0.111334 0.901612
Si Si3 0.174734 0.310010 0.671734
Si Si4 0.020155 0.878952 0.687609
Si Si5 0.538346 0.345531 0.954308
Si Si6 0.316864 0.228606 0.282065
Si Si7 0.154656 0.673466 0.521424
Si Si8 0.906106 0.310446 0.872081
O O1 0.250749 0.384320 0.402138
O O2 0.211053 0.740463 0.596773
O O3 0.022104 0.530488 0.818101
O O4 0.332429 0.855698 0.679529
O O5 0.381723 0.148316 0.957066
O O6 0.139468 0.066865 0.081378
O O7 0.444047 0.365070 0.881832
O O8 0.322570 0.335876 0.445657
O O9 0.011901 0.227798 0.755248
O O10 0.206756 0.575839 0.861928
O O11 0.158308 0.094242 0.613184
O O12 0.985903 0.607942 0.500439
O O13 0.085654 0.871248 0.700529
O O14 0.699041 0.314948 0.709914
O O15 0.494588 0.273993 0.059685
O O16 0.202396 0.931799 0.217625
#
# Coordination Sequence:
#
# PCOD8042020 Si02
#       8
#     2   2   2   2   2   2   2   2
#     4  11  20  35  59  94 117 151 200 249 304 347
#     4  10  20  36  60  85 122 152 194 255 294 349
#     4  10  19  34  56  84 113 157 193 244 289 340
#     4  10  19  39  60  84 120 152 204 246 294 345
#     4  10  22  38  54  86 124 158 195 240 299 358
#     4  11  22  33  57  87 121 157 194 241 296 354
#     4  10  22  36  60  86 119 163 190 246 300 354
#     4  10  20  34  56  90 119 148 196 257 290 338
#
# _framework density 21.696055000000001
#
# number of rings (size 3 to 8) (size 9 to 14) (size 15 to 20)
#    0.000    1.750    1.250    6.000    3.500    2.500 
#    0.000    0.625    0.000    0.750    0.000    0.000 
#    0.000    0.000    0.000    0.000    0.000    0.000 
#
# Total GULP energy -198335.907431 kJ/mol
# GULP energy per Si atom -12395.994214 kJ/mol
# Density = 2.164667 g / cm^3
# Si number density = 21.696055 Si / 1000 Ang^3
#
#
#
# Elastic Constant Matrix: (Units=GPa)
#
#
# Indices 1 2 3 4 5 6 
#
# 1 70.2161 29.7135 27.3088 -0.3913 4.3211 -18.8256
# 2 29.7135 90.1745 43.2935 3.5337 15.5096 -7.7165
# 3 27.3088 43.2935 89.5991 -2.6011 26.3857 -1.5124
# 4 -0.3913 3.5337 -2.6011 30.3499 -3.5329 7.9463
# 5 4.3211 15.5096 26.3857 -3.5329 31.5866 -0.2612
# 6 -18.8256 -7.7165 -1.5124 7.9463 -0.2612 29.2930
#
#
#
# Elastic Compliance Matrix: (Units=1/GPa)
#
#
# Indices 1 2 3 4 5 6 
#
# 1 0.021280 -0.003677 -0.005546 -0.002849 0.003318 0.013223
# 2 -0.003677 0.015904 -0.005789 -0.003356 -0.002826 0.002413
# 3 -0.005546 -0.005789 0.019245 0.002070 -0.012283 -0.004766
# 4 -0.002849 -0.003356 0.002070 0.037313 0.004377 -0.012691
# 5 0.003318 -0.002826 -0.012283 0.004377 0.043343 -0.000047
# 6 0.013223 0.002413 -0.004766 -0.012691 -0.000047 0.046468
#
#
# Mechanical properties :
#
#
# Convention : Reuss Voigt Hill
#
# Bulk Modulus (GPa) = 37.86895 50.06904 43.96899
# Shear Modulus (GPa) = 22.48437 28.22417 25.35427
#
# Velocity S-wave (km/s) = 3.22271 3.61070 3.42221
# Velocity P-wave (km/s) = 5.59821 6.36478 5.99376
#
# Compressibility (1/GPa) = 0.02640686
#
# Stress axis : x y z
#
# Youngs Moduli (GPa) = 46.99306 62.87556 51.96164
#
# Poissons Ratio (x) = 0.23118 0.28816
# Poissons Ratio (y) = 0.17278 0.30079
# Poissons Ratio (z) = 0.26061 0.36396
#
# Static dielectric constant tensor:
#      x y z
#    x 3.596340 -0.225340 0.215790 
#    y -0.225340 3.917780 0.006470 
#    z 0.215790 0.006470 3.963920 
# 
# 
# High freq. dielectric constant tensor:
#      x y z
#    x 1.805900 -0.021450 0.023860 
#    y -0.021450 1.854670 0.005620 
#    z 0.023860 0.005620 1.847840 
# 
# From -- ./inp_files/433204.got.cif
#   From: 2010.06.25/outbox.cif.g09.slc.cpg/sg2_217_cif.got.tgz:433204.got - 2010.06.27 13:26:56.
