data_PCOD8042883
_publ_section_title
;
Structure prediction by ZEFSAII (Michael W. Deem and Ramdas Pophale) SiO2 
 PCOD8042883
Probable space group: P -1
;
_chemical_formula_sum "Si O2"
_cell_formula_units_Z 16
_cell_length_a 12.083705
_cell_length_b 12.451523
_cell_length_c 9.189673
_cell_angle_alpha 128.280590
_cell_angle_beta 69.350415
_cell_angle_gamma 131.697565
_cell_volume 806.243033
_symmetry_space_group_name_H-M "P -1"
_symmetry_group_IT_number 2
_symmetry_cell_setting 'triclinic'
loop_
_space_group_symop_operation_xyz
x,y,z
-x,-y,-z
loop_
_atom_site_type_symbol
_atom_site_label
_atom_site_fract_x
_atom_site_fract_y
_atom_site_fract_z
Si Si1 0.353638 0.060632 0.383336
Si Si2 0.102646 0.347979 0.501735
Si Si3 0.694735 0.290095 0.412851
Si Si4 0.772324 0.134814 0.007151
Si Si5 0.026805 0.862545 0.883663
Si Si6 0.822665 0.292003 0.658422
Si Si7 0.900495 0.630269 0.000929
Si Si8 0.157169 0.186097 0.584016
O O1 0.525406 0.192933 0.458013
O O2 0.282849 0.160112 0.525420
O O3 0.281580 0.896346 0.382572
O O4 0.342656 0.007583 0.175105
O O5 0.233518 0.513582 0.492667
O O6 0.977626 0.199163 0.327496
O O7 0.178022 0.279404 0.500577
O O8 0.998433 0.377229 0.668668
O O9 0.703036 0.211971 0.192186
O O10 0.783776 0.282490 0.497420
O O11 0.813266 0.049981 0.039857
O O12 0.924599 0.280278 0.969394
O O13 0.896320 0.698225 0.900824
O O14 0.000000 0.000000 0.000000
O O15 0.803286 0.422460 0.863610
O O16 0.829858 0.688000 0.194069
O O17 0.000000 0.000000 0.500000
#
# Coordination Sequence:
#
# PCOD8042883 Si02
#       8
#     2   2   2   2   2   2   2   2
#     4  12  27  41  65  92 138 166 208 258 323 387
#     4  12  21  39  73  88 130 161 217 271 302 375
#     4  12  24  43  62  99 128 167 208 263 326 371
#     4  10  20  39  62  95 122 160 212 259 314 371
#     4  10  19  35  63  97 123 159 214 268 307 362
#     4  12  22  43  67  97 121 170 216 266 308 370
#     4  10  21  37  66  96 123 153 229 258 306 366
#     4  12  23  42  63  98 125 171 209 257 319 373
#
# _framework density 19.845133000000001
#
# number of rings (size 3 to 8) (size 9 to 14) (size 15 to 20)
#    0.750    0.000    6.250    2.625    1.750    1.500 
#    0.000    0.625    0.000    0.000    0.000    0.000 
#    0.000    0.000    0.000    0.000    0.000    0.000 
#
# Total GULP energy -198312.375575 kJ/mol
# GULP energy per Si atom -12394.523473 kJ/mol
# Density = 1.979996 g / cm^3
# Si number density = 19.845133 Si / 1000 Ang^3
#
#
#
# Elastic Constant Matrix: (Units=GPa)
#
#
# Indices 1 2 3 4 5 6 
#
# 1 87.6925 54.9530 17.3188 8.0831 -16.7519 -10.3455
# 2 54.9530 112.1184 21.0709 6.7300 -17.0881 -14.6850
# 3 17.3188 21.0709 100.9563 8.2756 -11.0294 -10.7388
# 4 8.0831 6.7300 8.2756 24.6609 -5.6794 -0.2306
# 5 -16.7519 -17.0881 -11.0294 -5.6794 19.8854 -1.3793
# 6 -10.3455 -14.6850 -10.7388 -0.2306 -1.3793 37.0793
#
#
#
# Elastic Compliance Matrix: (Units=1/GPa)
#
#
# Indices 1 2 3 4 5 6 
#
# 1 0.017949 -0.007003 -0.000262 -0.001883 0.008591 0.002467
# 2 -0.007003 0.013834 -0.000675 0.000139 0.005900 0.003550
# 3 -0.000262 -0.000675 0.011144 -0.002305 0.004934 0.003056
# 4 -0.001883 0.000139 -0.002305 0.044163 0.009834 -0.000497
# 5 0.008591 0.005900 0.004934 0.009834 0.068750 0.008781
# 6 0.002467 0.003550 0.003056 -0.000497 0.008781 0.030272
#
#
# Mechanical properties :
#
#
# Convention : Reuss Voigt Hill
#
# Bulk Modulus (GPa) = 36.97269 54.16141 45.56705
# Shear Modulus (GPa) = 23.69571 30.15341 26.92456
#
# Velocity S-wave (km/s) = 3.45922 3.90222 3.68738
# Velocity P-wave (km/s) = 5.88439 6.90322 6.41406
#
# Compressibility (1/GPa) = 0.02704699
#
# Stress axis : x y z
#
# Youngs Moduli (GPa) = 55.71241 72.28447 89.73271
#
# Poissons Ratio (x) = 0.50620 0.02354
# Poissons Ratio (y) = 0.39014 0.06059
# Poissons Ratio (z) = 0.01461 0.04881
#
# Static dielectric constant tensor:
#      x y z
#    x 3.585130 -0.161320 0.087660 
#    y -0.161320 3.485530 0.066070 
#    z 0.087660 0.066070 3.572440 
# 
# 
# High freq. dielectric constant tensor:
#      x y z
#    x 1.760140 -0.026940 0.000340 
#    y -0.026940 1.756270 0.000180 
#    z 0.000340 0.000180 1.784980 
# 
# From -- ./inp_files/263015.got.cif
#   From: 2010.06.25/outbox.cif.g09.slc.cpg/sg2_132_cif.got.tgz:263015.got - 2010.06.27 13:26:56.
