data_PCOD8042962
_publ_section_title
;
Structure prediction by ZEFSAII (Michael W. Deem and Ramdas Pophale) SiO2 
 PCOD8042962
Probable space group: P -1
;
_chemical_formula_sum "Si O2"
_cell_formula_units_Z 14
_cell_length_a 15.879275
_cell_length_b 9.963195
_cell_length_c 15.527005
_cell_angle_alpha 35.137197
_cell_angle_beta 147.114303
_cell_angle_gamma 151.980689
_cell_volume 597.769660
_symmetry_space_group_name_H-M "P -1"
_symmetry_group_IT_number 2
_symmetry_cell_setting 'triclinic'
loop_
_space_group_symop_operation_xyz
x,y,z
-x,-y,-z
loop_
_atom_site_type_symbol
_atom_site_label
_atom_site_fract_x
_atom_site_fract_y
_atom_site_fract_z
Si Si1 0.482824 0.188863 0.317053
Si Si2 0.542004 0.185151 0.853896
Si Si3 0.352531 0.860878 0.205762
Si Si4 0.117120 0.336216 0.529899
Si Si5 0.238362 0.287894 0.480525
Si Si6 0.940331 0.202704 0.781758
Si Si7 0.041797 0.256274 0.026139
O O1 0.673408 0.540579 0.309327
O O2 0.500000 0.000000 0.500000
O O3 0.489197 0.105249 0.268213
O O4 0.270547 0.102508 0.201986
O O5 0.543985 0.008084 0.867095
O O6 0.376092 0.225541 0.676297
O O7 0.756968 0.509662 0.871910
O O8 0.500000 0.000000 0.000000
O O9 0.353621 0.579566 0.366795
O O10 0.131612 0.759106 0.069435
O O11 0.137905 0.348572 0.437640
O O12 0.071876 0.561066 0.400851
O O13 0.934929 0.995982 0.577900
O O14 0.075687 0.362018 0.899602
O O15 0.015923 0.075761 0.847015
#
# Coordination Sequence:
#
# PCOD8042962 Si02
#       7
#     2   2   2   2   2   2   2
#     4   9  16  34  65  97 131 172 213 267 328 388
#     4  12  27  42  66  98 138 177 225 275 334 386
#     4  11  23  44  69 103 130 174 230 270 326 403
#     4  10  19  35  68  99 135 169 217 269 336 387
#     4  11  22  40  68 100 134 170 223 276 325 396
#     4   9  17  34  64  98 129 175 220 257 331 404
#     4  10  20  38  67  95 133 175 217 269 333 395
#
# _framework density 23.420392
#
# number of rings (size 3 to 8) (size 9 to 14) (size 15 to 20)
#    0.000    1.714    4.286    2.571    4.000    0.000 
#    0.000    0.714    6.286    9.429    0.000    0.000 
#    0.000    0.000    0.000    0.000    0.000    0.000 
#
# Total GULP energy -173537.050111 kJ/mol
# GULP energy per Si atom -12395.503579 kJ/mol
# Density = 2.336709 g / cm^3
# Si number density = 23.420392 Si / 1000 Ang^3
#
#
#
# Elastic Constant Matrix: (Units=GPa)
#
#
# Indices 1 2 3 4 5 6 
#
# 1 99.0422 15.0814 41.8978 -6.0337 -4.8983 -16.6511
# 2 15.0814 131.2174 36.2774 22.6958 -2.0450 -10.3271
# 3 41.8978 36.2774 70.8276 1.5187 15.4213 -0.9356
# 4 -6.0337 22.6958 1.5187 36.9315 -5.4638 0.5625
# 5 -4.8983 -2.0450 15.4213 -5.4638 34.4782 -0.0129
# 6 -16.6511 -10.3271 -0.9356 0.5625 -0.0129 23.9417
#
#
#
# Elastic Compliance Matrix: (Units=1/GPa)
#
#
# Indices 1 2 3 4 5 6 
#
# 1 0.018759 0.002442 -0.014372 0.003397 0.009782 0.013464
# 2 0.002442 0.010965 -0.007625 -0.005600 0.003523 0.006263
# 3 -0.014372 -0.007625 0.029881 -0.001079 -0.016035 -0.012100
# 4 0.003397 -0.005600 -0.001079 0.031974 0.005700 -0.000843
# 5 0.009782 0.003523 -0.016035 0.005700 0.038680 0.007583
# 6 0.013464 0.006263 -0.012100 -0.000843 0.007583 0.053385
#
#
# Mechanical properties :
#
#
# Convention : Reuss Voigt Hill
#
# Bulk Modulus (GPa) = 48.79479 54.17782 51.48630
# Shear Modulus (GPa) = 21.77841 32.92567 27.35204
#
# Velocity S-wave (km/s) = 3.05272 3.75354 3.42112
# Velocity P-wave (km/s) = 5.77105 6.47830 6.13488
#
# Compressibility (1/GPa) = 0.02049399
#
# Stress axis : x y z
#
# Youngs Moduli (GPa) = 53.30739 91.20182 33.46656
#
# Poissons Ratio (x) = -0.22271 0.48100
# Poissons Ratio (y) = -0.13017 0.25517
# Poissons Ratio (z) = 0.76616 0.69539
#
# Static dielectric constant tensor:
#      x y z
#    x 4.000590 -0.077060 0.247650 
#    y -0.077060 4.614500 0.375000 
#    z 0.247650 0.375000 4.068040 
# 
# 
# High freq. dielectric constant tensor:
#      x y z
#    x 1.906360 -0.019610 0.021890 
#    y -0.019610 1.924410 0.021940 
#    z 0.021890 0.021940 1.915960 
# 
# From -- ./inp_files/529314.got.cif
#   From: 2010.06.25/outbox.cif.g09.slc.cpg/sg2_265_cif.got.tgz:529314.got - 2010.06.27 13:26:56.
