data_PCOD8043118
_publ_section_title
;
Structure prediction by ZEFSAII (Michael W. Deem and Ramdas Pophale) SiO2 
 PCOD8043118
Probable space group: P -1
;
_chemical_formula_sum "Si O2"
_cell_formula_units_Z 16
_cell_length_a 12.192238
_cell_length_b 9.430172
_cell_length_c 24.041680
_cell_angle_alpha 138.190768
_cell_angle_beta 27.528867
_cell_angle_gamma 129.508514
_cell_volume 848.953026
_symmetry_space_group_name_H-M "P -1"
_symmetry_group_IT_number 2
_symmetry_cell_setting 'triclinic'
loop_
_space_group_symop_operation_xyz
x,y,z
-x,-y,-z
loop_
_atom_site_type_symbol
_atom_site_label
_atom_site_fract_x
_atom_site_fract_y
_atom_site_fract_z
Si Si1 0.713397 0.268169 0.080960
Si Si2 0.849758 0.399542 0.841310
Si Si3 0.733341 0.874566 0.629940
Si Si4 0.833606 0.881216 0.461684
Si Si5 0.414562 0.159003 0.933018
Si Si6 0.034749 0.371292 0.872004
Si Si7 0.504014 0.102676 0.587195
Si Si8 0.732452 0.516544 0.607606
O O1 0.889806 0.390923 0.078021
O O2 0.442745 0.375106 0.234816
O O3 0.710886 0.018925 0.026520
O O4 0.800269 0.303790 0.989397
O O5 0.619036 0.262671 0.907211
O O6 0.018718 0.324792 0.691582
O O7 0.994834 0.354544 0.819496
O O8 0.781836 0.652242 0.940103
O O9 0.723909 0.832314 0.556353
O O10 0.681185 0.650177 0.613799
O O11 0.530267 0.055672 0.794122
O O12 0.991691 0.930958 0.552439
O O13 0.609012 0.948128 0.543324
O O14 0.242763 0.200504 0.750075
O O15 0.684216 0.278937 0.547285
O O16 0.500000 0.000000 0.500000
O O17 0.000000 0.500000 0.500000
#
# Coordination Sequence:
#
# PCOD8043118 Si02
#       8
#     2   2   2   2   2   2   2   2
#     4   9  21  38  57  84 114 150 199 232 285 355
#     4  10  20  37  57  86 120 149 191 245 295 338
#     4   9  19  36  60  85 111 148 196 239 285 341
#     4  10  19  36  58  86 115 149 193 239 287 345
#     4   9  20  38  59  82 114 154 191 243 292 341
#     4  10  21  38  58  84 116 155 195 236 288 354
#     4  11  21  36  58  81 118 156 184 235 300 340
#     4  10  19  37  60  87 110 146 199 243 279 341
#
# _framework density 18.846744000000001
#
# number of rings (size 3 to 8) (size 9 to 14) (size 15 to 20)
#    0.000    2.250    2.500    0.000    0.000    4.000 
#    6.750    3.125    0.000    0.000    0.000    0.000 
#    0.000    0.000    0.000    0.000    0.000    0.000 
#
# Total GULP energy -198338.201643 kJ/mol
# GULP energy per Si atom -12396.137603 kJ/mol
# Density = 1.880385 g / cm^3
# Si number density = 18.846744 Si / 1000 Ang^3
#
#
#
# Elastic Constant Matrix: (Units=GPa)
#
#
# Indices 1 2 3 4 5 6 
#
# 1 111.1731 26.6020 60.8858 1.0876 2.1619 -8.5074
# 2 26.6020 99.5788 57.3678 -2.0698 0.3516 -6.2860
# 3 60.8858 57.3678 114.0243 -0.8346 -2.9147 -10.6950
# 4 1.0876 -2.0698 -0.8346 26.3304 -2.4870 -0.9087
# 5 2.1619 0.3516 -2.9147 -2.4870 34.6608 -0.8838
# 6 -8.5074 -6.2860 -10.6950 -0.9087 -0.8838 18.5654
#
#
#
# Elastic Compliance Matrix: (Units=1/GPa)
#
#
# Indices 1 2 3 4 5 6 
#
# 1 0.012904 0.000779 -0.007141 -0.000764 -0.001418 0.001959
# 2 0.000779 0.014234 -0.007511 0.000808 -0.000745 0.000854
# 3 -0.007141 -0.007511 0.016793 0.000570 0.002076 0.003986
# 4 -0.000764 0.000808 0.000570 0.038445 0.002904 0.002272
# 5 -0.001418 -0.000745 0.002076 0.002904 0.029377 0.001835
# 6 0.001959 0.000854 0.003986 0.002272 0.001835 0.057545
#
#
# Mechanical properties :
#
#
# Convention : Reuss Voigt Hill
#
# Bulk Modulus (GPa) = 61.77750 68.27640 65.02695
# Shear Modulus (GPa) = 24.69895 27.90601 26.30248
#
# Velocity S-wave (km/s) = 3.62403 3.85214 3.73982
# Velocity P-wave (km/s) = 7.09658 7.48940 7.29564
#
# Compressibility (1/GPa) = 0.01618712
#
# Stress axis : x y z
#
# Youngs Moduli (GPa) = 77.49453 70.25222 59.54926
#
# Poissons Ratio (x) = -0.05474 0.42522
# Poissons Ratio (y) = -0.06039 0.44726
# Poissons Ratio (z) = 0.55336 0.52764
#
# Static dielectric constant tensor:
#      x y z
#    x 3.289760 0.019530 0.058740 
#    y 0.019530 3.410220 -0.219980 
#    z 0.058740 -0.219980 1.354670 
# 
# 
# High freq. dielectric constant tensor:
#      x y z
#    x 1.719010 0.002970 -0.000070 
#    y 0.002970 1.727910 0.001650 
#    z -0.000070 0.001650 1.741570 
# 
# From -- ./inp_files/180223.got.cif
#   From: 2010.06.25/outbox.cif.g09.slc.cpg/sg2_91_cif.got.tgz:180223.got - 2010.06.27 13:26:56.
