data_PCOD8043559
_publ_section_title
;
Structure prediction by ZEFSAII (Michael W. Deem and Ramdas Pophale) SiO2 
 PCOD8043559
Probable space group: P -1
;
_chemical_formula_sum "Si O2"
_cell_formula_units_Z 16
_cell_length_a 21.764773
_cell_length_b 18.972272
_cell_length_c 12.031473
_cell_angle_alpha 29.757266
_cell_angle_beta 39.237816
_cell_angle_gamma 18.688217
_cell_volume 753.498828
_symmetry_space_group_name_H-M "P -1"
_symmetry_group_IT_number 2
_symmetry_cell_setting 'triclinic'
loop_
_space_group_symop_operation_xyz
x,y,z
-x,-y,-z
loop_
_atom_site_type_symbol
_atom_site_label
_atom_site_fract_x
_atom_site_fract_y
_atom_site_fract_z
Si Si1 0.436449 0.241663 0.739870
Si Si2 0.993201 0.178648 0.878006
Si Si3 0.767534 0.284036 0.467713
Si Si4 0.513391 0.388626 0.796805
Si Si5 0.386108 0.790258 0.789207
Si Si6 0.427155 0.251530 0.248277
Si Si7 0.720749 0.086428 0.470174
Si Si8 0.114919 0.701595 0.384610
O O1 0.295509 0.487141 0.698005
O O2 0.644155 0.065981 0.692239
O O3 0.331083 0.395149 0.556482
O O4 0.500000 0.000000 0.000000
O O5 0.814337 0.446416 0.847749
O O6 0.900970 0.324646 0.684787
O O7 0.194977 0.014581 0.833488
O O8 0.061596 0.933910 0.144821
O O9 0.717973 0.210542 0.717907
O O10 0.643287 0.416218 0.350434
O O11 0.000000 0.000000 0.500000
O O12 0.412364 0.600434 0.752814
O O13 0.543763 0.188098 0.073156
O O14 0.534484 0.717295 0.731239
O O15 0.304881 0.946627 0.570892
O O16 0.500000 0.500000 0.000000
O O17 0.500000 0.000000 0.500000
O O18 0.954897 0.821836 0.521487
#
# Coordination Sequence:
#
# PCOD8043559 Si02
#       8
#     2   2   2   2   2   2   2   2
#     4  11  24  38  61  93 124 162 210 270 324 367
#     4  10  21  36  64  95 122 164 211 255 314 391
#     4  10  23  41  65  86 114 172 220 261 307 377
#     4  10  21  40  60  88 121 162 217 255 306 381
#     4  11  20  37  65  95 122 160 214 254 313 387
#     4  12  25  39  60  96 139 168 200 272 329 377
#     4  10  19  37  64  88 120 160 210 259 305 380
#     4  10  19  36  64  93 122 156 211 259 305 378
#
# _framework density 21.234273000000002
#
# number of rings (size 3 to 8) (size 9 to 14) (size 15 to 20)
#    0.000    1.500    2.500    3.750    1.750    3.000 
#    0.000    2.500    0.000    0.000    0.000    0.000 
#    0.000    0.000    0.000    0.000    0.000    0.000 
#
# Total GULP energy -198277.795007 kJ/mol
# GULP energy per Si atom -12392.362188 kJ/mol
# Density = 2.118594 g / cm^3
# Si number density = 21.234273 Si / 1000 Ang^3
#
#
#
# Elastic Constant Matrix: (Units=GPa)
#
#
# Indices 1 2 3 4 5 6 
#
# 1 57.5888 26.2245 28.6806 2.9938 -7.4697 -6.5902
# 2 26.2245 146.6949 47.7439 16.7063 -15.4411 -21.1100
# 3 28.6806 47.7439 118.4004 10.7730 -19.6039 2.4196
# 4 2.9938 16.7063 10.7730 24.0550 -1.8438 -0.7686
# 5 -7.4697 -15.4411 -19.6039 -1.8438 31.1287 1.8241
# 6 -6.5902 -21.1100 2.4196 -0.7686 1.8241 28.7642
#
#
#
# Elastic Compliance Matrix: (Units=1/GPa)
#
#
# Indices 1 2 3 4 5 6 
#
# 1 0.020851 -0.001737 -0.004287 0.000750 0.001263 0.003803
# 2 -0.001737 0.009817 -0.002908 -0.004934 0.001931 0.006797
# 3 -0.004287 -0.002908 0.011818 -0.002493 0.005088 -0.004500
# 4 0.000750 -0.004934 -0.002493 0.045882 -0.001006 -0.001950
# 5 0.001263 0.001931 0.005088 -0.001006 0.036593 -0.001069
# 6 0.003803 0.006797 -0.004500 -0.001950 -0.001069 0.041019
#
#
# Mechanical properties :
#
#
# Convention : Reuss Voigt Hill
#
# Bulk Modulus (GPa) = 40.61532 58.66470 49.64001
# Shear Modulus (GPa) = 26.03456 31.45857 28.74657
#
# Velocity S-wave (km/s) = 3.50532 3.85320 3.68337
# Velocity P-wave (km/s) = 5.96253 6.89083 6.44342
#
# Compressibility (1/GPa) = 0.02462125
#
# Stress axis : x y z
#
# Youngs Moduli (GPa) = 47.95998 101.86122 84.61517
#
# Poissons Ratio (x) = 0.17698 0.36274
# Poissons Ratio (y) = 0.08333 0.24607
# Poissons Ratio (z) = 0.20560 0.29622
#
# Static dielectric constant tensor:
#      x y z
#    x 3.767140 -0.085970 0.042260 
#    y -0.085970 4.225400 0.355420 
#    z 0.042260 0.355420 3.511580 
# 
# 
# High freq. dielectric constant tensor:
#      x y z
#    x 1.827220 -0.015450 0.008760 
#    y -0.015450 1.846360 0.027500 
#    z 0.008760 0.027500 1.797750 
# 
# From -- ./inp_files/472335.got.cif
#   From: 2010.06.25/outbox.cif.g09.slc.cpg/sg2_237_cif.got.tgz:472335.got - 2010.06.27 13:26:56.
