data_PCOD8043251
_publ_section_title
;
Structure prediction by ZEFSAII (Michael W. Deem and Ramdas Pophale) SiO2 
 PCOD8043251
Probable space group: P -1
;
_chemical_formula_sum "Si O2"
_cell_formula_units_Z 16
_cell_length_a 14.980268
_cell_length_b 8.340137
_cell_length_c 8.396766
_cell_angle_alpha 83.907314
_cell_angle_beta 112.320438
_cell_angle_gamma 61.166591
_cell_volume 794.139464
_symmetry_space_group_name_H-M "P -1"
_symmetry_group_IT_number 2
_symmetry_cell_setting 'triclinic'
loop_
_space_group_symop_operation_xyz
x,y,z
-x,-y,-z
loop_
_atom_site_type_symbol
_atom_site_label
_atom_site_fract_x
_atom_site_fract_y
_atom_site_fract_z
Si Si1 0.342954 0.769254 0.159568
Si Si2 0.546422 0.592618 0.906807
Si Si3 0.166666 0.179364 0.393266
Si Si4 0.905759 0.951927 0.930232
Si Si5 0.713748 0.699561 0.056159
Si Si6 0.036656 0.428842 0.853039
Si Si7 0.676439 0.028982 0.202566
Si Si8 0.614311 0.963585 0.658446
O O1 0.417969 0.532469 0.220640
O O2 0.218796 0.846112 0.145654
O O3 0.410547 0.833810 0.309483
O O4 0.316204 0.862484 0.955322
O O5 0.440985 0.821995 0.788187
O O6 0.500000 0.500000 0.000000
O O7 0.662118 0.568872 0.063608
O O8 0.095667 0.120379 0.241262
O O9 0.280335 0.139240 0.384851
O O10 0.076604 0.413315 0.346757
O O11 0.209148 0.055890 0.598949
O O12 0.929420 0.793136 0.099900
O O13 0.000000 0.000000 0.000000
O O14 0.853480 0.571107 0.136946
O O15 0.674260 0.845138 0.164189
O O16 0.651155 0.814472 0.841550
O O17 0.000000 0.500000 0.000000
O O18 0.500000 0.000000 0.500000
#
# Coordination Sequence:
#
# PCOD8043251 Si02
#       8
#     2   2   2   2   2   2   2   2
#     4   9  20  39  58  85 121 155 195 239 305 355
#     4  10  22  36  60  85 120 156 195 243 300 360
#     4  10  21  36  58  88 120 148 198 252 280 349
#     4  10  20  38  61  84 118 155 192 244 299 348
#     4  11  20  38  63  83 114 163 198 240 300 349
#     4  10  19  38  60  86 116 148 207 239 285 354
#     4  10  20  40  58  84 120 152 198 247 293 350
#     4  10  19  36  60  88 115 153 201 242 289 351
#
# _framework density 20.147594999999999
#
# number of rings (size 3 to 8) (size 9 to 14) (size 15 to 20)
#    0.000    2.000    5.000    1.125    3.500    2.500 
#    0.000   10.000    0.000    0.000    0.000    0.000 
#    0.000    0.000    0.000    0.000    0.000    0.000 
#
# Total GULP energy -198276.792017 kJ/mol
# GULP energy per Si atom -12392.299501 kJ/mol
# Density = 2.010174 g / cm^3
# Si number density = 20.147595 Si / 1000 Ang^3
#
#
#
# Elastic Constant Matrix: (Units=GPa)
#
#
# Indices 1 2 3 4 5 6 
#
# 1 113.1419 49.6366 34.8956 5.7791 34.0574 8.3592
# 2 49.6366 132.6875 39.2176 4.6928 21.6929 -18.9263
# 3 34.8956 39.2176 112.6376 -0.0690 24.6380 -2.9595
# 4 5.7791 4.6928 -0.0690 23.8799 0.4135 9.0344
# 5 34.0574 21.6929 24.6380 0.4135 29.5040 3.5089
# 6 8.3592 -18.9263 -2.9595 9.0344 3.5089 29.2015
#
#
#
# Elastic Compliance Matrix: (Units=1/GPa)
#
#
# Indices 1 2 3 4 5 6 
#
# 1 0.015297 -0.004071 -0.000476 -0.000695 -0.013637 -0.005212
# 2 -0.004071 0.011951 -0.001783 -0.005412 -0.003815 0.010863
# 3 -0.000476 -0.001783 0.011368 0.000261 -0.007753 0.000984
# 4 -0.000695 -0.005412 0.000261 0.050428 0.006192 -0.019628
# 5 -0.013637 -0.003815 -0.007753 0.006192 0.059835 -0.008460
# 6 -0.005212 0.010863 0.000984 -0.019628 -0.008460 0.049966
#
#
# Mechanical properties :
#
#
# Convention : Reuss Voigt Hill
#
# Bulk Modulus (GPa) = 38.52692 67.32960 52.92826
# Shear Modulus (GPa) = 22.71106 32.16490 27.43798
#
# Velocity S-wave (km/s) = 3.36107 3.99991 3.69433
# Velocity P-wave (km/s) = 5.85032 7.40426 6.67268
#
# Compressibility (1/GPa) = 0.02595588
#
# Stress axis : x y z
#
# Youngs Moduli (GPa) = 65.37289 83.67448 87.96341
#
# Poissons Ratio (x) = 0.34063 0.04187
# Poissons Ratio (y) = 0.26612 0.15687
# Poissons Ratio (z) = 0.03112 0.14922
#
# Static dielectric constant tensor:
#      x y z
#    x 3.628340 -0.216190 0.079130 
#    y -0.216190 4.551840 -0.195640 
#    z 0.079130 -0.195640 3.689430 
# 
# 
# High freq. dielectric constant tensor:
#      x y z
#    x 1.779080 -0.018370 0.009590 
#    y -0.018370 1.795280 -0.000630 
#    z 0.009590 -0.000630 1.763090 
# 
# From -- ./inp_files/169749.got.cif
#   From: 2010.06.25/outbox.cif.g09.slc.cpg/sg2_85_cif.got.tgz:169749.got - 2010.06.27 13:26:56.
