data_PCOD8043924
_publ_section_title
;
Structure prediction by ZEFSAII (Michael W. Deem and Ramdas Pophale) SiO2 
 PCOD8043924
Probable space group: P -1
;
_chemical_formula_sum "Si O2"
_cell_formula_units_Z 16
_cell_length_a 17.249051
_cell_length_b 20.052709
_cell_length_c 8.259252
_cell_angle_alpha 127.235527
_cell_angle_beta 119.538130
_cell_angle_gamma 19.034123
_cell_volume 706.596720
_symmetry_space_group_name_H-M "P -1"
_symmetry_group_IT_number 2
_symmetry_cell_setting 'triclinic'
loop_
_space_group_symop_operation_xyz
x,y,z
-x,-y,-z
loop_
_atom_site_type_symbol
_atom_site_label
_atom_site_fract_x
_atom_site_fract_y
_atom_site_fract_z
Si Si1 0.425333 0.420497 0.989714
Si Si2 0.104502 0.077535 0.361031
Si Si3 0.281329 0.984651 0.909630
Si Si4 0.240938 0.343836 0.540768
Si Si5 0.278839 0.078470 0.728463
Si Si6 0.759366 0.568341 0.999933
Si Si7 0.955118 0.135190 0.617060
Si Si8 0.148419 0.602725 0.695446
O O1 0.225476 0.532560 0.033965
O O2 0.360373 0.473595 0.810015
O O3 0.717476 0.136621 0.890563
O O4 0.332083 0.590755 0.217916
O O5 0.282266 0.988072 0.500057
O O6 0.972038 0.135041 0.441259
O O7 0.890286 0.319112 0.403508
O O8 0.314611 0.030154 0.883674
O O9 0.166744 0.001131 0.736136
O O10 0.552759 0.733640 0.895617
O O11 0.119235 0.159166 0.146815
O O12 0.282570 0.325141 0.747813
O O13 0.226905 0.436272 0.539381
O O14 0.000000 0.500000 0.500000
O O15 0.486256 0.077543 0.336367
O O16 0.016748 0.358469 0.857173
O O17 0.000000 0.000000 0.500000
#
# Coordination Sequence:
#
# PCOD8043924 Si02
#       8
#     2   2   2   2   2   2   2   2
#     4  10  19  37  61  86 124 161 210 257 296 377
#     4  11  20  36  67  89 114 171 215 244 306 381
#     4  10  20  39  67  88 119 172 212 251 305 379
#     4  11  24  42  63  96 134 159 203 277 324 358
#     4  11  21  37  64  90 119 167 214 251 304 383
#     4  11  20  40  64  88 123 164 219 252 298 390
#     4  10  23  41  61  98 134 158 204 271 320 358
#     4  10  19  38  65  87 118 164 215 248 304 382
#
# _framework density 22.643751000000002
#
# number of rings (size 3 to 8) (size 9 to 14) (size 15 to 20)
#    0.000    1.500    8.750    0.000    1.750    1.000 
#    0.000    6.250    0.000    0.000    0.000    0.000 
#    0.000    0.000    0.000    0.000    0.000    0.000 
#
# Total GULP energy -198216.211735 kJ/mol
# GULP energy per Si atom -12388.513233 kJ/mol
# Density = 2.259221 g / cm^3
# Si number density = 22.643751 Si / 1000 Ang^3
#
#
#
# Elastic Constant Matrix: (Units=GPa)
#
#
# Indices 1 2 3 4 5 6 
#
# 1 38.4170 16.0956 7.4880 -0.5512 -8.8847 1.4908
# 2 16.0956 106.9679 22.1999 5.4261 -9.2097 5.3612
# 3 7.4880 22.1999 72.5814 19.3569 -13.3159 -4.7478
# 4 -0.5512 5.4261 19.3569 29.7321 -7.5109 -4.5153
# 5 -8.8847 -9.2097 -13.3159 -7.5109 23.3161 4.8888
# 6 1.4908 5.3612 -4.7478 -4.5153 4.8888 25.3217
#
#
#
# Elastic Compliance Matrix: (Units=1/GPa)
#
#
# Indices 1 2 3 4 5 6 
#
# 1 0.030580 -0.003411 -0.001397 0.004603 0.011567 -0.002752
# 2 -0.003411 0.010756 -0.002717 -0.000219 0.001956 -0.003003
# 3 -0.001397 -0.002717 0.018508 -0.010002 0.005473 0.001288
# 4 0.004603 -0.000219 -0.010002 0.043140 0.009046 0.003846
# 5 0.011567 0.001956 0.005473 0.009046 0.056054 -0.009278
# 6 -0.002752 -0.003003 0.001288 0.003846 -0.009278 0.043008
#
#
# Mechanical properties :
#
#
# Convention : Reuss Voigt Hill
#
# Bulk Modulus (GPa) = 22.32457 34.39261 28.35859
# Shear Modulus (GPa) = 21.54921 27.15283 24.35102
#
# Velocity S-wave (km/s) = 3.08825 3.46660 3.28288
# Velocity P-wave (km/s) = 4.75361 5.58969 5.18852
#
# Compressibility (1/GPa) = 0.04479369
#
# Stress axis : x y z
#
# Youngs Moduli (GPa) = 32.70156 92.97355 54.02930
#
# Poissons Ratio (x) = 0.31714 0.07548
# Poissons Ratio (y) = 0.11155 0.14680
# Poissons Ratio (z) = 0.04568 0.25261
#
# Static dielectric constant tensor:
#      x y z
#    x 3.692910 0.147300 -0.312580 
#    y 0.147300 4.148340 0.160830 
#    z -0.312580 0.160830 4.170650 
# 
# 
# High freq. dielectric constant tensor:
#      x y z
#    x 1.847380 0.011340 -0.029530 
#    y 0.011340 1.896980 0.018150 
#    z -0.029530 0.018150 1.894800 
# 
# From -- ./inp_files/337593.got.cif
#   From: 2010.06.25/outbox.cif.g09.slc.cpg/sg2_169_cif.got.tgz:337593.got - 2010.06.27 13:26:56.
