data_PCOD8043546
_publ_section_title
;
Structure prediction by ZEFSAII (Michael W. Deem and Ramdas Pophale) SiO2 
 PCOD8043546
Probable space group: P -1
;
_chemical_formula_sum "Si O2"
_cell_formula_units_Z 14
_cell_length_a 10.060765
_cell_length_b 18.947081
_cell_length_c 9.427340
_cell_angle_alpha 28.793316
_cell_angle_beta 58.522969
_cell_angle_gamma 59.952723
_cell_volume 734.111817
_symmetry_space_group_name_H-M "P -1"
_symmetry_group_IT_number 2
_symmetry_cell_setting 'triclinic'
loop_
_space_group_symop_operation_xyz
x,y,z
-x,-y,-z
loop_
_atom_site_type_symbol
_atom_site_label
_atom_site_fract_x
_atom_site_fract_y
_atom_site_fract_z
Si Si1 0.332597 0.398931 0.880406
Si Si2 0.601501 0.283494 0.758509
Si Si3 0.999493 0.855239 0.847063
Si Si4 0.899056 0.594997 0.774249
Si Si5 0.856961 0.451631 0.756609
Si Si6 0.073492 0.865947 0.104589
Si Si7 0.710908 0.687740 0.242579
O O1 0.512043 0.326324 0.883351
O O2 0.325997 0.574443 0.593342
O O3 0.230981 0.366463 0.852829
O O4 0.257937 0.336542 0.174455
O O5 0.739949 0.154478 0.932260
O O6 0.469636 0.236638 0.802685
O O7 0.825210 0.802150 0.036400
O O8 0.000000 0.000000 0.500000
O O9 0.132186 0.726071 0.947648
O O10 0.044035 0.905410 0.889022
O O11 0.856004 0.493065 0.848762
O O12 0.993009 0.721544 0.439135
O O13 0.000000 0.500000 0.000000
O O14 0.708213 0.544041 0.600401
O O15 0.000000 0.500000 0.500000
O O16 0.000000 0.000000 0.000000
#
# Coordination Sequence:
#
# PCOD8043546 Si02
#       7
#     2   2   2   2   2   2   2
#     4   9  19  34  70  91 126 155 214 257 317 364
#     4   9  20  40  66  93 128 165 208 261 332 369
#     4  11  24  39  60  94 129 175 211 254 319 381
#     4  12  21  36  66  99 123 161 221 262 305 375
#     4  10  19  36  64  90 124 164 209 261 313 369
#     4  12  26  41  65  94 130 166 218 263 316 383
#     4   9  18  40  67  84 124 170 205 257 321 371
#
# _framework density 19.070663
#
# number of rings (size 3 to 8) (size 9 to 14) (size 15 to 20)
#    0.857    0.857    4.286    2.571    4.000    0.000 
#    0.000    4.286    3.143    0.000    0.000    0.000 
#    0.000    0.000    0.000    0.000    0.000    0.000 
#
# Total GULP energy -173458.056345 kJ/mol
# GULP energy per Si atom -12389.861167 kJ/mol
# Density = 1.902726 g / cm^3
# Si number density = 19.070663 Si / 1000 Ang^3
#
#
#
# Elastic Constant Matrix: (Units=GPa)
#
#
# Indices 1 2 3 4 5 6 
#
# 1 131.9895 56.8080 39.7131 -6.0130 20.6377 -1.5958
# 2 56.8080 124.6151 39.0926 1.2699 24.3223 6.6642
# 3 39.7131 39.0926 101.4629 -4.2581 24.4821 -2.6269
# 4 -6.0130 1.2699 -4.2581 35.1755 3.5447 1.2060
# 5 20.6377 24.3223 24.4821 3.5447 23.8934 5.0189
# 6 -1.5958 6.6642 -2.6269 1.2060 5.0189 35.3020
#
#
#
# Elastic Compliance Matrix: (Units=1/GPa)
#
#
# Indices 1 2 3 4 5 6 
#
# 1 0.010340 -0.003471 -0.001490 0.002113 -0.004517 0.001582
# 2 -0.003471 0.011481 -0.001481 -0.000452 -0.006800 -0.001452
# 3 -0.001490 -0.001481 0.014319 0.002730 -0.012917 0.003021
# 4 0.002113 -0.000452 0.002730 0.029997 -0.008739 0.000602
# 5 -0.004517 -0.006800 -0.012917 -0.008739 0.069186 -0.009419
# 6 0.001582 -0.001452 0.003021 0.000602 -0.009419 0.030216
#
#
# Mechanical properties :
#
#
# Convention : Reuss Voigt Hill
#
# Bulk Modulus (GPa) = 42.99926 69.92167 56.46046
# Shear Modulus (GPa) = 26.85639 33.70445 30.28042
#
# Velocity S-wave (km/s) = 3.75675 4.20854 3.98904
# Velocity P-wave (km/s) = 6.43536 7.76916 7.13350
#
# Compressibility (1/GPa) = 0.02325622
#
# Stress axis : x y z
#
# Youngs Moduli (GPa) = 96.70939 87.10117 69.83605
#
# Poissons Ratio (x) = 0.30231 0.10409
# Poissons Ratio (y) = 0.33565 0.10342
# Poissons Ratio (z) = 0.14414 0.12899
#
# Static dielectric constant tensor:
#      x y z
#    x 3.683810 0.032760 0.088900 
#    y 0.032760 4.456880 -0.298700 
#    z 0.088900 -0.298700 3.939880 
# 
# 
# High freq. dielectric constant tensor:
#      x y z
#    x 1.742740 0.005400 0.008820 
#    y 0.005400 1.728340 0.005920 
#    z 0.008820 0.005920 1.720400 
# 
# From -- ./inp_files/277208.got.cif
#   From: 2010.06.25/outbox.cif.g09.slc.cpg/sg2_139_cif.got.tgz:277208.got - 2010.06.27 13:26:56.
