data_PCOD8043936
_publ_section_title
;
Structure prediction by ZEFSAII (Michael W. Deem and Ramdas Pophale) SiO2 
 PCOD8043936
Probable space group: P -1
;
_chemical_formula_sum "Si O2"
_cell_formula_units_Z 10
_cell_length_a 8.814955
_cell_length_b 9.272969
_cell_length_c 13.772071
_cell_angle_alpha 136.085090
_cell_angle_beta 106.900581
_cell_angle_gamma 107.378424
_cell_volume 480.576632
_symmetry_space_group_name_H-M "P -1"
_symmetry_group_IT_number 2
_symmetry_cell_setting 'triclinic'
loop_
_space_group_symop_operation_xyz
x,y,z
-x,-y,-z
loop_
_atom_site_type_symbol
_atom_site_label
_atom_site_fract_x
_atom_site_fract_y
_atom_site_fract_z
Si Si1 0.844308 0.586762 0.597555
Si Si2 0.818461 0.440941 0.056650
Si Si3 0.365166 0.927227 0.841878
Si Si4 0.967128 0.163197 0.890678
Si Si5 0.750675 0.331859 0.662149
O O1 0.732842 0.378429 0.378033
O O2 0.716473 0.353452 0.553744
O O3 0.139995 0.853995 0.786743
O O4 0.800328 0.790311 0.687186
O O5 0.787276 0.185587 0.871065
O O6 0.563209 0.245778 0.965943
O O7 0.884038 0.685988 0.110400
O O8 0.040369 0.638775 0.272754
O O9 0.500000 0.000000 0.000000
O O10 0.160488 0.374025 0.118766
O O11 0.500000 0.000000 0.500000
#
# Coordination Sequence:
#
# PCOD8043936 Si02
#       5
#     2   2   2   2   2
#     4  11  23  37  65  87 115 158 196 238 292 345
#     4   9  20  39  60  83 126 149 188 243 294 339
#     4  11  22  42  58  84 122 157 194 241 290 347
#     4   9  20  39  57  94 113 150 198 239 291 346
#     4  10  19  37  61  88 120 150 190 245 293 339
#
# _framework density 20.808337999999999
#
# number of rings (size 3 to 8) (size 9 to 14) (size 15 to 20)
#    1.200    0.800    2.000    1.800    0.000    1.600 
#    3.600    1.000    0.000    0.000    0.000    0.000 
#    0.000    0.000    0.000    0.000    0.000    0.000 
#
# Total GULP energy -123950.077463 kJ/mol
# GULP energy per Si atom -12395.007746 kJ/mol
# Density = 2.076098 g / cm^3
# Si number density = 20.808338 Si / 1000 Ang^3
#
#
#
# Elastic Constant Matrix: (Units=GPa)
#
#
# Indices 1 2 3 4 5 6 
#
# 1 45.3066 34.7414 20.1395 15.3691 15.0723 15.3198
# 2 34.7414 126.6449 36.5235 -4.0898 1.0061 22.9312
# 3 20.1395 36.5235 84.9810 -8.6012 2.8060 -0.1247
# 4 15.3691 -4.0898 -8.6012 34.3110 6.7720 7.5656
# 5 15.0723 1.0061 2.8060 6.7720 35.4507 9.7025
# 6 15.3198 22.9312 -0.1247 7.5656 9.7025 30.6286
#
#
#
# Elastic Compliance Matrix: (Units=1/GPa)
#
#
# Indices 1 2 3 4 5 6 
#
# 1 0.046922 -0.009652 -0.008585 -0.020146 -0.013199 -0.007121
# 2 -0.009652 0.012955 -0.002859 0.005912 0.005003 -0.007928
# 3 -0.008585 -0.002859 0.015684 0.006361 -0.000081 0.004953
# 4 -0.020146 0.005912 0.006361 0.041292 0.001362 -0.004955
# 5 -0.013199 0.005003 -0.000081 0.001362 0.035842 -0.008835
# 6 -0.007121 -0.007928 0.004953 -0.004955 -0.008835 0.046189
#
#
# Mechanical properties :
#
#
# Convention : Reuss Voigt Hill
#
# Bulk Modulus (GPa) = 29.96813 48.86013 39.41413
# Shear Modulus (GPa) = 19.82551 31.11326 25.46938
#
# Velocity S-wave (km/s) = 3.09004 3.87102 3.50237
# Velocity P-wave (km/s) = 5.21195 6.59634 5.94458
#
# Compressibility (1/GPa) = 0.03336878
#
# Stress axis : x y z
#
# Youngs Moduli (GPa) = 21.31197 77.18977 63.75776
#
# Poissons Ratio (x) = 0.74505 0.54738
# Poissons Ratio (y) = 0.20571 0.18228
# Poissons Ratio (z) = 0.18297 0.22068
#
# Static dielectric constant tensor:
#      x y z
#    x 3.586660 0.263840 0.184640 
#    y 0.263840 3.725000 -0.102570 
#    z 0.184640 -0.102570 3.599530 
# 
# 
# High freq. dielectric constant tensor:
#      x y z
#    x 1.785990 0.022450 0.020990 
#    y 0.022450 1.817570 -0.005890 
#    z 0.020990 -0.005890 1.807270 
# 
# From -- ./inp_files/20651.got.cif
#   From: 2010.06.25/outbox.cif.g09.slc.cpg/sg2_11_cif.got.tgz:20651.got - 2010.06.27 13:26:56.
