data_PCOD8043960
_publ_section_title
;
Structure prediction by ZEFSAII (Michael W. Deem and Ramdas Pophale) SiO2 
 PCOD8043960
Probable space group: P -1
;
_chemical_formula_sum "Si O2"
_cell_formula_units_Z 16
_cell_length_a 14.257151
_cell_length_b 10.155426
_cell_length_c 8.884117
_cell_angle_alpha 41.385069
_cell_angle_beta 130.637070
_cell_angle_gamma 127.316586
_cell_volume 627.350530
_symmetry_space_group_name_H-M "P -1"
_symmetry_group_IT_number 2
_symmetry_cell_setting 'triclinic'
loop_
_space_group_symop_operation_xyz
x,y,z
-x,-y,-z
loop_
_atom_site_type_symbol
_atom_site_label
_atom_site_fract_x
_atom_site_fract_y
_atom_site_fract_z
Si Si1 0.283235 0.253175 0.646006
Si Si2 0.038076 0.221425 0.271696
Si Si3 0.772911 0.213277 0.630882
Si Si4 0.581878 0.867965 0.610938
Si Si5 0.043502 0.221646 0.924629
Si Si6 0.509028 0.217480 0.747972
Si Si7 0.230234 0.791161 0.018919
Si Si8 0.296396 0.402403 0.861710
O O1 0.169166 0.350781 0.375665
O O2 0.423783 0.350361 0.635443
O O3 0.281331 0.273856 0.803532
O O4 0.254358 0.014637 0.773455
O O5 0.065147 0.201149 0.142150
O O6 0.000000 0.000000 0.500000
O O7 0.915782 0.326922 0.074831
O O8 0.747774 0.161187 0.823425
O O9 0.679167 0.358352 0.358545
O O10 0.922378 0.320207 0.676676
O O11 0.728504 0.004003 0.665321
O O12 0.540375 0.823959 0.436630
O O13 0.500000 0.000000 0.500000
O O14 0.585361 0.649083 0.879002
O O15 0.168040 0.356809 0.863939
O O16 0.000000 0.000000 0.000000
O O17 0.661307 0.328339 0.816346
O O18 0.500000 0.000000 0.000000
#
# Coordination Sequence:
#
# PCOD8043960 Si02
#       8
#     2   2   2   2   2   2   2   2
#     4  10  19  37  61  92 126 176 211 266 329 385
#     4   9  18  32  62  94 124 163 217 258 329 386
#     4  11  23  40  66  99 128 168 220 271 331 381
#     4  12  22  42  70  93 127 174 222 269 325 388
#     4  11  20  39  67  94 129 171 215 270 324 392
#     4  10  20  37  67  91 125 170 218 265 327 390
#     4   9  17  38  58  88 126 164 215 270 311 391
#     4  12  24  41  66  96 137 168 215 273 321 393
#
# _framework density 25.504083999999999
#
# number of rings (size 3 to 8) (size 9 to 14) (size 15 to 20)
#    0.000    1.500    3.750    3.375    0.000    0.500 
#    2.250    3.125   11.000    0.000    0.000    0.000 
#    0.000    0.000    0.000    0.000    0.000    0.000 
#
# Total GULP energy -198272.506097 kJ/mol
# GULP energy per Si atom -12392.031631 kJ/mol
# Density = 2.544604 g / cm^3
# Si number density = 25.504084 Si / 1000 Ang^3
#
#
#
# Elastic Constant Matrix: (Units=GPa)
#
#
# Indices 1 2 3 4 5 6 
#
# 1 172.9794 16.8181 58.6247 31.4012 11.7688 18.3314
# 2 16.8181 33.3818 22.9881 20.7306 -0.7862 14.5833
# 3 58.6247 22.9881 160.8664 38.5966 19.5555 -4.1055
# 4 31.4012 20.7306 38.5966 34.8394 -4.9101 7.7604
# 5 11.7688 -0.7862 19.5555 -4.9101 44.8822 6.9273
# 6 18.3314 14.5833 -4.1055 7.7604 6.9273 29.6702
#
#
#
# Elastic Compliance Matrix: (Units=1/GPa)
#
#
# Indices 1 2 3 4 5 6 
#
# 1 0.007750 0.003055 -0.001849 -0.005844 -0.001077 -0.004766
# 2 0.003055 0.059328 -0.003893 -0.027797 0.002745 -0.024957
# 3 -0.001849 -0.003893 0.011395 -0.011765 -0.007288 0.009411
# 4 -0.005844 -0.027797 -0.011765 0.066697 0.014260 -0.005128
# 5 -0.001077 0.002745 -0.007288 0.014260 0.029237 -0.012248
# 6 -0.004766 -0.024957 0.009411 -0.005128 -0.012248 0.054418
#
#
# Mechanical properties :
#
#
# Convention : Reuss Voigt Hill
#
# Bulk Modulus (GPa) = 13.68001 62.67659 38.17830
# Shear Modulus (GPa) = 19.33747 39.79814 29.56780
#
# Velocity S-wave (km/s) = 2.75655 3.95455 3.40860
# Velocity P-wave (km/s) = 3.93788 6.74387 5.52208
#
# Compressibility (1/GPa) = 0.07309938
#
# Stress axis : x y z
#
# Youngs Moduli (GPa) = 129.03158 16.85551 87.75444
#
# Poissons Ratio (x) = -0.05150 0.16230
# Poissons Ratio (y) = -0.39421 0.34160
# Poissons Ratio (z) = 0.23864 0.06561
#
# Static dielectric constant tensor:
#      x y z
#    x 5.451410 0.761200 0.704030 
#    y 0.761200 4.454580 0.365910 
#    z 0.704030 0.365910 5.054730 
# 
# 
# High freq. dielectric constant tensor:
#      x y z
#    x 2.032370 0.027880 0.018770 
#    y 0.027880 1.992900 0.001880 
#    z 0.018770 0.001880 2.046190 
# 
# From -- ./inp_files/258349.got.cif
#   From: 2010.06.25/outbox.cif.g09.slc.cpg/sg2_130_cif.got.tgz:258349.got - 2010.06.27 13:26:56.
