data_PCOD8043968
_publ_section_title
;
Structure prediction by ZEFSAII (Michael W. Deem and Ramdas Pophale) SiO2 
 PCOD8043968
Probable space group: P -1
;
_chemical_formula_sum "Si O2"
_cell_formula_units_Z 12
_cell_length_a 17.941330
_cell_length_b 5.323467
_cell_length_c 7.573648
_cell_angle_alpha 56.457121
_cell_angle_beta 51.681120
_cell_angle_gamma 66.615720
_cell_volume 471.386005
_symmetry_space_group_name_H-M "P -1"
_symmetry_group_IT_number 2
_symmetry_cell_setting 'triclinic'
loop_
_space_group_symop_operation_xyz
x,y,z
-x,-y,-z
loop_
_atom_site_type_symbol
_atom_site_label
_atom_site_fract_x
_atom_site_fract_y
_atom_site_fract_z
Si Si1 0.245300 0.381648 0.751243
Si Si2 0.039245 0.305923 0.184165
Si Si3 0.314961 0.723586 0.837699
Si Si4 0.959640 0.827139 0.292919
Si Si5 0.442654 0.307691 0.024227
Si Si6 0.236731 0.379746 0.379361
O O1 0.291068 0.627597 0.710487
O O2 0.219093 0.533615 0.539622
O O3 0.317429 0.083579 0.718858
O O4 0.153247 0.267933 0.026926
O O5 0.004469 0.478623 0.348742
O O6 0.992855 0.983189 0.364072
O O7 0.000000 0.500000 0.000000
O O8 0.416188 0.540242 0.810029
O O9 0.233009 0.628378 0.132379
O O10 0.844364 0.851033 0.443778
O O11 0.000000 0.000000 0.000000
O O12 0.343599 0.206550 0.291182
O O13 0.500000 0.500000 0.000000
O O14 0.500000 0.000000 0.000000
#
# Coordination Sequence:
#
# PCOD8043968 Si02
#       6
#     2   2   2   2   2   2
#     4  12  22  45  67 102 138 183 218 291 321 403
#     4  10  20  34  63  90 139 173 224 267 317 385
#     4  10  27  41  69 105 134 165 246 271 334 418
#     4  10  19  37  61  96 128 179 224 262 316 415
#     4  10  23  48  71  96 137 172 221 292 337 407
#     4  10  25  43  76  91 145 183 214 279 372 362
#
# _framework density 25.456845999999999
#
# number of rings (size 3 to 8) (size 9 to 14) (size 15 to 20)
#    1.000    0.667    3.333    2.000    2.333    5.333 
#    0.000   10.000    0.000    0.000    0.000    0.000 
#    0.000    0.000    0.000    0.000    0.000    0.000 
#
# Total GULP energy -148687.600311 kJ/mol
# GULP energy per Si atom -12390.633359 kJ/mol
# Density = 2.539890 g / cm^3
# Si number density = 25.456846 Si / 1000 Ang^3
#
#
#
# Elastic Constant Matrix: (Units=GPa)
#
#
# Indices 1 2 3 4 5 6 
#
# 1 41.8293 43.8015 -12.9765 13.8406 -3.0607 22.3818
# 2 43.8015 200.8515 17.9883 8.3096 -3.2341 23.0809
# 3 -12.9765 17.9883 63.6742 10.0300 -9.8112 9.0542
# 4 13.8406 8.3096 10.0300 33.4785 -3.4536 5.5221
# 5 -3.0607 -3.2341 -9.8112 -3.4536 51.8536 13.8004
# 6 22.3818 23.0809 9.0542 5.5221 13.8004 55.7292
#
#
#
# Elastic Compliance Matrix: (Units=1/GPa)
#
#
# Indices 1 2 3 4 5 6 
#
# 1 0.076339 -0.014408 0.031215 -0.030680 0.015611 -0.030589
# 2 -0.014408 0.008072 -0.006897 0.005190 -0.002267 0.003611
# 3 0.031215 -0.006897 0.030416 -0.016701 0.010177 -0.015487
# 4 -0.030680 0.005190 -0.016701 0.044256 -0.004241 0.009551
# 5 0.015611 -0.002267 0.010177 -0.004241 0.025110 -0.012782
# 6 -0.030589 0.003611 -0.015487 0.009551 -0.012782 0.033469
#
#
# Mechanical properties :
#
#
# Convention : Reuss Voigt Hill
#
# Bulk Modulus (GPa) = 7.42675 44.88684 26.15680
# Shear Modulus (GPa) = 20.59965 45.38171 32.99068
#
# Velocity S-wave (km/s) = 2.84773 4.22677 3.60383
# Velocity P-wave (km/s) = 3.70627 6.44140 5.25491
#
# Compressibility (1/GPa) = 0.13464833
#
# Stress axis : x y z
#
# Youngs Moduli (GPa) = 13.09954 123.87958 32.87751
#
# Poissons Ratio (x) = 1.78482 -1.02628
# Poissons Ratio (y) = 0.18873 0.22675
# Poissons Ratio (z) = -0.40891 0.85439
#
# Static dielectric constant tensor:
#      x y z
#    x 5.330670 3.871970 -1.134190 
#    y 3.871970 21.735850 -5.514460 
#    z -1.134190 -5.514460 6.438460 
# 
# 
# High freq. dielectric constant tensor:
#      x y z
#    x 2.020340 0.010400 0.018620 
#    y 0.010400 2.025500 0.000980 
#    z 0.018620 0.000980 2.010610 
# 
# From -- ./inp_files/321141.got.cif
#   From: 2010.06.25/outbox.cif.g09.slc.cpg/sg2_161_cif.got.tgz:321141.got - 2010.06.27 13:26:56.
