data_PCOD8043574
_publ_section_title
;
Structure prediction by ZEFSAII (Michael W. Deem and Ramdas Pophale) SiO2 
 PCOD8043574
Probable space group: P -1
;
_chemical_formula_sum "Si O2"
_cell_formula_units_Z 14
_cell_length_a 18.241762
_cell_length_b 8.556800
_cell_length_c 7.823524
_cell_angle_alpha 34.955529
_cell_angle_beta 57.010366
_cell_angle_gamma 70.983273
_cell_volume 568.135378
_symmetry_space_group_name_H-M "P -1"
_symmetry_group_IT_number 2
_symmetry_cell_setting 'triclinic'
loop_
_space_group_symop_operation_xyz
x,y,z
-x,-y,-z
loop_
_atom_site_type_symbol
_atom_site_label
_atom_site_fract_x
_atom_site_fract_y
_atom_site_fract_z
Si Si1 0.345439 0.452299 0.307200
Si Si2 0.396326 0.062306 0.852226
Si Si3 0.753312 0.166783 0.284547
Si Si4 0.429558 0.852580 0.578268
Si Si5 0.750675 0.736224 0.942628
Si Si6 0.848163 0.749053 0.157491
Si Si7 0.089806 0.661291 0.334140
O O1 0.398712 0.250873 0.509000
O O2 0.240469 0.282311 0.583233
O O3 0.383618 0.537208 0.991520
O O4 0.350598 0.734304 0.164125
O O5 0.505826 0.126348 0.692268
O O6 0.341096 0.177491 0.964183
O O7 0.655238 0.005183 0.473095
O O8 0.792793 0.953096 0.542646
O O9 0.726767 0.412780 0.208150
O O10 0.825953 0.312767 0.922210
O O11 0.500000 0.000000 0.500000
O O12 0.823478 0.766129 0.975182
O O13 0.894351 0.498155 0.368912
O O14 0.919642 0.035482 0.865301
O O15 0.000000 0.500000 0.500000
#
# Coordination Sequence:
#
# PCOD8043574 Si02
#       7
#     2   2   2   2   2   2   2
#     4  10  19  36  64  96 125 175 232 267 320 388
#     4  10  21  37  60  92 136 180 223 264 318 408
#     4  12  26  44  67 102 140 175 226 295 330 398
#     4  10  23  38  65  99 138 177 236 277 332 384
#     4  11  25  43  68 100 144 183 220 268 356 402
#     4  11  22  45  75  97 137 184 219 274 348 413
#     4  12  26  47  76 106 129 171 234 286 337 407
#
# _framework density 24.642015000000001
#
# number of rings (size 3 to 8) (size 9 to 14) (size 15 to 20)
#    0.000    1.143    1.429    6.000    4.000    3.429 
#    0.000    4.286    0.000    0.000    0.000    0.000 
#    0.000    0.000    0.000    0.000    0.000    0.000 
#
# Total GULP energy -173505.755508 kJ/mol
# GULP energy per Si atom -12393.268251 kJ/mol
# Density = 2.458593 g / cm^3
# Si number density = 24.642015 Si / 1000 Ang^3
#
#
#
# Elastic Constant Matrix: (Units=GPa)
#
#
# Indices 1 2 3 4 5 6 
#
# 1 123.5899 6.0802 56.3757 6.7011 5.7857 5.5721
# 2 6.0802 49.0124 8.7544 -4.2359 -1.3900 5.8248
# 3 56.3757 8.7544 123.6493 -15.1130 9.9418 9.4580
# 4 6.7011 -4.2359 -15.1130 25.3862 6.3466 7.4103
# 5 5.7857 -1.3900 9.9418 6.3466 42.9301 -3.3762
# 6 5.5721 5.8248 9.4580 7.4103 -3.3762 26.5675
#
#
#
# Elastic Compliance Matrix: (Units=1/GPa)
#
#
# Indices 1 2 3 4 5 6 
#
# 1 0.011310 -0.001232 -0.006354 -0.008049 0.001299 0.002570
# 2 -0.001232 0.021780 0.000317 0.006182 -0.000622 -0.006433
# 3 -0.006354 0.000317 0.013592 0.013354 -0.004878 -0.007920
# 4 -0.008049 0.006182 0.013354 0.060290 -0.012516 -0.022828
# 5 0.001299 -0.000622 -0.004878 -0.012516 0.026746 0.008490
# 6 0.002570 -0.006433 -0.007920 -0.022828 0.008490 0.048777
#
#
# Mechanical properties :
#
#
# Convention : Reuss Voigt Hill
#
# Bulk Modulus (GPa) = 31.10971 48.74135 39.92553
# Shear Modulus (GPa) = 24.06753 33.97951 29.02352
#
# Velocity S-wave (km/s) = 3.12859 3.71742 3.43564
# Velocity P-wave (km/s) = 5.06980 6.18452 5.65469
#
# Compressibility (1/GPa) = 0.03214431
#
# Stress axis : x y z
#
# Youngs Moduli (GPa) = 88.41622 45.91296 73.57148
#
# Poissons Ratio (x) = 0.05658 0.46750
# Poissons Ratio (y) = 0.10896 -0.02336
# Poissons Ratio (z) = 0.56182 -0.01458
#
# Static dielectric constant tensor:
#      x y z
#    x 4.478730 -0.090400 0.087410 
#    y -0.090400 4.482890 0.036770 
#    z 0.087410 0.036770 4.794580 
# 
# 
# High freq. dielectric constant tensor:
#      x y z
#    x 1.969480 0.000910 0.013130 
#    y 0.000910 1.968030 -0.015590 
#    z 0.013130 -0.015590 1.997290 
# 
# From -- ./inp_files/328261.got.cif
#   From: 2010.06.25/outbox.cif.g09.slc.cpg/sg2_165_cif.got.tgz:328261.got - 2010.06.27 13:26:56.
