data_PCOD8043008
_publ_section_title
;
Structure prediction by ZEFSAII (Michael W. Deem and Ramdas Pophale) SiO2 
 PCOD8043008
Probable space group: P -1
;
_chemical_formula_sum "Si O2"
_cell_formula_units_Z 16
_cell_length_a 8.324914
_cell_length_b 7.559976
_cell_length_c 19.372776
_cell_angle_alpha 112.253926
_cell_angle_beta 94.733108
_cell_angle_gamma 127.416496
_cell_volume 811.153652
_symmetry_space_group_name_H-M "P -1"
_symmetry_group_IT_number 2
_symmetry_cell_setting 'triclinic'
loop_
_space_group_symop_operation_xyz
x,y,z
-x,-y,-z
loop_
_atom_site_type_symbol
_atom_site_label
_atom_site_fract_x
_atom_site_fract_y
_atom_site_fract_z
Si Si1 0.508563 0.926752 0.596945
Si Si2 0.527331 0.729653 0.430644
Si Si3 0.962047 0.930355 0.099606
Si Si4 0.181469 0.191977 0.281060
Si Si5 0.203522 0.574765 0.907975
Si Si6 0.715181 0.937695 0.981408
Si Si7 0.650250 0.443274 0.344444
Si Si8 0.010498 0.709721 0.279502
O O1 0.536191 0.783569 0.519657
O O2 0.343409 0.712794 0.618647
O O3 0.397911 0.024781 0.574870
O O4 0.752995 0.180171 0.671815
O O5 0.272449 0.459919 0.360031
O O6 0.696517 0.692868 0.415588
O O7 0.899734 0.664627 0.079403
O O8 0.756102 0.871803 0.047778
O O9 0.036993 0.115790 0.196367
O O10 0.166285 0.090104 0.077004
O O11 0.397846 0.239038 0.273821
O O12 0.032574 0.951459 0.295167
O O13 0.456058 0.722518 0.922523
O O14 0.069454 0.475577 0.816917
O O15 0.188628 0.768432 0.971853
O O16 0.831769 0.538902 0.308656
#
# Coordination Sequence:
#
# PCOD8043008 Si02
#       8
#     2   2   2   2   2   2   2   2
#     4  10  20  38  54  80 107 142 176 222 259 313
#     4   9  20  38  55  76 113 138 176 221 265 304
#     4  10  19  36  56  78 103 142 178 210 262 319
#     4   8  19  35  55  76 110 140 172 221 261 307
#     4  10  21  36  52  81 110 134 173 222 262 304
#     4  10  21  34  57  77 106 138 175 217 264 311
#     4   9  19  36  54  78 108 141 174 219 260 309
#     4  10  20  35  58  79 108 143 177 215 264 318
#
# _framework density 19.724995
#
# number of rings (size 3 to 8) (size 9 to 14) (size 15 to 20)
#    0.750    1.750    0.000    1.875    1.750    0.500 
#    2.250    1.250    0.000    0.000    0.000    0.000 
#    0.000    0.000    0.000    0.000    0.000    0.000 
#
# Total GULP energy -198332.344447 kJ/mol
# GULP energy per Si atom -12395.771528 kJ/mol
# Density = 1.968010 g / cm^3
# Si number density = 19.724995 Si / 1000 Ang^3
#
#
#
# Elastic Constant Matrix: (Units=GPa)
#
#
# Indices 1 2 3 4 5 6 
#
# 1 32.5840 12.5244 3.4249 -5.0575 7.2162 2.4268
# 2 12.5244 78.6305 22.9207 -20.7188 4.5612 5.3250
# 3 3.4249 22.9207 83.6108 2.9884 18.5617 5.5359
# 4 -5.0575 -20.7188 2.9884 29.5708 -2.3641 3.4492
# 5 7.2162 4.5612 18.5617 -2.3641 15.7902 -3.4527
# 6 2.4268 5.3250 5.5359 3.4492 -3.4527 19.6161
#
#
#
# Elastic Compliance Matrix: (Units=1/GPa)
#
#
# Indices 1 2 3 4 5 6 
#
# 1 0.038651 -0.005488 0.006107 0.001263 -0.025183 -0.009670
# 2 -0.005488 0.019158 -0.006572 0.014100 0.005913 -0.004106
# 3 0.006107 -0.006572 0.020506 -0.006875 -0.027876 -0.008456
# 4 0.001263 0.014100 -0.006875 0.046298 0.008462 -0.008695
# 5 -0.025183 0.005913 -0.027876 0.008462 0.113251 0.027823
# 6 -0.009670 -0.004106 -0.008456 -0.008695 0.027823 0.062102
#
#
# Mechanical properties :
#
#
# Convention : Reuss Voigt Hill
#
# Bulk Modulus (GPa) = 15.05834 30.28502 22.67168
# Shear Modulus (GPa) = 14.96972 23.39242 19.18107
#
# Velocity S-wave (km/s) = 2.75784 3.44747 3.12176
# Velocity P-wave (km/s) = 4.21801 5.58871 4.95102
#
# Compressibility (1/GPa) = 0.06640837
#
# Stress axis : x y z
#
# Youngs Moduli (GPa) = 25.87265 52.19765 48.76702
#
# Poissons Ratio (x) = 0.28647 -0.29782
# Poissons Ratio (y) = 0.14199 0.32049
# Poissons Ratio (z) = -0.15800 0.34304
#
# Static dielectric constant tensor:
#      x y z
#    x 3.171780 -0.130650 0.183750 
#    y -0.130650 3.530370 0.034960 
#    z 0.183750 0.034960 3.600490 
# 
# 
# High freq. dielectric constant tensor:
#      x y z
#    x 1.736700 -0.013050 0.013250 
#    y -0.013050 1.772190 -0.002180 
#    z 0.013250 -0.002180 1.773870 
# 
# From -- ./inp_files/555445.got.cif
#   From: 2010.06.25/outbox.cif.g09.slc.cpg/sg2_278_cif.got.tgz:555445.got - 2010.06.27 13:26:56.
