data_PCOD8043568
_publ_section_title
;
Structure prediction by ZEFSAII (Michael W. Deem and Ramdas Pophale) SiO2 
 PCOD8043568
Probable space group: P -1
;
_chemical_formula_sum "Si O2"
_cell_formula_units_Z 10
_cell_length_a 13.951345
_cell_length_b 5.239474
_cell_length_c 9.950602
_cell_angle_alpha 66.306610
_cell_angle_beta 144.352938
_cell_angle_gamma 112.065183
_cell_volume 386.523627
_symmetry_space_group_name_H-M "P -1"
_symmetry_group_IT_number 2
_symmetry_cell_setting 'triclinic'
loop_
_space_group_symop_operation_xyz
x,y,z
-x,-y,-z
loop_
_atom_site_type_symbol
_atom_site_label
_atom_site_fract_x
_atom_site_fract_y
_atom_site_fract_z
Si Si1 0.448942 0.305024 0.358488
Si Si2 0.306050 0.933775 0.783308
Si Si3 0.054483 0.784073 0.720953
Si Si4 0.932058 0.829590 0.088129
Si Si5 0.641918 0.466795 0.278175
O O1 0.500000 0.500000 0.500000
O O2 0.555011 0.417627 0.329396
O O3 0.500000 0.000000 0.500000
O O4 0.254682 0.293624 0.121030
O O5 0.241330 0.758823 0.878405
O O6 0.256957 0.779366 0.617522
O O7 0.234282 0.243957 0.628970
O O8 0.500000 0.000000 0.000000
O O9 0.975462 0.456816 0.717106
O O10 0.054430 0.945103 0.826092
O O11 0.000000 0.000000 0.500000
O O12 0.000000 0.000000 0.000000
O O13 0.500000 0.500000 0.000000
#
# Coordination Sequence:
#
# PCOD8043568 Si02
#       5
#     2   2   2   2   2
#     4  12  26  45  71 105 142 187 239 292 356 432
#     4  10  19  36  64  95 127 165 217 284 343 395
#     4  12  26  46  73 106 141 189 244 296 355 431
#     4  12  27  50  71 103 151 195 235 296 363 431
#     4  10  20  37  64  95 127 168 219 284 344 399
#
# _framework density 25.871641
#
# number of rings (size 3 to 8) (size 9 to 14) (size 15 to 20)
#    0.000    0.800    0.000    9.600    0.000    4.800 
#    0.000    0.000    0.000    0.000    0.000    0.000 
#    0.000    0.000    0.000    0.000    0.000    0.000 
#
# Total GULP energy -123899.170191 kJ/mol
# GULP energy per Si atom -12389.917019 kJ/mol
# Density = 2.581276 g / cm^3
# Si number density = 25.871641 Si / 1000 Ang^3
#
#
#
# Elastic Constant Matrix: (Units=GPa)
#
#
# Indices 1 2 3 4 5 6 
#
# 1 204.7624 114.9374 42.4545 0.0606 -68.0144 -6.0598
# 2 114.9374 262.7416 64.9838 1.1489 -38.9482 -18.7391
# 3 42.4545 64.9838 74.7099 -1.9406 -36.5221 -8.1474
# 4 0.0606 1.1489 -1.9406 51.7134 -11.4488 -17.2967
# 5 -68.0144 -38.9482 -36.5221 -11.4488 57.0578 -1.8764
# 6 -6.0598 -18.7391 -8.1474 -17.2967 -1.8764 70.4587
#
#
#
# Elastic Compliance Matrix: (Units=1/GPa)
#
#
# Indices 1 2 3 4 5 6 
#
# 1 0.010583 -0.003485 0.003944 0.003800 0.013581 0.001734
# 2 -0.003485 0.006090 -0.004907 -0.000898 -0.003303 0.000444
# 3 0.003944 -0.004907 0.025339 0.006642 0.019039 0.004102
# 4 0.003800 -0.000898 0.006642 0.025038 0.013434 0.007360
# 5 0.013581 -0.003303 0.019039 0.013434 0.046573 0.007029
# 6 0.001734 0.000444 0.004102 0.007360 0.007029 0.016928
#
#
# Mechanical properties :
#
#
# Convention : Reuss Voigt Hill
#
# Bulk Modulus (GPa) = 30.19617 109.66280 69.92948
# Shear Modulus (GPa) = 33.22590 57.16855 45.19722
#
# Velocity S-wave (km/s) = 3.58754 4.70584 4.18422
# Velocity P-wave (km/s) = 5.37192 8.48563 7.10153
#
# Compressibility (1/GPa) = 0.03311679
#
# Stress axis : x y z
#
# Youngs Moduli (GPa) = 94.48821 164.20384 39.46538
#
# Poissons Ratio (x) = 0.57224 -0.15565
# Poissons Ratio (y) = 0.32929 0.19364
# Poissons Ratio (z) = -0.37265 0.80567
#
# Static dielectric constant tensor:
#      x y z
#    x 4.117370 1.962670 -0.467640 
#    y 1.962670 2.983630 1.250840 
#    z -0.467640 1.250840 4.521500 
# 
# 
# High freq. dielectric constant tensor:
#      x y z
#    x 2.074140 -0.003120 0.020590 
#    y -0.003120 2.079810 -0.000740 
#    z 0.020590 -0.000740 2.037280 
# 
# From -- ./inp_files/22873.got.cif
#   From: 2010.06.25/outbox.cif.g09.slc.cpg/sg2_12_cif.got.tgz:22873.got - 2010.06.27 13:26:56.
