data_PCOD8043995
_publ_section_title
;
Structure prediction by ZEFSAII (Michael W. Deem and Ramdas Pophale) SiO2 
 PCOD8043995
Probable space group: P -1
;
_chemical_formula_sum "Si O2"
_cell_formula_units_Z 16
_cell_length_a 9.073390
_cell_length_b 12.091373
_cell_length_c 12.716026
_cell_angle_alpha 134.479184
_cell_angle_beta 123.852047
_cell_angle_gamma 59.741981
_cell_volume 811.318065
_symmetry_space_group_name_H-M "P -1"
_symmetry_group_IT_number 2
_symmetry_cell_setting 'triclinic'
loop_
_space_group_symop_operation_xyz
x,y,z
-x,-y,-z
loop_
_atom_site_type_symbol
_atom_site_label
_atom_site_fract_x
_atom_site_fract_y
_atom_site_fract_z
Si Si1 0.646751 0.596065 0.662692
Si Si2 0.011647 0.453773 0.595733
Si Si3 0.926642 0.184845 0.671283
Si Si4 0.602448 0.585790 0.185469
Si Si5 0.676606 0.786623 0.179931
Si Si6 0.922456 0.134607 0.408786
Si Si7 0.313792 0.512089 0.158279
Si Si8 0.554004 0.063686 0.172399
O O1 0.500000 0.500000 0.500000
O O2 0.665460 0.570160 0.776599
O O3 0.582432 0.781475 0.739657
O O4 0.838002 0.547669 0.649661
O O5 0.190683 0.492981 0.751449
O O6 0.000000 0.500000 0.500000
O O7 0.012385 0.266952 0.477108
O O8 0.828388 0.191949 0.523491
O O9 0.856538 0.341551 0.815335
O O10 0.132553 0.163923 0.701332
O O11 0.921143 0.024866 0.627850
O O12 0.603670 0.757882 0.248951
O O13 0.487158 0.590566 0.250032
O O14 0.500000 0.500000 0.000000
O O15 0.542167 0.927001 0.162261
O O16 0.712520 0.619135 0.022661
O O17 0.753264 0.099009 0.251923
O O18 0.500000 0.000000 0.000000
#
# Coordination Sequence:
#
# PCOD8043995 Si02
#       8
#     2   2   2   2   2   2   2   2
#     4  12  22  40  65  94 124 167 221 257 312 391
#     4  12  24  42  66  92 130 169 213 265 324 377
#     4  10  19  37  62  88 112 157 212 257 302 371
#     4  10  23  40  60  92 128 166 204 263 319 371
#     4  10  20  38  63  88 128 160 202 262 318 367
#     4  10  21  37  61  85 124 155 204 259 315 367
#     4  11  20  36  63  89 120 161 211 257 307 381
#     4  11  22  38  63  96 127 163 205 265 318 375
#
# _framework density 19.720997000000001
#
# number of rings (size 3 to 8) (size 9 to 14) (size 15 to 20)
#    0.000    1.250    5.000    1.125    0.000    1.000 
#    2.250    0.625    0.000    3.750    0.000    0.000 
#    0.000    0.000    0.000    0.000    0.000    0.000 
#
# Total GULP energy -198275.379726 kJ/mol
# GULP energy per Si atom -12392.211233 kJ/mol
# Density = 1.967611 g / cm^3
# Si number density = 19.720997 Si / 1000 Ang^3
#
#
#
# Elastic Constant Matrix: (Units=GPa)
#
#
# Indices 1 2 3 4 5 6 
#
# 1 100.4807 55.1707 23.8075 -11.2927 1.1526 11.1697
# 2 55.1707 156.6085 41.0719 9.8127 -5.2521 12.0896
# 3 23.8075 41.0719 87.4016 -5.3920 10.6391 -2.9900
# 4 -11.2927 9.8127 -5.3920 41.9667 -4.8641 0.2940
# 5 1.1526 -5.2521 10.6391 -4.8641 28.2695 -5.0692
# 6 11.1697 12.0896 -2.9900 0.2940 -5.0692 31.0373
#
#
#
# Elastic Compliance Matrix: (Units=1/GPa)
#
#
# Indices 1 2 3 4 5 6 
#
# 1 0.013632 -0.004485 -0.001359 0.004482 -0.000725 -0.003451
# 2 -0.004485 0.009417 -0.003784 -0.003605 0.002378 -0.001996
# 3 -0.001359 -0.003784 0.014431 0.001737 -0.005338 0.002465
# 4 0.004482 -0.003605 0.001737 0.026457 0.003084 0.000212
# 5 -0.000725 0.002378 -0.005338 0.003084 0.039319 0.005213
# 6 -0.003451 -0.001996 0.002465 0.000212 0.005213 0.035326
#
#
# Mechanical properties :
#
#
# Convention : Reuss Voigt Hill
#
# Bulk Modulus (GPa) = 54.86975 64.95457 59.91216
# Shear Modulus (GPa) = 30.50388 35.21741 32.86065
#
# Velocity S-wave (km/s) = 3.93717 4.23044 4.08643
# Velocity P-wave (km/s) = 6.96791 7.54125 7.26024
#
# Compressibility (1/GPa) = 0.01822498
#
# Stress axis : x y z
#
# Youngs Moduli (GPa) = 73.35505 106.18600 69.29479
#
# Poissons Ratio (x) = 0.47622 0.09418
# Poissons Ratio (y) = 0.32898 0.26221
# Poissons Ratio (z) = 0.09970 0.40181
#
# Static dielectric constant tensor:
#      x y z
#    x 3.789610 0.263920 0.086910 
#    y 0.263920 3.991810 -0.055300 
#    z 0.086910 -0.055300 3.708250 
# 
# 
# High freq. dielectric constant tensor:
#      x y z
#    x 1.748690 0.011080 0.016550 
#    y 0.011080 1.785100 -0.006180 
#    z 0.016550 -0.006180 1.770580 
# 
# From -- ./inp_files/305194.got.cif
#   From: 2010.06.25/outbox.cif.g09.slc.cpg/sg2_153_cif.got.tgz:305194.got - 2010.06.27 13:26:56.
