data_PCOD8043136
_publ_section_title
;
Structure prediction by ZEFSAII (Michael W. Deem and Ramdas Pophale) SiO2 
 PCOD8043136
Probable space group: P -1
;
_chemical_formula_sum "Si O2"
_cell_formula_units_Z 16
_cell_length_a 13.551659
_cell_length_b 15.523826
_cell_length_c 6.686941
_cell_angle_alpha 118.098765
_cell_angle_beta 67.145437
_cell_angle_gamma 139.409710
_cell_volume 806.261382
_symmetry_space_group_name_H-M "P -1"
_symmetry_group_IT_number 2
_symmetry_cell_setting 'triclinic'
loop_
_space_group_symop_operation_xyz
x,y,z
-x,-y,-z
loop_
_atom_site_type_symbol
_atom_site_label
_atom_site_fract_x
_atom_site_fract_y
_atom_site_fract_z
Si Si1 0.598485 0.421894 0.353360
Si Si2 0.603039 0.061966 0.290973
Si Si3 0.603358 0.582543 0.205965
Si Si4 0.911361 0.344137 0.924040
Si Si5 0.075220 0.791422 0.889109
Si Si6 0.935686 0.851418 0.336130
Si Si7 0.413767 0.809708 0.889588
Si Si8 0.081892 0.312725 0.494773
O O1 0.611396 0.481171 0.191152
O O2 0.476327 0.394162 0.557751
O O3 0.547664 0.278157 0.211343
O O4 0.761806 0.527339 0.443612
O O5 0.770435 0.126468 0.268697
O O6 0.602669 0.169982 0.309484
O O7 0.500000 0.000000 0.500000
O O8 0.550023 0.953926 0.043362
O O9 0.774816 0.738738 0.214977
O O10 0.500000 0.500000 0.000000
O O11 0.947778 0.294077 0.661884
O O12 0.957068 0.325150 0.078981
O O13 0.735475 0.254655 0.943694
O O14 0.000000 0.500000 0.000000
O O15 0.943344 0.723569 0.757981
O O16 0.067664 0.881639 0.138366
O O17 0.908217 0.782239 0.496145
O O18 0.000000 0.000000 0.500000
#
# Coordination Sequence:
#
# PCOD8043136 Si02
#       8
#     2   2   2   2   2   2   2   2
#     4  10  21  38  61  85 115 156 191 247 299 342
#     4  10  22  40  57  85 120 156 195 241 289 352
#     4  10  22  41  61  86 119 152 201 247 293 354
#     4  10  19  36  58  89 120 154 188 241 294 350
#     4  10  22  38  61  88 117 156 197 239 291 358
#     4  10  23  41  62  88 121 157 195 249 304 347
#     4  10  21  38  59  83 121 153 195 239 295 349
#     4  10  20  39  60  86 124 151 194 245 293 351
#
# _framework density 19.844683
#
# number of rings (size 3 to 8) (size 9 to 14) (size 15 to 20)
#    0.000    2.000    1.250    1.500    1.750    3.000 
#    4.500    0.000    0.000    0.000    0.000    0.000 
#    0.000    0.000    0.000    0.000    0.000    0.000 
#
# Total GULP energy -198310.145619 kJ/mol
# GULP energy per Si atom -12394.384101 kJ/mol
# Density = 1.979952 g / cm^3
# Si number density = 19.844683 Si / 1000 Ang^3
#
#
#
# Elastic Constant Matrix: (Units=GPa)
#
#
# Indices 1 2 3 4 5 6 
#
# 1 93.7816 38.6812 42.8516 6.9558 0.0841 -3.6830
# 2 38.6812 93.7167 35.6391 6.9864 -10.0888 -4.5801
# 3 42.8516 35.6391 78.2667 1.0720 3.7535 -5.7936
# 4 6.9558 6.9864 1.0720 32.7147 6.8789 -10.1205
# 5 0.0841 -10.0888 3.7535 6.8789 37.6195 4.0420
# 6 -3.6830 -4.5801 -5.7936 -10.1205 4.0420 32.0407
#
#
#
# Elastic Compliance Matrix: (Units=1/GPa)
#
#
# Indices 1 2 3 4 5 6 
#
# 1 0.015434 -0.003582 -0.006857 -0.002603 0.000254 -0.000832
# 2 -0.003582 0.014880 -0.005095 -0.003682 0.005292 -0.001037
# 3 -0.006857 -0.005095 0.019289 0.004018 -0.004418 0.003798
# 4 -0.002603 -0.003682 0.004018 0.037866 -0.009713 0.013087
# 5 0.000254 0.005292 -0.004418 -0.009713 0.030968 -0.006988
# 6 -0.000832 -0.001037 0.003798 0.013087 -0.006988 0.036668
#
#
# Mechanical properties :
#
#
# Convention : Reuss Voigt Hill
#
# Bulk Modulus (GPa) = 53.95098 55.56765 54.75932
# Shear Modulus (GPa) = 25.99411 30.38118 28.18765
#
# Velocity S-wave (km/s) = 3.62315 3.91698 3.77293
# Velocity P-wave (km/s) = 6.68944 6.96556 6.82889
#
# Compressibility (1/GPa) = 0.01853534
#
# Stress axis : x y z
#
# Youngs Moduli (GPa) = 64.79248 67.20559 51.84275
#
# Poissons Ratio (x) = 0.24071 0.35550
# Poissons Ratio (y) = 0.23207 0.26412
# Poissons Ratio (z) = 0.44430 0.34238
#
# Static dielectric constant tensor:
#      x y z
#    x 3.766280 0.018310 -0.040730 
#    y 0.018310 3.636010 -0.118480 
#    z -0.040730 -0.118480 3.416460 
# 
# 
# High freq. dielectric constant tensor:
#      x y z
#    x 1.784920 0.007950 -0.004790 
#    y 0.007950 1.771760 -0.007420 
#    z -0.004790 -0.007420 1.765660 
# 
# From -- ./inp_files/84491.got.cif
#   From: 2010.06.25/outbox.cif.g09.slc.cpg/sg2_43_cif.got.tgz:84491.got - 2010.06.27 13:26:56.
