data_PCOD8043346
_publ_section_title
;
Structure prediction by ZEFSAII (Michael W. Deem and Ramdas Pophale) SiO2 
 PCOD8043346
Probable space group: P -1
;
_chemical_formula_sum "Si O2"
_cell_formula_units_Z 16
_cell_length_a 8.424589
_cell_length_b 28.701691
_cell_length_c 28.452537
_cell_angle_alpha 10.127240
_cell_angle_beta 141.710047
_cell_angle_gamma 140.182182
_cell_volume 748.927379
_symmetry_space_group_name_H-M "P -1"
_symmetry_group_IT_number 2
_symmetry_cell_setting 'triclinic'
loop_
_space_group_symop_operation_xyz
x,y,z
-x,-y,-z
loop_
_atom_site_type_symbol
_atom_site_label
_atom_site_fract_x
_atom_site_fract_y
_atom_site_fract_z
Si Si1 0.637778 0.553411 0.407772
Si Si2 0.774594 0.374553 0.201622
Si Si3 0.135596 0.207963 0.857111
Si Si4 0.544641 0.264386 0.350207
Si Si5 0.879631 0.800168 0.034368
Si Si6 0.498667 0.788721 0.874614
Si Si7 0.780478 0.727383 0.363929
Si Si8 0.068537 0.172381 0.267383
O O1 0.614827 0.699913 0.206088
O O2 0.623309 0.745919 0.259220
O O3 0.423901 0.333185 0.581966
O O4 0.929503 0.442732 0.586682
O O5 0.773779 0.318308 0.313080
O O6 0.821842 0.099918 0.458533
O O7 0.500000 0.500000 0.000000
O O8 0.973898 0.595097 0.013017
O O9 0.218038 0.103916 0.031443
O O10 0.000000 0.000000 0.000000
O O11 0.267225 0.268539 0.256921
O O12 0.614570 0.982229 0.670600
O O13 0.540293 0.487097 0.167927
O O14 0.632461 0.826346 0.918253
O O15 0.098191 0.992504 0.875606
O O16 0.996434 0.502047 0.356218
O O17 0.200628 0.874627 0.724314
#
# Coordination Sequence:
#
# PCOD8043346 Si02
#       8
#     2   2   2   2   2   2   2   2
#     4   9  20  34  61  92 111 147 198 248 290 346
#     4  10  20  37  62  91 120 148 196 259 306 344
#     4  10  19  36  61  89 116 151 194 247 297 345
#     4  11  21  39  63  88 119 158 206 249 296 362
#     4  11  24  40  57  82 125 159 194 242 301 354
#     4  12  24  39  59  87 125 164 199 248 305 357
#     4  10  21  38  61  86 116 151 197 244 293 351
#     4  11  21  38  64  94 116 156 206 254 297 353
#
# _framework density 21.363887999999999
#
# number of rings (size 3 to 8) (size 9 to 14) (size 15 to 20)
#    0.000    1.500    1.250    6.000    1.750    1.500 
#    0.000    3.750    2.750    0.000    0.000    0.000 
#    0.000    0.000    0.000    0.000    0.000    0.000 
#
# Total GULP energy -198350.815253 kJ/mol
# GULP energy per Si atom -12396.925953 kJ/mol
# Density = 2.131526 g / cm^3
# Si number density = 21.363888 Si / 1000 Ang^3
#
#
#
# Elastic Constant Matrix: (Units=GPa)
#
#
# Indices 1 2 3 4 5 6 
#
# 1 107.5575 26.1736 26.3924 -5.7808 -30.1564 -19.9135
# 2 26.1736 79.9132 24.9593 -6.9605 -9.4711 -18.5273
# 3 26.3924 24.9593 87.1375 -14.3996 -20.5779 -6.8511
# 4 -5.7808 -6.9605 -14.3996 27.4310 -7.5844 -2.6277
# 5 -30.1564 -9.4711 -20.5779 -7.5844 36.8812 0.3129
# 6 -19.9135 -18.5273 -6.8511 -2.6277 0.3129 20.2281
#
#
#
# Elastic Compliance Matrix: (Units=1/GPa)
#
#
# Indices 1 2 3 4 5 6 
#
# 1 0.018510 0.001738 0.002365 0.013055 0.019399 0.022011
# 2 0.001738 0.018254 -0.001325 0.008011 0.006857 0.018916
# 3 0.002365 -0.001325 0.017499 0.014098 0.014183 0.008653
# 4 0.013055 0.008011 0.014098 0.060817 0.032830 0.032357
# 5 0.019399 0.006857 0.014183 0.032830 0.059117 0.033531
# 6 0.022011 0.018916 0.008653 0.032357 0.033531 0.095046
#
#
# Mechanical properties :
#
#
# Convention : Reuss Voigt Hill
#
# Bulk Modulus (GPa) = 16.71706 47.73987 32.22846
# Shear Modulus (GPa) = 17.62888 30.04690 23.83789
#
# Velocity S-wave (km/s) = 2.87570 3.75431 3.34399
# Velocity P-wave (km/s) = 4.34374 6.41777 5.47977
#
# Compressibility (1/GPa) = 0.05981912
#
# Stress axis : x y z
#
# Youngs Moduli (GPa) = 54.02531 54.78254 57.14686
#
# Poissons Ratio (x) = -0.09522 -0.13515
# Poissons Ratio (y) = -0.09391 0.07571
# Poissons Ratio (z) = -0.12776 0.07258
#
# Static dielectric constant tensor:
#      x y z
#    x 4.679480 -0.311930 -0.505760 
#    y -0.311930 3.556230 -0.020920 
#    z -0.505760 -0.020920 4.146650 
# 
# 
# High freq. dielectric constant tensor:
#      x y z
#    x 1.850140 -0.016140 -0.017920 
#    y -0.016140 1.793680 -0.012740 
#    z -0.017920 -0.012740 1.848480 
# 
# From -- ./inp_files/617684.got.cif
#   From: 2010.06.25/outbox.cif.g09.slc.cpg/sg2_309_cif.got.tgz:617684.got - 2010.06.27 13:26:56.
