data_PCOD8043772
_publ_section_title
;
Structure prediction by ZEFSAII (Michael W. Deem and Ramdas Pophale) SiO2 
 PCOD8043772
Probable space group: P -1
;
_chemical_formula_sum "Si O2"
_cell_formula_units_Z 16
_cell_length_a 8.683108
_cell_length_b 9.937540
_cell_length_c 8.104439
_cell_angle_alpha 102.088720
_cell_angle_beta 88.326203
_cell_angle_gamma 115.245458
_cell_volume 617.072007
_symmetry_space_group_name_H-M "P -1"
_symmetry_group_IT_number 2
_symmetry_cell_setting 'triclinic'
loop_
_space_group_symop_operation_xyz
x,y,z
-x,-y,-z
loop_
_atom_site_type_symbol
_atom_site_label
_atom_site_fract_x
_atom_site_fract_y
_atom_site_fract_z
Si Si1 0.421473 0.664554 0.062592
Si Si2 0.564792 0.703791 0.413988
Si Si3 0.998382 0.730804 0.746307
Si Si4 0.855520 0.987882 0.373575
Si Si5 0.821046 0.185071 0.925100
Si Si6 0.103548 0.444953 0.858223
Si Si7 0.753992 0.507026 0.467007
Si Si8 0.773683 0.868404 0.979112
O O1 0.482524 0.627479 0.224345
O O2 0.336467 0.782952 0.125808
O O3 0.292322 0.501222 0.947267
O O4 0.580170 0.740926 0.953285
O O5 0.671939 0.887558 0.441718
O O6 0.697362 0.637900 0.448087
O O7 0.408596 0.654403 0.536432
O O8 0.870314 0.564616 0.641792
O O9 0.893004 0.811323 0.861394
O O10 0.110560 0.837542 0.619481
O O11 0.126356 0.720509 0.877373
O O12 0.849372 0.912333 0.173449
O O13 0.000000 0.000000 0.500000
O O14 0.987635 0.260391 0.815494
O O15 0.769419 0.008539 0.910607
O O16 0.128665 0.509875 0.686758
O O17 0.000000 0.500000 0.000000
#
# Coordination Sequence:
#
# PCOD8043772 Si02
#       8
#     2   2   2   2   2   2   2   2
#     4  10  22  42  64  92 132 172 219 262 323 393
#     4  10  23  39  62 101 131 168 214 271 329 377
#     4  11  23  38  65 102 129 169 220 271 322 382
#     4  10  19  37  58  93 136 162 207 266 317 373
#     4  10  21  42  64  94 128 177 217 260 327 385
#     4  10  24  43  66  92 124 174 218 267 322 389
#     4  11  24  41  65  97 133 166 218 272 330 380
#     4  10  23  37  66  97 132 170 221 270 317 385
#
# _framework density 25.928901
#
# number of rings (size 3 to 8) (size 9 to 14) (size 15 to 20)
#    0.000    1.750    1.250    2.625    8.750    0.500 
#    0.000   10.000    0.000    0.750    0.000    0.000 
#    0.000    0.000    0.000    0.000    0.000    0.000 
#
# Total GULP energy -198236.453657 kJ/mol
# GULP energy per Si atom -12389.778354 kJ/mol
# Density = 2.586989 g / cm^3
# Si number density = 25.928901 Si / 1000 Ang^3
#
#
#
# Elastic Constant Matrix: (Units=GPa)
#
#
# Indices 1 2 3 4 5 6 
#
# 1 72.9432 39.7202 16.6304 -2.3657 -0.5010 24.6848
# 2 39.7202 126.2094 19.4494 -39.4704 -16.4457 46.8645
# 3 16.6304 19.4494 88.1632 -10.7082 -2.7799 15.4862
# 4 -2.3657 -39.4704 -10.7082 41.2634 8.2032 -8.9836
# 5 -0.5010 -16.4457 -2.7799 8.2032 43.0551 -0.5810
# 6 24.6848 46.8645 15.4862 -8.9836 -0.5810 48.0876
#
#
#
# Elastic Compliance Matrix: (Units=1/GPa)
#
#
# Indices 1 2 3 4 5 6 
#
# 1 0.018688 -0.005997 -0.002228 -0.005919 -0.001145 -0.004150
# 2 -0.005997 0.020296 0.001151 0.015367 0.004638 -0.014145
# 3 -0.002228 0.001151 0.012530 0.003384 0.000532 -0.003375
# 4 -0.005919 0.015367 0.003384 0.038474 -0.001390 -0.005857
# 5 -0.001145 0.004638 0.000532 -0.001390 0.025229 -0.004059
# 6 -0.004150 -0.014145 -0.003375 -0.005857 -0.004059 0.036655
#
#
# Mechanical properties :
#
#
# Convention : Reuss Voigt Hill
#
# Bulk Modulus (GPa) = 26.76306 48.76841 37.76573
# Shear Modulus (GPa) = 28.01520 40.58230 34.29875
#
# Velocity S-wave (km/s) = 3.29060 3.96047 3.64098
# Velocity P-wave (km/s) = 4.97811 6.30580 5.68088
#
# Compressibility (1/GPa) = 0.03736493
#
# Stress axis : x y z
#
# Youngs Moduli (GPa) = 53.51104 49.27048 79.81142
#
# Poissons Ratio (x) = 0.29549 0.17783
# Poissons Ratio (y) = 0.32092 -0.09188
# Poissons Ratio (z) = 0.11923 -0.05672
#
# Static dielectric constant tensor:
#      x y z
#    x 4.654640 0.555820 0.215050 
#    y 0.555820 5.793850 -0.450000 
#    z 0.215050 -0.450000 4.780210 
# 
# 
# High freq. dielectric constant tensor:
#      x y z
#    x 2.026680 0.019200 0.018540 
#    y 0.019200 2.058430 -0.022550 
#    z 0.018540 -0.022550 2.029300 
# 
# From -- ./inp_files/180390.got.cif
#   From: 2010.06.25/outbox.cif.g09.slc.cpg/sg2_91_cif.got.tgz:180390.got - 2010.06.27 13:26:56.
