data_PCOD8043816
_publ_section_title
;
Structure prediction by ZEFSAII (Michael W. Deem and Ramdas Pophale) SiO2 
 PCOD8043816
Probable space group: P -1
;
_chemical_formula_sum "Si O2"
_cell_formula_units_Z 16
_cell_length_a 19.229555
_cell_length_b 11.822736
_cell_length_c 15.256845
_cell_angle_alpha 28.253850
_cell_angle_beta 143.089404
_cell_angle_gamma 149.673255
_cell_volume 817.817343
_symmetry_space_group_name_H-M "P -1"
_symmetry_group_IT_number 2
_symmetry_cell_setting 'triclinic'
loop_
_space_group_symop_operation_xyz
x,y,z
-x,-y,-z
loop_
_atom_site_type_symbol
_atom_site_label
_atom_site_fract_x
_atom_site_fract_y
_atom_site_fract_z
Si Si1 0.656199 0.218188 0.541730
Si Si2 0.657908 0.598504 0.591441
Si Si3 0.153487 0.900897 0.433466
Si Si4 0.365181 0.358576 0.653035
Si Si5 0.840234 0.561988 0.334620
Si Si6 0.672227 0.610242 0.848402
Si Si7 0.645280 0.706731 0.954885
Si Si8 0.658770 0.194530 0.001240
O O1 0.678779 0.503106 0.412469
O O2 0.760698 0.331148 0.489135
O O3 0.500000 0.000000 0.500000
O O4 0.684825 0.032371 0.764538
O O5 0.500000 0.500000 0.500000
O O6 0.694404 0.605238 0.522159
O O7 0.683174 0.373488 0.815775
O O8 0.753972 0.911801 0.518796
O O9 0.155398 0.614911 0.622950
O O10 0.995787 0.809759 0.352326
O O11 0.209592 0.068747 0.282429
O O12 0.532956 0.517728 0.715362
O O13 0.287370 0.011697 0.823343
O O14 0.764506 0.718092 0.123813
O O15 0.638777 0.580651 0.937652
O O16 0.726443 0.410358 0.006411
O O17 0.500000 0.500000 0.000000
O O18 0.500000 0.000000 0.000000
#
# Coordination Sequence:
#
# PCOD8043816 Si02
#       8
#     2   2   2   2   2   2   2   2
#     4  12  23  43  60  91 130 161 212 263 303 380
#     4  11  20  35  62  91 121 159 207 258 314 365
#     4  10  22  42  63  93 132 165 206 269 313 370
#     4  11  21  36  61  89 125 156 203 265 308 363
#     4  11  24  42  63  92 131 169 209 258 318 375
#     4  10  19  37  59  92 130 152 209 259 313 368
#     4  12  24  37  65  92 121 174 208 253 317 376
#     4   9  19  32  52  90 120 152 195 258 308 354
#
# _framework density 19.564271000000002
#
# number of rings (size 3 to 8) (size 9 to 14) (size 15 to 20)
#    0.000    1.250    7.500    0.000    1.750    3.500 
#    0.000    0.625    0.000    3.750    0.000    0.000 
#    0.000    0.000    0.000    0.000    0.000    0.000 
#
# Total GULP energy -198286.452874 kJ/mol
# GULP energy per Si atom -12392.903305 kJ/mol
# Density = 1.951974 g / cm^3
# Si number density = 19.564271 Si / 1000 Ang^3
#
#
#
# Elastic Constant Matrix: (Units=GPa)
#
#
# Indices 1 2 3 4 5 6 
#
# 1 91.4937 47.6280 46.8168 1.9382 0.7619 -10.0877
# 2 47.6280 103.2614 28.6717 0.0658 4.8532 -2.2625
# 3 46.8168 28.6717 116.8637 -11.2263 9.1506 -4.9720
# 4 1.9382 0.0658 -11.2263 26.0699 -8.2920 6.9629
# 5 0.7619 4.8532 9.1506 -8.2920 40.5234 -6.4883
# 6 -10.0877 -2.2625 -4.9720 6.9629 -6.4883 42.2858
#
#
#
# Elastic Compliance Matrix: (Units=1/GPa)
#
#
# Indices 1 2 3 4 5 6 
#
# 1 0.017963 -0.006611 -0.005950 -0.004514 0.001548 0.004213
# 2 -0.006611 0.012899 -0.000440 0.000113 -0.001488 -0.001185
# 3 -0.005950 -0.000440 0.011627 0.005266 -0.001573 -0.001184
# 4 -0.004514 0.000113 0.005266 0.045002 0.007004 -0.006787
# 5 0.001548 -0.001488 -0.001573 0.007004 0.027113 0.003112
# 6 0.004213 -0.001185 -0.001184 -0.006787 0.003112 0.026046
#
#
# Mechanical properties :
#
#
# Convention : Reuss Voigt Hill
#
# Bulk Modulus (GPa) = 60.64628 61.98352 61.31490
# Shear Modulus (GPa) = 29.04523 34.34263 31.69393
#
# Velocity S-wave (km/s) = 3.85724 4.19426 4.02928
# Velocity P-wave (km/s) = 7.13467 7.43011 7.28389
#
# Compressibility (1/GPa) = 0.01648906
#
# Stress axis : x y z
#
# Youngs Moduli (GPa) = 55.67134 77.52452 86.00660
#
# Poissons Ratio (x) = 0.51248 0.51172
# Poissons Ratio (y) = 0.36802 0.03780
# Poissons Ratio (z) = 0.33123 0.03407
#
# Static dielectric constant tensor:
#      x y z
#    x 3.613070 -0.313320 0.081550 
#    y -0.313320 3.590020 -0.250990 
#    z 0.081550 -0.250990 4.068110 
# 
# 
# High freq. dielectric constant tensor:
#      x y z
#    x 1.750670 -0.020980 -0.003420 
#    y -0.020980 1.742490 -0.017100 
#    z -0.003420 -0.017100 1.766650 
# 
# From -- ./inp_files/540784.got.cif
#   From: 2010.06.25/outbox.cif.g09.slc.cpg/sg2_271_cif.got.tgz:540784.got - 2010.06.27 13:26:56.
