data_PCOD8043581
_publ_section_title
;
Structure prediction by ZEFSAII (Michael W. Deem and Ramdas Pophale) SiO2 
 PCOD8043581
Probable space group: P -1
;
_chemical_formula_sum "Si O2"
_cell_formula_units_Z 14
_cell_length_a 8.778038
_cell_length_b 14.594480
_cell_length_c 8.691618
_cell_angle_alpha 39.519456
_cell_angle_beta 71.543403
_cell_angle_gamma 49.438754
_cell_volume 497.311849
_symmetry_space_group_name_H-M "P -1"
_symmetry_group_IT_number 2
_symmetry_cell_setting 'triclinic'
loop_
_space_group_symop_operation_xyz
x,y,z
-x,-y,-z
loop_
_atom_site_type_symbol
_atom_site_label
_atom_site_fract_x
_atom_site_fract_y
_atom_site_fract_z
Si Si1 0.138579 0.611478 0.055971
Si Si2 0.825072 0.901268 0.025650
Si Si3 0.545005 0.141397 0.300655
Si Si4 0.023419 0.112143 0.692679
Si Si5 0.660373 0.699968 0.356850
Si Si6 0.224053 0.826900 0.578571
Si Si7 0.847692 0.528487 0.187973
O O1 0.305743 0.451088 0.338873
O O2 0.952555 0.820727 0.927783
O O3 0.019074 0.555121 0.076258
O O4 0.272276 0.633101 0.868302
O O5 0.814648 0.742338 0.299099
O O6 0.962549 0.911801 0.094160
O O7 0.585224 0.102421 0.811109
O O8 0.591259 0.173695 0.417915
O O9 0.500000 0.000000 0.500000
O O10 0.332817 0.351988 0.041014
O O11 0.743047 0.064920 0.224843
O O12 0.825314 0.137921 0.640264
O O13 0.975418 0.304554 0.413156
O O14 0.723327 0.608411 0.286613
O O15 0.000000 0.000000 0.500000
#
# Coordination Sequence:
#
# PCOD8043581 Si02
#       7
#     2   2   2   2   2   2   2
#     4  11  21  40  68 102 137 173 219 272 328 388
#     4  10  19  37  69 102 137 177 221 267 319 389
#     4  11  25  45  66  91 128 176 224 275 333 397
#     4  11  21  42  68  99 136 173 217 267 330 390
#     4  10  19  36  65 105 138 173 226 269 314 386
#     4  10  25  46  64  94 139 173 217 281 335 392
#     4  11  20  37  70 100 132 174 221 266 320 392
#
# _framework density 28.151347000000001
#
# number of rings (size 3 to 8) (size 9 to 14) (size 15 to 20)
#    0.000    1.429    4.286    2.571    0.000    2.857 
#    0.000    6.429    0.000    0.000    0.000    0.000 
#    0.000    0.000    0.000    0.000    0.000    0.000 
#
# Total GULP energy -173639.675577 kJ/mol
# GULP energy per Si atom -12402.833970 kJ/mol
# Density = 2.808727 g / cm^3
# Si number density = 28.151347 Si / 1000 Ang^3
#
#
#
# Elastic Constant Matrix: (Units=GPa)
#
#
# Indices 1 2 3 4 5 6 
#
# 1 169.0969 30.7578 51.4387 22.7334 6.4569 57.8938
# 2 30.7578 80.7625 14.1849 -7.4778 8.9333 9.8676
# 3 51.4387 14.1849 152.1718 21.9315 23.6005 16.5178
# 4 22.7334 -7.4778 21.9315 46.0174 5.9655 4.9540
# 5 6.4569 8.9333 23.6005 5.9655 54.1591 8.5775
# 6 57.8938 9.8676 16.5178 4.9540 8.5775 45.6647
#
#
#
# Elastic Compliance Matrix: (Units=1/GPa)
#
#
# Indices 1 2 3 4 5 6 
#
# 1 0.012709 -0.003409 -0.002165 -0.004591 0.002812 -0.014622
# 2 -0.003409 0.014291 -0.000603 0.004452 -0.002403 0.001421
# 3 -0.002165 -0.000603 0.008116 -0.002590 -0.003018 0.000788
# 4 -0.004591 0.004452 -0.002590 0.025904 -0.002458 0.003446
# 5 0.002812 -0.002403 -0.003018 -0.002458 0.021003 -0.005633
# 6 -0.014622 0.001421 0.000788 0.003446 -0.005633 0.040529
#
#
# Mechanical properties :
#
#
# Convention : Reuss Voigt Hill
#
# Bulk Modulus (GPa) = 43.93702 66.08825 55.01263
# Shear Modulus (GPa) = 35.08945 49.54491 42.31718
#
# Velocity S-wave (km/s) = 3.53435 4.19972 3.88132
# Velocity P-wave (km/s) = 5.68303 6.85886 6.29844
#
# Compressibility (1/GPa) = 0.02275985
#
# Stress axis : x y z
#
# Youngs Moduli (GPa) = 78.68673 69.97528 123.22094
#
# Poissons Ratio (x) = 0.23856 0.26683
# Poissons Ratio (y) = 0.26826 0.07428
# Poissons Ratio (z) = 0.17039 0.04219
#
# Static dielectric constant tensor:
#      x y z
#    x 6.599560 0.352380 -0.329690 
#    y 0.352380 5.289290 0.066430 
#    z -0.329690 0.066430 5.913670 
# 
# 
# High freq. dielectric constant tensor:
#      x y z
#    x 2.151570 0.012520 -0.006510 
#    y 0.012520 2.147580 -0.004800 
#    z -0.006510 -0.004800 2.178300 
# 
# From -- ./inp_files/205107.got.cif
#   From: 2010.06.25/outbox.cif.g09.slc.cpg/sg2_103_cif.got.tgz:205107.got - 2010.06.27 13:26:56.
