data_PCOD8043057
_publ_section_title
;
Structure prediction by ZEFSAII (Michael W. Deem and Ramdas Pophale) SiO2 
 PCOD8043057
Probable space group: P -1
;
_chemical_formula_sum "Si O2"
_cell_formula_units_Z 16
_cell_length_a 13.819241
_cell_length_b 11.952425
_cell_length_c 7.699051
_cell_angle_alpha 62.777830
_cell_angle_beta 135.966088
_cell_angle_gamma 92.215185
_cell_volume 693.989214
_symmetry_space_group_name_H-M "P -1"
_symmetry_group_IT_number 2
_symmetry_cell_setting 'triclinic'
loop_
_space_group_symop_operation_xyz
x,y,z
-x,-y,-z
loop_
_atom_site_type_symbol
_atom_site_label
_atom_site_fract_x
_atom_site_fract_y
_atom_site_fract_z
Si Si1 0.202013 0.747688 0.436365
Si Si2 0.428782 0.854645 0.569120
Si Si3 0.749618 0.825126 0.954016
Si Si4 0.216291 0.852402 0.758226
Si Si5 0.517198 0.850475 0.073445
Si Si6 0.138935 0.326787 0.429038
Si Si7 0.026380 0.585465 0.318401
Si Si8 0.980353 0.167316 0.193051
O O1 0.364934 0.736785 0.573925
O O2 0.170897 0.813008 0.541612
O O3 0.188622 0.600383 0.535341
O O4 0.067211 0.845870 0.055528
O O5 0.597326 0.800743 0.729139
O O6 0.456254 0.886224 0.775781
O O7 0.297627 0.007247 0.216784
O O8 0.828198 0.761590 0.285842
O O9 0.875621 0.744293 0.019184
O O10 0.401248 0.804154 0.058863
O O11 0.166943 0.782061 0.900509
O O12 0.125022 0.021636 0.543540
O O13 0.692224 0.719014 0.411110
O O14 0.500000 0.000000 0.000000
O O15 0.044663 0.496231 0.228600
O O16 0.033651 0.289910 0.187211
O O17 0.000000 0.500000 0.500000
#
# Coordination Sequence:
#
# PCOD8043057 Si02
#       8
#     2   2   2   2   2   2   2   2
#     4  11  24  39  61  92 125 160 207 253 309 365
#     4   9  21  35  60  93 120 155 204 258 310 360
#     4   9  19  37  61  89 125 158 199 257 307 366
#     4  10  22  37  58  92 122 155 196 255 317 357
#     4  10  19  36  57  83 120 158 200 249 304 359
#     4  10  21  39  57  88 119 163 209 239 305 371
#     4  10  22  39  62  85 125 169 204 252 300 370
#     4  11  23  36  61  89 125 157 197 257 307 363
#
# _framework density 23.055112000000001
#
# number of rings (size 3 to 8) (size 9 to 14) (size 15 to 20)
#    0.000    2.000    1.250    1.875    8.750    1.500 
#    0.000   11.250    0.000    1.500    0.000    0.000 
#    0.000    0.000    0.000    0.000    0.000    0.000 
#
# Total GULP energy -198251.720318 kJ/mol
# GULP energy per Si atom -12390.732520 kJ/mol
# Density = 2.300264 g / cm^3
# Si number density = 23.055112 Si / 1000 Ang^3
#
#
#
# Elastic Constant Matrix: (Units=GPa)
#
#
# Indices 1 2 3 4 5 6 
#
# 1 109.4242 36.9423 14.7099 9.8841 27.8689 22.1103
# 2 36.9423 119.1772 12.2131 24.5323 22.7304 11.8066
# 3 14.7099 12.2131 36.1572 10.8857 12.7318 2.8854
# 4 9.8841 24.5323 10.8857 32.7970 3.1386 5.9214
# 5 27.8689 22.7304 12.7318 3.1386 34.8840 -0.2959
# 6 22.1103 11.8066 2.8854 5.9214 -0.2959 42.9745
#
#
#
# Elastic Compliance Matrix: (Units=1/GPa)
#
#
# Indices 1 2 3 4 5 6 
#
# 1 0.013564 -0.001545 -0.000982 -0.000529 -0.009478 -0.006480
# 2 -0.001545 0.011670 0.001338 -0.007854 -0.006164 -0.001461
# 3 -0.000982 0.001338 0.035219 -0.011111 -0.011948 -0.000778
# 4 -0.000529 -0.007854 -0.011111 0.040057 0.005972 -0.002302
# 5 -0.009478 -0.006164 -0.011948 0.005972 0.044136 0.006853
# 6 -0.006480 -0.001461 -0.000778 -0.002302 0.006853 0.027422
#
#
# Mechanical properties :
#
#
# Convention : Reuss Voigt Hill
#
# Bulk Modulus (GPa) = 17.21944 43.60992 30.41468
# Shear Modulus (GPa) = 25.79933 35.52400 30.66166
#
# Velocity S-wave (km/s) = 3.34882 3.92960 3.65078
# Velocity P-wave (km/s) = 4.73686 6.28853 5.56702
#
# Compressibility (1/GPa) = 0.05807390
#
# Stress axis : x y z
#
# Youngs Moduli (GPa) = 73.72693 85.69156 28.39381
#
# Poissons Ratio (x) = 0.13241 0.02789
# Poissons Ratio (y) = 0.11392 -0.03800
# Poissons Ratio (z) = 0.07243 -0.11469
#
# Static dielectric constant tensor:
#      x y z
#    x 5.036160 0.172510 0.611500 
#    y 0.172510 4.301200 0.195370 
#    z 0.611500 0.195370 4.237780 
# 
# 
# High freq. dielectric constant tensor:
#      x y z
#    x 1.931980 0.006420 0.003790 
#    y 0.006420 1.899710 0.021710 
#    z 0.003790 0.021710 1.885410 
# 
# From -- ./inp_files/307196.got.cif
#   From: 2010.06.25/outbox.cif.g09.slc.cpg/sg2_154_cif.got.tgz:307196.got - 2010.06.27 13:26:56.
