data_PCOD8043571
_publ_section_title
;
Structure prediction by ZEFSAII (Michael W. Deem and Ramdas Pophale) SiO2 
 PCOD8043571
Probable space group: P -1
;
_chemical_formula_sum "Si O2"
_cell_formula_units_Z 16
_cell_length_a 13.923730
_cell_length_b 8.545607
_cell_length_c 14.240111
_cell_angle_alpha 143.755744
_cell_angle_beta 51.675096
_cell_angle_gamma 126.117099
_cell_volume 771.188465
_symmetry_space_group_name_H-M "P -1"
_symmetry_group_IT_number 2
_symmetry_cell_setting 'triclinic'
loop_
_space_group_symop_operation_xyz
x,y,z
-x,-y,-z
loop_
_atom_site_type_symbol
_atom_site_label
_atom_site_fract_x
_atom_site_fract_y
_atom_site_fract_z
Si Si1 0.796625 0.505666 0.677048
Si Si2 0.939745 0.011790 0.941441
Si Si3 0.857387 0.959141 0.325685
Si Si4 0.708643 0.569521 0.564329
Si Si5 0.466678 0.735926 0.190846
Si Si6 0.485407 0.723050 0.690035
Si Si7 0.625697 0.968437 0.361010
Si Si8 0.209056 0.508671 0.724883
O O1 0.784603 0.660863 0.659333
O O2 0.661335 0.341696 0.711165
O O3 0.851614 0.724889 0.828291
O O4 0.879318 0.271823 0.499951
O O5 0.044570 0.074107 0.829276
O O6 0.867973 0.255245 0.112295
O O7 0.000000 0.000000 0.000000
O O8 0.717749 0.856884 0.321088
O O9 0.868990 0.747435 0.297197
O O10 0.578758 0.686270 0.702187
O O11 0.779514 0.633077 0.452646
O O12 0.692182 0.250539 0.416130
O O13 0.587553 0.776672 0.203808
O O14 0.464427 0.986583 0.245293
O O15 0.500000 0.500000 0.000000
O O16 0.500000 0.500000 0.500000
O O17 0.338304 0.653343 0.768577
O O18 0.500000 0.000000 0.500000
#
# Coordination Sequence:
#
# PCOD8043571 Si02
#       8
#     2   2   2   2   2   2   2   2
#     4  11  24  43  65  98 127 168 221 263 311 391
#     4  12  27  47  66  89 128 175 218 271 324 368
#     4  11  24  42  70  92 128 171 223 257 312 387
#     4  10  20  37  69  93 129 170 211 254 319 386
#     4  12  23  36  61  99 137 159 210 263 327 372
#     4  10  19  36  64  95 131 169 205 250 322 390
#     4  11  19  38  64  97 126 168 208 261 317 388
#     4  11  22  41  65  97 130 169 214 263 322 375
#
# _framework density 20.747198000000001
#
# number of rings (size 3 to 8) (size 9 to 14) (size 15 to 20)
#    0.000    1.000    5.000    5.250    1.750    0.000 
#    2.250    6.250    0.000    0.000    0.000    0.000 
#    0.000    0.000    0.000    0.000    0.000    0.000 
#
# Total GULP energy -198221.527890 kJ/mol
# GULP energy per Si atom -12388.845493 kJ/mol
# Density = 2.069998 g / cm^3
# Si number density = 20.747198 Si / 1000 Ang^3
#
#
#
# Elastic Constant Matrix: (Units=GPa)
#
#
# Indices 1 2 3 4 5 6 
#
# 1 110.4838 28.2094 54.6429 16.0771 3.4718 -9.1748
# 2 28.2094 93.6119 16.3060 0.0818 -0.5012 -16.3396
# 3 54.6429 16.3060 99.3278 10.6437 -5.3599 -11.2275
# 4 16.0771 0.0818 10.6437 33.1656 5.0995 -5.7309
# 5 3.4718 -0.5012 -5.3599 5.0995 45.1841 0.1400
# 6 -9.1748 -16.3396 -11.2275 -5.7309 0.1400 30.4256
#
#
#
# Elastic Compliance Matrix: (Units=1/GPa)
#
#
# Indices 1 2 3 4 5 6 
#
# 1 0.013830 -0.003137 -0.006788 -0.004450 -0.001398 -0.000851
# 2 -0.003137 0.012728 0.000091 0.002554 0.000085 0.006404
# 3 -0.006788 0.000091 0.014386 -0.001155 0.002350 0.003082
# 4 -0.004450 0.002554 -0.001155 0.034286 -0.003655 0.006078
# 5 -0.001398 0.000085 0.002350 -0.003655 0.022932 -0.000303
# 6 -0.000851 0.006404 0.003082 0.006078 -0.000303 0.038333
#
#
# Mechanical properties :
#
#
# Convention : Reuss Voigt Hill
#
# Bulk Modulus (GPa) = 47.00204 55.74892 51.37548
# Shear Modulus (GPa) = 30.62686 35.37274 32.99980
#
# Velocity S-wave (km/s) = 3.84629 4.13357 3.99252
# Velocity P-wave (km/s) = 6.51376 7.05059 6.78749
#
# Compressibility (1/GPa) = 0.02127567
#
# Stress axis : x y z
#
# Youngs Moduli (GPa) = 72.30540 78.56769 69.51193
#
# Poissons Ratio (x) = 0.24650 0.47185
# Poissons Ratio (y) = 0.22685 -0.00635
# Poissons Ratio (z) = 0.49082 -0.00717
#
# Static dielectric constant tensor:
#      x y z
#    x 4.865310 0.030120 -0.017670 
#    y 0.030120 3.785530 -0.180390 
#    z -0.017670 -0.180390 3.053190 
# 
# 
# High freq. dielectric constant tensor:
#      x y z
#    x 1.814550 -0.006200 -0.007600 
#    y -0.006200 1.813760 -0.005200 
#    z -0.007600 -0.005200 1.808000 
# 
# From -- ./inp_files/318063.got.cif
#   From: 2010.06.25/outbox.cif.g09.slc.cpg/sg2_160_cif.got.tgz:318063.got - 2010.06.27 13:26:56.
