data_PCOD8043817
_publ_section_title
;
Structure prediction by ZEFSAII (Michael W. Deem and Ramdas Pophale) SiO2 
 PCOD8043817
Probable space group: P -1
;
_chemical_formula_sum "Si O2"
_cell_formula_units_Z 16
_cell_length_a 10.467199
_cell_length_b 8.930378
_cell_length_c 21.004483
_cell_angle_alpha 39.491379
_cell_angle_beta 40.801013
_cell_angle_gamma 43.135349
_cell_volume 764.224132
_symmetry_space_group_name_H-M "P -1"
_symmetry_group_IT_number 2
_symmetry_cell_setting 'triclinic'
loop_
_space_group_symop_operation_xyz
x,y,z
-x,-y,-z
loop_
_atom_site_type_symbol
_atom_site_label
_atom_site_fract_x
_atom_site_fract_y
_atom_site_fract_z
Si Si1 0.678383 0.758993 0.656658
Si Si2 0.968224 0.710951 0.892772
Si Si3 0.033714 0.219548 0.558637
Si Si4 0.654919 0.190985 0.335432
Si Si5 0.318399 0.457563 0.020784
Si Si6 0.495249 0.851687 0.829069
Si Si7 0.357671 0.758171 0.142224
Si Si8 0.429843 0.730225 0.264622
O O1 0.881210 0.813627 0.535604
O O2 0.495446 0.880883 0.633600
O O3 0.610566 0.879736 0.711561
O O4 0.740472 0.458544 0.738915
O O5 0.887450 0.606920 0.894652
O O6 0.192189 0.722679 0.793314
O O7 0.822291 0.977421 0.888059
O O8 0.000000 0.500000 0.000000
O O9 0.000000 0.500000 0.500000
O O10 0.821647 0.156628 0.664577
O O11 0.218148 0.038765 0.592583
O O12 0.518520 0.436906 0.347452
O O13 0.363628 0.371983 0.104978
O O14 0.299031 0.753761 0.922722
O O15 0.488932 0.295856 0.957905
O O16 0.444619 0.120623 0.793304
O O17 0.474425 0.769981 0.160663
#
# Coordination Sequence:
#
# PCOD8043817 Si02
#       8
#     2   2   2   2   2   2   2   2
#     4  10  22  39  65  90 122 160 198 261 306 364
#     4  12  21  33  60  93 124 157 211 258 298 352
#     4  12  21  41  71  95 116 156 211 256 308 354
#     4  11  23  39  64  96 122 150 214 257 298 361
#     4  10  21  37  63  82 122 171 204 250 302 365
#     4  10  21  39  59  87 127 163 201 245 314 368
#     4  10  19  37  59  93 115 156 212 249 300 343
#     4  11  22  39  65  90 124 162 198 261 303 360
#
# _framework density 20.936267000000001
#
# number of rings (size 3 to 8) (size 9 to 14) (size 15 to 20)
#    0.000    1.250    5.000    3.000    1.750    0.500 
#    0.000    1.250   24.750    0.000    0.000    0.000 
#    0.000    0.000    0.000    0.000    0.000    0.000 
#
# Total GULP energy -198237.134739 kJ/mol
# GULP energy per Si atom -12389.820921 kJ/mol
# Density = 2.088861 g / cm^3
# Si number density = 20.936267 Si / 1000 Ang^3
#
#
#
# Elastic Constant Matrix: (Units=GPa)
#
#
# Indices 1 2 3 4 5 6 
#
# 1 48.4958 49.2435 15.2530 -4.0878 -2.2321 7.7748
# 2 49.2435 95.1850 30.0099 -10.2186 12.8912 1.0433
# 3 15.2530 30.0099 92.9301 1.4642 12.1230 -0.4390
# 4 -4.0878 -10.2186 1.4642 29.8794 -3.5765 8.9268
# 5 -2.2321 12.8912 12.1230 -3.5765 33.8978 -3.7917
# 6 7.7748 1.0433 -0.4390 8.9268 -3.7917 36.3354
#
#
#
# Elastic Compliance Matrix: (Units=1/GPa)
#
#
# Indices 1 2 3 4 5 6 
#
# 1 0.051505 -0.027743 -0.001345 0.002037 0.013595 -0.009322
# 2 -0.027743 0.027587 -0.003026 0.003595 -0.010506 0.003128
# 3 -0.001345 -0.003026 0.012468 -0.002486 -0.003573 0.000763
# 4 0.002037 0.003595 -0.002486 0.038311 0.002612 -0.009709
# 5 0.013595 -0.010506 -0.003573 0.002612 0.035997 0.000464
# 6 -0.009322 0.003128 0.000763 -0.009709 0.000464 0.031869
#
#
# Mechanical properties :
#
#
# Convention : Reuss Voigt Hill
#
# Bulk Modulus (GPa) = 36.58558 47.29154 41.93856
# Shear Modulus (GPa) = 18.44503 29.49616 23.97059
#
# Velocity S-wave (km/s) = 2.97140 3.75754 3.38735
# Velocity P-wave (km/s) = 5.41156 6.43917 5.94760
#
# Compressibility (1/GPa) = 0.02733318
#
# Stress axis : x y z
#
# Youngs Moduli (GPa) = 19.41540 36.24869 80.20712
#
# Poissons Ratio (x) = 1.00563 0.10784
# Poissons Ratio (y) = 0.53863 0.24275
# Poissons Ratio (z) = 0.02610 0.10971
#
# Static dielectric constant tensor:
#      x y z
#    x 3.201560 0.113940 0.283510 
#    y 0.113940 3.934240 0.031800 
#    z 0.283510 0.031800 3.946300 
# 
# 
# High freq. dielectric constant tensor:
#      x y z
#    x 1.798300 0.006000 -0.000270 
#    y 0.006000 1.803150 -0.008260 
#    z -0.000270 -0.008260 1.841240 
# 
# From -- ./inp_files/465094.got.cif
#   From: 2010.06.25/outbox.cif.g09.slc.cpg/sg2_233_cif.got.tgz:465094.got - 2010.06.27 13:26:56.
