data_PCOD8043996
_publ_section_title
;
Structure prediction by ZEFSAII (Michael W. Deem and Ramdas Pophale) SiO2 
 PCOD8043996
Probable space group: P -1
;
_chemical_formula_sum "Si O2"
_cell_formula_units_Z 16
_cell_length_a 9.001668
_cell_length_b 9.113049
_cell_length_c 21.328514
_cell_angle_alpha 143.165791
_cell_angle_beta 125.076470
_cell_angle_gamma 47.180097
_cell_volume 767.495694
_symmetry_space_group_name_H-M "P -1"
_symmetry_group_IT_number 2
_symmetry_cell_setting 'triclinic'
loop_
_space_group_symop_operation_xyz
x,y,z
-x,-y,-z
loop_
_atom_site_type_symbol
_atom_site_label
_atom_site_fract_x
_atom_site_fract_y
_atom_site_fract_z
Si Si1 0.793307 0.624505 0.954720
Si Si2 0.025826 0.431897 0.410832
Si Si3 0.683132 0.343823 0.445037
Si Si4 0.120265 0.178642 0.086687
Si Si5 0.603077 0.497591 0.334459
Si Si6 0.871697 0.784142 0.245823
Si Si7 0.565003 0.958942 0.126208
Si Si8 0.226231 0.836209 0.282972
O O1 0.831820 0.780174 0.959066
O O2 0.727058 0.397312 0.837135
O O3 0.610000 0.817976 0.020937
O O4 0.000000 0.500000 0.000000
O O5 0.126743 0.612984 0.466816
O O6 0.000000 0.500000 0.500000
O O7 0.803440 0.500941 0.353082
O O8 0.184246 0.112961 0.330748
O O9 0.500000 0.500000 0.500000
O O10 0.613637 0.484252 0.407883
O O11 0.745161 0.016256 0.346259
O O12 0.995687 0.471032 0.192846
O O13 0.341247 0.018132 0.117310
O O14 0.000000 0.000000 0.000000
O O15 0.408061 0.763432 0.352425
O O16 0.580851 0.237956 0.214660
O O17 0.722776 0.767909 0.150790
O O18 0.020882 0.895333 0.290498
#
# Coordination Sequence:
#
# PCOD8043996 Si02
#       8
#     2   2   2   2   2   2   2   2
#     4  11  20  38  64  92 123 163 208 259 301 360
#     4  10  19  37  62  88 115 150 205 255 298 364
#     4  10  22  42  63  87 125 164 199 250 317 373
#     4  11  24  39  61  91 127 166 211 248 312 378
#     4  10  20  36  66  88 117 158 201 251 310 355
#     4  10  20  41  65  84 126 162 206 253 321 359
#     4  11  19  39  65  89 121 167 205 261 306 363
#     4  11  19  35  63  90 118 152 210 248 305 355
#
# _framework density 20.847021999999999
#
# number of rings (size 3 to 8) (size 9 to 14) (size 15 to 20)
#    0.000    1.500    8.750    0.375    0.000    2.500 
#    2.250    4.375    0.000    0.000    0.000    0.000 
#    0.000    0.000    0.000    0.000    0.000    0.000 
#
# Total GULP energy -198315.505790 kJ/mol
# GULP energy per Si atom -12394.719112 kJ/mol
# Density = 2.079957 g / cm^3
# Si number density = 20.847022 Si / 1000 Ang^3
#
#
#
# Elastic Constant Matrix: (Units=GPa)
#
#
# Indices 1 2 3 4 5 6 
#
# 1 107.2664 31.9208 68.5894 11.4588 6.4424 -30.7366
# 2 31.9208 88.9532 27.0912 -0.9234 3.5413 -31.4292
# 3 68.5894 27.0912 125.3269 19.3265 -1.4743 -11.1186
# 4 11.4588 -0.9234 19.3265 31.5732 -9.6772 7.1010
# 5 6.4424 3.5413 -1.4743 -9.6772 38.8665 -1.1737
# 6 -30.7366 -31.4292 -11.1186 7.1010 -1.1737 33.2926
#
#
#
# Elastic Compliance Matrix: (Units=1/GPa)
#
#
# Indices 1 2 3 4 5 6 
#
# 1 0.021897 0.002638 -0.009408 -0.008638 -0.005737 0.021205
# 2 0.002638 0.018068 -0.003130 -0.003586 -0.002518 0.019123
# 3 -0.009408 -0.003130 0.013766 -0.003270 0.001363 -0.006298
# 4 -0.008638 -0.003586 -0.003270 0.045343 0.012269 -0.021691
# 5 -0.005737 -0.002518 0.001363 0.012269 0.029751 -0.008787
# 6 0.021205 0.019123 -0.006298 -0.021691 -0.008787 0.069880
#
#
# Mechanical properties :
#
#
# Convention : Reuss Voigt Hill
#
# Bulk Modulus (GPa) = 29.47069 64.08326 46.77698
# Shear Modulus (GPa) = 21.75669 33.67612 27.71641
#
# Velocity S-wave (km/s) = 3.23404 4.02355 3.65021
# Velocity P-wave (km/s) = 5.30214 7.23822 6.34447
#
# Compressibility (1/GPa) = 0.03393202
#
# Stress axis : x y z
#
# Youngs Moduli (GPa) = 45.66874 55.34656 72.64188
#
# Poissons Ratio (x) = -0.14603 0.68344
# Poissons Ratio (y) = -0.12050 0.22735
# Poissons Ratio (z) = 0.42966 0.17322
#
# Static dielectric constant tensor:
#      x y z
#    x 4.113770 -0.433580 0.443930 
#    y -0.433580 4.045660 0.063780 
#    z 0.443930 0.063780 4.268670 
# 
# 
# High freq. dielectric constant tensor:
#      x y z
#    x 1.791040 -0.040340 0.011470 
#    y -0.040340 1.805920 0.010100 
#    z 0.011470 0.010100 1.825670 
# 
# From -- ./inp_files/356540.got.cif
#   From: 2010.06.25/outbox.cif.g09.slc.cpg/sg2_179_cif.got.tgz:356540.got - 2010.06.27 13:26:56.
