data_PCOD8043458
_publ_section_title
;
Structure prediction by ZEFSAII (Michael W. Deem and Ramdas Pophale) SiO2 
 PCOD8043458
Probable space group: P -1
;
_chemical_formula_sum "Si O2"
_cell_formula_units_Z 16
_cell_length_a 15.690275
_cell_length_b 11.798834
_cell_length_c 9.078387
_cell_angle_alpha 77.012046
_cell_angle_beta 93.110888
_cell_angle_gamma 151.438866
_cell_volume 745.090751
_symmetry_space_group_name_H-M "P -1"
_symmetry_group_IT_number 2
_symmetry_cell_setting 'triclinic'
loop_
_space_group_symop_operation_xyz
x,y,z
-x,-y,-z
loop_
_atom_site_type_symbol
_atom_site_label
_atom_site_fract_x
_atom_site_fract_y
_atom_site_fract_z
Si Si1 0.752600 0.544722 0.379302
Si Si2 0.021771 0.086288 0.220683
Si Si3 0.686748 0.973610 0.929860
Si Si4 0.430955 0.477432 0.147019
Si Si5 0.851378 0.392077 0.924623
Si Si6 0.920360 0.656487 0.077539
Si Si7 0.617491 0.814818 0.642799
Si Si8 0.983934 0.720251 0.600579
O O1 0.781991 0.513436 0.238869
O O2 0.530043 0.298533 0.443954
O O3 0.818952 0.544600 0.519494
O O4 0.859791 0.796541 0.308827
O O5 0.217232 0.256727 0.185581
O O6 0.999445 0.145767 0.337504
O O7 0.001556 0.130867 0.052208
O O8 0.607936 0.860767 0.791268
O O9 0.678998 0.099017 0.946784
O O10 0.564346 0.751536 0.102511
O O11 0.902380 0.197281 0.886227
O O12 0.445569 0.397677 0.298326
O O13 0.500000 0.500000 0.000000
O O14 0.938325 0.549393 0.737491
O O15 0.795068 0.432140 0.012655
O O16 0.000000 0.500000 0.000000
O O17 0.823934 0.075743 0.522653
#
# Coordination Sequence:
#
# PCOD8043458 Si02
#       8
#     2   2   2   2   2   2   2   2
#     4  12  22  40  66  96 130 171 209 262 327 380
#     4  11  22  39  63  95 136 169 207 262 325 380
#     4  10  19  40  65  95 127 171 216 265 311 379
#     4  10  19  36  62  96 128 161 209 260 310 379
#     4   9  22  43  70  89 123 177 216 261 325 373
#     4  10  19  38  64  93 125 170 218 260 313 382
#     4  11  23  39  65  99 131 165 212 260 326 384
#     4  11  24  45  63  96 133 166 212 269 320 377
#
# _framework density 21.473893
#
# number of rings (size 3 to 8) (size 9 to 14) (size 15 to 20)
#    0.000    1.500    2.500    3.750    0.000    1.000 
#    6.750    6.250    2.750    0.000    0.000    0.000 
#    0.000    0.000    0.000    0.000    0.000    0.000 
#
# Total GULP energy -198352.227729 kJ/mol
# GULP energy per Si atom -12397.014233 kJ/mol
# Density = 2.142502 g / cm^3
# Si number density = 21.473893 Si / 1000 Ang^3
#
#
#
# Elastic Constant Matrix: (Units=GPa)
#
#
# Indices 1 2 3 4 5 6 
#
# 1 72.4406 45.3939 27.0006 8.0518 22.0744 1.2565
# 2 45.3939 126.0767 52.8697 3.6721 9.0820 -1.3715
# 3 27.0006 52.8697 127.0295 19.7885 23.2099 -4.8588
# 4 8.0518 3.6721 19.7885 19.7134 -5.8594 9.5109
# 5 22.0744 9.0820 23.2099 -5.8594 32.9739 -1.7111
# 6 1.2565 -1.3715 -4.8588 9.5109 -1.7111 52.1225
#
#
#
# Elastic Compliance Matrix: (Units=1/GPa)
#
#
# Indices 1 2 3 4 5 6 
#
# 1 0.028528 -0.010695 0.007402 -0.026581 -0.025892 0.003721
# 2 -0.010695 0.013814 -0.007813 0.014094 0.011240 -0.002310
# 3 0.007402 -0.007813 0.017835 -0.028220 -0.020072 0.005769
# 4 -0.026581 0.014094 -0.028220 0.112850 0.052767 -0.020479
# 5 -0.025892 0.011240 -0.020072 0.052767 0.067636 -0.008359
# 6 0.003721 -0.002310 0.005769 -0.020479 -0.008359 0.023035
#
#
# Mechanical properties :
#
#
# Convention : Reuss Voigt Hill
#
# Bulk Modulus (GPa) = 26.34205 64.00837 45.17521
# Shear Modulus (GPa) = 16.74670 34.31413 25.53042
#
# Velocity S-wave (km/s) = 2.79563 4.00177 3.45179
# Velocity P-wave (km/s) = 4.76596 7.15713 6.08025
#
# Compressibility (1/GPa) = 0.03796212
#
# Stress axis : x y z
#
# Youngs Moduli (GPa) = 35.05376 72.39134 56.06937
#
# Poissons Ratio (x) = 0.77425 -0.41500
# Poissons Ratio (y) = 0.37491 0.43809
# Poissons Ratio (z) = -0.25945 0.56562
#
# Static dielectric constant tensor:
#      x y z
#    x 4.223120 -0.342390 0.131490 
#    y -0.342390 4.029810 0.029420 
#    z 0.131490 0.029420 3.963050 
# 
# 
# High freq. dielectric constant tensor:
#      x y z
#    x 1.851480 -0.003030 0.003550 
#    y -0.003030 1.833640 0.005990 
#    z 0.003550 0.005990 1.834960 
# 
# From -- ./inp_files/294742.got.cif
#   From: 2010.06.25/outbox.cif.g09.slc.cpg/sg2_148_cif.got.tgz:294742.got - 2010.06.27 13:26:56.
