data_PCOD8043341
_publ_section_title
;
Structure prediction by ZEFSAII (Michael W. Deem and Ramdas Pophale) SiO2 
 PCOD8043341
Probable space group: P -1
;
_chemical_formula_sum "Si O2"
_cell_formula_units_Z 16
_cell_length_a 9.858516
_cell_length_b 11.068140
_cell_length_c 12.107669
_cell_angle_alpha 60.269594
_cell_angle_beta 127.239482
_cell_angle_gamma 116.955857
_cell_volume 890.617151
_symmetry_space_group_name_H-M "P -1"
_symmetry_group_IT_number 2
_symmetry_cell_setting 'triclinic'
loop_
_space_group_symop_operation_xyz
x,y,z
-x,-y,-z
loop_
_atom_site_type_symbol
_atom_site_label
_atom_site_fract_x
_atom_site_fract_y
_atom_site_fract_z
Si Si1 0.055304 0.674712 0.827817
Si Si2 0.737036 0.643955 0.088876
Si Si3 0.070720 0.052004 0.394510
Si Si4 0.928306 0.914426 0.166520
Si Si5 0.048239 0.641960 0.096030
Si Si6 0.634321 0.319644 0.181564
Si Si7 0.574187 0.035005 0.400468
Si Si8 0.763905 0.083695 0.839165
O O1 0.242500 0.714135 0.840944
O O2 0.935228 0.783619 0.693214
O O3 0.944498 0.521105 0.802405
O O4 0.089450 0.677392 0.973353
O O5 0.840841 0.745806 0.189415
O O6 0.702054 0.480631 0.188447
O O7 0.855347 0.664228 0.026176
O O8 0.560569 0.695138 0.953286
O O9 0.269168 0.043407 0.492526
O O10 0.000000 0.000000 0.500000
O O11 0.951080 0.955949 0.286683
O O12 0.118974 0.953675 0.186378
O O13 0.803540 0.004489 0.005642
O O14 0.194018 0.746397 0.193728
O O15 0.634754 0.205917 0.331755
O O16 0.500000 0.000000 0.500000
O O17 0.437248 0.967940 0.268585
#
# Coordination Sequence:
#
# PCOD8043341 Si02
#       8
#     2   2   2   2   2   2   2   2
#     4  10  20  37  57  86 118 154 188 233 295 345
#     4   9  19  36  63  86 112 145 200 248 275 328
#     4  12  24  40  56  84 123 158 185 233 300 350
#     4  10  19  36  62  87 110 150 200 238 279 338
#     4   9  19  36  63  85 111 151 198 238 280 340
#     4  10  20  37  56  89 118 148 190 242 291 334
#     4  12  24  38  58  86 120 154 192 236 293 345
#     4  10  19  36  61  89 110 145 205 243 270 334
#
# _framework density 17.965070999999998
#
# number of rings (size 3 to 8) (size 9 to 14) (size 15 to 20)
#    0.000    1.750    5.000    0.000    1.750    0.000 
#    2.250    4.375    0.000    0.000    0.000    0.000 
#    0.000    0.000    0.000    0.000    0.000    0.000 
#
# Total GULP energy -198378.221740 kJ/mol
# GULP energy per Si atom -12398.638859 kJ/mol
# Density = 1.792418 g / cm^3
# Si number density = 17.965071 Si / 1000 Ang^3
#
#
#
# Elastic Constant Matrix: (Units=GPa)
#
#
# Indices 1 2 3 4 5 6 
#
# 1 113.7059 53.2859 62.8852 -6.9640 -0.8430 -1.5948
# 2 53.2859 130.8171 62.8252 -6.1646 1.6828 -6.9396
# 3 62.8852 62.8252 105.2538 -1.6022 2.5949 -4.7634
# 4 -6.9640 -6.1646 -1.6022 34.4003 -1.2618 -0.1423
# 5 -0.8430 1.6828 2.5949 -1.2618 38.6900 -2.6051
# 6 -1.5948 -6.9396 -4.7634 -0.1423 -2.6051 26.8991
#
#
#
# Elastic Compliance Matrix: (Units=1/GPa)
#
#
# Indices 1 2 3 4 5 6 
#
# 1 0.013809 -0.002254 -0.006935 0.002097 0.000872 -0.000895
# 2 -0.002254 0.011251 -0.005265 0.001322 -0.000018 0.001842
# 3 -0.006935 -0.005265 0.016838 -0.001596 -0.001029 0.001104
# 4 0.002097 0.001322 -0.001596 0.029698 0.001094 0.000446
# 5 0.000872 -0.000018 -0.001029 0.001094 0.026133 0.002401
# 6 -0.000895 0.001842 0.001104 0.000446 0.002401 0.038029
#
#
# Mechanical properties :
#
#
# Convention : Reuss Voigt Hill
#
# Bulk Modulus (GPa) = 76.98404 78.64105 77.81255
# Shear Modulus (GPa) = 29.58666 31.38324 30.48495
#
# Velocity S-wave (km/s) = 4.06260 4.18413 4.12382
# Velocity P-wave (km/s) = 8.05924 8.19830 8.12907
#
# Compressibility (1/GPa) = 0.01298971
#
# Stress axis : x y z
#
# Youngs Moduli (GPa) = 72.41880 88.87905 59.39014
#
# Poissons Ratio (x) = 0.20035 0.41185
# Poissons Ratio (y) = 0.16324 0.31269
# Poissons Ratio (z) = 0.50220 0.46796
#
# Static dielectric constant tensor:
#      x y z
#    x 3.271130 -0.224650 0.094390 
#    y -0.224650 3.168360 0.037710 
#    z 0.094390 0.037710 3.130510 
# 
# 
# High freq. dielectric constant tensor:
#      x y z
#    x 1.698440 -0.001230 0.002690 
#    y -0.001230 1.709790 -0.010140 
#    z 0.002690 -0.010140 1.671270 
# 
# From -- ./inp_files/253148.got.cif
#   From: 2010.06.25/outbox.cif.g09.slc.cpg/sg2_127_cif.got.tgz:253148.got - 2010.06.27 13:26:56.
