data_PCOD8043926
_publ_section_title
;
Structure prediction by ZEFSAII (Michael W. Deem and Ramdas Pophale) SiO2 
 PCOD8043926
Probable space group: P -1
;
_chemical_formula_sum "Si O2"
_cell_formula_units_Z 14
_cell_length_a 11.698310
_cell_length_b 12.469050
_cell_length_c 9.246190
_cell_angle_alpha 100.470001
_cell_angle_beta 100.527818
_cell_angle_gamma 31.266433
_cell_volume 687.359965
_symmetry_space_group_name_H-M "P -1"
_symmetry_group_IT_number 2
_symmetry_cell_setting 'triclinic'
loop_
_space_group_symop_operation_xyz
x,y,z
-x,-y,-z
loop_
_atom_site_type_symbol
_atom_site_label
_atom_site_fract_x
_atom_site_fract_y
_atom_site_fract_z
Si Si1 0.278910 0.035734 0.701565
Si Si2 0.534882 0.643260 0.542573
Si Si3 0.159583 0.771537 0.971273
Si Si4 0.968259 0.437917 0.597895
Si Si5 0.260568 0.298203 0.124484
Si Si6 0.997875 0.690301 0.038391
Si Si7 0.514168 0.486891 0.747989
O O1 0.073220 0.187157 0.802315
O O2 0.198962 0.188591 0.603530
O O3 0.328404 0.886984 0.587037
O O4 0.496020 0.899040 0.804616
O O5 0.761902 0.524665 0.537169
O O6 0.562844 0.549501 0.670503
O O7 0.476472 0.626804 0.378678
O O8 0.280261 0.684142 0.823248
O O9 0.309147 0.659643 0.120399
O O10 0.039025 0.749297 0.940499
O O11 0.000000 0.000000 0.000000
O O12 0.926818 0.538984 0.757898
O O13 0.000000 0.500000 0.500000
O O14 0.217788 0.438611 0.045407
O O15 0.211888 0.220245 0.022275
#
# Coordination Sequence:
#
# PCOD8043926 Si02
#       7
#     2   2   2   2   2   2   2
#     4  10  19  37  61  87 114 158 195 235 297 361
#     4  10  22  41  64  84 119 161 202 244 294 358
#     4  11  23  39  60  91 121 155 199 251 300 349
#     4  10  22  37  57  87 123 151 191 249 296 347
#     4   9  20  36  58  88 116 158 193 239 298 356
#     4  10  20  37  60  86 120 151 197 246 293 351
#     4  10  23  42  60  88 119 160 201 245 297 346
#
# _framework density 20.367785000000001
#
# number of rings (size 3 to 8) (size 9 to 14) (size 15 to 20)
#    0.000    2.000    0.000    3.857    2.000    4.571 
#    2.571    3.571    0.000    0.000    0.000    0.000 
#    0.000    0.000    0.000    0.000    0.000    0.000 
#
# Total GULP energy -173519.605091 kJ/mol
# GULP energy per Si atom -12394.257507 kJ/mol
# Density = 2.032143 g / cm^3
# Si number density = 20.367785 Si / 1000 Ang^3
#
#
#
# Elastic Constant Matrix: (Units=GPa)
#
#
# Indices 1 2 3 4 5 6 
#
# 1 124.2925 45.2076 33.6097 6.0739 -15.1356 19.5587
# 2 45.2076 122.6334 24.3811 12.3045 -1.2126 16.8124
# 3 33.6097 24.3811 82.9298 16.1747 -3.2353 13.3187
# 4 6.0739 12.3045 16.1747 30.1408 5.7186 -0.5742
# 5 -15.1356 -1.2126 -3.2353 5.7186 29.6771 -2.7907
# 6 19.5587 16.8124 13.3187 -0.5742 -2.7907 26.9095
#
#
#
# Elastic Compliance Matrix: (Units=1/GPa)
#
#
# Indices 1 2 3 4 5 6 
#
# 1 0.011144 -0.002846 -0.002620 -0.000711 0.004993 -0.004522
# 2 -0.002846 0.010204 -0.000588 -0.003190 -0.000877 -0.004174
# 3 -0.002620 -0.000588 0.015824 -0.008096 0.001400 -0.005588
# 4 -0.000711 -0.003190 -0.008096 0.040725 -0.008613 0.006493
# 5 0.004993 -0.000877 0.001400 -0.008613 0.038018 -0.000015
# 6 -0.004522 -0.004174 -0.005588 0.006493 -0.000015 0.045959
#
#
# Mechanical properties :
#
#
# Convention : Reuss Voigt Hill
#
# Bulk Modulus (GPa) = 39.89859 59.58361 49.74110
# Shear Modulus (GPa) = 27.42173 32.45595 29.93884
#
# Velocity S-wave (km/s) = 3.67322 3.99619 3.83810
# Velocity P-wave (km/s) = 6.13365 7.11408 6.64198
#
# Compressibility (1/GPa) = 0.02506354
#
# Stress axis : x y z
#
# Youngs Moduli (GPa) = 89.73743 97.99789 63.19489
#
# Poissons Ratio (x) = 0.27895 0.16555
# Poissons Ratio (y) = 0.25544 0.03716
# Poissons Ratio (z) = 0.23508 0.05763
#
# Static dielectric constant tensor:
#      x y z
#    x 3.482300 0.400490 -0.498590 
#    y 0.400490 3.622960 0.650660 
#    z -0.498590 0.650660 2.521110 
# 
# 
# High freq. dielectric constant tensor:
#      x y z
#    x 1.790440 0.007960 0.003460 
#    y 0.007960 1.804300 0.005220 
#    z 0.003460 0.005220 1.795900 
# 
# From -- ./inp_files/55048.got.cif
#   From: 2010.06.25/outbox.cif.g09.slc.cpg/sg2_28_cif.got.tgz:55048.got - 2010.06.27 13:26:56.
