data_PCOD8043596
_publ_section_title
;
Structure prediction by ZEFSAII (Michael W. Deem and Ramdas Pophale) SiO2 
 PCOD8043596
Probable space group: P -1
;
_chemical_formula_sum "Si O2"
_cell_formula_units_Z 16
_cell_length_a 12.059639
_cell_length_b 14.056931
_cell_length_c 10.482936
_cell_angle_alpha 56.161184
_cell_angle_beta 140.189725
_cell_angle_gamma 139.149913
_cell_volume 742.953078
_symmetry_space_group_name_H-M "P -1"
_symmetry_group_IT_number 2
_symmetry_cell_setting 'triclinic'
loop_
_space_group_symop_operation_xyz
x,y,z
-x,-y,-z
loop_
_atom_site_type_symbol
_atom_site_label
_atom_site_fract_x
_atom_site_fract_y
_atom_site_fract_z
Si Si1 0.707056 0.470693 0.426636
Si Si2 0.556017 0.809254 0.166064
Si Si3 0.329550 0.243751 0.431563
Si Si4 0.546011 0.220493 0.289230
Si Si5 0.167136 0.729906 0.721095
Si Si6 0.145477 0.002850 0.235107
Si Si7 0.732970 0.726859 0.170533
Si Si8 0.929275 0.101069 0.328994
O O1 0.512120 0.398746 0.412746
O O2 0.695056 0.347489 0.429498
O O3 0.678711 0.570158 0.237471
O O4 0.945008 0.566025 0.632923
O O5 0.547793 0.777928 0.332595
O O6 0.680710 0.757033 0.241631
O O7 0.695402 0.985309 0.135905
O O8 0.309177 0.727202 0.959223
O O9 0.211340 0.116469 0.319105
O O10 0.125331 0.235148 0.315569
O O11 0.696305 0.209158 0.335295
O O12 0.376183 0.061762 0.325773
O O13 0.412632 0.266480 0.065884
O O14 0.105925 0.834515 0.626557
O O15 0.995623 0.841394 0.284192
O O16 0.000000 0.000000 0.000000
O O17 0.000000 0.000000 0.500000
#
# Coordination Sequence:
#
# PCOD8043596 Si02
#       8
#     2   2   2   2   2   2   2   2
#     4  11  22  37  61  89 123 162 201 245 296 366
#     4  10  21  37  59  90 125 154 199 255 298 357
#     4  10  21  37  62  89 120 155 206 251 294 349
#     4   9  21  40  60  86 126 157 203 248 297 360
#     4  11  23  37  60  88 124 165 192 241 316 358
#     4   9  18  36  63  88 115 155 204 253 290 349
#     4  10  19  36  65  91 116 160 206 248 299 347
#     4  10  20  38  64  88 116 151 204 257 291 351
#
# _framework density 21.535681
#
# number of rings (size 3 to 8) (size 9 to 14) (size 15 to 20)
#    0.000    2.000    1.250    2.625    1.750    2.500 
#    0.000    1.875    5.500    0.000    0.000    0.000 
#    0.000    0.000    0.000    0.000    0.000    0.000 
#
# Total GULP energy -198262.663180 kJ/mol
# GULP energy per Si atom -12391.416449 kJ/mol
# Density = 2.148666 g / cm^3
# Si number density = 21.535681 Si / 1000 Ang^3
#
#
#
# Elastic Constant Matrix: (Units=GPa)
#
#
# Indices 1 2 3 4 5 6 
#
# 1 132.5128 55.9765 37.8725 9.4915 8.7749 2.7201
# 2 55.9765 101.1760 30.0029 22.7733 14.8335 22.6615
# 3 37.8725 30.0029 97.8880 20.4935 -0.4200 2.3196
# 4 9.4915 22.7733 20.4935 31.9484 0.2975 -0.8142
# 5 8.7749 14.8335 -0.4200 0.2975 34.4767 6.1167
# 6 2.7201 22.6615 2.3196 -0.8142 6.1167 34.7589
#
#
#
# Elastic Compliance Matrix: (Units=1/GPa)
#
#
# Indices 1 2 3 4 5 6 
#
# 1 0.010979 -0.006787 -0.003023 0.003622 -0.000646 0.003966
# 2 -0.006787 0.019867 -0.000700 -0.011955 -0.004625 -0.011841
# 3 -0.003023 -0.000700 0.013091 -0.007029 0.001395 -0.000591
# 4 0.003622 -0.011955 -0.007029 0.043453 0.002235 0.008605
# 5 -0.000646 -0.004625 0.001395 0.002235 0.031607 -0.002537
# 6 0.003966 -0.011841 -0.000591 0.008605 -0.002537 0.036867
#
#
# Mechanical properties :
#
#
# Convention : Reuss Voigt Hill
#
# Bulk Modulus (GPa) = 43.63186 64.36451 53.99819
# Shear Modulus (GPa) = 27.09681 34.08512 30.59096
#
# Velocity S-wave (km/s) = 3.55100 3.98267 3.77301
# Velocity P-wave (km/s) = 6.09238 7.14850 6.64147
#
# Compressibility (1/GPa) = 0.02291903
#
# Stress axis : x y z
#
# Youngs Moduli (GPa) = 91.08168 50.33367 76.38707
#
# Poissons Ratio (x) = 0.34160 0.23089
# Poissons Ratio (y) = 0.61815 0.05347
# Poissons Ratio (z) = 0.27531 0.03523
#
# Static dielectric constant tensor:
#      x y z
#    x 4.199140 0.401440 -0.031330 
#    y 0.401440 4.006190 0.531120 
#    z -0.031330 0.531120 3.859600 
# 
# 
# High freq. dielectric constant tensor:
#      x y z
#    x 1.854160 0.012550 -0.010530 
#    y 0.012550 1.831210 0.035400 
#    z -0.010530 0.035400 1.841930 
# 
# From -- ./inp_files/407472.got.cif
#   From: 2010.06.25/outbox.cif.g09.slc.cpg/sg2_204_cif.got.tgz:407472.got - 2010.06.27 13:26:56.
