data_PCOD8043277
_publ_section_title
;
Structure prediction by ZEFSAII (Michael W. Deem and Ramdas Pophale) SiO2 
 PCOD8043277
Probable space group: P -1
;
_chemical_formula_sum "Si O2"
_cell_formula_units_Z 16
_cell_length_a 13.329339
_cell_length_b 9.918262
_cell_length_c 14.995053
_cell_angle_alpha 44.633930
_cell_angle_beta 59.287204
_cell_angle_gamma 95.704244
_cell_volume 769.402362
_symmetry_space_group_name_H-M "P -1"
_symmetry_group_IT_number 2
_symmetry_cell_setting 'triclinic'
loop_
_space_group_symop_operation_xyz
x,y,z
-x,-y,-z
loop_
_atom_site_type_symbol
_atom_site_label
_atom_site_fract_x
_atom_site_fract_y
_atom_site_fract_z
Si Si1 0.687670 0.629754 0.142033
Si Si2 0.213400 0.479366 0.020083
Si Si3 0.452154 0.630510 0.156061
Si Si4 0.742727 0.286618 0.704346
Si Si5 0.912408 0.319798 0.325226
Si Si6 0.071036 0.711144 0.232677
Si Si7 0.294815 0.285837 0.220985
Si Si8 0.567180 0.116548 0.513828
O O1 0.795990 0.633174 0.019725
O O2 0.517386 0.511446 0.224134
O O3 0.613877 0.402967 0.363438
O O4 0.813045 0.948703 0.978610
O O5 0.399747 0.836773 0.783630
O O6 0.199377 0.298723 0.186235
O O7 0.037440 0.392193 0.154951
O O8 0.376305 0.672767 0.247678
O O9 0.297983 0.393751 0.264950
O O10 0.622131 0.955493 0.880086
O O11 0.833691 0.340937 0.731491
O O12 0.880061 0.515758 0.457117
O O13 0.749105 0.228231 0.397327
O O14 0.040284 0.615428 0.189196
O O15 0.828803 0.057221 0.553447
O O16 0.500000 0.500000 0.000000
O O17 0.500000 0.000000 0.500000
#
# Coordination Sequence:
#
# PCOD8043277 Si02
#       8
#     2   2   2   2   2   2   2   2
#     4  10  22  41  62  86 125 163 213 249 303 366
#     4  11  24  41  65  96 123 162 207 262 309 371
#     4  10  19  36  60  91 119 166 204 249 310 373
#     4   9  20  35  60  87 129 163 197 246 317 370
#     4  12  25  40  66  94 128 161 207 258 317 362
#     4  10  22  39  58  91 130 157 200 256 304 376
#     4  12  20  35  63  94 128 157 199 258 317 362
#     4  10  23  46  64  88 125 166 211 261 302 364
#
# _framework density 20.795359000000001
#
# number of rings (size 3 to 8) (size 9 to 14) (size 15 to 20)
#    0.000    1.500    2.500    2.625    5.250    2.500 
#    2.250    0.625    0.000    0.000    0.000    0.000 
#    0.000    0.000    0.000    0.000    0.000    0.000 
#
# Total GULP energy -198402.093996 kJ/mol
# GULP energy per Si atom -12400.130875 kJ/mol
# Density = 2.074803 g / cm^3
# Si number density = 20.795359 Si / 1000 Ang^3
#
#
#
# Elastic Constant Matrix: (Units=GPa)
#
#
# Indices 1 2 3 4 5 6 
#
# 1 83.6947 29.1096 38.0986 -4.3317 4.6639 -7.8407
# 2 29.1096 91.2307 31.9003 -13.6541 2.0362 -0.2099
# 3 38.0986 31.9003 84.3797 -11.6388 2.4533 -20.4815
# 4 -4.3317 -13.6541 -11.6388 30.9726 -7.8888 -5.3894
# 5 4.6639 2.0362 2.4533 -7.8888 34.2388 -3.6892
# 6 -7.8407 -0.2099 -20.4815 -5.3894 -3.6892 32.5681
#
#
#
# Elastic Compliance Matrix: (Units=1/GPa)
#
#
# Indices 1 2 3 4 5 6 
#
# 1 0.015890 -0.003104 -0.006466 -0.002272 -0.002135 -0.000879
# 2 -0.003104 0.013889 -0.003905 0.003937 0.000525 -0.002402
# 3 -0.006466 -0.003905 0.020401 0.008022 0.002890 0.012903
# 4 -0.002272 0.003937 0.008022 0.041566 0.010433 0.012583
# 5 -0.002135 0.000525 0.002890 0.010433 0.032385 0.006702
# 6 -0.000879 -0.002402 0.012903 0.012583 0.006702 0.041434
#
#
# Mechanical properties :
#
#
# Convention : Reuss Voigt Hill
#
# Bulk Modulus (GPa) = 43.04479 50.83579 46.94029
# Shear Modulus (GPa) = 24.96788 30.23568 27.60178
#
# Velocity S-wave (km/s) = 3.46879 3.81722 3.64717
# Velocity P-wave (km/s) = 6.06527 6.62775 6.35274
#
# Compressibility (1/GPa) = 0.02323162
#
# Stress axis : x y z
#
# Youngs Moduli (GPa) = 62.93259 71.99984 49.01677
#
# Poissons Ratio (x) = 0.22347 0.31693
# Poissons Ratio (y) = 0.19533 0.19140
# Poissons Ratio (z) = 0.40691 0.28114
#
# Static dielectric constant tensor:
#      x y z
#    x 3.826510 -0.133690 0.016390 
#    y -0.133690 3.699400 -0.301370 
#    z 0.016390 -0.301370 4.222420 
# 
# 
# High freq. dielectric constant tensor:
#      x y z
#    x 1.806450 -0.010110 -0.008330 
#    y -0.010110 1.805680 -0.016120 
#    z -0.008330 -0.016120 1.815680 
# 
# From -- ./inp_files/529404.got.cif
#   From: 2010.06.25/outbox.cif.g09.slc.cpg/sg2_265_cif.got.tgz:529404.got - 2010.06.27 13:26:56.
