data_PCOD8043407
_publ_section_title
;
Structure prediction by ZEFSAII (Michael W. Deem and Ramdas Pophale) SiO2 
 PCOD8043407
Probable space group: P -1
;
_chemical_formula_sum "Si O2"
_cell_formula_units_Z 16
_cell_length_a 12.836452
_cell_length_b 8.782861
_cell_length_c 11.795514
_cell_angle_alpha 50.981939
_cell_angle_beta 50.649287
_cell_angle_gamma 55.977541
_cell_volume 769.986377
_symmetry_space_group_name_H-M "P -1"
_symmetry_group_IT_number 2
_symmetry_cell_setting 'triclinic'
loop_
_space_group_symop_operation_xyz
x,y,z
-x,-y,-z
loop_
_atom_site_type_symbol
_atom_site_label
_atom_site_fract_x
_atom_site_fract_y
_atom_site_fract_z
Si Si1 0.646514 0.185817 0.286511
Si Si2 0.971542 0.374758 0.251497
Si Si3 0.165312 0.236307 0.984648
Si Si4 0.139929 0.881485 0.021483
Si Si5 0.330458 0.244063 0.438733
Si Si6 0.690507 0.441607 0.504705
Si Si7 0.590913 0.589822 0.271326
Si Si8 0.105196 0.481555 0.332745
O O1 0.495319 0.205853 0.326961
O O2 0.643877 0.357653 0.300722
O O3 0.706765 0.964325 0.404444
O O4 0.746079 0.220305 0.102307
O O5 0.915702 0.592464 0.127511
O O6 0.836093 0.297845 0.421372
O O7 0.060799 0.390223 0.292217
O O8 0.067389 0.221873 0.166986
O O9 0.310720 0.277615 0.910454
O O10 0.201206 0.025190 0.993180
O O11 0.115730 0.707535 0.199882
O O12 0.000000 0.000000 0.000000
O O13 0.269283 0.415745 0.494997
O O14 0.254282 0.328310 0.334791
O O15 0.608486 0.594892 0.392412
O O16 0.576566 0.322706 0.683164
O O17 0.000000 0.500000 0.500000
#
# Coordination Sequence:
#
# PCOD8043407 Si02
#       8
#     2   2   2   2   2   2   2   2
#     4  10  21  39  64  94 120 164 216 253 306 377
#     4  10  19  36  62  88 125 158 206 256 307 368
#     4  10  21  38  61  92 120 161 213 258 302 371
#     4  12  24  39  64  91 121 165 211 256 307 375
#     4  10  21  39  63  92 128 162 206 263 311 369
#     4   9  17  33  55  87 122 161 198 246 310 361
#     4   9  18  32  60  88 120 159 206 253 302 363
#     4  12  23  40  62  92 129 164 202 263 322 362
#
# _framework density 20.779588
#
# number of rings (size 3 to 8) (size 9 to 14) (size 15 to 20)
#    0.000    1.750    2.500    3.000    3.500    1.500 
#    0.000    1.875    0.000    3.750    0.000    0.000 
#    0.000    0.000    0.000    0.000    0.000    0.000 
#
# Total GULP energy -198342.934650 kJ/mol
# GULP energy per Si atom -12396.433416 kJ/mol
# Density = 2.073229 g / cm^3
# Si number density = 20.779588 Si / 1000 Ang^3
#
#
#
# Elastic Constant Matrix: (Units=GPa)
#
#
# Indices 1 2 3 4 5 6 
#
# 1 120.9267 42.1565 48.9622 0.1905 -6.2838 2.9192
# 2 42.1565 55.6038 47.8269 11.0923 -4.8588 0.5954
# 3 48.9622 47.8269 121.8007 12.4140 -15.0082 -7.2837
# 4 0.1905 11.0923 12.4140 39.9873 -1.6507 1.2602
# 5 -6.2838 -4.8588 -15.0082 -1.6507 35.6664 1.1571
# 6 2.9192 0.5954 -7.2837 1.2602 1.1571 30.7035
#
#
#
# Elastic Compliance Matrix: (Units=1/GPa)
#
#
# Indices 1 2 3 4 5 6 
#
# 1 0.011848 -0.007709 -0.002073 0.002790 0.000346 -0.001596
# 2 -0.007709 0.033210 -0.009556 -0.006194 -0.001081 -0.001883
# 3 -0.002073 -0.009556 0.013642 -0.001525 0.003888 0.003535
# 4 0.002790 -0.006194 -0.001525 0.027251 0.000320 -0.001638
# 5 0.000346 -0.001081 0.003888 0.000320 0.029609 -0.000219
# 6 -0.001596 -0.001883 0.003535 -0.001638 -0.000219 0.033672
#
#
# Mechanical properties :
#
#
# Convention : Reuss Voigt Hill
#
# Bulk Modulus (GPa) = 49.94040 64.02470 56.98255
# Shear Modulus (GPa) = 25.69597 31.89714 28.79655
#
# Velocity S-wave (km/s) = 3.52034 3.92219 3.72668
# Velocity P-wave (km/s) = 6.37254 7.16866 6.78229
#
# Compressibility (1/GPa) = 0.02002387
#
# Stress axis : x y z
#
# Youngs Moduli (GPa) = 84.39910 30.11150 73.30526
#
# Poissons Ratio (x) = 0.23214 0.15196
# Poissons Ratio (y) = 0.65066 0.70049
# Poissons Ratio (z) = 0.17496 0.28774
#
# Static dielectric constant tensor:
#      x y z
#    x 3.957050 -0.007370 -0.286150 
#    y -0.007370 3.577950 0.279620 
#    z -0.286150 0.279620 3.973070 
# 
# 
# High freq. dielectric constant tensor:
#      x y z
#    x 1.819150 0.013370 -0.022250 
#    y 0.013370 1.790180 0.030320 
#    z -0.022250 0.030320 1.808300 
# 
# From -- ./inp_files/308461.got.cif
#   From: 2010.06.25/outbox.cif.g09.slc.cpg/sg2_155_cif.got.tgz:308461.got - 2010.06.27 13:26:56.
