data_PCOD8043591
_publ_section_title
;
Structure prediction by ZEFSAII (Michael W. Deem and Ramdas Pophale) SiO2 
 PCOD8043591
Probable space group: P -1
;
_chemical_formula_sum "Si O2"
_cell_formula_units_Z 16
_cell_length_a 13.653741
_cell_length_b 10.429448
_cell_length_c 12.321986
_cell_angle_alpha 104.928417
_cell_angle_beta 94.228214
_cell_angle_gamma 31.993826
_cell_volume 861.635372
_symmetry_space_group_name_H-M "P -1"
_symmetry_group_IT_number 2
_symmetry_cell_setting 'triclinic'
loop_
_space_group_symop_operation_xyz
x,y,z
-x,-y,-z
loop_
_atom_site_type_symbol
_atom_site_label
_atom_site_fract_x
_atom_site_fract_y
_atom_site_fract_z
Si Si1 0.990944 0.150956 0.476058
Si Si2 0.580798 0.380662 0.598948
Si Si3 0.703903 0.520416 0.710195
Si Si4 0.220703 0.472245 0.872138
Si Si5 0.004305 0.470367 0.867295
Si Si6 0.577549 0.931887 0.871962
Si Si7 0.785346 0.316848 0.275774
Si Si8 0.983245 0.209328 0.854260
O O1 0.848569 0.398819 0.597330
O O2 0.904880 0.240162 0.368223
O O3 0.000000 0.000000 0.500000
O O4 0.214612 0.936938 0.447752
O O5 0.500000 0.500000 0.500000
O O6 0.588516 0.519464 0.679220
O O7 0.437303 0.448132 0.663235
O O8 0.562216 0.809841 0.779589
O O9 0.811381 0.362137 0.796503
O O10 0.196564 0.602059 0.802068
O O11 0.145259 0.415005 0.813478
O O12 0.445931 0.194930 0.859941
O O13 0.097120 0.668054 0.006015
O O14 0.795582 0.730743 0.851259
O O15 0.074519 0.235695 0.810838
O O16 0.000000 0.500000 0.000000
O O17 0.500000 0.000000 0.000000
O O18 0.860756 0.087076 0.191718
#
# Coordination Sequence:
#
# PCOD8043591 Si02
#       8
#     2   2   2   2   2   2   2   2
#     4  10  19  39  58  86 119 148 203 255 290 344
#     4  11  20  36  64  90 110 160 205 248 296 350
#     4  10  19  36  65  89 112 150 213 250 278 346
#     4  11  24  39  56  92 131 157 187 250 310 353
#     4   9  19  36  62  81 116 166 200 230 287 357
#     4  11  20  38  62  88 120 157 207 239 281 370
#     4  12  23  37  61  93 123 151 198 256 305 347
#     4  10  19  39  61  89 120 159 199 243 291 366
#
# _framework density 18.569338999999999
#
# number of rings (size 3 to 8) (size 9 to 14) (size 15 to 20)
#    0.000    1.500    8.750    0.375    1.750    1.000 
#    0.000    1.250    0.000    3.750    0.000    0.000 
#    0.000    0.000    0.000    0.000    0.000    0.000 
#
# Total GULP energy -198267.294396 kJ/mol
# GULP energy per Si atom -12391.705900 kJ/mol
# Density = 1.852707 g / cm^3
# Si number density = 18.569339 Si / 1000 Ang^3
#
#
#
# Elastic Constant Matrix: (Units=GPa)
#
#
# Indices 1 2 3 4 5 6 
#
# 1 110.1002 48.8832 43.8597 -11.0757 -8.2091 -1.9919
# 2 48.8832 104.7039 42.4956 -6.0764 -11.6481 2.9198
# 3 43.8597 42.4956 102.2690 -3.5323 -1.4065 6.4088
# 4 -11.0757 -6.0764 -3.5323 32.8583 -2.0607 3.8705
# 5 -8.2091 -11.6481 -1.4065 -2.0607 27.2648 -1.3524
# 6 -1.9919 2.9198 6.4088 3.8705 -1.3524 31.8808
#
#
#
# Elastic Compliance Matrix: (Units=1/GPa)
#
#
# Indices 1 2 3 4 5 6 
#
# 1 0.012937 -0.004108 -0.003806 0.003138 0.002264 0.001665
# 2 -0.004108 0.013555 -0.003729 0.001079 0.004409 -0.000692
# 3 -0.003806 -0.003729 0.013077 -0.000404 -0.002223 -0.002570
# 4 0.003138 0.001079 -0.000404 0.032299 0.003648 -0.003588
# 5 0.002264 0.004409 -0.002223 0.003648 0.039474 0.001416
# 6 0.001665 -0.000692 -0.002570 -0.003588 0.001416 0.032547
#
#
# Mechanical properties :
#
#
# Convention : Reuss Voigt Hill
#
# Bulk Modulus (GPa) = 61.41799 65.28335 63.35067
# Shear Modulus (GPa) = 28.96840 30.52309 29.74574
#
# Velocity S-wave (km/s) = 3.95398 4.05870 4.00668
# Velocity P-wave (km/s) = 7.34793 7.56286 7.45617
#
# Compressibility (1/GPa) = 0.01628187
#
# Stress axis : x y z
#
# Youngs Moduli (GPa) = 77.29627 73.77615 76.47171
#
# Poissons Ratio (x) = 0.30305 0.29107
# Poissons Ratio (y) = 0.31751 0.28519
# Poissons Ratio (z) = 0.29421 0.27514
#
# Static dielectric constant tensor:
#      x y z
#    x 5.035370 -0.111360 -1.664310 
#    y -0.111360 3.434310 0.613640 
#    z -1.664310 0.613640 6.104020 
# 
# 
# High freq. dielectric constant tensor:
#      x y z
#    x 1.702400 -0.015160 0.016130 
#    y -0.015160 1.722370 0.002400 
#    z 0.016130 0.002400 1.719420 
# 
# From -- ./inp_files/451542.got.cif
#   From: 2010.06.25/outbox.cif.g09.slc.cpg/sg2_226_cif.got.tgz:451542.got - 2010.06.27 13:26:56.
