data_PCOD8043497
_publ_section_title
;
Structure prediction by ZEFSAII (Michael W. Deem and Ramdas Pophale) SiO2 
 PCOD8043497
Probable space group: P -1
;
_chemical_formula_sum "Si O2"
_cell_formula_units_Z 16
_cell_length_a 20.316376
_cell_length_b 12.723129
_cell_length_c 9.069133
_cell_angle_alpha 27.591872
_cell_angle_beta 131.680634
_cell_angle_gamma 132.490583
_cell_volume 785.405692
_symmetry_space_group_name_H-M "P -1"
_symmetry_group_IT_number 2
_symmetry_cell_setting 'triclinic'
loop_
_space_group_symop_operation_xyz
x,y,z
-x,-y,-z
loop_
_atom_site_type_symbol
_atom_site_label
_atom_site_fract_x
_atom_site_fract_y
_atom_site_fract_z
Si Si1 0.091643 0.043309 0.750017
Si Si2 0.689323 0.385703 0.022316
Si Si3 0.655315 0.225378 0.607012
Si Si4 0.063318 0.755637 0.777176
Si Si5 0.760621 0.053478 0.726334
Si Si6 0.517071 0.974304 0.228098
Si Si7 0.637250 0.641877 0.877529
Si Si8 0.217411 0.542776 0.231342
O O1 0.154050 0.284290 0.478609
O O2 0.990619 0.077319 0.597362
O O3 0.081269 0.841595 0.864393
O O4 0.136837 0.959750 0.065420
O O5 0.765097 0.276369 0.350625
O O6 0.592914 0.195883 0.121989
O O7 0.679774 0.613327 0.815255
O O8 0.717216 0.460216 0.805549
O O9 0.575252 0.039546 0.802295
O O10 0.722655 0.386428 0.622404
O O11 0.707910 0.075086 0.773267
O O12 0.611269 0.390791 0.231796
O O13 0.158965 0.736318 0.872432
O O14 0.000000 0.500000 0.000000
O O15 0.712973 0.816817 0.867328
O O16 0.547992 0.736011 0.602127
O O17 0.500000 0.000000 0.000000
#
# Coordination Sequence:
#
# PCOD8043497 Si02
#       8
#     2   2   2   2   2   2   2   2
#     4  10  19  36  63  91 113 151 194 232 290 347
#     4  10  24  39  56  85 123 156 192 242 293 338
#     4  11  21  37  61  84 113 156 202 238 286 340
#     4   9  20  35  61  93 120 141 189 244 284 344
#     4  10  21  38  61  85 115 158 194 239 283 349
#     4  11  23  39  57  85 119 154 197 247 291 333
#     4  10  23  40  55  82 116 159 198 240 287 343
#     4  11  20  37  60  89 116 152 193 240 290 341
#
# _framework density 20.371638000000001
#
# number of rings (size 3 to 8) (size 9 to 14) (size 15 to 20)
#    0.000    1.750    3.750    0.375    0.000    9.000 
#    0.000    0.625    0.000    7.500    0.000    0.000 
#    0.000    0.000    0.000    0.000    0.000    0.000 
#
# Total GULP energy -198369.754529 kJ/mol
# GULP energy per Si atom -12398.109658 kJ/mol
# Density = 2.032527 g / cm^3
# Si number density = 20.371638 Si / 1000 Ang^3
#
#
#
# Elastic Constant Matrix: (Units=GPa)
#
#
# Indices 1 2 3 4 5 6 
#
# 1 70.6877 32.6162 14.4732 -0.0137 4.6658 -17.6493
# 2 32.6162 116.9216 35.3450 3.9221 10.1822 -17.3290
# 3 14.4732 35.3450 59.6480 14.7440 13.6821 -1.1781
# 4 -0.0137 3.9221 14.7440 36.0827 2.8338 6.1462
# 5 4.6658 10.1822 13.6821 2.8338 25.9088 1.4419
# 6 -17.6493 -17.3290 -1.1781 6.1462 1.4419 34.3845
#
#
#
# Elastic Compliance Matrix: (Units=1/GPa)
#
#
# Indices 1 2 3 4 5 6 
#
# 1 0.018020 -0.003160 -0.002035 -0.000014 -0.001352 0.007646
# 2 -0.003160 0.011986 -0.006122 0.000584 -0.001204 0.004155
# 3 -0.002035 -0.006122 0.025179 -0.008652 -0.009504 -0.001322
# 4 -0.000014 0.000584 -0.008652 0.032082 0.001155 -0.005792
# 5 -0.001352 -0.001204 -0.009504 0.001155 0.044412 -0.003695
# 6 0.007646 0.004155 -0.001322 -0.005792 -0.003695 0.036247
#
#
# Mechanical properties :
#
#
# Convention : Reuss Voigt Hill
#
# Bulk Modulus (GPa) = 30.72106 45.79177 38.25642
# Shear Modulus (GPa) = 24.82500 30.26340 27.54420
#
# Velocity S-wave (km/s) = 3.49464 3.85848 3.68106
# Velocity P-wave (km/s) = 5.60325 6.50980 6.07346
#
# Compressibility (1/GPa) = 0.03255096
#
# Stress axis : x y z
#
# Youngs Moduli (GPa) = 55.49406 83.43142 39.71544
#
# Poissons Ratio (x) = 0.26365 0.08082
# Poissons Ratio (y) = 0.17536 0.24313
# Poissons Ratio (z) = 0.11294 0.51075
#
# Static dielectric constant tensor:
#      x y z
#    x 3.641640 -0.033430 0.453340 
#    y -0.033430 3.896440 0.184880 
#    z 0.453340 0.184880 3.851830 
# 
# 
# High freq. dielectric constant tensor:
#      x y z
#    x 1.772610 -0.010100 0.026410 
#    y -0.010100 1.813900 0.007350 
#    z 0.026410 0.007350 1.794010 
# 
# From -- ./inp_files/38101.got.cif
#   From: 2010.06.25/outbox.cif.g09.slc.cpg/sg2_20_cif.got.tgz:38101.got - 2010.06.27 13:26:56.
