data_PCOD8043610
_publ_section_title
;
Structure prediction by ZEFSAII (Michael W. Deem and Ramdas Pophale) SiO2 
 PCOD8043610
Probable space group: P -1
;
_chemical_formula_sum "Si O2"
_cell_formula_units_Z 14
_cell_length_a 8.049829
_cell_length_b 14.556683
_cell_length_c 12.951796
_cell_angle_alpha 56.928330
_cell_angle_beta 64.394741
_cell_angle_gamma 114.314211
_cell_volume 591.162529
_symmetry_space_group_name_H-M "P -1"
_symmetry_group_IT_number 2
_symmetry_cell_setting 'triclinic'
loop_
_space_group_symop_operation_xyz
x,y,z
-x,-y,-z
loop_
_atom_site_type_symbol
_atom_site_label
_atom_site_fract_x
_atom_site_fract_y
_atom_site_fract_z
Si Si1 0.282658 0.337535 0.473440
Si Si2 0.715426 0.183046 0.624333
Si Si3 0.412958 0.627188 0.196491
Si Si4 0.745162 0.749582 0.815881
Si Si5 0.792145 0.214775 0.349795
Si Si6 0.146893 0.980404 0.042857
Si Si7 0.517533 0.742920 0.679482
O O1 0.509263 0.567752 0.277484
O O2 0.505028 0.356164 0.346661
O O3 0.923459 0.175872 0.599691
O O4 0.170299 0.244700 0.675964
O O5 0.979274 0.419436 0.440523
O O6 0.626085 0.145884 0.550708
O O7 0.360430 0.004850 0.898374
O O8 0.596453 0.832164 0.056149
O O9 0.505289 0.640140 0.047509
O O10 0.497567 0.672621 0.838169
O O11 0.837602 0.666867 0.820045
O O12 0.109819 0.001481 0.581034
O O13 0.813952 0.342393 0.203659
O O14 0.500000 0.000000 0.500000
O O15 0.000000 0.000000 0.000000
#
# Coordination Sequence:
#
# PCOD8043610 Si02
#       7
#     2   2   2   2   2   2   2
#     4  10  22  41  66  92 129 175 221 256 343 389
#     4  10  23  42  64  95 131 172 220 271 326 397
#     4  10  24  41  69  92 134 173 216 277 327 394
#     4  10  19  39  63  94 133 175 212 267 333 388
#     4  10  21  36  66  99 130 171 222 268 323 398
#     4  12  24  43  68  94 130 172 223 275 330 390
#     4  10  19  36  65  96 131 172 220 262 327 394
#
# _framework density 23.682151999999999
#
# number of rings (size 3 to 8) (size 9 to 14) (size 15 to 20)
#    0.857    0.857    2.857    1.714    2.000    2.857 
#    0.000    4.286    0.000    0.000    0.000    0.000 
#    0.000    0.000    0.000    0.000    0.000    0.000 
#
# Total GULP energy -173512.245025 kJ/mol
# GULP energy per Si atom -12393.731788 kJ/mol
# Density = 2.362825 g / cm^3
# Si number density = 23.682152 Si / 1000 Ang^3
#
#
#
# Elastic Constant Matrix: (Units=GPa)
#
#
# Indices 1 2 3 4 5 6 
#
# 1 140.1159 5.1095 19.4158 10.3408 11.3697 -8.1459
# 2 5.1095 52.7478 6.1525 17.8360 4.8423 -7.9305
# 3 19.4158 6.1525 84.8096 18.4135 31.4880 -0.2596
# 4 10.3408 17.8360 18.4135 33.6247 -0.0392 5.1712
# 5 11.3697 4.8423 31.4880 -0.0392 44.3573 1.7545
# 6 -8.1459 -7.9305 -0.2596 5.1712 1.7545 31.7538
#
#
#
# Elastic Compliance Matrix: (Units=1/GPa)
#
#
# Indices 1 2 3 4 5 6 
#
# 1 0.007706 0.000925 -0.000477 -0.003032 -0.001851 0.002800
# 2 0.000925 0.026776 0.004374 -0.018481 -0.006690 0.010340
# 3 -0.000477 0.004374 0.020096 -0.013842 -0.014799 0.004206
# 4 -0.003032 -0.018481 -0.013842 0.050290 0.013236 -0.014428
# 5 -0.001851 -0.006690 -0.014799 0.013236 0.034517 -0.006329
# 6 0.002800 0.010340 0.004206 -0.014428 -0.006329 0.037527
#
#
# Mechanical properties :
#
#
# Convention : Reuss Voigt Hill
#
# Bulk Modulus (GPa) = 15.57084 37.66989 26.62037
# Shear Modulus (GPa) = 26.50050 38.41350 32.45700
#
# Velocity S-wave (km/s) = 3.34879 4.03183 3.70608
# Velocity P-wave (km/s) = 4.64130 6.13312 5.43861
#
# Compressibility (1/GPa) = 0.06422261
#
# Stress axis : x y z
#
# Youngs Moduli (GPa) = 129.76738 37.34661 49.76094
#
# Poissons Ratio (x) = -0.03456 0.02374
# Poissons Ratio (y) = -0.12009 -0.21765
# Poissons Ratio (z) = 0.06192 -0.16335
#
# Static dielectric constant tensor:
#      x y z
#    x 4.840620 -0.214410 0.036380 
#    y -0.214410 3.972520 -0.088840 
#    z 0.036380 -0.088840 4.158270 
# 
# 
# High freq. dielectric constant tensor:
#      x y z
#    x 1.937810 -0.002570 0.011860 
#    y -0.002570 1.925890 0.001000 
#    z 0.011860 0.001000 1.946010 
# 
# From -- ./inp_files/398753.got.cif
#   From: 2010.06.25/outbox.cif.g09.slc.cpg/sg2_200_cif.got.tgz:398753.got - 2010.06.27 13:26:56.
