data_PCOD8043402
_publ_section_title
;
Structure prediction by ZEFSAII (Michael W. Deem and Ramdas Pophale) SiO2 
 PCOD8043402
Probable space group: P -1
;
_chemical_formula_sum "Si O2"
_cell_formula_units_Z 16
_cell_length_a 9.655687
_cell_length_b 11.611790
_cell_length_c 9.268088
_cell_angle_alpha 62.392571
_cell_angle_beta 64.101135
_cell_angle_gamma 68.476775
_cell_volume 810.519880
_symmetry_space_group_name_H-M "P -1"
_symmetry_group_IT_number 2
_symmetry_cell_setting 'triclinic'
loop_
_space_group_symop_operation_xyz
x,y,z
-x,-y,-z
loop_
_atom_site_type_symbol
_atom_site_label
_atom_site_fract_x
_atom_site_fract_y
_atom_site_fract_z
Si Si1 0.364406 0.444703 0.173087
Si Si2 0.303064 0.913735 0.761059
Si Si3 0.181325 0.949006 0.475967
Si Si4 0.652287 0.600300 0.464040
Si Si5 0.338514 0.690787 0.392578
Si Si6 0.797175 0.280943 0.860885
Si Si7 0.665259 0.829514 0.676953
Si Si8 0.156686 0.195194 0.683842
O O1 0.413414 0.393707 0.344117
O O2 0.211637 0.564826 0.180059
O O3 0.329138 0.317595 0.172898
O O4 0.500000 0.500000 0.000000
O O5 0.216226 0.921362 0.643817
O O6 0.489784 0.891784 0.665884
O O7 0.239052 0.051911 0.796851
O O8 0.258115 0.792807 0.936429
O O9 0.228952 0.810350 0.454312
O O10 0.276525 0.061872 0.309600
O O11 0.000000 0.000000 0.500000
O O12 0.516125 0.671488 0.377468
O O13 0.719807 0.447952 0.474213
O O14 0.789149 0.682529 0.332638
O O15 0.327533 0.723831 0.208095
O O16 0.970249 0.214405 0.769017
O O17 0.791554 0.806988 0.503943
#
# Coordination Sequence:
#
# PCOD8043402 Si02
#       8
#     2   2   2   2   2   2   2   2
#     4  10  19  36  62  88 113 145 203 242 281 336
#     4  11  21  39  62  84 117 155 199 235 283 342
#     4  11  22  36  59  86 119 155 189 236 289 343
#     4   9  20  36  61  82 111 154 191 240 280 344
#     4  10  20  37  57  85 116 148 193 228 295 340
#     4  11  23  36  61  89 116 153 187 248 294 330
#     4  10  20  37  63  87 111 158 201 232 275 355
#     4  10  20  36  58  89 114 148 201 238 281 343
#
# _framework density 19.740417000000001
#
# number of rings (size 3 to 8) (size 9 to 14) (size 15 to 20)
#    0.000    1.750    1.250    5.625    0.000    5.500 
#    0.000    3.750    0.000    1.500    0.000    0.000 
#    0.000    0.000    0.000    0.000    0.000    0.000 
#
# Total GULP energy -198280.191076 kJ/mol
# GULP energy per Si atom -12392.511942 kJ/mol
# Density = 1.969549 g / cm^3
# Si number density = 19.740417 Si / 1000 Ang^3
#
#
#
# Elastic Constant Matrix: (Units=GPa)
#
#
# Indices 1 2 3 4 5 6 
#
# 1 77.3404 37.2584 31.1430 -3.5492 -5.8209 7.3178
# 2 37.2584 154.3515 27.4457 -18.4087 -1.7813 1.6627
# 3 31.1430 27.4457 71.4634 -15.3699 -4.1088 4.2147
# 4 -3.5492 -18.4087 -15.3699 27.9480 -1.6944 -7.1294
# 5 -5.8209 -1.7813 -4.1088 -1.6944 19.2222 4.7886
# 6 7.3178 1.6627 4.2147 -7.1294 4.7886 28.5463
#
#
#
# Elastic Compliance Matrix: (Units=1/GPa)
#
#
# Indices 1 2 3 4 5 6 
#
# 1 0.018121 -0.003618 -0.007010 -0.005044 0.004560 -0.005424
# 2 -0.003618 0.008019 -0.000577 0.004951 -0.000505 0.001867
# 3 -0.007010 -0.000577 0.019481 0.009850 0.002613 0.000976
# 4 -0.005044 0.004951 0.009850 0.046724 0.002463 0.010807
# 5 0.004560 -0.000505 0.002613 0.002463 0.056730 -0.010427
# 6 -0.005424 0.001867 0.000976 0.010807 -0.010427 0.040616
#
#
# Mechanical properties :
#
#
# Convention : Reuss Voigt Hill
#
# Bulk Modulus (GPa) = 43.08533 54.98327 49.03430
# Shear Modulus (GPa) = 22.74382 28.96385 25.85383
#
# Velocity S-wave (km/s) = 3.39801 3.83461 3.62289
# Velocity P-wave (km/s) = 6.10480 6.89342 6.51106
#
# Compressibility (1/GPa) = 0.02320976
#
# Stress axis : x y z
#
# Youngs Moduli (GPa) = 55.18584 124.69953 51.33196
#
# Poissons Ratio (x) = 0.45118 0.35984
# Poissons Ratio (y) = 0.19967 0.02964
# Poissons Ratio (z) = 0.38685 0.07200
#
# Static dielectric constant tensor:
#      x y z
#    x 3.396580 0.294830 -0.063760 
#    y 0.294830 4.407140 -0.343340 
#    z -0.063760 -0.343340 3.380590 
# 
# 
# High freq. dielectric constant tensor:
#      x y z
#    x 1.755260 0.000020 -0.007520 
#    y 0.000020 1.801530 -0.022430 
#    z -0.007520 -0.022430 1.739010 
# 
# From -- ./inp_files/251893.got.cif
#   From: 2010.06.25/outbox.cif.g09.slc.cpg/sg2_126_cif.got.tgz:251893.got - 2010.06.27 13:26:56.
