data_PCOD8043107
_publ_section_title
;
Structure prediction by ZEFSAII (Michael W. Deem and Ramdas Pophale) SiO2 
 PCOD8043107
Probable space group: P -1
;
_chemical_formula_sum "Si O2"
_cell_formula_units_Z 14
_cell_length_a 8.971003
_cell_length_b 14.267049
_cell_length_c 15.423027
_cell_angle_alpha 151.733078
_cell_angle_beta 78.046089
_cell_angle_gamma 120.881587
_cell_volume 640.257497
_symmetry_space_group_name_H-M "P -1"
_symmetry_group_IT_number 2
_symmetry_cell_setting 'triclinic'
loop_
_space_group_symop_operation_xyz
x,y,z
-x,-y,-z
loop_
_atom_site_type_symbol
_atom_site_label
_atom_site_fract_x
_atom_site_fract_y
_atom_site_fract_z
Si Si1 0.353118 0.787980 0.239367
Si Si2 0.429033 0.630854 0.259262
Si Si3 0.214433 0.196740 0.534815
Si Si4 0.421559 0.271457 0.392979
Si Si5 0.013969 0.879975 0.025837
Si Si6 0.891535 0.600345 0.630264
Si Si7 0.050439 0.365529 0.797472
O O1 0.457112 0.702790 0.211684
O O2 0.136066 0.645651 0.205798
O O3 0.524480 0.127117 0.491787
O O4 0.276831 0.667479 0.052757
O O5 0.608033 0.638954 0.274481
O O6 0.193224 0.324983 0.055032
O O7 0.330737 0.297838 0.510747
O O8 0.093711 0.294896 0.643704
O O9 0.041536 0.861634 0.298914
O O10 0.500000 0.500000 0.500000
O O11 0.627882 0.325472 0.437467
O O12 0.219302 0.971472 0.126894
O O13 0.049266 0.148258 0.226523
O O14 0.980212 0.721538 0.814520
O O15 0.000000 0.500000 0.500000
#
# Coordination Sequence:
#
# PCOD8043107 Si02
#       7
#     2   2   2   2   2   2   2
#     4   9  19  36  56  87 126 160 209 260 312 375
#     4  10  19  36  58  84 122 168 200 254 318 371
#     4  10  19  36  60  86 124 165 211 254 320 374
#     4  10  21  40  64  89 128 168 204 264 319 373
#     4  10  21  41  64  88 128 166 200 271 319 367
#     4  10  22  43  66  93 121 160 221 264 314 382
#     4   9  19  36  59  88 121 164 208 261 310 380
#
# _framework density 21.866202000000001
#
# number of rings (size 3 to 8) (size 9 to 14) (size 15 to 20)
#    0.000    2.286    1.429    0.857    0.000    1.143 
#    7.714    1.429    0.000    0.000    0.000    0.000 
#    0.000    0.000    0.000    0.000    0.000    0.000 
#
# Total GULP energy -173456.327235 kJ/mol
# GULP energy per Si atom -12389.737660 kJ/mol
# Density = 2.181643 g / cm^3
# Si number density = 21.866202 Si / 1000 Ang^3
#
#
#
# Elastic Constant Matrix: (Units=GPa)
#
#
# Indices 1 2 3 4 5 6 
#
# 1 88.6274 22.6047 47.0885 -18.7022 7.6664 14.8440
# 2 22.6047 66.2806 3.7163 -6.6704 -1.7813 13.7451
# 3 47.0885 3.7163 95.2143 2.0194 26.4887 9.9230
# 4 -18.7022 -6.6704 2.0194 33.8000 4.3548 1.9315
# 5 7.6664 -1.7813 26.4887 4.3548 43.0277 -5.5598
# 6 14.8440 13.7451 9.9230 1.9315 -5.5598 25.0384
#
#
#
# Elastic Compliance Matrix: (Units=1/GPa)
#
#
# Indices 1 2 3 4 5 6 
#
# 1 0.021332 -0.003951 -0.009838 0.012055 -0.000101 -0.007531
# 2 -0.003951 0.018372 0.002584 0.002011 -0.001527 -0.009261
# 3 -0.009838 0.002584 0.018564 -0.004518 -0.009726 -0.004754
# 4 0.012055 0.002011 -0.004518 0.038094 -0.004482 -0.010394
# 5 -0.000101 -0.001527 -0.009726 -0.004482 0.031190 0.012024
# 6 -0.007531 -0.009261 -0.004754 -0.010394 0.012024 0.054843
#
#
# Mechanical properties :
#
#
# Convention : Reuss Voigt Hill
#
# Bulk Modulus (GPa) = 27.88815 44.10461 35.99638
# Shear Modulus (GPa) = 23.06706 32.15406 27.61056
#
# Velocity S-wave (km/s) = 3.25147 3.83886 3.55731
# Velocity P-wave (km/s) = 5.18438 6.31372 5.77672
#
# Compressibility (1/GPa) = 0.03585752
#
# Stress axis : x y z
#
# Youngs Moduli (GPa) = 46.87783 54.43070 53.86671
#
# Poissons Ratio (x) = 0.21508 0.52996
# Poissons Ratio (y) = 0.18523 -0.13921
# Poissons Ratio (z) = 0.46120 -0.14067
#
# Static dielectric constant tensor:
#      x y z
#    x 4.092370 -0.010020 0.473930 
#    y -0.010020 3.670720 0.140880 
#    z 0.473930 0.140880 4.186970 
# 
# 
# High freq. dielectric constant tensor:
#      x y z
#    x 1.848610 -0.003610 0.026900 
#    y -0.003610 1.838360 0.006980 
#    z 0.026900 0.006980 1.865670 
# 
# From -- ./inp_files/504646.got.cif
#   From: 2010.06.25/outbox.cif.g09.slc.cpg/sg2_253_cif.got.tgz:504646.got - 2010.06.27 13:26:56.
