data_PCOD8043549
_publ_section_title
;
Structure prediction by ZEFSAII (Michael W. Deem and Ramdas Pophale) SiO2 
 PCOD8043549
Probable space group: P -1
;
_chemical_formula_sum "Si O2"
_cell_formula_units_Z 16
_cell_length_a 11.506231
_cell_length_b 10.720545
_cell_length_c 9.154510
_cell_angle_alpha 61.662696
_cell_angle_beta 78.950409
_cell_angle_gamma 52.759826
_cell_volume 783.867654
_symmetry_space_group_name_H-M "P -1"
_symmetry_group_IT_number 2
_symmetry_cell_setting 'triclinic'
loop_
_space_group_symop_operation_xyz
x,y,z
-x,-y,-z
loop_
_atom_site_type_symbol
_atom_site_label
_atom_site_fract_x
_atom_site_fract_y
_atom_site_fract_z
Si Si1 0.923569 0.696269 0.961647
Si Si2 0.678051 0.271574 0.824008
Si Si3 0.869086 0.888659 0.579297
Si Si4 0.643362 0.968180 0.050774
Si Si5 0.107861 0.856659 0.397044
Si Si6 0.567008 0.385457 0.191225
Si Si7 0.865513 0.207456 0.100276
Si Si8 0.398028 0.966465 0.633728
O O1 0.849360 0.809880 0.770818
O O2 0.000000 0.500000 0.000000
O O3 0.054981 0.698854 0.992648
O O4 0.791756 0.778698 0.067251
O O5 0.752458 0.281839 0.655693
O O6 0.525479 0.468227 0.743553
O O7 0.784901 0.219690 0.964820
O O8 0.650659 0.123474 0.903967
O O9 0.036055 0.768542 0.539559
O O10 0.839256 0.073394 0.528014
O O11 0.761427 0.912012 0.467943
O O12 0.624979 0.972003 0.227544
O O13 0.500000 0.000000 0.000000
O O14 0.987145 0.008158 0.230148
O O15 0.536710 0.238465 0.280118
O O16 0.500000 0.500000 0.000000
O O17 0.740076 0.301267 0.204925
O O18 0.500000 0.000000 0.500000
#
# Coordination Sequence:
#
# PCOD8043549 Si02
#       8
#     2   2   2   2   2   2   2   2
#     4  11  26  44  67  98 131 177 223 279 330 405
#     4  11  21  37  67  99 128 166 229 275 318 396
#     4  10  21  40  65  90 128 170 210 270 342 379
#     4  12  25  43  67  95 134 182 224 265 340 407
#     4  10  19  36  64  91 124 161 213 272 326 385
#     4  10  21  39  65 100 128 172 220 278 315 392
#     4  10  19  37  69  92 125 168 220 267 330 381
#     4  12  25  43  68  95 138 180 217 273 345 398
#
# _framework density 20.411608999999999
#
# number of rings (size 3 to 8) (size 9 to 14) (size 15 to 20)
#    0.000    1.250    6.250    1.125    3.500    2.000 
#    2.250    1.250    0.000    0.000    0.000    0.000 
#    0.000    0.000    0.000    0.000    0.000    0.000 
#
# Total GULP energy -198275.505566 kJ/mol
# GULP energy per Si atom -12392.219098 kJ/mol
# Density = 2.036515 g / cm^3
# Si number density = 20.411609 Si / 1000 Ang^3
#
#
#
# Elastic Constant Matrix: (Units=GPa)
#
#
# Indices 1 2 3 4 5 6 
#
# 1 141.4208 53.0794 35.2584 13.4017 -0.9894 -6.5527
# 2 53.0794 137.9830 31.8567 26.4823 -21.7644 -13.1608
# 3 35.2584 31.8567 83.1086 23.6892 -10.3982 -5.4496
# 4 13.4017 26.4823 23.6892 39.0677 -2.6592 -13.1117
# 5 -0.9894 -21.7644 -10.3982 -2.6592 36.2593 9.7331
# 6 -6.5527 -13.1608 -5.4496 -13.1117 9.7331 26.1261
#
#
#
# Elastic Compliance Matrix: (Units=1/GPa)
#
#
# Indices 1 2 3 4 5 6 
#
# 1 0.009054 -0.003334 -0.003266 0.001538 -0.003068 0.001825
# 2 -0.003334 0.010557 -0.000334 -0.005610 0.005900 -0.000601
# 3 -0.003266 -0.000334 0.016699 -0.009887 0.004929 -0.004302
# 4 0.001538 -0.005610 -0.009887 0.040679 -0.008276 0.018996
# 5 -0.003068 0.005900 0.004929 -0.008276 0.035657 -0.014207
# 6 0.001825 -0.000601 -0.004302 0.018996 -0.014207 0.052359
#
#
# Mechanical properties :
#
#
# Convention : Reuss Voigt Hill
#
# Bulk Modulus (GPa) = 44.56013 66.98904 55.77459
# Shear Modulus (GPa) = 26.83080 36.44514 31.63797
#
# Velocity S-wave (km/s) = 3.62952 4.23011 3.94127
# Velocity P-wave (km/s) = 6.28034 7.53318 6.93511
#
# Compressibility (1/GPa) = 0.02244159
#
# Stress axis : x y z
#
# Youngs Moduli (GPa) = 110.44910 94.72510 59.88436
#
# Poissons Ratio (x) = 0.31580 0.19556
# Poissons Ratio (y) = 0.36822 0.02003
# Poissons Ratio (z) = 0.36069 0.03168
#
# Static dielectric constant tensor:
#      x y z
#    x 4.234780 -0.485900 -0.266780 
#    y -0.485900 4.565160 0.031980 
#    z -0.266780 0.031980 3.930680 
# 
# 
# High freq. dielectric constant tensor:
#      x y z
#    x 1.807030 -0.014590 -0.002880 
#    y -0.014590 1.784720 0.020840 
#    z -0.002880 0.020840 1.798600 
# 
# From -- ./inp_files/262021.got.cif
#   From: 2010.06.25/outbox.cif.g09.slc.cpg/sg2_132_cif.got.tgz:262021.got - 2010.06.27 13:26:56.
