data_PCOD8043921
_publ_section_title
;
Structure prediction by ZEFSAII (Michael W. Deem and Ramdas Pophale) SiO2 
 PCOD8043921
Probable space group: P -1
;
_chemical_formula_sum "Si O2"
_cell_formula_units_Z 16
_cell_length_a 16.519792
_cell_length_b 6.405043
_cell_length_c 8.648790
_cell_angle_alpha 126.250020
_cell_angle_beta 94.276613
_cell_angle_gamma 75.337576
_cell_volume 710.650620
_symmetry_space_group_name_H-M "P -1"
_symmetry_group_IT_number 2
_symmetry_cell_setting 'triclinic'
loop_
_space_group_symop_operation_xyz
x,y,z
-x,-y,-z
loop_
_atom_site_type_symbol
_atom_site_label
_atom_site_fract_x
_atom_site_fract_y
_atom_site_fract_z
Si Si1 0.858888 0.731319 0.227887
Si Si2 0.488830 0.804554 0.275433
Si Si3 0.190052 0.057277 0.000368
Si Si4 0.558002 0.719791 0.936072
Si Si5 0.229495 0.478872 0.626758
Si Si6 0.988442 0.655521 0.800079
Si Si7 0.332612 0.179069 0.260198
Si Si8 0.073197 0.759589 0.559439
O O1 0.807476 0.764608 0.074354
O O2 0.788305 0.741347 0.353399
O O3 0.929835 0.442706 0.118892
O O4 0.904071 0.969340 0.368474
O O5 0.481999 0.524006 0.223332
O O6 0.500000 0.000000 0.500000
O O7 0.405345 0.922067 0.211409
O O8 0.567128 0.739131 0.134111
O O9 0.230898 0.746964 0.835032
O O10 0.089409 0.118087 0.042728
O O11 0.244914 0.113272 0.175298
O O12 0.642635 0.677693 0.827326
O O13 0.500000 0.000000 0.000000
O O14 0.315681 0.367641 0.493553
O O15 0.156946 0.534924 0.513965
O O16 0.964677 0.373728 0.644822
O O17 0.009999 0.799850 0.713143
#
# Coordination Sequence:
#
# PCOD8043921 Si02
#       8
#     2   2   2   2   2   2   2   2
#     4  10  22  37  58  89 116 165 222 267 310 373
#     4  10  23  43  72 104 129 162 208 253 302 378
#     4  11  24  40  60  88 127 165 209 263 318 370
#     4   9  22  44  71 103 131 162 207 247 309 375
#     4  10  23  41  57  89 127 166 212 257 315 370
#     4  10  19  37  61  86 117 162 216 272 317 367
#     4  11  24  42  64  92 133 172 197 255 315 370
#     4   9  19  37  61  85 118 161 218 267 321 369
#
# _framework density 22.514581
#
# number of rings (size 3 to 8) (size 9 to 14) (size 15 to 20)
#    0.000    2.000    1.250    0.750    0.000   15.500 
#    2.250    0.000    0.000    0.000    0.000    0.000 
#    0.000    0.000    0.000    0.000    0.000    0.000 
#
# Total GULP energy -198211.708189 kJ/mol
# GULP energy per Si atom -12388.231762 kJ/mol
# Density = 2.246334 g / cm^3
# Si number density = 22.514581 Si / 1000 Ang^3
#
#
#
# Elastic Constant Matrix: (Units=GPa)
#
#
# Indices 1 2 3 4 5 6 
#
# 1 63.3881 20.6967 39.3756 0.3977 -20.0386 11.1535
# 2 20.6967 96.7804 47.8902 6.6143 -6.8892 14.4647
# 3 39.3756 47.8902 132.8878 9.0009 -12.6641 19.8368
# 4 0.3977 6.6143 9.0009 22.9248 2.9027 -1.7236
# 5 -20.0386 -6.8892 -12.6641 2.9027 44.7497 -15.3607
# 6 11.1535 14.4647 19.8368 -1.7236 -15.3607 32.9413
#
#
#
# Elastic Compliance Matrix: (Units=1/GPa)
#
#
# Indices 1 2 3 4 5 6 
#
# 1 0.022140 -0.001649 -0.005310 0.001163 0.008186 0.000304
# 2 -0.001649 0.013117 -0.003619 -0.002500 -0.000790 -0.003521
# 3 -0.005310 -0.003619 0.011132 -0.003414 -0.000908 -0.003919
# 4 0.001163 -0.002500 -0.003414 0.046276 -0.002445 0.004041
# 5 0.008186 -0.000790 -0.000908 -0.002445 0.029888 0.011931
# 6 0.000304 -0.003521 -0.003919 0.004041 0.011931 0.039935
#
#
# Mechanical properties :
#
#
# Convention : Reuss Voigt Hill
#
# Bulk Modulus (GPa) = 39.62979 56.55349 48.09164
# Shear Modulus (GPa) = 26.03426 32.46274 29.24850
#
# Velocity S-wave (km/s) = 3.40417 3.80129 3.60820
# Velocity P-wave (km/s) = 5.75250 6.66630 6.22619
#
# Compressibility (1/GPa) = 0.02523355
#
# Stress axis : x y z
#
# Youngs Moduli (GPa) = 45.16747 76.23721 89.82864
#
# Poissons Ratio (x) = 0.12574 0.47697
# Poissons Ratio (y) = 0.07450 0.32506
# Poissons Ratio (z) = 0.23983 0.27588
#
# Static dielectric constant tensor:
#      x y z
#    x 4.093240 0.224910 -0.316040 
#    y 0.224910 4.170880 -0.168520 
#    z -0.316040 -0.168520 4.015510 
# 
# 
# High freq. dielectric constant tensor:
#      x y z
#    x 1.869330 0.006900 -0.014260 
#    y 0.006900 1.890850 -0.002000 
#    z -0.014260 -0.002000 1.886600 
# 
# From -- ./inp_files/324244.got.cif
#   From: 2010.06.25/outbox.cif.g09.slc.cpg/sg2_163_cif.got.tgz:324244.got - 2010.06.27 13:26:56.
