data_PCOD8043229
_publ_section_title
;
Structure prediction by ZEFSAII (Michael W. Deem and Ramdas Pophale) SiO2 
 PCOD8043229
Probable space group: P -1
;
_chemical_formula_sum "Si O2"
_cell_formula_units_Z 14
_cell_length_a 8.455935
_cell_length_b 20.271068
_cell_length_c 16.705088
_cell_angle_alpha 19.219825
_cell_angle_beta 57.616480
_cell_angle_gamma 67.574316
_cell_volume 712.100194
_symmetry_space_group_name_H-M "P -1"
_symmetry_group_IT_number 2
_symmetry_cell_setting 'triclinic'
loop_
_space_group_symop_operation_xyz
x,y,z
-x,-y,-z
loop_
_atom_site_type_symbol
_atom_site_label
_atom_site_fract_x
_atom_site_fract_y
_atom_site_fract_z
Si Si1 0.165734 0.082573 0.289183
Si Si2 0.641921 0.268863 0.982162
Si Si3 0.730110 0.715893 0.357829
Si Si4 0.055316 0.639770 0.744856
Si Si5 0.853398 0.987962 0.169404
Si Si6 0.881540 0.566608 0.712986
Si Si7 0.730466 0.452350 0.336500
O O1 0.101175 0.890760 0.461030
O O2 0.392231 0.148779 0.189826
O O3 0.164389 0.280936 0.009295
O O4 0.000000 0.000000 0.500000
O O5 0.734378 0.492698 0.646645
O O6 0.717126 0.346138 0.964305
O O7 0.719355 0.093141 0.129523
O O8 0.507116 0.652043 0.448310
O O9 0.762861 0.898577 0.208295
O O10 0.908047 0.819733 0.123463
O O11 0.265152 0.643692 0.644369
O O12 0.866421 0.529093 0.856889
O O13 0.000000 0.500000 0.000000
O O14 0.847503 0.783112 0.456917
O O15 0.119648 0.607279 0.576745
#
# Coordination Sequence:
#
# PCOD8043229 Si02
#       7
#     2   2   2   2   2   2   2
#     4  11  20  37  63  80 106 154 197 231 283 344
#     4  10  21  37  58  86 118 150 189 239 282 335
#     4   9  19  36  59  87 113 159 189 232 275 351
#     4  10  20  38  59  81 111 153 188 233 286 338
#     4  10  19  36  60  84 121 150 192 228 293 333
#     4   9  22  36  57  87 119 147 188 246 278 332
#     4   9  20  36  57  83 118 143 197 233 277 338
#
# _framework density 19.660155
#
# number of rings (size 3 to 8) (size 9 to 14) (size 15 to 20)
#    0.857    1.429    1.429    1.286    2.000    0.571 
#    0.000    4.286    0.000    0.000    0.000    0.000 
#    0.000    0.000    0.000    0.000    0.000    0.000 
#
# Total GULP energy -173473.370866 kJ/mol
# GULP energy per Si atom -12390.955062 kJ/mol
# Density = 1.961541 g / cm^3
# Si number density = 19.660155 Si / 1000 Ang^3
#
#
#
# Elastic Constant Matrix: (Units=GPa)
#
#
# Indices 1 2 3 4 5 6 
#
# 1 92.3825 43.9550 18.0580 -10.0262 -9.9295 -7.2053
# 2 43.9550 95.2642 50.8217 -22.3259 -0.6639 -10.7099
# 3 18.0580 50.8217 66.0553 -10.8036 -5.9795 -16.3569
# 4 -10.0262 -22.3259 -10.8036 38.6674 -6.1302 1.4081
# 5 -9.9295 -0.6639 -5.9795 -6.1302 25.2436 -0.7992
# 6 -7.2053 -10.7099 -16.3569 1.4081 -0.7992 36.8704
#
#
#
# Elastic Compliance Matrix: (Units=1/GPa)
#
#
# Indices 1 2 3 4 5 6 
#
# 1 0.015140 -0.008384 0.003688 0.001136 0.006956 0.002267
# 2 -0.008384 0.024365 -0.016366 0.006609 -0.004998 -0.002182
# 3 0.003688 -0.016366 0.029987 0.000912 0.008643 0.009423
# 4 0.001136 0.006609 0.000912 0.031525 0.008541 0.001528
# 5 0.006956 -0.004998 0.008643 0.008541 0.046480 0.004423
# 6 0.002267 -0.002182 0.009423 0.001528 0.004423 0.031149
#
#
# Mechanical properties :
#
#
# Convention : Reuss Voigt Hill
#
# Bulk Modulus (GPa) = 36.53726 53.26349 44.90038
# Shear Modulus (GPa) = 21.74929 29.54743 25.64836
#
# Velocity S-wave (km/s) = 3.32966 3.88094 3.61582
# Velocity P-wave (km/s) = 5.77987 6.87264 6.34981
#
# Compressibility (1/GPa) = 0.02736932
#
# Stress axis : x y z
#
# Youngs Moduli (GPa) = 66.04869 41.04266 33.34767
#
# Poissons Ratio (x) = 0.34409 -0.12299
# Poissons Ratio (y) = 0.55374 0.54576
# Poissons Ratio (z) = -0.24360 0.67170
#
# Static dielectric constant tensor:
#      x y z
#    x 3.514240 -0.142250 -0.086420 
#    y -0.142250 3.556110 -0.326600 
#    z -0.086420 -0.326600 3.418890 
# 
# 
# High freq. dielectric constant tensor:
#      x y z
#    x 1.761990 -0.012970 -0.003090 
#    y -0.012970 1.761720 -0.023900 
#    z -0.003090 -0.023900 1.758770 
# 
# From -- ./inp_files/332129.got.cif
#   From: 2010.06.25/outbox.cif.g09.slc.cpg/sg2_167_cif.got.tgz:332129.got - 2010.06.27 13:26:56.
