data_PCOD8043141
_publ_section_title
;
Structure prediction by ZEFSAII (Michael W. Deem and Ramdas Pophale) SiO2 
 PCOD8043141
Probable space group: P -1
;
_chemical_formula_sum "Si O2"
_cell_formula_units_Z 14
_cell_length_a 12.591272
_cell_length_b 25.248138
_cell_length_c 8.105170
_cell_angle_alpha 41.007412
_cell_angle_beta 34.265692
_cell_angle_gamma 27.692474
_cell_volume 671.625951
_symmetry_space_group_name_H-M "P -1"
_symmetry_group_IT_number 2
_symmetry_cell_setting 'triclinic'
loop_
_space_group_symop_operation_xyz
x,y,z
-x,-y,-z
loop_
_atom_site_type_symbol
_atom_site_label
_atom_site_fract_x
_atom_site_fract_y
_atom_site_fract_z
Si Si1 0.929967 0.337302 0.847659
Si Si2 0.466349 0.925897 0.806822
Si Si3 0.515734 0.526748 0.152872
Si Si4 0.437498 0.641194 0.314585
Si Si5 0.083061 0.978863 0.756272
Si Si6 0.892862 0.840268 0.710770
Si Si7 0.404006 0.238083 0.252815
O O1 0.678399 0.385363 0.949152
O O2 0.131218 0.322285 0.505992
O O3 0.818454 0.430214 0.917472
O O4 0.062429 0.217146 0.037193
O O5 0.597394 0.825269 0.744543
O O6 0.621863 0.885714 0.874573
O O7 0.500000 0.000000 0.500000
O O8 0.160692 0.992738 0.092768
O O9 0.492782 0.598075 0.158453
O O10 0.439602 0.460527 0.476044
O O11 0.123516 0.750219 0.494195
O O12 0.580754 0.683052 0.051662
O O13 0.365258 0.845695 0.706099
O O14 0.122339 0.059914 0.461563
O O15 0.000000 0.000000 0.000000
#
# Coordination Sequence:
#
# PCOD8043141 Si02
#       7
#     2   2   2   2   2   2   2
#     4  10  23  39  58  89 124 160 190 256 315 352
#     4  11  19  36  64  87 120 163 201 244 283 352
#     4   9  21  42  61  85 118 162 203 254 304 345
#     4  10  19  38  68  87 113 163 210 245 291 360
#     4  10  19  36  58  91 120 153 204 246 277 364
#     4  11  20  39  62  89 127 159 197 242 305 358
#     4  11  21  37  61  93 121 154 204 248 297 360
#
# _framework density 20.844935
#
# number of rings (size 3 to 8) (size 9 to 14) (size 15 to 20)
#    0.000    1.714    5.714    0.857    0.000    1.714 
#    2.571    0.714    0.000    0.000    0.000    0.000 
#    0.000    0.000    0.000    0.000    0.000    0.000 
#
# Total GULP energy -173512.784919 kJ/mol
# GULP energy per Si atom -12393.770351 kJ/mol
# Density = 2.079749 g / cm^3
# Si number density = 20.844935 Si / 1000 Ang^3
#
#
#
# Elastic Constant Matrix: (Units=GPa)
#
#
# Indices 1 2 3 4 5 6 
#
# 1 76.7745 22.5062 33.5604 -17.1467 -9.5695 -12.5167
# 2 22.5062 62.2254 25.1607 -13.4030 -9.3483 -4.4333
# 3 33.5604 25.1607 79.4375 -6.7751 -24.1067 -1.8120
# 4 -17.1467 -13.4030 -6.7751 40.8603 2.7017 4.1843
# 5 -9.5695 -9.3483 -24.1067 2.7017 29.7622 0.6541
# 6 -12.5167 -4.4333 -1.8120 4.1843 0.6541 39.6089
#
#
#
# Elastic Compliance Matrix: (Units=1/GPa)
#
#
# Indices 1 2 3 4 5 6 
#
# 1 0.018604 -0.002644 -0.006724 0.005400 -0.000889 0.004720
# 2 -0.002644 0.020055 -0.004383 0.004573 0.001468 0.000701
# 3 -0.006724 -0.004383 0.020720 -0.001534 0.013421 -0.001727
# 4 0.005400 0.004573 -0.001534 0.028108 -0.000604 -0.000811
# 5 -0.000889 0.001468 0.013421 -0.000604 0.044705 -0.000177
# 6 0.004720 0.000701 -0.001727 -0.000811 -0.000177 0.026826
#
#
# Mechanical properties :
#
#
# Convention : Reuss Voigt Hill
#
# Bulk Modulus (GPa) = 31.37114 42.32133 36.84624
# Shear Modulus (GPa) = 25.36174 31.19364 28.27769
#
# Velocity S-wave (km/s) = 3.49189 3.87261 3.68717
# Velocity P-wave (km/s) = 5.59823 6.35163 5.98679
#
# Compressibility (1/GPa) = 0.03187643
#
# Stress axis : x y z
#
# Youngs Moduli (GPa) = 53.75113 49.86299 48.26206
#
# Poissons Ratio (x) = 0.13185 0.32450
# Poissons Ratio (y) = 0.14213 0.21155
# Poissons Ratio (z) = 0.36141 0.21857
#
# Static dielectric constant tensor:
#      x y z
#    x 2.740220 -0.153480 0.697120 
#    y -0.153480 4.813180 -0.117910 
#    z 0.697120 -0.117910 3.348350 
# 
# 
# High freq. dielectric constant tensor:
#      x y z
#    x 1.794430 -0.006840 0.007060 
#    y -0.006840 1.825860 -0.002090 
#    z 0.007060 -0.002090 1.812790 
# 
# From -- ./inp_files/179551.got.cif
#   From: 2010.06.25/outbox.cif.g09.slc.cpg/sg2_90_cif.got.tgz:179551.got - 2010.06.27 13:26:56.
