data_PCOD8043579
_publ_section_title
;
Structure prediction by ZEFSAII (Michael W. Deem and Ramdas Pophale) SiO2 
 PCOD8043579
Probable space group: P -1
;
_chemical_formula_sum "Si O2"
_cell_formula_units_Z 14
_cell_length_a 6.948656
_cell_length_b 12.287066
_cell_length_c 8.921925
_cell_angle_alpha 66.489586
_cell_angle_beta 60.942294
_cell_angle_gamma 54.966220
_cell_volume 537.486456
_symmetry_space_group_name_H-M "P -1"
_symmetry_group_IT_number 2
_symmetry_cell_setting 'triclinic'
loop_
_space_group_symop_operation_xyz
x,y,z
-x,-y,-z
loop_
_atom_site_type_symbol
_atom_site_label
_atom_site_fract_x
_atom_site_fract_y
_atom_site_fract_z
Si Si1 0.414216 0.849012 0.277844
Si Si2 0.654772 0.921759 0.628178
Si Si3 0.574015 0.600824 0.556657
Si Si4 0.972171 0.659854 0.500428
Si Si5 0.981711 0.726182 0.122093
Si Si6 0.386868 0.798082 0.993181
Si Si7 0.675383 0.497259 0.067228
O O1 0.426812 0.719379 0.428362
O O2 0.282984 0.868372 0.155935
O O3 0.692606 0.832464 0.157862
O O4 0.262899 0.983828 0.359740
O O5 0.910706 0.791518 0.550338
O O6 0.500000 0.000000 0.500000
O O7 0.480731 0.883351 0.814954
O O8 0.785913 0.471742 0.454080
O O9 0.378075 0.563403 0.728843
O O10 0.719150 0.644384 0.602162
O O11 0.049446 0.667935 0.296242
O O12 0.158475 0.795808 0.989112
O O13 0.045223 0.605568 0.042302
O O14 0.621937 0.650624 0.023145
O O15 0.500000 0.500000 0.000000
#
# Coordination Sequence:
#
# PCOD8043579 Si02
#       7
#     2   2   2   2   2   2   2
#     4  11  26  44  66 100 135 175 221 267 332 395
#     4  12  24  43  69  94 133 184 218 268 334 394
#     4  10  19  36  67  94 134 166 217 269 329 388
#     4  10  19  37  66  98 127 176 218 265 326 394
#     4  10  21  40  68  98 131 172 218 266 336 385
#     4  11  25  43  67  97 139 168 221 282 320 389
#     4  10  19  36  65 100 130 167 215 272 330 379
#
# _framework density 26.047167000000002
#
# number of rings (size 3 to 8) (size 9 to 14) (size 15 to 20)
#    0.000    1.429    5.714    2.143    4.000    1.714 
#    0.000    0.714    0.000    0.000    0.000    0.000 
#    0.000    0.000    0.000    0.000    0.000    0.000 
#
# Total GULP energy -173593.827032 kJ/mol
# GULP energy per Si atom -12399.559074 kJ/mol
# Density = 2.598788 g / cm^3
# Si number density = 26.047167 Si / 1000 Ang^3
#
#
#
# Elastic Constant Matrix: (Units=GPa)
#
#
# Indices 1 2 3 4 5 6 
#
# 1 22.8515 5.9304 7.2400 0.6317 0.6288 -6.5041
# 2 5.9304 176.1992 43.9542 20.1005 7.5892 10.0774
# 3 7.2400 43.9542 107.7769 -16.9001 1.4635 2.6413
# 4 0.6317 20.1005 -16.9001 52.3532 8.0708 0.5249
# 5 0.6288 7.5892 1.4635 8.0708 24.3431 8.8237
# 6 -6.5041 10.0774 2.6413 0.5249 8.8237 23.9041
#
#
#
# Elastic Compliance Matrix: (Units=1/GPa)
#
#
# Indices 1 2 3 4 5 6 
#
# 1 0.050235 -0.001605 -0.003065 -0.000101 -0.006814 0.017201
# 2 -0.001605 0.007165 -0.003346 -0.003846 0.000430 -0.003162
# 3 -0.003065 -0.003346 0.011704 0.005287 -0.001192 -0.000393
# 4 -0.000101 -0.003846 0.005287 0.023512 -0.008186 0.003515
# 5 -0.006814 0.000430 -0.001192 -0.008186 0.051411 -0.020701
# 6 0.017201 -0.003162 -0.000393 0.003515 -0.020701 0.055455
#
#
# Mechanical properties :
#
#
# Convention : Reuss Voigt Hill
#
# Bulk Modulus (GPa) = 18.84226 46.78632 32.81429
# Shear Modulus (GPa) = 21.44054 36.76695 29.10374
#
# Velocity S-wave (km/s) = 2.87216 3.76114 3.34630
# Velocity P-wave (km/s) = 4.27185 6.07147 5.24935
#
# Compressibility (1/GPa) = 0.05307219
#
# Stress axis : x y z
#
# Youngs Moduli (GPa) = 19.90660 139.56467 85.44302
#
# Poissons Ratio (x) = 0.22399 0.26187
# Poissons Ratio (y) = 0.03195 0.28587
# Poissons Ratio (z) = 0.06101 0.46695
#
# Static dielectric constant tensor:
#      x y z
#    x 4.276410 0.105800 -0.219040 
#    y 0.105800 5.648780 0.464240 
#    z -0.219040 0.464240 4.925710 
# 
# 
# High freq. dielectric constant tensor:
#      x y z
#    x 2.014950 0.012800 -0.003960 
#    y 0.012800 2.050200 0.007680 
#    z -0.003960 0.007680 2.043690 
# 
# From -- ./inp_files/175886.got.cif
#   From: 2010.06.25/outbox.cif.g09.slc.cpg/sg2_88_cif.got.tgz:175886.got - 2010.06.27 13:26:56.
