data_PCOD8043217
_publ_section_title
;
Structure prediction by ZEFSAII (Michael W. Deem and Ramdas Pophale) SiO2 
 PCOD8043217
Probable space group: P -1
;
_chemical_formula_sum "Si O2"
_cell_formula_units_Z 16
_cell_length_a 19.310972
_cell_length_b 10.013193
_cell_length_c 12.158924
_cell_angle_alpha 40.392951
_cell_angle_beta 31.223336
_cell_angle_gamma 53.510525
_cell_volume 778.483208
_symmetry_space_group_name_H-M "P -1"
_symmetry_group_IT_number 2
_symmetry_cell_setting 'triclinic'
loop_
_space_group_symop_operation_xyz
x,y,z
-x,-y,-z
loop_
_atom_site_type_symbol
_atom_site_label
_atom_site_fract_x
_atom_site_fract_y
_atom_site_fract_z
Si Si1 0.799191 0.406192 0.182523
Si Si2 0.419760 0.622204 0.909041
Si Si3 0.318098 0.241220 0.417622
Si Si4 0.908880 0.846687 0.860146
Si Si5 0.805694 0.215658 0.522716
Si Si6 0.083569 0.342691 0.802229
Si Si7 0.601806 0.204092 0.409958
Si Si8 0.329550 0.944118 0.994471
O O1 0.763781 0.253457 0.431263
O O2 0.670908 0.378422 0.292480
O O3 0.831987 0.643345 0.028831
O O4 0.927392 0.344385 0.980959
O O5 0.583124 0.668146 0.671536
O O6 0.376113 0.700969 0.801655
O O7 0.360417 0.745533 0.010588
O O8 0.363708 0.375571 0.160141
O O9 0.164160 0.264253 0.639890
O O10 0.327777 0.999162 0.539399
O O11 0.065332 0.908277 0.569810
O O12 0.911696 0.815292 0.005771
O O13 0.823402 0.030929 0.844026
O O14 0.849262 0.430425 0.392377
O O15 0.675910 0.093659 0.842054
O O16 0.441438 0.146775 0.688105
#
# Coordination Sequence:
#
# PCOD8043217 Si02
#       8
#     2   2   2   2   2   2   2   2
#     4   9  21  37  51  79 116 143 173 220 269 335
#     4  10  21  36  57  85 108 137 187 233 261 317
#     4  10  19  36  60  81 104 145 185 227 269 307
#     4   9  18  33  58  81 102 142 181 228 269 308
#     4   9  18  34  57  81 103 136 188 225 262 319
#     4   9  16  35  60  76 103 142 185 224 268 311
#     4  11  23  37  52  83 119 143 177 216 277 335
#     4  11  19  34  57  82 104 138 184 232 268 311
#
# _framework density 20.552788
#
# number of rings (size 3 to 8) (size 9 to 14) (size 15 to 20)
#    0.000    2.250    1.250    4.875    0.000    1.500 
#    2.250    0.625    0.000    0.000    0.000    0.000 
#    0.000    0.000    0.000    0.000    0.000    0.000 
#
# Total GULP energy -198317.111281 kJ/mol
# GULP energy per Si atom -12394.819455 kJ/mol
# Density = 2.050601 g / cm^3
# Si number density = 20.552788 Si / 1000 Ang^3
#
#
#
# Elastic Constant Matrix: (Units=GPa)
#
#
# Indices 1 2 3 4 5 6 
#
# 1 79.2894 9.2963 34.9020 -3.9021 5.6802 -4.5825
# 2 9.2963 51.4921 17.0456 6.4011 8.5103 -16.6619
# 3 34.9020 17.0456 90.1686 11.1319 23.0794 -2.1791
# 4 -3.9021 6.4011 11.1319 31.5730 -0.2971 -0.1720
# 5 5.6802 8.5103 23.0794 -0.2971 19.0586 -2.6194
# 6 -4.5825 -16.6619 -2.1791 -0.1720 -2.6194 19.5621
#
#
#
# Elastic Compliance Matrix: (Units=1/GPa)
#
#
# Indices 1 2 3 4 5 6 
#
# 1 0.016356 -0.000881 -0.008278 0.005192 0.006039 0.003013
# 2 -0.000881 0.029952 -0.002248 -0.005325 -0.007168 0.024048
# 3 -0.008278 -0.002248 0.021681 -0.008459 -0.023557 -0.004668
# 4 0.005192 -0.005325 -0.008459 0.036469 0.011309 -0.002427
# 5 0.006039 -0.007168 -0.023557 0.011309 0.083112 0.003914
# 6 0.003013 0.024048 -0.004668 -0.002427 0.003914 0.072290
#
#
# Mechanical properties :
#
#
# Convention : Reuss Voigt Hill
#
# Bulk Modulus (GPa) = 22.13646 38.15975 30.14811
# Shear Modulus (GPa) = 16.79354 24.68582 20.73968
#
# Velocity S-wave (km/s) = 2.86158 3.46944 3.18007
# Velocity P-wave (km/s) = 4.65963 5.88696 5.30888
#
# Compressibility (1/GPa) = 0.04517434
#
# Stress axis : x y z
#
# Youngs Moduli (GPa) = 61.13801 33.38707 46.12377
#
# Poissons Ratio (x) = 0.02941 0.38183
# Poissons Ratio (y) = 0.05386 0.10368
# Poissons Ratio (z) = 0.50613 0.07505
#
# Static dielectric constant tensor:
#      x y z
#    x 3.403790 -0.204800 0.232350 
#    y -0.204800 3.633080 0.235320 
#    z 0.232350 0.235320 4.130700 
# 
# 
# High freq. dielectric constant tensor:
#      x y z
#    x 1.767730 -0.021030 0.016610 
#    y -0.021030 1.798720 0.012140 
#    z 0.016610 0.012140 1.809830 
# 
# From -- ./inp_files/259979.got.cif
#   From: 2010.06.25/outbox.cif.g09.slc.cpg/sg2_130_cif.got.tgz:259979.got - 2010.06.27 13:26:56.
