data_PCOD8043981
_publ_section_title
;
Structure prediction by ZEFSAII (Michael W. Deem and Ramdas Pophale) SiO2 
 PCOD8043981
Probable space group: P -1
;
_chemical_formula_sum "Si O2"
_cell_formula_units_Z 16
_cell_length_a 16.808073
_cell_length_b 11.852141
_cell_length_c 8.896112
_cell_angle_alpha 59.649138
_cell_angle_beta 67.562506
_cell_angle_gamma 30.490971
_cell_volume 770.115671
_symmetry_space_group_name_H-M "P -1"
_symmetry_group_IT_number 2
_symmetry_cell_setting 'triclinic'
loop_
_space_group_symop_operation_xyz
x,y,z
-x,-y,-z
loop_
_atom_site_type_symbol
_atom_site_label
_atom_site_fract_x
_atom_site_fract_y
_atom_site_fract_z
Si Si1 0.061725 0.255509 0.462662
Si Si2 0.714432 0.879944 0.786927
Si Si3 0.647158 0.665068 0.238174
Si Si4 0.198753 0.505808 0.076074
Si Si5 0.206614 0.261792 0.849025
Si Si6 0.112935 0.785325 0.447806
Si Si7 0.146275 0.099526 0.838204
Si Si8 0.826323 0.213785 0.919920
O O1 0.229593 0.065750 0.386166
O O2 0.091577 0.236931 0.629979
O O3 0.948296 0.503644 0.294162
O O4 0.992358 0.201136 0.537021
O O5 0.725513 0.732475 0.777594
O O6 0.534913 0.133236 0.797199
O O7 0.824488 0.724196 0.960767
O O8 0.662855 0.789466 0.218869
O O9 0.720483 0.465803 0.430787
O O10 0.748745 0.523812 0.109161
O O11 0.260552 0.543505 0.118534
O O12 0.009367 0.732486 0.063038
O O13 0.260840 0.056258 0.871483
O O14 0.166115 0.802220 0.255270
O O15 0.000000 0.000000 0.500000
O O16 0.242522 0.838037 0.932867
O O17 0.000000 0.000000 0.000000
#
# Coordination Sequence:
#
# PCOD8043981 Si02
#       8
#     2   2   2   2   2   2   2   2
#     4  11  22  36  62  96 120 152 209 255 306 348
#     4  11  23  40  61  89 127 163 198 254 310 355
#     4  10  24  40  63  90 121 164 204 247 308 361
#     4  10  19  37  62  84 127 160 199 247 303 356
#     4  10  21  37  62  91 118 159 207 251 294 354
#     4  11  22  39  67  94 117 157 209 255 294 366
#     4  11  21  35  62  95 121 154 207 261 297 353
#     4  10  20  36  59  93 121 156 197 254 309 347
#
# _framework density 20.776098999999999
#
# number of rings (size 3 to 8) (size 9 to 14) (size 15 to 20)
#    0.000    1.500    3.750    3.750    5.250    0.000 
#    0.000    4.375    0.000    3.750    0.000    0.000 
#    0.000    0.000    0.000    0.000    0.000    0.000 
#
# Total GULP energy -198224.215680 kJ/mol
# GULP energy per Si atom -12389.013480 kJ/mol
# Density = 2.072881 g / cm^3
# Si number density = 20.776099 Si / 1000 Ang^3
#
#
#
# Elastic Constant Matrix: (Units=GPa)
#
#
# Indices 1 2 3 4 5 6 
#
# 1 76.1159 28.2920 40.3216 2.7353 6.9405 16.5304
# 2 28.2920 55.4683 39.0733 2.7262 9.9110 2.1167
# 3 40.3216 39.0733 133.3475 10.1251 0.1198 -1.1842
# 4 2.7353 2.7262 10.1251 20.1446 6.4193 -5.6684
# 5 6.9405 9.9110 0.1198 6.4193 21.7785 5.7906
# 6 16.5304 2.1167 -1.1842 -5.6684 5.7906 35.8616
#
#
#
# Elastic Compliance Matrix: (Units=1/GPa)
#
#
# Indices 1 2 3 4 5 6 
#
# 1 0.019863 -0.006936 -0.003872 -0.002427 0.000025 -0.009262
# 2 -0.006936 0.028126 -0.006546 0.005978 -0.013497 0.004445
# 3 -0.003872 -0.006546 0.011024 -0.005728 0.005650 0.000718
# 4 -0.002427 0.005978 -0.005728 0.064044 -0.024698 0.014688
# 5 0.000025 -0.013497 0.005650 -0.024698 0.062775 -0.013069
# 6 -0.009262 0.004445 0.000718 0.014688 -0.013069 0.036348
#
#
# Mechanical properties :
#
#
# Convention : Reuss Voigt Hill
#
# Bulk Modulus (GPa) = 41.14350 53.36730 47.25540
# Shear Modulus (GPa) = 18.86869 26.03992 22.45430
#
# Velocity S-wave (km/s) = 3.01689 3.54412 3.29108
# Velocity P-wave (km/s) = 5.65524 6.51846 6.10214
#
# Compressibility (1/GPa) = 0.02430518
#
# Stress axis : x y z
#
# Youngs Moduli (GPa) = 50.34388 35.55488 90.70745
#
# Poissons Ratio (x) = 0.24660 0.35122
# Poissons Ratio (y) = 0.34917 0.59380
# Poissons Ratio (z) = 0.19493 0.23276
#
# Static dielectric constant tensor:
#      x y z
#    x 2.529460 0.019910 -1.740370 
#    y 0.019910 3.473850 -0.523480 
#    z -1.740370 -0.523480 3.149990 
# 
# 
# High freq. dielectric constant tensor:
#      x y z
#    x 1.810740 0.024430 -0.007800 
#    y 0.024430 1.774980 0.005710 
#    z -0.007800 0.005710 1.820690 
# 
# From -- ./inp_files/244150.got.cif
#   From: 2010.06.25/outbox.cif.g09.slc.cpg/sg2_123_cif.got.tgz:244150.got - 2010.06.27 13:26:56.
