data_PCOD8043079
_publ_section_title
;
Structure prediction by ZEFSAII (Michael W. Deem and Ramdas Pophale) SiO2 
 PCOD8043079
Probable space group: P -1
;
_chemical_formula_sum "Si O2"
_cell_formula_units_Z 16
_cell_length_a 9.080883
_cell_length_b 14.415071
_cell_length_c 11.167658
_cell_angle_alpha 136.748795
_cell_angle_beta 99.059882
_cell_angle_gamma 58.163924
_cell_volume 783.772115
_symmetry_space_group_name_H-M "P -1"
_symmetry_group_IT_number 2
_symmetry_cell_setting 'triclinic'
loop_
_space_group_symop_operation_xyz
x,y,z
-x,-y,-z
loop_
_atom_site_type_symbol
_atom_site_label
_atom_site_fract_x
_atom_site_fract_y
_atom_site_fract_z
Si Si1 0.632926 0.507675 0.437634
Si Si2 0.733447 0.732455 0.238505
Si Si3 0.141915 0.535273 0.191212
Si Si4 0.664078 0.728197 0.820571
Si Si5 0.289744 0.736752 0.473688
Si Si6 0.669524 0.932283 0.820444
Si Si7 0.567026 0.076882 0.420937
Si Si8 0.946786 0.156179 0.219186
O O1 0.500000 0.500000 0.500000
O O2 0.661422 0.638485 0.618920
O O3 0.515662 0.584762 0.372440
O O4 0.832125 0.322158 0.273631
O O5 0.557738 0.809764 0.375627
O O6 0.917591 0.659513 0.271748
O O7 0.695302 0.876469 0.277980
O O8 0.761196 0.581131 0.022999
O O9 0.192212 0.418800 0.205607
O O10 0.205691 0.656106 0.316744
O O11 0.717990 0.843180 0.875394
O O12 0.461679 0.861748 0.983857
O O13 0.282515 0.885229 0.545790
O O14 0.181075 0.815940 0.659375
O O15 0.565401 0.884823 0.673662
O O16 0.865891 0.874208 0.734751
O O17 0.000000 0.000000 0.000000
#
# Coordination Sequence:
#
# PCOD8043079 Si02
#       8
#     2   2   2   2   2   2   2   2
#     4  10  19  36  57  91 128 159 192 246 318 380
#     4  10  25  43  65  92 121 169 218 262 300 367
#     4  11  22  43  68  90 126 166 213 258 312 368
#     4  11  21  37  66  92 125 166 202 254 319 379
#     4  11  23  41  65  91 126 169 203 260 323 371
#     4  11  23  37  64  96 126 164 205 257 318 380
#     4  11  23  43  66  91 127 163 214 260 314 370
#     4  11  24  35  56  93 134 162 202 249 312 387
#
# _framework density 20.414097000000002
#
# number of rings (size 3 to 8) (size 9 to 14) (size 15 to 20)
#    0.000    1.250    5.000    2.250    1.750    2.500 
#    0.000    1.250    0.000    0.000    0.000    0.000 
#    0.000    0.000    0.000    0.000    0.000    0.000 
#
# Total GULP energy -198313.433645 kJ/mol
# GULP energy per Si atom -12394.589603 kJ/mol
# Density = 2.036763 g / cm^3
# Si number density = 20.414097 Si / 1000 Ang^3
#
#
#
# Elastic Constant Matrix: (Units=GPa)
#
#
# Indices 1 2 3 4 5 6 
#
# 1 100.1149 52.0713 44.2360 7.2289 8.8944 -0.4633
# 2 52.0713 93.3906 20.2297 5.4715 3.5574 -3.1459
# 3 44.2360 20.2297 115.9755 7.9400 14.9813 -1.0282
# 4 7.2289 5.4715 7.9400 26.4738 -6.0592 1.0000
# 5 8.8944 3.5574 14.9813 -6.0592 32.1837 -2.0540
# 6 -0.4633 -3.1459 -1.0282 1.0000 -2.0540 27.2476
#
#
#
# Elastic Compliance Matrix: (Units=1/GPa)
#
#
# Indices 1 2 3 4 5 6 
#
# 1 0.016476 -0.008055 -0.004501 -0.001904 -0.001984 -0.000899
# 2 -0.008055 0.015208 0.000481 -0.001101 0.000222 0.001694
# 3 -0.004501 0.000481 0.011068 -0.003240 -0.004560 0.000172
# 4 -0.001904 -0.001101 -0.003240 0.041813 0.009960 -0.001065
# 5 -0.001984 0.000222 -0.004560 0.009960 0.035730 0.002148
# 6 -0.000899 0.001694 0.000172 -0.001065 0.002148 0.037088
#
#
# Mechanical properties :
#
#
# Convention : Reuss Voigt Hill
#
# Bulk Modulus (GPa) = 53.75405 60.28389 57.01897
# Shear Modulus (GPa) = 26.63368 30.04397 28.33883
#
# Velocity S-wave (km/s) = 3.61594 3.84047 3.72990
# Velocity P-wave (km/s) = 6.61985 7.01856 6.82212
#
# Compressibility (1/GPa) = 0.01860325
#
# Stress axis : x y z
#
# Youngs Moduli (GPa) = 60.69350 65.75640 90.35311
#
# Poissons Ratio (x) = 0.52965 0.40666
# Poissons Ratio (y) = 0.48887 -0.04349
# Poissons Ratio (z) = 0.27317 -0.03165
#
# Static dielectric constant tensor:
#      x y z
#    x 3.598160 -0.102770 0.015040 
#    y -0.102770 4.380730 0.619100 
#    z 0.015040 0.619100 4.066380 
# 
# 
# High freq. dielectric constant tensor:
#      x y z
#    x 1.785630 -0.006470 0.005690 
#    y -0.006470 1.796110 0.016380 
#    z 0.005690 0.016380 1.805300 
# 
# From -- ./inp_files/245054.got.cif
#   From: 2010.06.25/outbox.cif.g09.slc.cpg/sg2_123_cif.got.tgz:245054.got - 2010.06.27 13:26:56.
