data_PCOD8043185
_publ_section_title
;
Structure prediction by ZEFSAII (Michael W. Deem and Ramdas Pophale) SiO2 
 PCOD8043185
Probable space group: P -1
;
_chemical_formula_sum "Si O2"
_cell_formula_units_Z 16
_cell_length_a 15.023149
_cell_length_b 20.378662
_cell_length_c 10.627766
_cell_angle_alpha 140.785520
_cell_angle_beta 35.090145
_cell_angle_gamma 156.201244
_cell_volume 749.973253
_symmetry_space_group_name_H-M "P -1"
_symmetry_group_IT_number 2
_symmetry_cell_setting 'triclinic'
loop_
_space_group_symop_operation_xyz
x,y,z
-x,-y,-z
loop_
_atom_site_type_symbol
_atom_site_label
_atom_site_fract_x
_atom_site_fract_y
_atom_site_fract_z
Si Si1 0.863619 0.011028 0.913939
Si Si2 0.616808 0.670589 0.238821
Si Si3 0.696499 0.875694 0.646961
Si Si4 0.789388 0.312339 0.927337
Si Si5 0.347231 0.967920 0.240537
Si Si6 0.424236 0.759768 0.194686
Si Si7 0.740581 0.504350 0.824440
Si Si8 0.301181 0.842605 0.666613
O O1 0.135950 0.168642 0.885431
O O2 0.892810 0.975584 0.685213
O O3 0.710523 0.039661 0.130003
O O4 0.692490 0.858853 0.982090
O O5 0.622314 0.726647 0.452316
O O6 0.381127 0.582364 0.299878
O O7 0.627181 0.553327 0.077933
O O8 0.455099 0.789070 0.866614
O O9 0.790266 0.003323 0.617915
O O10 0.840680 0.216019 0.757269
O O11 0.759134 0.312539 0.814383
O O12 0.000000 0.500000 0.000000
O O13 0.534636 0.111813 0.339957
O O14 0.500000 0.000000 0.000000
O O15 0.322093 0.614914 0.180963
O O16 0.437479 0.872741 0.428422
O O17 0.031197 0.654338 0.699923
#
# Coordination Sequence:
#
# PCOD8043185 Si02
#       8
#     2   2   2   2   2   2   2   2
#     4  10  21  38  59  85 119 150 197 249 278 344
#     4  10  22  42  58  82 112 161 210 230 280 341
#     4  10  20  38  62  84 116 157 198 231 288 351
#     4  10  23  35  55  92 125 145 181 241 300 349
#     4  10  19  36  59  87 117 149 192 235 289 354
#     4  11  22  37  59  89 120 152 186 244 310 332
#     4  10  24  38  59  85 116 157 198 243 280 346
#     4  11  20  37  60  87 118 154 190 240 292 356
#
# _framework density 21.334095000000001
#
# number of rings (size 3 to 8) (size 9 to 14) (size 15 to 20)
#    0.000    1.750    3.750    1.875    5.250    0.500 
#    0.000    3.750    0.000    0.000    0.000    0.000 
#    0.000    0.000    0.000    0.000    0.000    0.000 
#
# Total GULP energy -198293.719151 kJ/mol
# GULP energy per Si atom -12393.357447 kJ/mol
# Density = 2.128554 g / cm^3
# Si number density = 21.334095 Si / 1000 Ang^3
#
#
#
# Elastic Constant Matrix: (Units=GPa)
#
#
# Indices 1 2 3 4 5 6 
#
# 1 96.9875 44.2913 38.3771 13.0961 11.3579 4.8075
# 2 44.2913 101.6816 20.5525 23.1272 10.0708 12.8375
# 3 38.3771 20.5525 104.3969 28.2155 28.1635 2.5768
# 4 13.0961 23.1272 28.2155 26.9406 2.0280 3.1367
# 5 11.3579 10.0708 28.1635 2.0280 29.0640 9.0239
# 6 4.8075 12.8375 2.5768 3.1367 9.0239 31.5812
#
#
#
# Elastic Compliance Matrix: (Units=1/GPa)
#
#
# Indices 1 2 3 4 5 6 
#
# 1 0.014738 -0.006382 -0.005800 0.004267 0.001811 -0.000117
# 2 -0.006382 0.015959 0.004911 -0.014978 -0.005898 -0.002744
# 3 -0.005800 0.004911 0.023216 -0.024723 -0.021986 0.005730
# 4 0.004267 -0.014978 -0.024723 0.072739 0.024506 -0.006771
# 5 0.001811 -0.005898 -0.021986 0.024506 0.060220 -0.015725
# 6 -0.000117 -0.002744 0.005730 -0.006771 -0.015725 0.037496
#
#
# Mechanical properties :
#
#
# Convention : Reuss Voigt Hill
#
# Bulk Modulus (GPa) = 25.39981 56.61199 41.00590
# Shear Modulus (GPa) = 19.83869 30.84017 25.33943
#
# Velocity S-wave (km/s) = 3.05274 3.80620 3.45010
# Velocity P-wave (km/s) = 4.93531 6.77568 5.92735
#
# Compressibility (1/GPa) = 0.03937037
#
# Stress axis : x y z
#
# Youngs Moduli (GPa) = 67.85241 62.65986 43.07428
#
# Poissons Ratio (x) = 0.39991 0.24984
# Poissons Ratio (y) = 0.43305 -0.21155
# Poissons Ratio (z) = 0.39355 -0.30774
#
# Static dielectric constant tensor:
#      x y z
#    x 3.805550 0.054530 0.059450 
#    y 0.054530 4.068020 0.219390 
#    z 0.059450 0.219390 4.084060 
# 
# 
# High freq. dielectric constant tensor:
#      x y z
#    x 1.827630 0.005010 0.005500 
#    y 0.005010 1.838720 0.014940 
#    z 0.005500 0.014940 1.845510 
# 
# From -- ./inp_files/279798.got.cif
#   From: 2010.06.25/outbox.cif.g09.slc.cpg/sg2_140_cif.got.tgz:279798.got - 2010.06.27 13:26:56.
