data_PCOD8043180
_publ_section_title
;
Structure prediction by ZEFSAII (Michael W. Deem and Ramdas Pophale) SiO2 
 PCOD8043180
Probable space group: P -1
;
_chemical_formula_sum "Si O2"
_cell_formula_units_Z 16
_cell_length_a 8.853986
_cell_length_b 11.566099
_cell_length_c 9.467782
_cell_angle_alpha 71.659662
_cell_angle_beta 84.508316
_cell_angle_gamma 57.729911
_cell_volume 774.994847
_symmetry_space_group_name_H-M "P -1"
_symmetry_group_IT_number 2
_symmetry_cell_setting 'triclinic'
loop_
_space_group_symop_operation_xyz
x,y,z
-x,-y,-z
loop_
_atom_site_type_symbol
_atom_site_label
_atom_site_fract_x
_atom_site_fract_y
_atom_site_fract_z
Si Si1 0.501330 0.638029 0.285934
Si Si2 0.995979 0.732211 0.279904
Si Si3 0.769931 0.241820 0.974290
Si Si4 0.155736 0.406696 0.819332
Si Si5 0.926100 0.281957 0.216209
Si Si6 0.718366 0.849390 0.901533
Si Si7 0.681606 0.009549 0.127884
Si Si8 0.254492 0.679169 0.515693
O O1 0.415006 0.654183 0.132550
O O2 0.650719 0.678621 0.245565
O O3 0.353904 0.736449 0.383529
O O4 0.589864 0.472689 0.380615
O O5 0.071852 0.797371 0.134985
O O6 0.113031 0.667453 0.434410
O O7 0.987256 0.600427 0.265042
O O8 0.796750 0.871671 0.273500
O O9 0.799603 0.315683 0.078681
O O10 0.769734 0.104848 0.084566
O O11 0.091576 0.569834 0.792800
O O12 0.184496 0.316981 0.993283
O O13 0.855525 0.225978 0.374053
O O14 0.135685 0.158511 0.219008
O O15 0.524312 0.902207 0.830755
O O16 0.689450 0.958625 0.986149
#
# Coordination Sequence:
#
# PCOD8043180 Si02
#       8
#     2   2   2   2   2   2   2   2
#     4   9  19  37  59  79 116 152 189 228 274 350
#     4  10  21  37  61  83 110 159 194 226 273 348
#     4  11  20  35  60  88 111 149 195 236 279 329
#     4  10  19  36  59  87 114 146 190 235 292 325
#     4  11  22  35  58  88 122 143 181 247 292 331
#     4  10  20  36  58  88 111 148 186 247 281 321
#     4  10  20  37  59  83 112 149 203 227 268 344
#     4   9  21  39  54  84 118 152 190 223 290 342
#
# _framework density 20.645299000000001
#
# number of rings (size 3 to 8) (size 9 to 14) (size 15 to 20)
#    0.000    2.000    3.750    0.750    0.000    4.000 
#    0.000    3.750    0.000    0.000    0.000    0.000 
#    0.000    0.000    0.000    0.000    0.000    0.000 
#
# Total GULP energy -198221.828708 kJ/mol
# GULP energy per Si atom -12388.864294 kJ/mol
# Density = 2.059831 g / cm^3
# Si number density = 20.645299 Si / 1000 Ang^3
#
#
#
# Elastic Constant Matrix: (Units=GPa)
#
#
# Indices 1 2 3 4 5 6 
#
# 1 101.6402 27.0489 25.5316 13.8343 -4.5426 -10.6307
# 2 27.0489 61.9100 19.6299 2.9535 7.8007 -4.2402
# 3 25.5316 19.6299 77.1860 19.4532 0.4788 -7.4018
# 4 13.8343 2.9535 19.4532 19.8225 -14.1047 -10.7653
# 5 -4.5426 7.8007 0.4788 -14.1047 37.9018 6.5393
# 6 -10.6307 -4.2402 -7.4018 -10.7653 6.5393 28.4752
#
#
#
# Elastic Compliance Matrix: (Units=1/GPa)
#
#
# Indices 1 2 3 4 5 6 
#
# 1 0.012335 -0.004608 -0.001286 -0.005927 0.000005 0.001343
# 2 -0.004608 0.019953 -0.003890 0.002221 -0.004133 0.002029
# 3 -0.001286 -0.003890 0.021135 -0.028151 -0.009398 -0.004050
# 4 -0.005927 0.002221 -0.028151 0.127411 0.041525 0.029433
# 5 0.000005 -0.004133 -0.009398 0.041525 0.042302 0.002928
# 6 0.001343 0.002029 -0.004050 0.029433 0.002928 0.045324
#
#
# Mechanical properties :
#
#
# Convention : Reuss Voigt Hill
#
# Bulk Modulus (GPa) = 29.53646 42.79522 36.16584
# Shear Modulus (GPa) = 16.70496 28.47495 22.58996
#
# Velocity S-wave (km/s) = 2.84763 3.71785 3.31145
# Velocity P-wave (km/s) = 5.01494 6.26128 5.67245
#
# Compressibility (1/GPa) = 0.03385647
#
# Stress axis : x y z
#
# Youngs Moduli (GPa) = 81.06826 50.11851 47.31475
#
# Poissons Ratio (x) = 0.23093 0.06084
# Poissons Ratio (y) = 0.37353 0.18405
# Poissons Ratio (z) = 0.10424 0.19495
#
# Static dielectric constant tensor:
#      x y z
#    x 4.339590 -0.326740 -0.227930 
#    y -0.326740 3.413420 0.070160 
#    z -0.227930 0.070160 3.870370 
# 
# 
# High freq. dielectric constant tensor:
#      x y z
#    x 1.830490 -0.015880 -0.003800 
#    y -0.015880 1.772320 -0.006300 
#    z -0.003800 -0.006300 1.785700 
# 
# From -- ./inp_files/177774.got.cif
#   From: 2010.06.25/outbox.cif.g09.slc.cpg/sg2_89_cif.got.tgz:177774.got - 2010.06.27 13:26:56.
