data_PCOD8043542
_publ_section_title
;
Structure prediction by ZEFSAII (Michael W. Deem and Ramdas Pophale) SiO2 
 PCOD8043542
Probable space group: P -1
;
_chemical_formula_sum "Si O2"
_cell_formula_units_Z 16
_cell_length_a 8.282306
_cell_length_b 6.957588
_cell_length_c 20.262332
_cell_angle_alpha 55.618398
_cell_angle_beta 49.123903
_cell_angle_gamma 68.622585
_cell_volume 728.599460
_symmetry_space_group_name_H-M "P -1"
_symmetry_group_IT_number 2
_symmetry_cell_setting 'triclinic'
loop_
_space_group_symop_operation_xyz
x,y,z
-x,-y,-z
loop_
_atom_site_type_symbol
_atom_site_label
_atom_site_fract_x
_atom_site_fract_y
_atom_site_fract_z
Si Si1 0.277626 0.404946 0.008996
Si Si2 0.173126 0.332023 0.762394
Si Si3 0.800109 0.311211 0.488480
Si Si4 0.774096 0.859926 0.653570
Si Si5 0.348590 0.735937 0.722732
Si Si6 0.101962 0.818693 0.904852
Si Si7 0.339955 0.228803 0.594033
Si Si8 0.734488 0.570664 0.842520
O O1 0.184434 0.666628 0.973807
O O2 0.527730 0.402068 0.924556
O O3 0.240033 0.332861 0.109031
O O4 0.152381 0.223128 0.030575
O O5 0.314810 0.502575 0.736077
O O6 0.296048 0.294792 0.669025
O O7 0.937461 0.425535 0.793293
O O8 0.153199 0.086724 0.853929
O O9 0.593201 0.259995 0.507590
O O10 0.789826 0.590836 0.453841
O O11 0.005018 0.261722 0.399259
O O12 0.795137 0.142233 0.586779
O O13 0.597910 0.766136 0.667297
O O14 0.708114 0.794799 0.758347
O O15 0.214075 0.720606 0.828280
O O16 0.272891 0.958221 0.654803
#
# Coordination Sequence:
#
# PCOD8043542 Si02
#       8
#     2   2   2   2   2   2   2   2
#     4  10  22  40  61  90 124 158 201 253 297 351
#     4  11  22  38  64  90 120 162 202 243 302 360
#     4   9  18  36  64  89 118 160 199 248 304 354
#     4  10  19  36  64  89 125 159 197 251 302 356
#     4  10  20  39  61  90 123 161 198 246 300 356
#     4  10  21  41  63  86 122 161 202 249 295 355
#     4   9  19  37  64  89 121 156 201 250 297 356
#     4  11  21  37  62  91 124 159 198 249 303 352
#
# _framework density 21.95994
#
# number of rings (size 3 to 8) (size 9 to 14) (size 15 to 20)
#    0.000    2.000    3.750    0.000    0.000    1.000 
#    0.000   10.000    0.000    0.000    0.000    0.000 
#    0.000    0.000    0.000    0.000    0.000    0.000 
#
# Total GULP energy -198328.492886 kJ/mol
# GULP energy per Si atom -12395.530805 kJ/mol
# Density = 2.190996 g / cm^3
# Si number density = 21.959940 Si / 1000 Ang^3
#
#
#
# Elastic Constant Matrix: (Units=GPa)
#
#
# Indices 1 2 3 4 5 6 
#
# 1 96.8536 45.3803 45.9264 -9.8600 -6.7414 -10.0534
# 2 45.3803 98.9759 46.0092 -35.0112 7.9665 -0.5619
# 3 45.9264 46.0092 113.9997 -25.9816 8.0349 -4.7671
# 4 -9.8600 -35.0112 -25.9816 38.5208 -15.3838 -1.7498
# 5 -6.7414 7.9665 8.0349 -15.3838 31.9816 -1.8395
# 6 -10.0534 -0.5619 -4.7671 -1.7498 -1.8395 30.5547
#
#
#
# Elastic Compliance Matrix: (Units=1/GPa)
#
#
# Indices 1 2 3 4 5 6 
#
# 1 0.016194 -0.006620 -0.004644 -0.002722 0.005187 0.004638
# 2 -0.006620 0.019172 -0.001791 0.015049 0.001452 -0.001156
# 3 -0.004644 -0.001791 0.012685 0.005320 -0.001123 0.000655
# 4 -0.002722 0.015049 0.005320 0.050202 0.018731 0.004214
# 5 0.005187 0.001452 -0.001123 0.018731 0.041587 0.005135
# 6 0.004638 -0.001156 0.000655 0.004214 0.005135 0.034886
#
#
# Mechanical properties :
#
#
# Convention : Reuss Voigt Hill
#
# Bulk Modulus (GPa) = 45.57998 64.94012 55.26005
# Shear Modulus (GPa) = 24.02106 31.71230 27.86668
#
# Velocity S-wave (km/s) = 3.31094 3.80425 3.56614
# Velocity P-wave (km/s) = 5.95126 6.99519 6.49424
#
# Compressibility (1/GPa) = 0.02193946
#
# Stress axis : x y z
#
# Youngs Moduli (GPa) = 61.74978 52.16052 78.83350
#
# Poissons Ratio (x) = 0.34532 0.36613
# Poissons Ratio (y) = 0.40880 0.14120
# Poissons Ratio (z) = 0.28678 0.09343
#
# Static dielectric constant tensor:
#      x y z
#    x 3.938070 -0.424240 -0.086720 
#    y -0.424240 3.751880 -0.346750 
#    z -0.086720 -0.346750 4.326880 
# 
# 
# High freq. dielectric constant tensor:
#      x y z
#    x 1.851700 -0.031320 -0.011570 
#    y -0.031320 1.828770 -0.018890 
#    z -0.011570 -0.018890 1.891200 
# 
# From -- ./inp_files/585529.got.cif
#   From: 2010.06.25/outbox.cif.g09.slc.cpg/sg2_293_cif.got.tgz:585529.got - 2010.06.27 13:26:56.
