data_PCOD8043200
_publ_section_title
;
Structure prediction by ZEFSAII (Michael W. Deem and Ramdas Pophale) SiO2 
 PCOD8043200
Probable space group: P -1
;
_chemical_formula_sum "Si O2"
_cell_formula_units_Z 16
_cell_length_a 11.378219
_cell_length_b 11.026940
_cell_length_c 6.991200
_cell_angle_alpha 111.679499
_cell_angle_beta 76.835538
_cell_angle_gamma 115.483388
_cell_volume 733.335823
_symmetry_space_group_name_H-M "P -1"
_symmetry_group_IT_number 2
_symmetry_cell_setting 'triclinic'
loop_
_space_group_symop_operation_xyz
x,y,z
-x,-y,-z
loop_
_atom_site_type_symbol
_atom_site_label
_atom_site_fract_x
_atom_site_fract_y
_atom_site_fract_z
Si Si1 0.818988 0.001212 0.978878
Si Si2 0.549239 0.607484 0.371097
Si Si3 0.716200 0.424717 0.700531
Si Si4 0.277026 0.084841 0.437841
Si Si5 0.200234 0.445200 0.881470
Si Si6 0.896681 0.855364 0.178188
Si Si7 0.198863 0.821509 0.574562
Si Si8 0.066605 0.406189 0.520274
O O1 0.958498 0.037053 0.849626
O O2 0.720772 0.950510 0.808447
O O3 0.800528 0.128905 0.176571
O O4 0.798645 0.877094 0.068670
O O5 0.500000 0.500000 0.500000
O O6 0.430652 0.582329 0.252654
O O7 0.594641 0.772422 0.505952
O O8 0.665787 0.575892 0.216285
O O9 0.730650 0.289437 0.517386
O O10 0.805395 0.571260 0.642780
O O11 0.767826 0.429519 0.902704
O O12 0.152117 0.117931 0.577259
O O13 0.279649 0.951744 0.481763
O O14 0.103224 0.300211 0.928532
O O15 0.124144 0.471366 0.743549
O O16 0.045091 0.752198 0.521491
O O17 0.000000 0.500000 0.500000
#
# Coordination Sequence:
#
# PCOD8043200 Si02
#       8
#     2   2   2   2   2   2   2   2
#     4  10  19  36  59  91 129 168 200 254 319 374
#     4  11  24  44  66  92 123 163 222 270 310 363
#     4  11  24  42  64  93 131 170 212 260 309 377
#     4  10  22  39  62  90 125 166 210 261 311 369
#     4  11  22  39  67  93 121 169 211 262 321 365
#     4   9  20  33  59  95 124 159 211 257 309 375
#     4  10  23  40  61  94 132 164 209 253 314 386
#     4  10  22  39  62  94 131 163 202 255 312 380
#
# _framework density 21.818107999999999
#
# number of rings (size 3 to 8) (size 9 to 14) (size 15 to 20)
#    0.000    1.750    1.250    2.250    1.750    9.500 
#    2.250    0.625    0.000    0.000    0.000    0.000 
#    0.000    0.000    0.000    0.000    0.000    0.000 
#
# Total GULP energy -198250.751805 kJ/mol
# GULP energy per Si atom -12390.671988 kJ/mol
# Density = 2.176845 g / cm^3
# Si number density = 21.818108 Si / 1000 Ang^3
#
#
#
# Elastic Constant Matrix: (Units=GPa)
#
#
# Indices 1 2 3 4 5 6 
#
# 1 81.3055 25.8535 32.2526 -0.3683 16.1922 2.5275
# 2 25.8535 108.8516 30.2411 -6.5158 7.2475 7.4427
# 3 32.2526 30.2411 150.4460 6.6262 29.7607 -1.3353
# 4 -0.3683 -6.5158 6.6262 26.9226 -3.9197 -2.9369
# 5 16.1922 7.2475 29.7607 -3.9197 28.8713 3.3382
# 6 2.5275 7.4427 -1.3353 -2.9369 3.3382 29.0041
#
#
#
# Elastic Compliance Matrix: (Units=1/GPa)
#
#
# Indices 1 2 3 4 5 6 
#
# 1 0.015012 -0.002833 -0.001314 -0.001104 -0.006503 -0.000005
# 2 -0.002833 0.010659 -0.002026 0.003017 0.001697 -0.002471
# 3 -0.001314 -0.002026 0.009325 -0.003941 -0.009100 0.001712
# 4 -0.001104 0.003017 -0.003941 0.040399 0.009158 0.002177
# 5 -0.006503 0.001697 -0.009100 0.009158 0.049060 -0.005007
# 6 -0.000005 -0.002471 0.001712 0.002177 -0.005007 0.035988
#
#
# Mechanical properties :
#
#
# Convention : Reuss Voigt Hill
#
# Bulk Modulus (GPa) = 44.14982 57.47751 50.81367
# Shear Modulus (GPa) = 27.72579 33.77666 30.75123
#
# Velocity S-wave (km/s) = 3.56865 3.93886 3.75832
# Velocity P-wave (km/s) = 6.10407 6.86202 6.49411
#
# Compressibility (1/GPa) = 0.02265015
#
# Stress axis : x y z
#
# Youngs Moduli (GPa) = 66.61532 93.81650 107.24412
#
# Poissons Ratio (x) = 0.26580 0.14088
# Poissons Ratio (y) = 0.18874 0.21724
# Poissons Ratio (z) = 0.08751 0.19004
#
# Static dielectric constant tensor:
#      x y z
#    x 4.370720 0.906020 -0.086410 
#    y 0.906020 4.821100 -0.244990 
#    z -0.086410 -0.244990 4.065430 
# 
# 
# High freq. dielectric constant tensor:
#      x y z
#    x 1.831580 0.006650 0.003360 
#    y 0.006650 1.859860 -0.006040 
#    z 0.003360 -0.006040 1.860960 
# 
# From -- ./inp_files/71779.got.cif
#   From: 2010.06.25/outbox.cif.g09.slc.cpg/sg2_36_cif.got.tgz:71779.got - 2010.06.27 13:26:56.
