data_PCOD8043564
_publ_section_title
;
Structure prediction by ZEFSAII (Michael W. Deem and Ramdas Pophale) SiO2 
 PCOD8043564
Probable space group: P -1
;
_chemical_formula_sum "Si O2"
_cell_formula_units_Z 16
_cell_length_a 15.205479
_cell_length_b 12.205867
_cell_length_c 14.660079
_cell_angle_alpha 141.963893
_cell_angle_beta 30.260611
_cell_angle_gamma 121.037251
_cell_volume 716.176073
_symmetry_space_group_name_H-M "P -1"
_symmetry_group_IT_number 2
_symmetry_cell_setting 'triclinic'
loop_
_space_group_symop_operation_xyz
x,y,z
-x,-y,-z
loop_
_atom_site_type_symbol
_atom_site_label
_atom_site_fract_x
_atom_site_fract_y
_atom_site_fract_z
Si Si1 0.692925 0.724977 0.848586
Si Si2 0.260060 0.125890 0.276175
Si Si3 0.264965 0.816301 0.292874
Si Si4 0.844799 0.399132 0.906381
Si Si5 0.835063 0.177352 0.929828
Si Si6 0.205440 0.974292 0.951082
Si Si7 0.256001 0.697360 0.417602
Si Si8 0.507632 0.196143 0.585847
O O1 0.803881 0.720896 0.653197
O O2 0.777697 0.489692 0.649480
O O3 0.450623 0.847974 0.124330
O O4 0.737097 0.852075 0.966795
O O5 0.095814 0.284905 0.603890
O O6 0.218636 0.944585 0.174341
O O7 0.500000 0.000000 0.000000
O O8 0.216507 0.724094 0.188697
O O9 0.324039 0.665831 0.229884
O O10 0.079703 0.043861 0.637512
O O11 0.777250 0.389566 0.065881
O O12 0.719069 0.641108 0.146003
O O13 0.728335 0.195917 0.136003
O O14 0.323685 0.855471 0.676644
O O15 0.961281 0.087817 0.228703
O O16 0.434006 0.698228 0.316949
O O17 0.500000 0.000000 0.500000
#
# Coordination Sequence:
#
# PCOD8043564 Si02
#       8
#     2   2   2   2   2   2   2   2
#     4  11  20  35  65  93 125 159 211 265 316 368
#     4  10  20  34  61  99 125 153 207 275 317 365
#     4  10  19  36  64  95 121 160 205 268 315 368
#     4  11  22  39  63  92 128 170 209 256 321 374
#     4   9  20  39  63  90 124 162 210 264 318 365
#     4  10  24  41  62  93 128 167 210 263 309 374
#     4  11  23  40  64  90 126 171 211 262 315 367
#     4  12  27  42  62  90 133 177 211 253 308 385
#
# _framework density 22.340875
#
# number of rings (size 3 to 8) (size 9 to 14) (size 15 to 20)
#    0.000    1.500    1.250    5.625    3.500    0.500 
#    0.000    0.000    0.000    9.750    0.000    0.000 
#    0.000    0.000    0.000    0.000    0.000    0.000 
#
# Total GULP energy -198281.519403 kJ/mol
# GULP energy per Si atom -12392.594963 kJ/mol
# Density = 2.229003 g / cm^3
# Si number density = 22.340875 Si / 1000 Ang^3
#
#
#
# Elastic Constant Matrix: (Units=GPa)
#
#
# Indices 1 2 3 4 5 6 
#
# 1 71.0467 37.0190 25.4091 5.2714 -2.2933 -17.0239
# 2 37.0190 117.4161 27.0339 7.6587 -0.8317 -30.2552
# 3 25.4091 27.0339 81.8081 -10.1639 -15.0228 -8.3820
# 4 5.2714 7.6587 -10.1639 29.9744 -6.2874 -8.1150
# 5 -2.2933 -0.8317 -15.0228 -6.2874 35.8852 -8.5975
# 6 -17.0239 -30.2552 -8.3820 -8.1150 -8.5975 37.0331
#
#
#
# Elastic Compliance Matrix: (Units=1/GPa)
#
#
# Indices 1 2 3 4 5 6 
#
# 1 0.018787 -0.003667 -0.004695 -0.003027 -0.000469 0.003805
# 2 -0.003667 0.012232 -0.002025 -0.000834 0.000944 0.007886
# 3 -0.004695 -0.002025 0.018175 0.011091 0.010440 0.005154
# 4 -0.003027 -0.000834 0.011091 0.044912 0.015631 0.013908
# 5 -0.000469 0.000944 0.010440 0.015631 0.038637 0.015314
# 6 0.003805 0.007886 0.005154 0.013908 0.015314 0.042964
#
#
# Mechanical properties :
#
#
# Convention : Reuss Voigt Hill
#
# Bulk Modulus (GPa) = 35.19024 49.91055 42.55040
# Shear Modulus (GPa) = 24.27711 32.63248 28.45479
#
# Velocity S-wave (km/s) = 3.30004 3.82601 3.57272
# Velocity P-wave (km/s) = 5.50509 6.47354 6.00886
#
# Compressibility (1/GPa) = 0.02841697
#
# Stress axis : x y z
#
# Youngs Moduli (GPa) = 53.22938 81.75027 55.02168
#
# Poissons Ratio (x) = 0.29981 0.25835
# Poissons Ratio (y) = 0.19521 0.11145
# Poissons Ratio (z) = 0.24994 0.16558
#
# Static dielectric constant tensor:
#      x y z
#    x 3.961080 -0.315630 -0.247990 
#    y -0.315630 4.098860 -0.247370 
#    z -0.247990 -0.247370 4.136740 
# 
# 
# High freq. dielectric constant tensor:
#      x y z
#    x 1.869760 -0.029670 -0.021660 
#    y -0.029670 1.884230 -0.018480 
#    z -0.021660 -0.018480 1.872760 
# 
# From -- ./inp_files/532704.got.cif
#   From: 2010.06.25/outbox.cif.g09.slc.cpg/sg2_267_cif.got.tgz:532704.got - 2010.06.27 13:26:56.
