data_PCOD8043455
_publ_section_title
;
Structure prediction by ZEFSAII (Michael W. Deem and Ramdas Pophale) SiO2 
 PCOD8043455
Probable space group: P -1
;
_chemical_formula_sum "Si O2"
_cell_formula_units_Z 14
_cell_length_a 8.976711
_cell_length_b 13.206289
_cell_length_c 8.440033
_cell_angle_alpha 55.812282
_cell_angle_beta 128.516359
_cell_angle_gamma 107.188502
_cell_volume 645.296414
_symmetry_space_group_name_H-M "P -1"
_symmetry_group_IT_number 2
_symmetry_cell_setting 'triclinic'
loop_
_space_group_symop_operation_xyz
x,y,z
-x,-y,-z
loop_
_atom_site_type_symbol
_atom_site_label
_atom_site_fract_x
_atom_site_fract_y
_atom_site_fract_z
Si Si1 0.130872 0.186407 0.261486
Si Si2 0.838359 0.357997 0.439091
Si Si3 0.010527 0.560785 0.201232
Si Si4 0.146614 0.955666 0.000621
Si Si5 0.176818 0.198002 0.652717
Si Si6 0.645881 0.597883 0.540303
Si Si7 0.527079 0.225544 0.470260
O O1 0.120842 0.175563 0.453471
O O2 0.347913 0.148046 0.367826
O O3 0.978831 0.099967 0.169895
O O4 0.079745 0.326472 0.055890
O O5 0.843680 0.479145 0.227726
O O6 0.635543 0.296512 0.342207
O O7 0.866132 0.393461 0.610140
O O8 0.997148 0.251935 0.587882
O O9 0.145649 0.475933 0.247153
O O10 0.250045 0.069567 0.895354
O O11 0.315055 0.858165 0.254302
O O12 0.000000 0.000000 0.000000
O O13 0.340156 0.295925 0.680080
O O14 0.500000 0.500000 0.500000
O O15 0.587468 0.667410 0.599699
#
# Coordination Sequence:
#
# PCOD8043455 Si02
#       7
#     2   2   2   2   2   2   2
#     4  11  24  41  65  95 126 165 215 259 314 378
#     4  10  19  39  64  93 125 171 212 250 319 377
#     4  10  20  38  66  88 132 174 201 259 320 366
#     4  12  23  46  69  87 129 170 207 270 318 365
#     4  10  23  38  65  93 126 172 209 256 322 369
#     4  10  19  36  62  95 126 161 209 254 305 375
#     4  11  23  39  67  96 125 165 219 260 307 378
#
# _framework density 21.695456
#
# number of rings (size 3 to 8) (size 9 to 14) (size 15 to 20)
#    0.000    1.429    4.286    0.429    0.000    8.571 
#    0.000    1.429    9.429    0.000    0.000    0.000 
#    0.000    0.000    0.000    0.000    0.000    0.000 
#
# Total GULP energy -173451.485132 kJ/mol
# GULP energy per Si atom -12389.391795 kJ/mol
# Density = 2.164608 g / cm^3
# Si number density = 21.695456 Si / 1000 Ang^3
#
#
#
# Elastic Constant Matrix: (Units=GPa)
#
#
# Indices 1 2 3 4 5 6 
#
# 1 112.5635 38.8212 28.2775 -15.7092 4.9178 15.5165
# 2 38.8212 93.2074 37.7794 -20.6141 3.9039 23.6231
# 3 28.2775 37.7794 77.7245 -16.7638 -6.8712 9.5095
# 4 -15.7092 -20.6141 -16.7638 25.3456 12.7464 -5.5270
# 5 4.9178 3.9039 -6.8712 12.7464 26.9920 -1.7949
# 6 15.5165 23.6231 9.5095 -5.5270 -1.7949 50.9217
#
#
#
# Elastic Compliance Matrix: (Units=1/GPa)
#
#
# Indices 1 2 3 4 5 6 
#
# 1 0.011453 -0.001715 -0.002165 0.006752 -0.005695 -0.001758
# 2 -0.001715 0.019106 -0.005664 0.015177 -0.011461 -0.006040
# 3 -0.002165 -0.005664 0.017498 0.003776 0.003922 0.000568
# 4 0.006752 0.015177 0.003776 0.077652 -0.039317 -0.002761
# 5 -0.005695 -0.011461 0.003922 -0.039317 0.059585 0.004153
# 6 -0.001758 -0.006040 0.000568 -0.002761 0.004153 0.022716
#
#
# Mechanical properties :
#
#
# Convention : Reuss Voigt Hill
#
# Bulk Modulus (GPa) = 34.51905 54.80573 44.66239
# Shear Modulus (GPa) = 21.11890 32.55968 26.83929
#
# Velocity S-wave (km/s) = 3.12336 3.87817 3.52105
# Velocity P-wave (km/s) = 5.38075 6.73571 6.09599
#
# Compressibility (1/GPa) = 0.02896951
#
# Stress axis : x y z
#
# Youngs Moduli (GPa) = 87.31530 52.33862 57.14790
#
# Poissons Ratio (x) = 0.08977 0.12373
# Poissons Ratio (y) = 0.14976 0.32367
# Poissons Ratio (z) = 0.18905 0.29643
#
# Static dielectric constant tensor:
#      x y z
#    x 1.169820 -8.781650 -4.712930 
#    y -8.781650 -20.962120 -13.461810 
#    z -4.712930 -13.461810 -3.229910 
# 
# 
# High freq. dielectric constant tensor:
#      x y z
#    x 1.869150 0.009960 -0.002980 
#    y 0.009960 1.861690 -0.023720 
#    z -0.002980 -0.023720 1.824090 
# 
# From -- ./inp_files/180911.got.cif
#   From: 2010.06.25/outbox.cif.g09.slc.cpg/sg2_91_cif.got.tgz:180911.got - 2010.06.27 13:26:56.
