data_PCOD8043755
_publ_section_title
;
Structure prediction by ZEFSAII (Michael W. Deem and Ramdas Pophale) SiO2 
 PCOD8043755
Probable space group: P -1
;
_chemical_formula_sum "Si O2"
_cell_formula_units_Z 16
_cell_length_a 7.681556
_cell_length_b 9.376625
_cell_length_c 18.708573
_cell_angle_alpha 122.413311
_cell_angle_beta 135.367787
_cell_angle_gamma 83.534008
_cell_volume 712.394950
_symmetry_space_group_name_H-M "P -1"
_symmetry_group_IT_number 2
_symmetry_cell_setting 'triclinic'
loop_
_space_group_symop_operation_xyz
x,y,z
-x,-y,-z
loop_
_atom_site_type_symbol
_atom_site_label
_atom_site_fract_x
_atom_site_fract_y
_atom_site_fract_z
Si Si1 0.143056 0.056312 0.466402
Si Si2 0.308448 0.232268 0.421670
Si Si3 0.579948 0.068015 0.264667
Si Si4 0.213035 0.570789 0.491343
Si Si5 0.827451 0.683870 0.338269
Si Si6 0.024721 0.949910 0.140581
Si Si7 0.494370 0.600863 0.952071
Si Si8 0.657464 0.080354 0.994933
O O1 0.826585 0.022410 0.349643
O O2 0.329416 0.116213 0.465481
O O3 0.294505 0.212750 0.614765
O O4 0.104608 0.852383 0.427666
O O5 0.175508 0.365934 0.449342
O O6 0.605841 0.361878 0.510020
O O7 0.096893 0.091737 0.265660
O O8 0.652922 0.284359 0.364926
O O9 0.292494 0.929175 0.184673
O O10 0.531101 0.036727 0.157734
O O11 0.914569 0.550850 0.376094
O O12 0.612774 0.559848 0.182735
O O13 0.929269 0.044677 0.072394
O O14 0.795273 0.750288 0.050598
O O15 0.292342 0.700772 0.934294
O O16 0.500000 0.500000 0.000000
O O17 0.500000 0.000000 0.000000
#
# Coordination Sequence:
#
# PCOD8043755 Si02
#       8
#     2   2   2   2   2   2   2   2
#     4  10  21  37  60  79 111 146 179 232 274 330
#     4  10  19  37  58  85 110 142 183 225 285 323
#     4  10  20  37  57  83 113 146 186 227 281 321
#     4   9  21  36  59  84 111 139 182 238 271 328
#     4  10  21  38  55  83 110 141 186 224 274 325
#     4  10  21  36  58  82 114 148 182 229 274 328
#     4  11  22  38  59  81 112 150 185 224 272 334
#     4  10  20  34  55  80 109 145 184 224 267 325
#
# _framework density 22.459451999999999
#
# number of rings (size 3 to 8) (size 9 to 14) (size 15 to 20)
#    0.000    2.000    0.000    4.125    0.000    5.500 
#    0.000    7.500    0.000    0.000    0.000    0.000 
#    0.000    0.000    0.000    0.000    0.000    0.000 
#
# Total GULP energy -198300.069413 kJ/mol
# GULP energy per Si atom -12393.754338 kJ/mol
# Density = 2.240833 g / cm^3
# Si number density = 22.459452 Si / 1000 Ang^3
#
#
#
# Elastic Constant Matrix: (Units=GPa)
#
#
# Indices 1 2 3 4 5 6 
#
# 1 61.5676 6.6462 22.0843 -3.9305 -10.8493 12.2164
# 2 6.6462 86.3967 19.5120 -2.0923 -11.7930 7.3157
# 3 22.0843 19.5120 140.5086 -2.6267 -28.9375 7.0958
# 4 -3.9305 -2.0923 -2.6267 31.5849 3.7408 -6.8147
# 5 -10.8493 -11.7930 -28.9375 3.7408 31.7316 -4.3338
# 6 12.2164 7.3157 7.0958 -6.8147 -4.3338 27.1066
#
#
#
# Elastic Compliance Matrix: (Units=1/GPa)
#
#
# Indices 1 2 3 4 5 6 
#
# 1 0.019062 0.000111 -0.001840 0.000157 0.003840 -0.007486
# 2 0.000111 0.012469 -0.000893 -0.000229 0.003519 -0.002676
# 3 -0.001840 -0.000893 0.009038 -0.000454 0.007301 -0.000242
# 4 0.000157 -0.000229 -0.000454 0.033761 -0.003323 0.008066
# 5 0.003840 0.003519 0.007301 -0.003323 0.041347 0.001183
# 6 -0.007486 -0.002676 -0.000242 0.008066 0.001183 0.043268
#
#
# Mechanical properties :
#
#
# Convention : Reuss Voigt Hill
#
# Bulk Modulus (GPa) = 28.30864 42.77310 35.54087
# Shear Modulus (GPa) = 28.41482 34.09996 31.25739
#
# Velocity S-wave (km/s) = 3.56077 3.90075 3.73463
# Velocity P-wave (km/s) = 5.43481 6.27485 5.86988
#
# Compressibility (1/GPa) = 0.03532490
#
# Stress axis : x y z
#
# Youngs Moduli (GPa) = 52.45944 80.19797 110.64838
#
# Poissons Ratio (x) = -0.00890 0.20355
# Poissons Ratio (y) = -0.00582 0.09886
# Poissons Ratio (z) = 0.09651 0.07165
#
# Static dielectric constant tensor:
#      x y z
#    x 4.175940 -0.296620 -0.075550 
#    y -0.296620 4.544220 -0.185010 
#    z -0.075550 -0.185010 4.146120 
# 
# 
# High freq. dielectric constant tensor:
#      x y z
#    x 1.875860 0.005240 -0.021280 
#    y 0.005240 1.888400 -0.003610 
#    z -0.021280 -0.003610 1.882900 
# 
# From -- ./inp_files/217300.got.cif
#   From: 2010.06.25/outbox.cif.g09.slc.cpg/sg2_109_cif.got.tgz:217300.got - 2010.06.27 13:26:56.
