data_PCOD8043930
_publ_section_title
;
Structure prediction by ZEFSAII (Michael W. Deem and Ramdas Pophale) SiO2 
 PCOD8043930
Probable space group: P -1
;
_chemical_formula_sum "Si O2"
_cell_formula_units_Z 14
_cell_length_a 12.695143
_cell_length_b 21.576713
_cell_length_c 9.121821
_cell_angle_alpha 37.441433
_cell_angle_beta 27.812780
_cell_angle_gamma 39.045218
_cell_volume 683.953636
_symmetry_space_group_name_H-M "P -1"
_symmetry_group_IT_number 2
_symmetry_cell_setting 'triclinic'
loop_
_space_group_symop_operation_xyz
x,y,z
-x,-y,-z
loop_
_atom_site_type_symbol
_atom_site_label
_atom_site_fract_x
_atom_site_fract_y
_atom_site_fract_z
Si Si1 0.873065 0.481512 0.044411
Si Si2 0.795366 0.677656 0.239858
Si Si3 0.627291 0.237399 0.206115
Si Si4 0.048413 0.817617 0.838263
Si Si5 0.442606 0.035339 0.838564
Si Si6 0.440548 0.668032 0.198623
Si Si7 0.503986 0.183553 0.891690
O O1 0.696517 0.589635 0.005692
O O2 0.735213 0.391894 0.401889
O O3 0.000000 0.500000 0.000000
O O4 0.070027 0.441160 0.752213
O O5 0.575506 0.678325 0.612884
O O6 0.711415 0.743986 0.070040
O O7 0.978249 0.724522 0.013973
O O8 0.870576 0.221104 0.023959
O O9 0.564187 0.126152 0.472569
O O10 0.663567 0.284388 0.916660
O O11 0.264263 0.843592 0.441670
O O12 0.836230 0.921549 0.915901
O O13 0.500000 0.000000 0.000000
O O14 0.539066 0.932342 0.809402
O O15 0.463217 0.762942 0.096807
#
# Coordination Sequence:
#
# PCOD8043930 Si02
#       7
#     2   2   2   2   2   2   2
#     4  11  23  42  68  87 118 163 207 248 313 366
#     4  10  20  39  65  91 114 165 206 244 297 364
#     4  10  24  39  59  95 130 154 201 254 298 355
#     4  10  19  37  61  87 124 161 203 242 293 357
#     4  11  20  35  64  93 120 165 207 239 293 367
#     4  11  25  41  61  94 124 156 202 259 308 356
#     4  11  20  36  64  90 122 160 205 244 295 367
#
# _framework density 20.469225000000002
#
# number of rings (size 3 to 8) (size 9 to 14) (size 15 to 20)
#    0.000    1.429    7.143    0.429    0.000    3.429 
#    0.000    2.143    0.000    0.000    0.000    0.000 
#    0.000    0.000    0.000    0.000    0.000    0.000 
#
# Total GULP energy -173606.964725 kJ/mol
# GULP energy per Si atom -12400.497480 kJ/mol
# Density = 2.042264 g / cm^3
# Si number density = 20.469225 Si / 1000 Ang^3
#
#
#
# Elastic Constant Matrix: (Units=GPa)
#
#
# Indices 1 2 3 4 5 6 
#
# 1 152.4497 58.8358 20.7212 4.4886 -4.5385 -5.6432
# 2 58.8358 120.0749 10.7579 6.1659 -2.5362 14.0896
# 3 20.7212 10.7579 23.9906 2.3036 -2.1249 -4.7541
# 4 4.4886 6.1659 2.3036 18.2220 -4.2151 -4.9614
# 5 -4.5385 -2.5362 -2.1249 -4.2151 34.9084 -0.1610
# 6 -5.6432 14.0896 -4.7541 -4.9614 -0.1610 41.5393
#
#
#
# Elastic Compliance Matrix: (Units=1/GPa)
#
#
# Indices 1 2 3 4 5 6 
#
# 1 0.008996 -0.004179 -0.005486 0.000602 0.000614 0.002086
# 2 -0.004179 0.011374 -0.002157 -0.004033 -0.000359 -0.005155
# 3 -0.005486 -0.002157 0.048819 -0.002213 0.001859 0.005316
# 4 0.000602 -0.004033 -0.002213 0.060280 0.006968 0.008423
# 5 0.000614 -0.000359 0.001859 0.006968 0.029661 0.001365
# 6 0.002086 -0.005155 0.005316 0.008423 0.001365 0.027725
#
#
# Mechanical properties :
#
#
# Convention : Reuss Voigt Hill
#
# Bulk Modulus (GPa) = 21.95631 53.01611 37.48621
# Shear Modulus (GPa) = 22.15524 32.68064 27.41794
#
# Velocity S-wave (km/s) = 3.29351 4.00005 3.66385
# Velocity P-wave (km/s) = 5.02122 6.87681 6.02093
#
# Compressibility (1/GPa) = 0.04554498
#
# Stress axis : x y z
#
# Youngs Moduli (GPa) = 111.16247 87.92334 20.48382
#
# Poissons Ratio (x) = 0.36744 0.11237
# Poissons Ratio (y) = 0.46456 0.04418
# Poissons Ratio (z) = 0.60983 0.18963
#
# Static dielectric constant tensor:
#      x y z
#    x 3.839090 -0.006790 -0.288760 
#    y -0.006790 3.992210 0.050700 
#    z -0.288760 0.050700 3.440040 
# 
# 
# High freq. dielectric constant tensor:
#      x y z
#    x 1.811270 0.000730 -0.024040 
#    y 0.000730 1.810660 0.005300 
#    z -0.024040 0.005300 1.767750 
# 
# From -- ./inp_files/27490.got.cif
#   From: 2010.06.25/outbox.cif.g09.slc.cpg/sg2_14_cif.got.tgz:27490.got - 2010.06.27 13:26:56.
