data_PCOD8043580
_publ_section_title
;
Structure prediction by ZEFSAII (Michael W. Deem and Ramdas Pophale) SiO2 
 PCOD8043580
Probable space group: P -1
;
_chemical_formula_sum "Si O2"
_cell_formula_units_Z 16
_cell_length_a 10.061932
_cell_length_b 8.536592
_cell_length_c 11.687980
_cell_angle_alpha 84.924095
_cell_angle_beta 86.159896
_cell_angle_gamma 45.800159
_cell_volume 716.890999
_symmetry_space_group_name_H-M "P -1"
_symmetry_group_IT_number 2
_symmetry_cell_setting 'triclinic'
loop_
_space_group_symop_operation_xyz
x,y,z
-x,-y,-z
loop_
_atom_site_type_symbol
_atom_site_label
_atom_site_fract_x
_atom_site_fract_y
_atom_site_fract_z
Si Si1 0.054645 0.123727 0.440562
Si Si2 0.736857 0.443881 0.052249
Si Si3 0.708555 0.126707 0.169307
Si Si4 0.054598 0.275545 0.665208
Si Si5 0.795563 0.521471 0.270421
Si Si6 0.636170 0.176791 0.729419
Si Si7 0.390535 0.932097 0.035558
Si Si8 0.707458 0.464902 0.796470
O O1 0.057130 0.254656 0.529894
O O2 0.908749 0.292611 0.341587
O O3 0.258251 0.951302 0.384621
O O4 0.000000 0.000000 0.500000
O O5 0.760296 0.260468 0.126685
O O6 0.836728 0.484503 0.131987
O O7 0.520140 0.668768 0.043377
O O8 0.807932 0.382168 0.921726
O O9 0.492355 0.286484 0.207209
O O10 0.839918 0.962886 0.274210
O O11 0.752375 0.979196 0.065596
O O12 0.160566 0.344849 0.690670
O O13 0.842060 0.455740 0.708207
O O14 0.580633 0.658276 0.295095
O O15 0.698135 0.999044 0.836748
O O16 0.693663 0.302251 0.758448
O O17 0.500000 0.000000 0.000000
#
# Coordination Sequence:
#
# PCOD8043580 Si02
#       8
#     2   2   2   2   2   2   2   2
#     4  12  27  46  70  98 128 178 238 273 316 398
#     4  10  20  39  67  97 129 175 219 264 331 411
#     4  11  20  40  68  95 132 174 220 265 328 408
#     4  12  28  43  65 102 133 174 226 281 327 382
#     4  11  26  46  66  97 138 166 220 286 332 389
#     4  11  23  44  72  97 132 182 218 267 339 387
#     4  10  19  36  65 102 135 166 214 271 331 395
#     4  11  22  41  70  99 136 173 220 270 332 393
#
# _framework density 22.318594999999998
#
# number of rings (size 3 to 8) (size 9 to 14) (size 15 to 20)
#    0.000    1.000    5.000    3.375    0.000    7.000 
#    0.000    0.000    0.000    0.000    0.000    0.000 
#    0.000    0.000    0.000    0.000    0.000    0.000 
#
# Total GULP energy -198368.421664 kJ/mol
# GULP energy per Si atom -12398.026354 kJ/mol
# Density = 2.226780 g / cm^3
# Si number density = 22.318595 Si / 1000 Ang^3
#
#
#
# Elastic Constant Matrix: (Units=GPa)
#
#
# Indices 1 2 3 4 5 6 
#
# 1 99.9858 15.5415 33.2188 22.1536 11.2748 7.4901
# 2 15.5415 47.1966 4.8532 -1.1399 -3.8197 -0.7483
# 3 33.2188 4.8532 90.9577 21.1349 9.5415 -0.0516
# 4 22.1536 -1.1399 21.1349 31.4719 4.8784 8.7803
# 5 11.2748 -3.8197 9.5415 4.8784 38.4045 -0.0685
# 6 7.4901 -0.7483 -0.0516 8.7803 -0.0685 30.6395
#
#
#
# Elastic Compliance Matrix: (Units=1/GPa)
#
#
# Indices 1 2 3 4 5 6 
#
# 1 0.013644 -0.004631 -0.002798 -0.007045 -0.002879 -0.001441
# 2 -0.004631 0.023175 -0.000820 0.003971 0.003365 0.000566
# 3 -0.002798 -0.000820 0.014130 -0.008121 -0.001734 0.003011
# 4 -0.007045 0.003971 -0.008121 0.045689 -0.001343 -0.011291
# 5 -0.002879 0.003365 -0.001734 -0.001343 0.027822 0.001230
# 6 -0.001441 0.000566 0.003011 -0.011291 0.001230 0.036247
#
#
# Mechanical properties :
#
#
# Convention : Reuss Voigt Hill
#
# Bulk Modulus (GPa) = 29.02746 38.37413 33.70079
# Shear Modulus (GPa) = 26.49853 32.40495 29.45174
#
# Velocity S-wave (km/s) = 3.44944 3.81455 3.63658
# Velocity P-wave (km/s) = 5.37578 6.05245 5.72412
#
# Compressibility (1/GPa) = 0.03445014
#
# Stress axis : x y z
#
# Youngs Moduli (GPa) = 73.29036 43.15065 70.77042
#
# Poissons Ratio (x) = 0.19984 0.19800
# Poissons Ratio (y) = 0.33943 0.05806
# Poissons Ratio (z) = 0.20505 0.03540
#
# Static dielectric constant tensor:
#      x y z
#    x 3.901590 0.046130 0.189700 
#    y 0.046130 3.987970 0.087570 
#    z 0.189700 0.087570 4.527510 
# 
# 
# High freq. dielectric constant tensor:
#      x y z
#    x 1.875810 0.008860 0.014160 
#    y 0.008860 1.868030 0.001880 
#    z 0.014160 0.001880 1.888470 
# 
# From -- ./inp_files/381959.got.cif
#   From: 2010.06.25/outbox.cif.g09.slc.cpg/sg2_191_cif.got.tgz:381959.got - 2010.06.27 13:26:56.
