data_PCOD8043514
_publ_section_title
;
Structure prediction by ZEFSAII (Michael W. Deem and Ramdas Pophale) SiO2 
 PCOD8043514
Probable space group: P -1
;
_chemical_formula_sum "Si O2"
_cell_formula_units_Z 16
_cell_length_a 20.112162
_cell_length_b 11.398304
_cell_length_c 11.328532
_cell_angle_alpha 114.418522
_cell_angle_beta 45.038754
_cell_angle_gamma 150.206570
_cell_volume 751.236659
_symmetry_space_group_name_H-M "P -1"
_symmetry_group_IT_number 2
_symmetry_cell_setting 'triclinic'
loop_
_space_group_symop_operation_xyz
x,y,z
-x,-y,-z
loop_
_atom_site_type_symbol
_atom_site_label
_atom_site_fract_x
_atom_site_fract_y
_atom_site_fract_z
Si Si1 0.394461 0.165117 0.180660
Si Si2 0.435260 0.795918 0.200525
Si Si3 0.458587 0.781750 0.748197
Si Si4 0.500661 0.353819 0.788140
Si Si5 0.000839 0.854645 0.893070
Si Si6 0.996478 0.158943 0.391404
Si Si7 0.250721 0.245754 0.147284
Si Si8 0.568473 0.699366 0.410242
O O1 0.415096 0.131040 0.269823
O O2 0.384329 0.034410 0.045119
O O3 0.600881 0.499303 0.029219
O O4 0.185598 0.996133 0.369742
O O5 0.463994 0.753175 0.270626
O O6 0.209675 0.494736 0.298424
O O7 0.461583 0.976668 0.270374
O O8 0.506725 0.762677 0.561935
O O9 0.212097 0.480109 0.953679
O O10 0.662591 0.637450 0.779989
O O11 0.543980 0.444792 0.636090
O O12 0.267231 0.116912 0.028792
O O13 0.055136 0.904426 0.708233
O O14 0.182893 0.004358 0.798423
O O15 0.000000 0.000000 0.000000
O O16 0.025192 0.040591 0.339765
O O17 0.500000 0.500000 0.500000
#
# Coordination Sequence:
#
# PCOD8043514 Si02
#       8
#     2   2   2   2   2   2   2   2
#     4  10  19  36  63  94 123 155 211 257 312 358
#     4  10  24  42  62  86 130 169 205 255 309 367
#     4  12  23  40  62  94 127 167 203 257 309 368
#     4   9  20  41  60  86 127 170 201 252 310 367
#     4  12  23  37  61  96 126 155 203 259 313 365
#     4  10  20  36  63  97 121 156 210 259 311 362
#     4   9  18  38  63  88 127 158 204 264 308 354
#     4  12  24  40  65  92 123 161 208 258 312 371
#
# _framework density 21.298217000000001
#
# number of rings (size 3 to 8) (size 9 to 14) (size 15 to 20)
#    0.000    1.750    5.000    1.875    0.000    2.000 
#    0.000   15.625    0.000    0.000    0.000    0.000 
#    0.000    0.000    0.000    0.000    0.000    0.000 
#
# Total GULP energy -198247.601981 kJ/mol
# GULP energy per Si atom -12390.475124 kJ/mol
# Density = 2.124974 g / cm^3
# Si number density = 21.298217 Si / 1000 Ang^3
#
#
#
# Elastic Constant Matrix: (Units=GPa)
#
#
# Indices 1 2 3 4 5 6 
#
# 1 131.7582 37.8742 40.7294 11.8900 6.7174 9.9007
# 2 37.8742 70.4855 23.5099 16.0265 2.8491 -9.9588
# 3 40.7294 23.5099 120.9110 15.6881 -13.1968 4.5141
# 4 11.8900 16.0265 15.6881 34.0482 6.9850 -0.2797
# 5 6.7174 2.8491 -13.1968 6.9850 37.4898 8.4554
# 6 9.9007 -9.9588 4.5141 -0.2797 8.4554 26.6608
#
#
#
# Elastic Compliance Matrix: (Units=1/GPa)
#
#
# Indices 1 2 3 4 5 6 
#
# 1 0.010322 -0.005488 -0.002383 0.000275 -0.001171 -0.005106
# 2 -0.005488 0.020937 -0.002098 -0.006339 -0.002643 0.010986
# 3 -0.002383 -0.002098 0.010862 -0.004463 0.006079 -0.003713
# 4 0.000275 -0.006339 -0.004463 0.035991 -0.008124 0.001240
# 5 -0.001171 -0.002643 0.006079 -0.008124 0.033511 -0.012295
# 6 -0.005106 0.010986 -0.003713 0.001240 -0.012295 0.048049
#
#
# Mechanical properties :
#
#
# Convention : Reuss Voigt Hill
#
# Bulk Modulus (GPa) = 45.08071 58.59797 51.83934
# Shear Modulus (GPa) = 26.73723 34.37584 30.55654
#
# Velocity S-wave (km/s) = 3.54697 4.02185 3.79185
# Velocity P-wave (km/s) = 6.16336 7.00998 6.60026
#
# Compressibility (1/GPa) = 0.02218244
#
# Stress axis : x y z
#
# Youngs Moduli (GPa) = 96.87617 47.76336 92.06120
#
# Poissons Ratio (x) = 0.26214 0.21937
# Poissons Ratio (y) = 0.53169 0.19317
# Poissons Ratio (z) = 0.23084 0.10022
#
# Static dielectric constant tensor:
#      x y z
#    x 4.170610 0.084310 -0.345650 
#    y 0.084310 3.557170 0.208390 
#    z -0.345650 0.208390 4.269530 
# 
# 
# High freq. dielectric constant tensor:
#      x y z
#    x 1.842730 0.013310 -0.013920 
#    y 0.013310 1.791000 0.017880 
#    z -0.013920 0.017880 1.852680 
# 
# From -- ./inp_files/471206.got.cif
#   From: 2010.06.25/outbox.cif.g09.slc.cpg/sg2_236_cif.got.tgz:471206.got - 2010.06.27 13:26:56.
