data_PCOD8043657
_publ_section_title
;
Structure prediction by ZEFSAII (Michael W. Deem and Ramdas Pophale) SiO2 
 PCOD8043657
Probable space group: P -1
;
_chemical_formula_sum "Si O2"
_cell_formula_units_Z 16
_cell_length_a 9.391153
_cell_length_b 9.467968
_cell_length_c 22.686784
_cell_angle_alpha 46.097439
_cell_angle_beta 53.277776
_cell_angle_gamma 90.657665
_cell_volume 786.375144
_symmetry_space_group_name_H-M "P -1"
_symmetry_group_IT_number 2
_symmetry_cell_setting 'triclinic'
loop_
_space_group_symop_operation_xyz
x,y,z
-x,-y,-z
loop_
_atom_site_type_symbol
_atom_site_label
_atom_site_fract_x
_atom_site_fract_y
_atom_site_fract_z
Si Si1 0.124238 0.286345 0.115663
Si Si2 0.187428 0.703223 0.286409
Si Si3 0.956431 0.808492 0.217107
Si Si4 0.481521 0.294858 0.411153
Si Si5 0.697530 0.863315 0.784536
Si Si6 0.680309 0.086933 0.983197
Si Si7 0.038830 0.156476 0.503786
Si Si8 0.851442 0.292957 0.270197
O O1 0.203140 0.224004 0.171041
O O2 0.906619 0.267624 0.196737
O O3 0.380864 0.600149 0.934547
O O4 0.982680 0.042564 0.171384
O O5 0.017023 0.369986 0.434699
O O6 0.046368 0.710900 0.267524
O O7 0.202199 0.844849 0.300956
O O8 0.487107 0.881950 0.144551
O O9 0.655977 0.525518 0.354360
O O10 0.140205 0.950424 0.071680
O O11 0.328708 0.346785 0.402563
O O12 0.657618 0.322564 0.311131
O O13 0.265391 0.974205 0.584010
O O14 0.812701 0.917822 0.675573
O O15 0.864933 0.421454 0.855834
O O16 0.500000 0.000000 0.000000
O O17 0.000000 0.000000 0.500000
#
# Coordination Sequence:
#
# PCOD8043657 Si02
#       8
#     2   2   2   2   2   2   2   2
#     4  10  19  36  69  95 116 152 212 263 293 351
#     4  10  21  39  62  90 123 163 196 254 308 357
#     4   9  21  36  63  96 118 156 204 255 305 352
#     4  10  23  40  59  89 127 160 197 257 301 368
#     4  10  21  39  61  94 124 156 203 258 303 351
#     4   9  18  32  60  89 117 153 200 249 294 348
#     4  12  27  39  61  90 126 166 202 243 307 377
#     4  10  19  37  63  87 120 152 204 254 302 340
#
# _framework density 20.346525
#
# number of rings (size 3 to 8) (size 9 to 14) (size 15 to 20)
#    0.000    2.000    2.500    0.375   10.500    0.500 
#    0.000    3.750    0.000    1.500    0.000    0.000 
#    0.000    0.000    0.000    0.000    0.000    0.000 
#
# Total GULP energy -198355.413979 kJ/mol
# GULP energy per Si atom -12397.213374 kJ/mol
# Density = 2.030022 g / cm^3
# Si number density = 20.346525 Si / 1000 Ang^3
#
#
#
# Elastic Constant Matrix: (Units=GPa)
#
#
# Indices 1 2 3 4 5 6 
#
# 1 52.4231 31.3805 26.1285 -2.6080 -8.4100 -0.3676
# 2 31.3805 170.8367 62.1309 3.1309 -5.2017 -3.5808
# 3 26.1285 62.1309 108.9924 2.8520 -8.5875 2.6271
# 4 -2.6080 3.1309 2.8520 41.0760 -2.3689 -2.5322
# 5 -8.4100 -5.2017 -8.5875 -2.3689 18.7295 0.4394
# 6 -0.3676 -3.5808 2.6271 -2.5322 0.4394 22.5745
#
#
#
# Elastic Compliance Matrix: (Units=1/GPa)
#
#
# Indices 1 2 3 4 5 6 
#
# 1 0.024097 -0.002925 -0.003500 0.002526 0.008712 0.000450
# 2 -0.002925 0.007804 -0.003853 -0.000472 -0.001010 0.001605
# 3 -0.003500 -0.003853 0.012526 -0.000762 0.003059 -0.002271
# 4 0.002526 -0.000472 -0.000762 0.024982 0.003748 0.002784
# 5 0.008712 -0.001010 0.003059 0.003748 0.058926 -0.001101
# 6 0.000450 0.001605 -0.002271 0.002784 -0.001101 0.045158
#
#
# Mechanical properties :
#
#
# Convention : Reuss Voigt Hill
#
# Bulk Modulus (GPa) = 41.89202 63.50357 52.69779
# Shear Modulus (GPa) = 24.75173 30.65014 27.70094
#
# Velocity S-wave (km/s) = 3.49163 3.88546 3.69380
# Velocity P-wave (km/s) = 6.07366 7.16992 6.64444
#
# Compressibility (1/GPa) = 0.02387090
#
# Stress axis : x y z
#
# Youngs Moduli (GPa) = 41.49823 128.14346 79.83314
#
# Poissons Ratio (x) = 0.37484 0.27940
# Poissons Ratio (y) = 0.12139 0.30761
# Poissons Ratio (z) = 0.14524 0.49376
#
# Static dielectric constant tensor:
#      x y z
#    x 3.311920 -0.232580 -0.271250 
#    y -0.232580 4.238090 0.152420 
#    z -0.271250 0.152420 3.931760 
# 
# 
# High freq. dielectric constant tensor:
#      x y z
#    x 1.746720 -0.010320 -0.019270 
#    y -0.010320 1.814480 0.001870 
#    z -0.019270 0.001870 1.800450 
# 
# From -- ./inp_files/271487.got.cif
#   From: 2010.06.25/outbox.cif.g09.slc.cpg/sg2_136_cif.got.tgz:271487.got - 2010.06.27 13:26:56.
