data_PCOD8043858
_publ_section_title
;
Structure prediction by ZEFSAII (Michael W. Deem and Ramdas Pophale) SiO2 
 PCOD8043858
Probable space group: P -1
;
_chemical_formula_sum "Si O2"
_cell_formula_units_Z 16
_cell_length_a 21.362003
_cell_length_b 21.822675
_cell_length_c 9.244434
_cell_angle_alpha 37.657957
_cell_angle_beta 134.994197
_cell_angle_gamma 161.755764
_cell_volume 801.304209
_symmetry_space_group_name_H-M "P -1"
_symmetry_group_IT_number 2
_symmetry_cell_setting 'triclinic'
loop_
_space_group_symop_operation_xyz
x,y,z
-x,-y,-z
loop_
_atom_site_type_symbol
_atom_site_label
_atom_site_fract_x
_atom_site_fract_y
_atom_site_fract_z
Si Si1 0.955511 0.342954 0.888346
Si Si2 0.269221 0.480288 0.823465
Si Si3 0.162546 0.385312 0.337061
Si Si4 0.973425 0.584533 0.463502
Si Si5 0.020880 0.133169 0.845376
Si Si6 0.313436 0.081673 0.157195
Si Si7 0.621567 0.854712 0.181527
Si Si8 0.007168 0.121763 0.320949
O O1 0.944353 0.444122 0.745148
O O2 0.056902 0.450078 0.695240
O O3 0.089541 0.413438 0.087616
O O4 0.726406 0.065676 0.009821
O O5 0.204623 0.522349 0.573221
O O6 0.507316 0.731489 0.780844
O O7 0.229409 0.355116 0.868540
O O8 0.112762 0.297574 0.041868
O O9 0.400980 0.629306 0.319874
O O10 0.026111 0.220598 0.562060
O O11 0.138839 0.267949 0.408076
O O12 0.189940 0.850054 0.380969
O O13 0.833038 0.973422 0.942077
O O14 0.000000 0.000000 0.000000
O O15 0.419026 0.200565 0.952018
O O16 0.775928 0.923008 0.350321
O O17 0.000000 0.000000 0.500000
#
# Coordination Sequence:
#
# PCOD8043858 Si02
#       8
#     2   2   2   2   2   2   2   2
#     4   9  18  34  59  89 123 145 191 240 294 334
#     4  11  20  39  58  83 115 155 195 232 289 347
#     4  11  22  37  59  89 117 149 195 247 286 336
#     4   9  17  35  60  90 116 152 189 242 284 349
#     4  11  25  41  57  83 122 155 191 242 295 347
#     4  10  20  38  62  81 117 157 194 234 289 350
#     4  10  19  37  60  87 117 149 195 243 284 339
#     4  11  21  35  58  83 112 148 195 242 285 338
#
# _framework density 19.967447
#
# number of rings (size 3 to 8) (size 9 to 14) (size 15 to 20)
#    0.000    1.750    6.250    0.750    0.000    5.000 
#    0.000    6.250    0.000    4.500    0.000    0.000 
#    0.000    0.000    0.000    0.000    0.000    0.000 
#
# Total GULP energy -198267.039009 kJ/mol
# GULP energy per Si atom -12391.689938 kJ/mol
# Density = 1.992200 g / cm^3
# Si number density = 19.967447 Si / 1000 Ang^3
#
#
#
# Elastic Constant Matrix: (Units=GPa)
#
#
# Indices 1 2 3 4 5 6 
#
# 1 71.7511 31.6361 27.2665 -9.8555 23.3814 -8.5117
# 2 31.6361 132.4230 30.2720 -6.3302 13.7845 -4.2951
# 3 27.2665 30.2720 66.6108 1.7135 16.5081 6.1845
# 4 -9.8555 -6.3302 1.7135 17.1916 -6.5844 -0.0807
# 5 23.3814 13.7845 16.5081 -6.5844 36.2892 1.0337
# 6 -8.5117 -4.2951 6.1845 -0.0807 1.0337 27.1049
#
#
#
# Elastic Compliance Matrix: (Units=1/GPa)
#
#
# Indices 1 2 3 4 5 6 
#
# 1 0.023021 -0.002133 -0.007243 0.009640 -0.009233 0.008925
# 2 -0.002133 0.009015 -0.003402 0.002401 -0.000111 0.001546
# 3 -0.007243 -0.003402 0.021852 -0.009737 -0.005532 -0.007617
# 4 0.009640 0.002401 -0.009737 0.069299 0.009725 0.005465
# 5 -0.009233 -0.000111 -0.005532 0.009725 0.037916 -0.003072
# 6 0.008925 0.001546 -0.007617 0.005465 -0.003072 0.041813
#
#
# Mechanical properties :
#
#
# Convention : Reuss Voigt Hill
#
# Bulk Modulus (GPa) = 35.29328 49.90381 42.59854
# Shear Modulus (GPa) = 21.01587 28.22448 24.62017
#
# Velocity S-wave (km/s) = 3.24776 3.76377 3.51524
# Velocity P-wave (km/s) = 5.63717 6.62833 6.15274
#
# Compressibility (1/GPa) = 0.02833400
#
# Stress axis : x y z
#
# Youngs Moduli (GPa) = 43.43795 110.92343 45.76262
#
# Poissons Ratio (x) = 0.23657 0.33144
# Poissons Ratio (y) = 0.09264 0.15568
# Poissons Ratio (z) = 0.31461 0.37734
#
# Static dielectric constant tensor:
#      x y z
#    x 3.594030 -0.263150 0.125770 
#    y -0.263150 3.663010 0.002800 
#    z 0.125770 0.002800 3.538520 
# 
# 
# High freq. dielectric constant tensor:
#      x y z
#    x 1.770260 -0.017200 0.011340 
#    y -0.017200 1.783300 -0.000830 
#    z 0.011340 -0.000830 1.755140 
# 
# From -- ./inp_files/215199.got.cif
#   From: 2010.06.25/outbox.cif.g09.slc.cpg/sg2_108_cif.got.tgz:215199.got - 2010.06.27 13:26:56.
