data_PCOD8043935
_publ_section_title
;
Structure prediction by ZEFSAII (Michael W. Deem and Ramdas Pophale) SiO2 
 PCOD8043935
Probable space group: P -1
;
_chemical_formula_sum "Si O2"
_cell_formula_units_Z 16
_cell_length_a 15.626828
_cell_length_b 17.332613
_cell_length_c 5.104233
_cell_angle_alpha 72.739850
_cell_angle_beta 86.465100
_cell_angle_gamma 137.784356
_cell_volume 797.240858
_symmetry_space_group_name_H-M "P -1"
_symmetry_group_IT_number 2
_symmetry_cell_setting 'triclinic'
loop_
_space_group_symop_operation_xyz
x,y,z
-x,-y,-z
loop_
_atom_site_type_symbol
_atom_site_label
_atom_site_fract_x
_atom_site_fract_y
_atom_site_fract_z
Si Si1 0.782781 0.628225 0.742805
Si Si2 0.666947 0.121979 0.903097
Si Si3 0.056706 0.906456 0.539290
Si Si4 0.843119 0.412096 0.663415
Si Si5 0.340264 0.395602 0.694573
Si Si6 0.124244 0.466027 0.957184
Si Si7 0.187059 0.837549 0.672482
Si Si8 0.880649 0.888921 0.937337
O O1 0.709264 0.571384 0.529724
O O2 0.788245 0.544385 0.950318
O O3 0.943350 0.779764 0.491302
O O4 0.689894 0.609769 0.988568
O O5 0.725225 0.256252 0.786983
O O6 0.745245 0.131917 0.649815
O O7 0.700048 0.099078 0.187820
O O8 0.500000 0.000000 0.000000
O O9 0.157907 0.912233 0.627035
O O10 0.945055 0.860235 0.807574
O O11 0.152593 0.052868 0.271086
O O12 0.839002 0.435923 0.942274
O O13 0.000000 0.500000 0.500000
O O14 0.816760 0.464966 0.408866
O O15 0.500000 0.500000 0.500000
O O16 0.263858 0.253242 0.768666
O O17 0.956468 0.321989 0.108434
O O18 0.000000 0.000000 0.000000
#
# Coordination Sequence:
#
# PCOD8043935 Si02
#       8
#     2   2   2   2   2   2   2   2
#     4  10  21  38  59  89 120 151 197 248 294 339
#     4  12  26  42  61  87 127 163 197 242 307 367
#     4   9  21  35  62  92 116 152 201 253 292 343
#     4  12  21  39  64  91 115 152 202 243 296 352
#     4  11  22  38  59  85 122 163 193 233 297 358
#     4  11  21  37  66  94 115 147 206 260 291 341
#     4  11  22  40  64  91 119 158 203 250 301 354
#     4  10  19  37  61  88 119 152 199 246 291 343
#
# _framework density 20.069217999999999
#
# number of rings (size 3 to 8) (size 9 to 14) (size 15 to 20)
#    0.000    1.250    3.750    2.625    1.750    2.000 
#    0.000    3.750    0.000    0.000    0.000    0.000 
#    0.000    0.000    0.000    0.000    0.000    0.000 
#
# Total GULP energy -198269.426099 kJ/mol
# GULP energy per Si atom -12391.839131 kJ/mol
# Density = 2.002354 g / cm^3
# Si number density = 20.069218 Si / 1000 Ang^3
#
#
#
# Elastic Constant Matrix: (Units=GPa)
#
#
# Indices 1 2 3 4 5 6 
#
# 1 91.1509 41.3595 29.7064 -16.6838 23.1312 4.6334
# 2 41.3595 101.5295 34.7908 -12.3229 11.2438 11.2047
# 3 29.7064 34.7908 80.2169 -1.5374 11.0512 7.5040
# 4 -16.6838 -12.3229 -1.5374 41.9274 4.3855 -0.3495
# 5 23.1312 11.2438 11.0512 4.3855 21.8584 -0.5570
# 6 4.6334 11.2047 7.5040 -0.3495 -0.5570 30.6584
#
#
#
# Elastic Compliance Matrix: (Units=1/GPa)
#
#
# Indices 1 2 3 4 5 6 
#
# 1 0.020462 -0.003923 -0.002829 0.008971 -0.020036 -0.001228
# 2 -0.003923 0.013612 -0.003882 0.002422 -0.001461 -0.003431
# 3 -0.002829 -0.003882 0.015741 -0.001421 -0.002735 -0.002072
# 4 0.008971 0.002422 -0.001421 0.029742 -0.016035 -0.001845
# 5 -0.020036 -0.001461 -0.002735 -0.016035 0.072440 0.005365
# 6 -0.001228 -0.003431 -0.002072 -0.001845 0.005365 0.034641
#
#
# Mechanical properties :
#
#
# Convention : Reuss Voigt Hill
#
# Bulk Modulus (GPa) = 35.03031 53.84565 44.43798
# Shear Modulus (GPa) = 22.99679 30.02487 26.51083
#
# Velocity S-wave (km/s) = 3.38875 3.87210 3.63846
# Velocity P-wave (km/s) = 5.72749 6.84683 6.31202
#
# Compressibility (1/GPa) = 0.02854671
#
# Stress axis : x y z
#
# Youngs Moduli (GPa) = 48.87174 73.46437 63.52775
#
# Poissons Ratio (x) = 0.28818 0.17972
# Poissons Ratio (y) = 0.19171 0.24664
# Poissons Ratio (z) = 0.13826 0.28521
#
# Static dielectric constant tensor:
#      x y z
#    x 3.348360 0.055300 -0.052150 
#    y 0.055300 3.555840 0.397940 
#    z -0.052150 0.397940 3.884300 
# 
# 
# High freq. dielectric constant tensor:
#      x y z
#    x 1.774270 -0.009390 0.017350 
#    y -0.009390 1.779670 0.010160 
#    z 0.017350 0.010160 1.787330 
# 
# From -- ./inp_files/83774.got.cif
#   From: 2010.06.25/outbox.cif.g09.slc.cpg/sg2_42_cif.got.tgz:83774.got - 2010.06.27 13:26:56.
