data_PCOD8043702
_publ_section_title
;
Structure prediction by ZEFSAII (Michael W. Deem and Ramdas Pophale) SiO2 
 PCOD8043702
Probable space group: P -1
;
_chemical_formula_sum "Si O2"
_cell_formula_units_Z 16
_cell_length_a 20.297222
_cell_length_b 12.825646
_cell_length_c 20.837759
_cell_angle_alpha 22.203677
_cell_angle_beta 20.509638
_cell_angle_gamma 31.389844
_cell_volume 714.479264
_symmetry_space_group_name_H-M "P -1"
_symmetry_group_IT_number 2
_symmetry_cell_setting 'triclinic'
loop_
_space_group_symop_operation_xyz
x,y,z
-x,-y,-z
loop_
_atom_site_type_symbol
_atom_site_label
_atom_site_fract_x
_atom_site_fract_y
_atom_site_fract_z
Si Si1 0.131683 0.074225 0.952301
Si Si2 0.346760 0.708222 0.879994
Si Si3 0.521693 0.742358 0.393574
Si Si4 0.720333 0.985261 0.355211
Si Si5 0.955139 0.001974 0.613988
Si Si6 0.641591 0.933934 0.743091
Si Si7 0.754449 0.504852 0.499181
Si Si8 0.567362 0.704799 0.173910
O O1 0.185167 0.800546 0.021847
O O2 0.258616 0.138714 0.863076
O O3 0.149795 0.338740 0.738563
O O4 0.910543 0.018507 0.205157
O O5 0.533983 0.921563 0.605677
O O6 0.290576 0.749691 0.832791
O O7 0.383477 0.394124 0.037454
O O8 0.500000 0.500000 0.500000
O O9 0.438637 0.606186 0.613214
O O10 0.413160 0.993690 0.321516
O O11 0.705072 0.713354 0.479531
O O12 0.900985 0.307390 0.507630
O O13 0.142019 0.938668 0.517657
O O14 0.000000 0.000000 0.500000
O O15 0.784585 0.773249 0.917378
O O16 0.502496 0.070730 0.841023
O O17 0.565944 0.311276 0.758456
#
# Coordination Sequence:
#
# PCOD8043702 Si02
#       8
#     2   2   2   2   2   2   2   2
#     4  10  20  40  59  81 117 157 196 237 289 355
#     4  10  21  35  58  92 117 154 193 243 298 344
#     4   9  22  44  63  81 116 165 198 243 294 340
#     4  10  20  36  59  85 123 155 191 237 298 362
#     4  12  23  33  59  95 119 154 193 242 305 355
#     4  11  22  40  60  86 123 157 203 248 286 346
#     4  10  19  37  56  85 126 152 185 245 300 347
#     4  10  22  40  57  86 126 157 195 243 296 351
#
# _framework density 22.393930000000001
#
# number of rings (size 3 to 8) (size 9 to 14) (size 15 to 20)
#    0.000    1.750    1.250    4.125    1.750    1.000 
#    4.500    3.125    0.000    0.000    0.000    0.000 
#    0.000    0.000    0.000    0.000    0.000    0.000 
#
# Total GULP energy -198375.017216 kJ/mol
# GULP energy per Si atom -12398.438576 kJ/mol
# Density = 2.234296 g / cm^3
# Si number density = 22.393930 Si / 1000 Ang^3
#
#
#
# Elastic Constant Matrix: (Units=GPa)
#
#
# Indices 1 2 3 4 5 6 
#
# 1 59.3418 25.7825 35.4892 7.6537 -14.4217 -33.3463
# 2 25.7825 91.0954 51.4828 -0.8489 4.2715 -30.4796
# 3 35.4892 51.4828 121.5811 21.3439 -16.4215 -21.4474
# 4 7.6537 -0.8489 21.3439 50.5843 -8.8995 -5.4095
# 5 -14.4217 4.2715 -16.4215 -8.8995 32.5701 5.1982
# 6 -33.3463 -30.4796 -21.4474 -5.4095 5.1982 33.2324
#
#
#
# Elastic Compliance Matrix: (Units=1/GPa)
#
#
# Indices 1 2 3 4 5 6 
#
# 1 0.046788 0.006028 -0.007133 0.002728 0.009604 0.046815
# 2 0.006028 0.022224 -0.008936 0.004380 -0.007144 0.022495
# 3 -0.007133 -0.008936 0.014296 -0.005037 0.005081 -0.007742
# 4 0.002728 0.004380 -0.005037 0.022847 0.003265 0.006712
# 5 0.009604 -0.007144 0.005081 0.003265 0.039225 0.000759
# 6 0.046815 0.022495 -0.007742 0.006712 0.000759 0.093676
#
#
# Mechanical properties :
#
#
# Convention : Reuss Voigt Hill
#
# Bulk Modulus (GPa) = 15.81637 55.28081 35.54859
# Shear Modulus (GPa) = 17.84357 33.89495 25.86926
#
# Velocity S-wave (km/s) = 2.82583 3.89469 3.40250
# Velocity P-wave (km/s) = 4.21014 6.70552 5.59863
#
# Compressibility (1/GPa) = 0.06322563
#
# Stress axis : x y z
#
# Youngs Moduli (GPa) = 21.37318 44.99624 69.95112
#
# Poissons Ratio (x) = -0.27124 0.49897
# Poissons Ratio (y) = -0.12884 0.62507
# Poissons Ratio (z) = 0.15246 0.40208
#
# Static dielectric constant tensor:
#      x y z
#    x 4.078880 -0.400430 -0.077380 
#    y -0.400430 4.333060 0.056900 
#    z -0.077380 0.056900 4.195440 
# 
# 
# High freq. dielectric constant tensor:
#      x y z
#    x 1.845800 -0.009530 -0.018130 
#    y -0.009530 1.892260 -0.002630 
#    z -0.018130 -0.002630 1.887770 
# 
# From -- ./inp_files/613780.got.cif
#   From: 2010.06.25/outbox.cif.g09.slc.cpg/sg2_307_cif.got.tgz:613780.got - 2010.06.27 13:26:56.
