data_PCOD8043798
_publ_section_title
;
Structure prediction by ZEFSAII (Michael W. Deem and Ramdas Pophale) SiO2 
 PCOD8043798
Probable space group: P -1
;
_chemical_formula_sum "Si O2"
_cell_formula_units_Z 14
_cell_length_a 11.565942
_cell_length_b 7.777203
_cell_length_c 11.450843
_cell_angle_alpha 55.310660
_cell_angle_beta 61.879080
_cell_angle_gamma 57.907943
_cell_volume 696.085241
_symmetry_space_group_name_H-M "P -1"
_symmetry_group_IT_number 2
_symmetry_cell_setting 'triclinic'
loop_
_space_group_symop_operation_xyz
x,y,z
-x,-y,-z
loop_
_atom_site_type_symbol
_atom_site_label
_atom_site_fract_x
_atom_site_fract_y
_atom_site_fract_z
Si Si1 0.322122 0.613697 0.659711
Si Si2 0.111440 0.857984 0.342133
Si Si3 0.396973 0.795351 0.329798
Si Si4 0.034282 0.666091 0.677489
Si Si5 0.584279 0.738418 0.848267
Si Si6 0.668647 0.322591 0.109983
Si Si7 0.857768 0.377239 0.817363
O O1 0.358693 0.782404 0.489544
O O2 0.453022 0.385668 0.701725
O O3 0.191665 0.556585 0.694823
O O4 0.284491 0.731586 0.757812
O O5 0.279203 0.753585 0.322168
O O6 0.031003 0.759409 0.511830
O O7 0.077093 0.786470 0.258611
O O8 0.056040 0.127945 0.275641
O O9 0.398180 0.036793 0.205421
O O10 0.971826 0.469461 0.782155
O O11 0.437874 0.803509 0.822588
O O12 0.719233 0.591850 0.761438
O O13 0.584049 0.590254 0.021562
O O14 0.809635 0.239362 0.994388
#
# Coordination Sequence:
#
# PCOD8043798 Si02
#       7
#     2   2   2   2   2   2   2
#     4  10  22  38  56  87 128 144 190 251 294 341
#     4  10  19  37  63  83 114 153 205 235 278 352
#     4  10  20  38  62  87 111 162 194 239 295 336
#     4  10  21  37  57  88 116 156 190 240 295 344
#     4   9  19  37  60  88 111 152 207 230 284 348
#     4   9  20  38  55  87 121 148 194 249 282 346
#     4  10  19  37  59  86 114 151 198 242 278 344
#
# _framework density 20.112480999999999
#
# number of rings (size 3 to 8) (size 9 to 14) (size 15 to 20)
#    0.857    1.429    1.429    1.286    0.000    1.714 
#    5.143    0.714    0.000    0.000    0.000    0.000 
#    0.000    0.000    0.000    0.000    0.000    0.000 
#
# Total GULP energy -173549.311640 kJ/mol
# GULP energy per Si atom -12396.379403 kJ/mol
# Density = 2.006670 g / cm^3
# Si number density = 20.112481 Si / 1000 Ang^3
#
#
#
# Elastic Constant Matrix: (Units=GPa)
#
#
# Indices 1 2 3 4 5 6 
#
# 1 97.2570 27.3902 23.3876 15.5973 -16.4875 4.0401
# 2 27.3902 59.8112 4.6917 9.2828 -3.9803 -0.2909
# 3 23.3876 4.6917 41.2031 13.6127 -1.6045 7.7963
# 4 15.5973 9.2828 13.6127 27.1199 4.1854 -0.7726
# 5 -16.4875 -3.9803 -1.6045 4.1854 30.3103 3.5388
# 6 4.0401 -0.2909 7.7963 -0.7726 3.5388 32.0125
#
#
#
# Elastic Compliance Matrix: (Units=1/GPa)
#
#
# Indices 1 2 3 4 5 6 
#
# 1 0.015533 -0.005240 -0.005717 -0.005619 0.008431 -0.001683
# 2 -0.005240 0.019749 0.002396 -0.005033 0.000556 0.000074
# 3 -0.005717 0.002396 0.033822 -0.015050 0.002017 -0.008080
# 4 -0.005619 -0.005033 -0.015050 0.051500 -0.012437 0.006947
# 5 0.008431 0.000556 0.002017 -0.012437 0.040210 -0.006295
# 6 -0.001683 0.000074 -0.008080 0.006947 -0.006295 0.034282
#
#
# Mechanical properties :
#
#
# Convention : Reuss Voigt Hill
#
# Bulk Modulus (GPa) = 19.23721 34.35669 26.79695
# Shear Modulus (GPa) = 21.78221 27.40865 24.59543
#
# Velocity S-wave (km/s) = 3.29450 3.69557 3.50078
# Velocity P-wave (km/s) = 4.90481 5.94382 5.44914
#
# Compressibility (1/GPa) = 0.05198259
#
# Stress axis : x y z
#
# Youngs Moduli (GPa) = 64.38016 50.63465 29.56665
#
# Poissons Ratio (x) = 0.26531 0.16902
# Poissons Ratio (y) = 0.33733 -0.07083
# Poissons Ratio (z) = 0.36804 -0.12130
#
# Static dielectric constant tensor:
#      x y z
#    x 3.582150 -0.112310 -0.145440 
#    y -0.112310 3.325440 0.140580 
#    z -0.145440 0.140580 3.484240 
# 
# 
# High freq. dielectric constant tensor:
#      x y z
#    x 1.790300 -0.003900 -0.014240 
#    y -0.003900 1.760190 0.011800 
#    z -0.014240 0.011800 1.770230 
# 
# From -- ./inp_files/411600.got.cif
#   From: 2010.06.25/outbox.cif.g09.slc.cpg/sg2_206_cif.got.tgz:411600.got - 2010.06.27 13:26:56.
