data_PCOD8043438
_publ_section_title
;
Structure prediction by ZEFSAII (Michael W. Deem and Ramdas Pophale) SiO2 
 PCOD8043438
Probable space group: P -1
;
_chemical_formula_sum "Si O2"
_cell_formula_units_Z 16
_cell_length_a 16.107649
_cell_length_b 5.137836
_cell_length_c 16.353209
_cell_angle_alpha 74.721308
_cell_angle_beta 38.098355
_cell_angle_gamma 90.897315
_cell_volume 746.839045
_symmetry_space_group_name_H-M "P -1"
_symmetry_group_IT_number 2
_symmetry_cell_setting 'triclinic'
loop_
_space_group_symop_operation_xyz
x,y,z
-x,-y,-z
loop_
_atom_site_type_symbol
_atom_site_label
_atom_site_fract_x
_atom_site_fract_y
_atom_site_fract_z
Si Si1 0.302467 0.963130 0.892646
Si Si2 0.328318 0.885539 0.155359
Si Si3 0.407227 0.187989 0.631721
Si Si4 0.656150 0.971405 0.480641
Si Si5 0.525879 0.444322 0.224193
Si Si6 0.101272 0.793618 0.201845
Si Si7 0.084072 0.859563 0.619525
Si Si8 0.287225 0.269062 0.295847
O O1 0.350909 0.693632 0.859098
O O2 0.296110 0.137918 0.798265
O O3 0.407184 0.206850 0.853142
O O4 0.145226 0.832822 0.068336
O O5 0.248334 0.866286 0.133052
O O6 0.264999 0.568712 0.272394
O O7 0.287758 0.110154 0.223798
O O8 0.500000 0.000000 0.000000
O O9 0.500000 0.500000 0.500000
O O10 0.312687 0.017964 0.641486
O O11 0.527517 0.084251 0.585193
O O12 0.587639 0.652903 0.602872
O O13 0.802011 0.161096 0.398998
O O14 0.441665 0.341165 0.213354
O O15 0.994345 0.463382 0.327942
O O16 0.026444 0.018971 0.262501
O O17 0.157157 0.065140 0.469832
#
# Coordination Sequence:
#
# PCOD8043438 Si02
#       8
#     2   2   2   2   2   2   2   2
#     4  11  22  38  61  90 128 162 204 254 319 367
#     4  12  25  42  66  96 126 156 212 270 317 355
#     4  10  19  37  68  98 121 152 208 268 313 357
#     4   9  21  37  62  97 124 156 202 263 307 366
#     4  10  19  36  62  92 122 155 202 260 320 364
#     4  12  26  43  61  88 129 175 206 253 308 376
#     4  11  26  44  64  89 131 173 213 241 302 382
#     4  11  23  40  66  93 121 167 208 258 307 364
#
# _framework density 21.423624
#
# number of rings (size 3 to 8) (size 9 to 14) (size 15 to 20)
#    0.000    1.250    1.250    4.875    1.750    5.000 
#    0.000    1.250    0.000    0.000    0.000    0.000 
#    0.000    0.000    0.000    0.000    0.000    0.000 
#
# Total GULP energy -198333.099108 kJ/mol
# GULP energy per Si atom -12395.818694 kJ/mol
# Density = 2.137486 g / cm^3
# Si number density = 21.423624 Si / 1000 Ang^3
#
#
#
# Elastic Constant Matrix: (Units=GPa)
#
#
# Indices 1 2 3 4 5 6 
#
# 1 102.0506 17.4315 37.1831 -0.6659 0.4427 6.3145
# 2 17.4315 79.6946 8.3339 -6.9762 1.3912 12.3950
# 3 37.1831 8.3339 92.3050 -0.7688 18.2500 16.1199
# 4 -0.6659 -6.9762 -0.7688 33.4456 -0.0262 1.5784
# 5 0.4427 1.3912 18.2500 -0.0262 29.7529 -6.7947
# 6 6.3145 12.3950 16.1199 1.5784 -6.7947 18.0337
#
#
#
# Elastic Compliance Matrix: (Units=1/GPa)
#
#
# Indices 1 2 3 4 5 6 
#
# 1 0.012446 -0.003132 -0.006929 -0.000852 0.005622 0.006181
# 2 -0.003132 0.015845 0.004121 0.004109 -0.006979 -0.016466
# 3 -0.006929 0.004121 0.022115 0.002533 -0.020034 -0.027944
# 4 -0.000852 0.004109 0.002533 0.031216 -0.003746 -0.008934
# 5 0.005622 -0.006979 -0.020034 -0.003746 0.055745 0.042067
# 6 0.006181 -0.016466 -0.027944 -0.008934 0.042067 0.106216
#
#
# Mechanical properties :
#
#
# Convention : Reuss Voigt Hill
#
# Bulk Modulus (GPa) = 25.95709 44.43860 35.19784
# Shear Modulus (GPa) = 18.63546 30.31986 24.47766
#
# Velocity S-wave (km/s) = 2.95253 3.76607 3.38384
# Velocity P-wave (km/s) = 4.87500 6.30070 5.63314
#
# Compressibility (1/GPa) = 0.03852512
#
# Stress axis : x y z
#
# Youngs Moduli (GPa) = 80.34506 63.11317 45.21795
#
# Poissons Ratio (x) = 0.19766 0.31332
# Poissons Ratio (y) = 0.25163 -0.18633
# Poissons Ratio (z) = 0.55673 -0.26007
#
# Static dielectric constant tensor:
#      x y z
#    x 2.858940 0.360850 -0.805160 
#    y 0.360850 3.803780 0.209330 
#    z -0.805160 0.209330 2.902310 
# 
# 
# High freq. dielectric constant tensor:
#      x y z
#    x 1.831730 0.005900 0.022820 
#    y 0.005900 1.844820 -0.007060 
#    z 0.022820 -0.007060 1.841400 
# 
# From -- ./inp_files/128403.got.cif
#   From: 2010.06.25/outbox.cif.g09.slc.cpg/sg2_65_cif.got.tgz:128403.got - 2010.06.27 13:26:56.
