data_PCOD8043527
_publ_section_title
;
Structure prediction by ZEFSAII (Michael W. Deem and Ramdas Pophale) SiO2 
 PCOD8043527
Probable space group: P -1
;
_chemical_formula_sum "Si O2"
_cell_formula_units_Z 14
_cell_length_a 9.118982
_cell_length_b 8.867029
_cell_length_c 21.635242
_cell_angle_alpha 126.542336
_cell_angle_beta 34.560916
_cell_angle_gamma 130.553926
_cell_volume 746.678047
_symmetry_space_group_name_H-M "P -1"
_symmetry_group_IT_number 2
_symmetry_cell_setting 'triclinic'
loop_
_space_group_symop_operation_xyz
x,y,z
-x,-y,-z
loop_
_atom_site_type_symbol
_atom_site_label
_atom_site_fract_x
_atom_site_fract_y
_atom_site_fract_z
Si Si1 0.159869 0.068418 0.224534
Si Si2 0.753637 0.288842 0.093719
Si Si3 0.610680 0.887165 0.720009
Si Si4 0.377772 0.875302 0.347501
Si Si5 0.148967 0.431646 0.487867
Si Si6 0.379410 0.850905 0.561844
Si Si7 0.101092 0.255203 0.859239
O O1 0.461676 0.230323 0.143508
O O2 0.157429 0.001264 0.281400
O O3 0.932120 0.169909 0.318569
O O4 0.104625 0.881787 0.153216
O O5 0.690339 0.188342 0.159639
O O6 0.876636 0.525619 0.115715
O O7 0.964995 0.208685 0.963483
O O8 0.663278 0.689710 0.630437
O O9 0.615468 0.041271 0.702920
O O10 0.606596 0.773672 0.250654
O O11 0.080655 0.707373 0.419945
O O12 0.427937 0.058392 0.423413
O O13 0.360963 0.626121 0.496731
O O14 0.000000 0.500000 0.500000
O O15 0.500000 0.000000 0.500000
#
# Coordination Sequence:
#
# PCOD8043527 Si02
#       7
#     2   2   2   2   2   2   2
#     4   9  19  35  55  81 108 141 183 224 266 328
#     4   9  20  37  58  84 104 146 189 226 270 321
#     4  10  22  37  54  82 121 142 177 228 284 322
#     4  11  23  37  54  87 112 146 180 230 280 323
#     4  12  20  38  59  79 114 148 182 231 263 329
#     4  11  21  34  59  83 105 148 191 220 270 329
#     4  10  19  36  64  77 107 144 194 225 262 328
#
# _framework density 18.749713
#
# number of rings (size 3 to 8) (size 9 to 14) (size 15 to 20)
#    0.857    0.857    2.857    2.571    2.000    1.143 
#    2.571    0.000    0.000    1.714    0.000    0.000 
#    0.000    0.000    0.000    0.000    0.000    0.000 
#
# Total GULP energy -173518.173441 kJ/mol
# GULP energy per Si atom -12394.155246 kJ/mol
# Density = 1.870704 g / cm^3
# Si number density = 18.749713 Si / 1000 Ang^3
#
#
#
# Elastic Constant Matrix: (Units=GPa)
#
#
# Indices 1 2 3 4 5 6 
#
# 1 59.6973 31.8205 10.7187 6.0241 27.6841 -10.8540
# 2 31.8205 99.7803 30.5126 -1.4535 27.7314 10.5187
# 3 10.7187 30.5126 75.9109 -3.2865 29.6683 8.0043
# 4 6.0241 -1.4535 -3.2865 33.5605 -0.0900 9.9051
# 5 27.6841 27.7314 29.6683 -0.0900 28.0292 -4.0023
# 6 -10.8540 10.5187 8.0043 9.9051 -4.0023 28.8593
#
#
#
# Elastic Compliance Matrix: (Units=1/GPa)
#
#
# Indices 1 2 3 4 5 6 
#
# 1 0.044405 -0.005244 0.015085 -0.009953 -0.053174 0.010470
# 2 -0.005244 0.016656 0.001095 0.005314 -0.014174 -0.012136
# 3 0.015085 0.001095 0.032410 0.004006 -0.052032 -0.012306
# 4 -0.009953 0.005314 0.004006 0.038170 -0.002433 -0.020230
# 5 -0.053174 -0.014174 -0.052032 -0.002433 0.160528 0.022697
# 6 0.010470 -0.012136 -0.012306 -0.020230 0.022697 0.056516
#
#
# Mechanical properties :
#
#
# Convention : Reuss Voigt Hill
#
# Bulk Modulus (GPa) = 8.66989 42.38801 25.52895
# Shear Modulus (GPa) = 13.68886 28.91223 21.30054
#
# Velocity S-wave (km/s) = 2.70494 3.93110 3.37419
# Velocity P-wave (km/s) = 3.79337 6.57732 5.36893
#
# Compressibility (1/GPa) = 0.11534177
#
# Stress axis : x y z
#
# Youngs Moduli (GPa) = 22.51999 60.03939 30.85476
#
# Poissons Ratio (x) = 0.31487 -0.46544
# Poissons Ratio (y) = 0.11810 -0.03379
# Poissons Ratio (z) = -0.33971 -0.06575
#
# Static dielectric constant tensor:
#      x y z
#    x 3.308490 0.227130 0.242890 
#    y 0.227130 3.467530 -0.060100 
#    z 0.242890 -0.060100 3.592840 
# 
# 
# High freq. dielectric constant tensor:
#      x y z
#    x 1.703040 0.016460 0.020560 
#    y 0.016460 1.726480 -0.006060 
#    z 0.020560 -0.006060 1.736620 
# 
# From -- ./inp_files/214890.got.cif
#   From: 2010.06.25/outbox.cif.g09.slc.cpg/sg2_108_cif.got.tgz:214890.got - 2010.06.27 13:26:56.
