data_PCOD8043632
_publ_section_title
;
Structure prediction by ZEFSAII (Michael W. Deem and Ramdas Pophale) SiO2 
 PCOD8043632
Probable space group: P -1
;
_chemical_formula_sum "Si O2"
_cell_formula_units_Z 16
_cell_length_a 12.259425
_cell_length_b 8.554639
_cell_length_c 8.417192
_cell_angle_alpha 70.025292
_cell_angle_beta 108.894851
_cell_angle_gamma 75.651940
_cell_volume 718.346132
_symmetry_space_group_name_H-M "P -1"
_symmetry_group_IT_number 2
_symmetry_cell_setting 'triclinic'
loop_
_space_group_symop_operation_xyz
x,y,z
-x,-y,-z
loop_
_atom_site_type_symbol
_atom_site_label
_atom_site_fract_x
_atom_site_fract_y
_atom_site_fract_z
Si Si1 0.344203 0.822479 0.150544
Si Si2 0.106727 0.950165 0.200942
Si Si3 0.180575 0.427649 0.834998
Si Si4 0.719653 0.496947 0.821429
Si Si5 0.258545 0.131063 0.741914
Si Si6 0.001144 0.330698 0.968123
Si Si7 0.984191 0.185591 0.510209
Si Si8 0.563932 0.857403 0.438464
O O1 0.363033 0.623586 0.161854
O O2 0.468328 0.827590 0.281872
O O3 0.247602 0.871010 0.233607
O O4 0.295233 0.959737 0.933941
O O5 0.086822 0.810569 0.359481
O O6 0.072729 0.156053 0.177702
O O7 0.000000 0.000000 0.000000
O O8 0.268407 0.304760 0.777589
O O9 0.084651 0.325663 0.853326
O O10 0.106761 0.638754 0.688639
O O11 0.266026 0.421401 0.029865
O O12 0.650701 0.663436 0.616398
O O13 0.855577 0.364486 0.853834
O O14 0.350708 0.071579 0.654320
O O15 0.117818 0.193818 0.589964
O O16 0.000000 0.500000 0.000000
O O17 0.000000 0.000000 0.500000
O O18 0.500000 0.000000 0.500000
#
# Coordination Sequence:
#
# PCOD8043632 Si02
#       8
#     2   2   2   2   2   2   2   2
#     4  12  25  47  72 100 141 185 230 285 343 411
#     4  12  22  41  70 103 143 177 219 286 355 409
#     4  11  23  42  69 105 142 181 225 286 349 412
#     4  11  24  46  70 102 139 184 231 282 345 409
#     4  12  25  47  71 101 141 182 234 287 346 410
#     4  10  19  36  67 100 137 174 216 273 343 410
#     4  12  25  40  68 112 145 178 224 283 355 417
#     4  12  30  49  71  98 135 190 243 284 339 413
#
# _framework density 22.273385000000001
#
# number of rings (size 3 to 8) (size 9 to 14) (size 15 to 20)
#    0.000    0.500    3.750    4.875    5.250    0.000 
#    0.000    1.250    0.000    0.000    0.000    0.000 
#    0.000    0.000    0.000    0.000    0.000    0.000 
#
# Total GULP energy -198351.191727 kJ/mol
# GULP energy per Si atom -12396.949483 kJ/mol
# Density = 2.222269 g / cm^3
# Si number density = 22.273385 Si / 1000 Ang^3
#
#
#
# Elastic Constant Matrix: (Units=GPa)
#
#
# Indices 1 2 3 4 5 6 
#
# 1 91.8936 26.6414 11.6562 -3.5461 -17.9494 -5.3702
# 2 26.6414 92.4180 0.4540 5.2934 -7.0500 7.3830
# 3 11.6562 0.4540 63.2896 -8.0692 -0.5435 3.7973
# 4 -3.5461 5.2934 -8.0692 33.3951 0.2396 -5.1391
# 5 -17.9494 -7.0500 -0.5435 0.2396 25.9274 1.2462
# 6 -5.3702 7.3830 3.7973 -5.1391 1.2462 40.6217
#
#
#
# Elastic Compliance Matrix: (Units=1/GPa)
#
#
# Indices 1 2 3 4 5 6 
#
# 1 0.014194 -0.003751 -0.002440 0.001875 0.008605 0.002759
# 2 -0.003751 0.012383 0.000450 -0.002746 0.000957 -0.003165
# 3 -0.002440 0.000450 0.016772 0.003501 -0.001176 -0.001493
# 4 0.001875 -0.002746 0.003501 0.032113 0.000113 0.004479
# 5 0.008605 0.000957 -0.001176 0.000113 0.044775 -0.000286
# 6 0.002759 -0.003165 -0.001493 0.004479 -0.000286 0.026273
#
#
# Mechanical properties :
#
#
# Convention : Reuss Voigt Hill
#
# Bulk Modulus (GPa) = 31.38039 36.12271 33.75155
# Shear Modulus (GPa) = 29.65372 33.91215 31.78293
#
# Velocity S-wave (km/s) = 3.65273 3.90621 3.78159
# Velocity P-wave (km/s) = 5.64882 6.04960 5.85265
#
# Compressibility (1/GPa) = 0.03186703
#
# Stress axis : x y z
#
# Youngs Moduli (GPa) = 70.45471 80.75798 59.62192
#
# Poissons Ratio (x) = 0.30292 0.14546
# Poissons Ratio (y) = 0.26428 -0.02683
# Poissons Ratio (z) = 0.17189 -0.03634
#
# Static dielectric constant tensor:
#      x y z
#    x 15.276670 0.487510 -1.990630 
#    y 0.487510 3.731480 -0.216560 
#    z -1.990630 -0.216560 3.869500 
# 
# 
# High freq. dielectric constant tensor:
#      x y z
#    x 1.873450 0.011100 -0.008380 
#    y 0.011100 1.899500 -0.002710 
#    z -0.008380 -0.002710 1.878590 
# 
# From -- ./inp_files/243107.got.cif
#   From: 2010.06.25/outbox.cif.g09.slc.cpg/sg2_122_cif.got.tgz:243107.got - 2010.06.27 13:26:56.
