data_PCOD8043543
_publ_section_title
;
Structure prediction by ZEFSAII (Michael W. Deem and Ramdas Pophale) SiO2 
 PCOD8043543
Probable space group: P -1
;
_chemical_formula_sum "Si O2"
_cell_formula_units_Z 16
_cell_length_a 9.557597
_cell_length_b 15.794892
_cell_length_c 16.173153
_cell_angle_alpha 144.707636
_cell_angle_beta 144.275162
_cell_angle_gamma 61.671470
_cell_volume 683.706423
_symmetry_space_group_name_H-M "P -1"
_symmetry_group_IT_number 2
_symmetry_cell_setting 'triclinic'
loop_
_space_group_symop_operation_xyz
x,y,z
-x,-y,-z
loop_
_atom_site_type_symbol
_atom_site_label
_atom_site_fract_x
_atom_site_fract_y
_atom_site_fract_z
Si Si1 0.430431 0.864726 0.708916
Si Si2 0.524696 0.680678 0.067541
Si Si3 0.926475 0.888381 0.754779
Si Si4 0.123474 0.279758 0.572144
Si Si5 0.855607 0.208403 0.980988
Si Si6 0.990592 0.367293 0.000220
Si Si7 0.398776 0.374714 0.464230
Si Si8 0.031252 0.717957 0.257991
O O1 0.478651 0.707521 0.603722
O O2 0.292472 0.871101 0.560290
O O3 0.213418 0.825534 0.648753
O O4 0.741700 0.046020 0.016806
O O5 0.689689 0.719712 0.263749
O O6 0.748710 0.724541 0.135846
O O7 0.245956 0.480665 0.767064
O O8 0.408176 0.807743 0.107907
O O9 0.841123 0.820020 0.566279
O O10 0.725044 0.732275 0.595644
O O11 0.863922 0.037513 0.861388
O O12 0.815104 0.242588 0.893442
O O13 0.154371 0.377068 0.297017
O O14 0.326935 0.433492 0.225037
O O15 0.948480 0.528368 0.102751
O O16 0.869812 0.253495 0.767172
#
# Coordination Sequence:
#
# PCOD8043543 Si02
#       8
#     2   2   2   2   2   2   2   2
#     4   9  18  35  58  81 111 154 197 235 285 349
#     4  10  20  37  59  88 121 154 195 244 294 346
#     4  11  23  40  61  87 121 159 196 240 300 356
#     4  10  20  37  61  86 117 158 198 239 293 355
#     4  11  22  37  59  92 123 151 195 248 294 346
#     4  10  19  36  64  90 114 154 206 244 283 351
#     4  10  21  39  60  84 121 161 195 240 299 354
#     4   9  19  36  60  86 117 156 195 240 296 350
#
# _framework density 23.401857
#
# number of rings (size 3 to 8) (size 9 to 14) (size 15 to 20)
#    0.000    2.000    0.000    6.000    0.000    3.500 
#    0.000    8.750    0.000   11.250    0.000    0.000 
#    0.000    0.000    0.000    0.000    0.000    0.000 
#
# Total GULP energy -198361.874741 kJ/mol
# GULP energy per Si atom -12397.617171 kJ/mol
# Density = 2.334859 g / cm^3
# Si number density = 23.401857 Si / 1000 Ang^3
#
#
#
# Elastic Constant Matrix: (Units=GPa)
#
#
# Indices 1 2 3 4 5 6 
#
# 1 104.1097 37.6489 13.2138 -8.5699 -7.1617 -21.1280
# 2 37.6489 65.1615 3.2726 -14.9032 3.5493 -17.9710
# 3 13.2138 3.2726 59.9389 -7.2371 -4.6548 -12.7373
# 4 -8.5699 -14.9032 -7.2371 17.4959 2.8242 5.5158
# 5 -7.1617 3.5493 -4.6548 2.8242 32.8139 -9.1261
# 6 -21.1280 -17.9710 -12.7373 5.5158 -9.1261 39.2468
#
#
#
# Elastic Compliance Matrix: (Units=1/GPa)
#
#
# Indices 1 2 3 4 5 6 
#
# 1 0.013584 -0.007234 -0.001420 -0.002540 0.005183 0.005102
# 2 -0.007234 0.025186 0.003218 0.018245 -0.003972 0.005195
# 3 -0.001420 0.003218 0.019407 0.007410 0.003332 0.006741
# 4 -0.002540 0.018245 0.007410 0.077111 -0.009104 -0.003562
# 5 0.005183 -0.003972 0.003332 -0.009104 0.036585 0.011840
# 6 0.005102 0.005195 0.006741 -0.003562 0.011840 0.036047
#
#
# Mechanical properties :
#
#
# Convention : Reuss Voigt Hill
#
# Bulk Modulus (GPa) = 21.13849 37.49785 29.31817
# Shear Modulus (GPa) = 21.31650 29.58296 25.44973
#
# Velocity S-wave (km/s) = 3.02137 3.55932 3.30132
# Velocity P-wave (km/s) = 4.60695 5.74020 5.20451
#
# Compressibility (1/GPa) = 0.04730706
#
# Stress axis : x y z
#
# Youngs Moduli (GPa) = 73.61494 39.70414 51.52805
#
# Poissons Ratio (x) = 0.28720 0.07315
# Poissons Ratio (y) = 0.53250 -0.16582
# Poissons Ratio (z) = 0.10451 -0.12777
#
# Static dielectric constant tensor:
#      x y z
#    x 4.284950 -0.176200 0.042540 
#    y -0.176200 3.986610 -0.478740 
#    z 0.042540 -0.478740 4.338250 
# 
# 
# High freq. dielectric constant tensor:
#      x y z
#    x 1.932380 -0.004320 0.007880 
#    y -0.004320 1.901570 -0.029110 
#    z 0.007880 -0.029110 1.918270 
# 
# From -- ./inp_files/561833.got.cif
#   From: 2010.06.25/outbox.cif.g09.slc.cpg/sg2_281_cif.got.tgz:561833.got - 2010.06.27 13:26:56.
