data_PCOD8043069
_publ_section_title
;
Structure prediction by ZEFSAII (Michael W. Deem and Ramdas Pophale) SiO2 
 PCOD8043069
Probable space group: P -1
;
_chemical_formula_sum "Si O2"
_cell_formula_units_Z 16
_cell_length_a 15.414899
_cell_length_b 12.783387
_cell_length_c 8.943117
_cell_angle_alpha 77.305250
_cell_angle_beta 122.067999
_cell_angle_gamma 54.280861
_cell_volume 773.712716
_symmetry_space_group_name_H-M "P -1"
_symmetry_group_IT_number 2
_symmetry_cell_setting 'triclinic'
loop_
_space_group_symop_operation_xyz
x,y,z
-x,-y,-z
loop_
_atom_site_type_symbol
_atom_site_label
_atom_site_fract_x
_atom_site_fract_y
_atom_site_fract_z
Si Si1 0.604679 0.595650 0.669192
Si Si2 0.532894 0.336996 0.806871
Si Si3 0.720487 0.815090 0.427315
Si Si4 0.915205 0.506244 0.289525
Si Si5 0.135018 0.831002 0.963171
Si Si6 0.273356 0.762623 0.440314
Si Si7 0.583138 0.758762 0.093047
Si Si8 0.693584 0.763102 0.736696
O O1 0.538786 0.642750 0.423668
O O2 0.428261 0.721080 0.579113
O O3 0.662414 0.664024 0.736306
O O4 0.791695 0.354499 0.945894
O O5 0.386380 0.557220 0.666540
O O6 0.533097 0.240697 0.956273
O O7 0.750765 0.189414 0.037230
O O8 0.658625 0.761857 0.300356
O O9 0.789838 0.719336 0.685796
O O10 0.902868 0.714412 0.550196
O O11 0.547955 0.052612 0.194824
O O12 0.758109 0.566648 0.203058
O O13 0.000000 0.500000 0.500000
O O14 0.825747 0.667287 0.032700
O O15 0.190289 0.811486 0.187177
O O16 0.901857 0.049591 0.666002
O O17 0.500000 0.000000 0.500000
#
# Coordination Sequence:
#
# PCOD8043069 Si02
#       8
#     2   2   2   2   2   2   2   2
#     4   9  18  32  51  81 117 153 190 243 288 341
#     4   9  16  29  56  82 116 151 191 236 294 346
#     4  10  21  38  57  79 122 157 196 246 287 346
#     4  10  23  40  58  82 117 156 200 246 292 349
#     4   8  15  30  50  80 116 150 188 239 292 346
#     4   8  15  30  50  81 113 147 192 239 288 352
#     4  10  19  36  57  86 117 158 195 241 295 346
#     4  12  22  40  61  87 120 162 203 242 294 347
#
# _framework density 20.679508999999999
#
# number of rings (size 3 to 8) (size 9 to 14) (size 15 to 20)
#    0.000    2.500    2.500    1.875    0.000    1.000 
#    4.500    2.500    0.000    3.000    0.000    5.250 
#    0.000    0.000    0.000    0.000    0.000    0.250 
#
# Total GULP energy -198249.693368 kJ/mol
# GULP energy per Si atom -12390.605836 kJ/mol
# Density = 2.063244 g / cm^3
# Si number density = 20.679509 Si / 1000 Ang^3
#
#
#
# Elastic Constant Matrix: (Units=GPa)
#
#
# Indices 1 2 3 4 5 6 
#
# 1 162.1753 59.5756 43.2842 -22.1899 0.0134 -13.1197
# 2 59.5756 76.2426 36.3193 -21.9546 7.7729 -4.9826
# 3 43.2842 36.3193 85.6555 -2.4414 -0.4480 -10.6624
# 4 -22.1899 -21.9546 -2.4414 31.7620 -15.8976 2.6470
# 5 0.0134 7.7729 -0.4480 -15.8976 31.8605 -11.1885
# 6 -13.1197 -4.9826 -10.6624 2.6470 -11.1885 29.3321
#
#
#
# Elastic Compliance Matrix: (Units=1/GPa)
#
#
# Indices 1 2 3 4 5 6 
#
# 1 0.009753 -0.005486 -0.001883 0.005244 0.005453 0.004353
# 2 -0.005486 0.024469 -0.007563 0.012306 -0.000798 -0.002461
# 3 -0.001883 -0.007563 0.016279 -0.005090 0.001187 0.004703
# 4 0.005244 0.012306 -0.005090 0.056619 0.028046 0.008174
# 5 0.005453 -0.000798 0.001187 0.028046 0.052724 0.020315
# 6 0.004353 -0.002461 0.004703 0.008174 0.020315 0.044342
#
#
# Mechanical properties :
#
#
# Convention : Reuss Voigt Hill
#
# Bulk Modulus (GPa) = 48.45192 66.93684 57.69438
# Shear Modulus (GPa) = 20.75298 30.91721 25.83510
#
# Velocity S-wave (km/s) = 3.17133 3.87080 3.53839
# Velocity P-wave (km/s) = 6.07376 7.23992 6.68233
#
# Compressibility (1/GPa) = 0.02063902
#
# Stress axis : x y z
#
# Youngs Moduli (GPa) = 102.53309 40.86766 61.42710
#
# Poissons Ratio (x) = 0.22418 0.11565
# Poissons Ratio (y) = 0.56245 0.46458
# Poissons Ratio (z) = 0.19304 0.30909
#
# Static dielectric constant tensor:
#      x y z
#    x 4.057140 -0.475900 0.217850 
#    y -0.475900 3.737450 -0.230380 
#    z 0.217850 -0.230380 3.878600 
# 
# 
# High freq. dielectric constant tensor:
#      x y z
#    x 1.810090 -0.021970 0.006800 
#    y -0.021970 1.790370 -0.012150 
#    z 0.006800 -0.012150 1.796700 
# 
# From -- ./inp_files/307143.got.cif
#   From: 2010.06.25/outbox.cif.g09.slc.cpg/sg2_154_cif.got.tgz:307143.got - 2010.06.27 13:26:56.
