data_PCOD8043628
_publ_section_title
;
Structure prediction by ZEFSAII (Michael W. Deem and Ramdas Pophale) SiO2 
 PCOD8043628
Probable space group: P -1
;
_chemical_formula_sum "Si O2"
_cell_formula_units_Z 14
_cell_length_a 16.716497
_cell_length_b 5.571799
_cell_length_c 20.658260
_cell_angle_alpha 114.992940
_cell_angle_beta 20.720641
_cell_angle_gamma 106.282475
_cell_volume 576.135359
_symmetry_space_group_name_H-M "P -1"
_symmetry_group_IT_number 2
_symmetry_cell_setting 'triclinic'
loop_
_space_group_symop_operation_xyz
x,y,z
-x,-y,-z
loop_
_atom_site_type_symbol
_atom_site_label
_atom_site_fract_x
_atom_site_fract_y
_atom_site_fract_z
Si Si1 0.365107 0.334424 0.125232
Si Si2 0.500560 0.865454 0.724859
Si Si3 0.096094 0.650506 0.601770
Si Si4 0.551432 0.388924 0.784013
Si Si5 0.714245 0.116883 0.240123
Si Si6 0.888257 0.206581 0.902650
Si Si7 0.792217 0.660003 0.226497
O O1 0.310836 0.499721 0.253376
O O2 0.120167 0.382841 0.279001
O O3 0.500000 0.500000 0.000000
O O4 0.500000 0.000000 0.000000
O O5 0.767471 0.628446 0.491265
O O6 0.420900 0.986317 0.726947
O O7 0.520646 0.091823 0.789082
O O8 0.287867 0.766472 0.900005
O O9 0.292892 0.681300 0.406955
O O10 0.011052 0.896170 0.746097
O O11 0.275734 0.604840 0.009009
O O12 0.629328 0.464513 0.342269
O O13 0.647981 0.976717 0.339929
O O14 0.000000 0.000000 0.000000
O O15 0.096641 0.311627 0.784169
O O16 0.000000 0.500000 0.000000
#
# Coordination Sequence:
#
# PCOD8043628 Si02
#       7
#     2   2   2   2   2   2   2
#     4  12  27  51  79 106 142 189 237 284 363 431
#     4  11  24  41  71 102 139 191 235 299 350 418
#     4  11  27  45  69 110 142 182 239 296 355 425
#     4  11  25  44  75 101 145 186 233 293 358 423
#     4  10  19  37  65  96 136 181 239 281 349 410
#     4  11  22  43  69 100 142 187 239 293 356 421
#     4  10  19  36  66  97 130 188 235 287 341 415
#
# _framework density 24.299845999999999
#
# number of rings (size 3 to 8) (size 9 to 14) (size 15 to 20)
#    0.000    1.143    4.286    3.000    6.000    1.714 
#    0.000    1.429    0.000    0.000    0.000    0.000 
#    0.000    0.000    0.000    0.000    0.000    0.000 
#
# Total GULP energy -173513.181102 kJ/mol
# GULP energy per Si atom -12393.798650 kJ/mol
# Density = 2.424454 g / cm^3
# Si number density = 24.299846 Si / 1000 Ang^3
#
#
#
# Elastic Constant Matrix: (Units=GPa)
#
#
# Indices 1 2 3 4 5 6 
#
# 1 137.1820 43.0624 45.1229 10.3710 -15.6078 25.8726
# 2 43.0624 147.0878 34.8005 26.1167 -4.1462 5.1533
# 3 45.1229 34.8005 82.3662 24.3272 -13.7615 1.6140
# 4 10.3710 26.1167 24.3272 33.3911 -4.6724 0.3993
# 5 -15.6078 -4.1462 -13.7615 -4.6724 28.1010 -1.5520
# 6 25.8726 5.1533 1.6140 0.3993 -1.5520 59.9223
#
#
#
# Elastic Compliance Matrix: (Units=1/GPa)
#
#
# Indices 1 2 3 4 5 6 
#
# 1 0.010577 -0.002121 -0.005015 0.002539 0.003297 -0.004181
# 2 -0.002121 0.008602 -0.001085 -0.005469 -0.001338 0.000207
# 3 -0.005015 -0.001085 0.019381 -0.011063 0.004813 0.001935
# 4 0.002539 -0.005469 -0.011063 0.041798 0.002105 -0.000552
# 5 0.003297 -0.001338 0.004813 0.002105 0.039903 -0.000418
# 6 -0.004181 0.000207 0.001935 -0.000552 -0.000418 0.018416
#
#
# Mechanical properties :
#
#
# Convention : Reuss Voigt Hill
#
# Bulk Modulus (GPa) = 45.21461 68.06752 56.64107
# Shear Modulus (GPa) = 30.77061 40.52622 35.64841
#
# Velocity S-wave (km/s) = 3.56235 4.08825 3.83433
# Velocity P-wave (km/s) = 5.96388 7.09629 6.55459
#
# Compressibility (1/GPa) = 0.02211674
#
# Stress axis : x y z
#
# Youngs Moduli (GPa) = 94.54677 116.24576 51.59819
#
# Poissons Ratio (x) = 0.24661 0.25878
# Poissons Ratio (y) = 0.20057 0.05598
# Poissons Ratio (z) = 0.47418 0.12611
#
# Static dielectric constant tensor:
#      x y z
#    x 4.672450 -0.361230 -0.335200 
#    y -0.361230 6.422060 -0.171010 
#    z -0.335200 -0.171010 4.528240 
# 
# 
# High freq. dielectric constant tensor:
#      x y z
#    x 1.971710 0.008370 -0.006240 
#    y 0.008370 1.978730 0.008390 
#    z -0.006240 0.008390 1.960550 
# 
# From -- ./inp_files/124901.got.cif
#   From: 2010.06.25/outbox.cif.g09.slc.cpg/sg2_63_cif.got.tgz:124901.got - 2010.06.27 13:26:56.
