data_PCOD8043531
_publ_section_title
;
Structure prediction by ZEFSAII (Michael W. Deem and Ramdas Pophale) SiO2 
 PCOD8043531
Probable space group: P -1
;
_chemical_formula_sum "Si O2"
_cell_formula_units_Z 12
_cell_length_a 12.101637
_cell_length_b 11.542821
_cell_length_c 14.670470
_cell_angle_alpha 152.117608
_cell_angle_beta 128.777581
_cell_angle_gamma 72.452700
_cell_volume 539.717681
_symmetry_space_group_name_H-M "P -1"
_symmetry_group_IT_number 2
_symmetry_cell_setting 'triclinic'
loop_
_space_group_symop_operation_xyz
x,y,z
-x,-y,-z
loop_
_atom_site_type_symbol
_atom_site_label
_atom_site_fract_x
_atom_site_fract_y
_atom_site_fract_z
Si Si1 0.111498 0.422164 0.449022
Si Si2 0.336156 0.822585 0.160857
Si Si3 0.989606 0.737228 0.103220
Si Si4 0.364304 0.512872 0.789808
Si Si5 0.681172 0.516774 0.916282
Si Si6 0.971213 0.716702 0.882949
O O1 0.308728 0.589598 0.721420
O O2 0.000000 0.500000 0.500000
O O3 0.154051 0.545235 0.449860
O O4 0.969157 0.012682 0.084321
O O5 0.243163 0.528324 0.984491
O O6 0.540997 0.169060 0.544497
O O7 0.383534 0.730524 0.030888
O O8 0.191546 0.873034 0.098207
O O9 0.867918 0.791484 0.137598
O O10 0.204154 0.107236 0.449166
O O11 0.000000 0.500000 0.000000
O O12 0.883178 0.543260 0.816493
O O13 0.576242 0.645669 0.977757
#
# Coordination Sequence:
#
# PCOD8043531 Si02
#       6
#     2   2   2   2   2   2
#     4  10  19  36  64  85 115 161 208 242 289 355
#     4  11  20  39  62  88 125 157 197 250 301 356
#     4  11  21  40  63  88 127 159 194 248 305 358
#     4  11  23  40  62  92 118 162 205 244 298 357
#     4  11  22  39  59  91 128 155 194 249 305 360
#     4  10  20  37  62  89 115 161 201 242 301 355
#
# _framework density 22.233847000000001
#
# number of rings (size 3 to 8) (size 9 to 14) (size 15 to 20)
#    0.000    1.333    6.667    1.500    0.000    0.667 
#    3.000    0.833    0.000    5.000    0.000    0.000 
#    0.000    0.000    0.000    0.000    0.000    0.000 
#
# Total GULP energy -148738.272333 kJ/mol
# GULP energy per Si atom -12394.856028 kJ/mol
# Density = 2.218324 g / cm^3
# Si number density = 22.233847 Si / 1000 Ang^3
#
#
#
# Elastic Constant Matrix: (Units=GPa)
#
#
# Indices 1 2 3 4 5 6 
#
# 1 184.2106 57.8413 27.7402 -8.0291 -19.2811 -1.6656
# 2 57.8413 121.2844 20.5186 -26.7709 -13.3186 1.7045
# 3 27.7402 20.5186 28.7981 -15.8717 -17.6355 2.2265
# 4 -8.0291 -26.7709 -15.8717 24.5765 7.9905 -11.6613
# 5 -19.2811 -13.3186 -17.6355 7.9905 42.6033 -7.6001
# 6 -1.6656 1.7045 2.2265 -11.6613 -7.6001 46.1226
#
#
#
# Elastic Compliance Matrix: (Units=1/GPa)
#
#
# Indices 1 2 3 4 5 6 
#
# 1 0.007638 -0.003911 -0.009117 -0.008167 -0.000229 -0.001242
# 2 -0.003911 0.013322 0.004714 0.017544 0.001745 0.003862
# 3 -0.009117 0.004714 0.084357 0.055063 0.024322 0.013354
# 4 -0.008167 0.017544 0.055063 0.100608 0.009898 0.023467
# 5 -0.000229 0.001745 0.024322 0.009898 0.033329 0.006748
# 6 -0.001242 0.003862 0.013354 0.023467 0.006748 0.027894
#
#
# Mechanical properties :
#
#
# Convention : Reuss Voigt Hill
#
# Bulk Modulus (GPa) = 11.27523 60.72148 35.99836
# Shear Modulus (GPa) = 15.95707 37.87334 26.91521
#
# Velocity S-wave (km/s) = 2.68189 4.13172 3.48307
# Velocity P-wave (km/s) = 3.83043 7.08033 5.69225
#
# Compressibility (1/GPa) = 0.08868998
#
# Stress axis : x y z
#
# Youngs Moduli (GPa) = 130.92038 75.06149 11.85433
#
# Poissons Ratio (x) = 0.29355 0.10808
# Poissons Ratio (y) = 0.51201 -0.05588
# Poissons Ratio (z) = 1.19359 -0.35382
#
# Static dielectric constant tensor:
#      x y z
#    x 4.411320 0.262530 -0.341850 
#    y 0.262530 4.391350 -0.439290 
#    z -0.341850 -0.439290 3.653800 
# 
# 
# High freq. dielectric constant tensor:
#      x y z
#    x 1.895780 -0.001430 -0.032950 
#    y -0.001430 1.883140 -0.029420 
#    z -0.032950 -0.029420 1.832150 
# 
# From -- ./inp_files/225895.got.cif
#   From: 2010.06.25/outbox.cif.g09.slc.cpg/sg2_113_cif.got.tgz:225895.got - 2010.06.27 13:26:56.
