data_PCOD8043300
_publ_section_title
;
Structure prediction by ZEFSAII (Michael W. Deem and Ramdas Pophale) SiO2 
 PCOD8043300
Probable space group: P -1
;
_chemical_formula_sum "Si O2"
_cell_formula_units_Z 16
_cell_length_a 9.554117
_cell_length_b 13.098950
_cell_length_c 9.070468
_cell_angle_alpha 102.167380
_cell_angle_beta 104.645380
_cell_angle_gamma 117.526763
_cell_volume 900.145514
_symmetry_space_group_name_H-M "P -1"
_symmetry_group_IT_number 2
_symmetry_cell_setting 'triclinic'
loop_
_space_group_symop_operation_xyz
x,y,z
-x,-y,-z
loop_
_atom_site_type_symbol
_atom_site_label
_atom_site_fract_x
_atom_site_fract_y
_atom_site_fract_z
Si Si1 0.833143 0.393640 0.003792
Si Si2 0.013546 0.595767 0.649726
Si Si3 0.889700 0.199109 0.479471
Si Si4 0.314943 0.413288 0.352616
Si Si5 0.757328 0.757342 0.469757
Si Si6 0.714233 0.177170 0.702596
Si Si7 0.560746 0.458437 0.864168
Si Si8 0.673720 0.955431 0.489751
O O1 0.866144 0.397740 0.186282
O O2 0.789669 0.259563 0.893844
O O3 0.677486 0.410882 0.939617
O O4 0.000000 0.500000 0.000000
O O5 0.112844 0.735046 0.650433
O O6 0.000000 0.500000 0.500000
O O7 0.818958 0.546531 0.632799
O O8 0.840820 0.255595 0.622216
O O9 0.078949 0.226154 0.565470
O O10 0.750667 0.048387 0.395365
O O11 0.500000 0.500000 0.500000
O O12 0.244721 0.279498 0.369243
O O13 0.335360 0.422026 0.182730
O O14 0.594442 0.654353 0.301876
O O15 0.776196 0.889198 0.520682
O O16 0.525660 0.151097 0.615579
O O17 0.699808 0.043992 0.665658
O O18 0.500000 0.500000 0.000000
#
# Coordination Sequence:
#
# PCOD8043300 Si02
#       8
#     2   2   2   2   2   2   2   2
#     4  12  23  38  61  84 120 154 190 244 294 342
#     4  11  23  36  58  87 116 152 196 236 294 345
#     4   9  20  34  59  86 111 148 197 235 282 344
#     4   9  21  37  55  81 119 149 189 237 283 344
#     4  10  19  36  61  82 116 153 193 234 282 350
#     4   9  20  37  59  85 114 150 193 239 281 340
#     4  11  24  37  54  88 122 153 191 237 294 345
#     4   9  18  37  62  83 112 154 197 230 289 340
#
# _framework density 17.774903999999999
#
# number of rings (size 3 to 8) (size 9 to 14) (size 15 to 20)
#    0.750    1.250    2.500    1.125    7.000    0.000 
#    0.000    0.625    2.750    1.500    0.000    0.000 
#    0.000    0.000    0.000    0.000    0.000    0.000 
#
# Total GULP energy -198216.878232 kJ/mol
# GULP energy per Si atom -12388.554890 kJ/mol
# Density = 1.773445 g / cm^3
# Si number density = 17.774904 Si / 1000 Ang^3
#
#
#
# Elastic Constant Matrix: (Units=GPa)
#
#
# Indices 1 2 3 4 5 6 
#
# 1 115.7000 55.8804 53.6435 -14.2305 3.8892 9.0594
# 2 55.8804 97.1501 52.1350 -11.4620 -6.1176 -5.7768
# 3 53.6435 52.1350 117.7167 -10.1712 -6.5539 -7.4528
# 4 -14.2305 -11.4620 -10.1712 30.6885 -0.1081 -1.2495
# 5 3.8892 -6.1176 -6.5539 -0.1081 28.2039 -1.5039
# 6 9.0594 -5.7768 -7.4528 -1.2495 -1.5039 28.7156
#
#
#
# Elastic Compliance Matrix: (Units=1/GPa)
#
#
# Indices 1 2 3 4 5 6 
#
# 1 0.014971 -0.006701 -0.004362 0.002678 -0.004913 -0.007344
# 2 -0.006701 0.016952 -0.003734 0.002199 0.004001 0.004860
# 3 -0.004362 -0.003734 0.012642 0.000950 0.002952 0.004102
# 4 0.002678 0.002199 0.000950 0.035022 0.000537 0.001396
# 5 -0.004913 0.004001 0.002952 0.000537 0.037963 0.005132
# 6 -0.007344 0.004860 0.004102 0.001396 0.005132 0.039513
#
#
# Mechanical properties :
#
#
# Convention : Reuss Voigt Hill
#
# Bulk Modulus (GPa) = 66.78813 72.65384 69.72099
# Shear Modulus (GPa) = 26.08964 28.78212 27.43588
#
# Velocity S-wave (km/s) = 3.83532 4.02836 3.93303
# Velocity P-wave (km/s) = 7.56762 7.91202 7.74174
#
# Compressibility (1/GPa) = 0.01497272
#
# Stress axis : x y z
#
# Youngs Moduli (GPa) = 66.79480 58.99146 79.09885
#
# Poissons Ratio (x) = 0.39529 0.34502
# Poissons Ratio (y) = 0.44758 0.29533
# Poissons Ratio (z) = 0.29135 0.22025
#
# Static dielectric constant tensor:
#      x y z
#    x 3.909530 -0.010500 0.116030 
#    y -0.010500 3.522460 -0.174180 
#    z 0.116030 -0.174180 3.252960 
# 
# 
# High freq. dielectric constant tensor:
#      x y z
#    x 1.709060 0.006820 0.001540 
#    y 0.006820 1.687420 -0.007540 
#    z 0.001540 -0.007540 1.654430 
# 
# From -- ./inp_files/202576.got.cif
#   From: 2010.06.25/outbox.cif.g09.slc.cpg/sg2_102_cif.got.tgz:202576.got - 2010.06.27 13:26:56.
