data_PCOD8043288
_publ_section_title
;
Structure prediction by ZEFSAII (Michael W. Deem and Ramdas Pophale) SiO2 
 PCOD8043288
Probable space group: P -1
;
_chemical_formula_sum "Si O2"
_cell_formula_units_Z 16
_cell_length_a 10.786760
_cell_length_b 7.823107
_cell_length_c 12.273682
_cell_angle_alpha 91.895784
_cell_angle_beta 97.163060
_cell_angle_gamma 52.098542
_cell_volume 809.627098
_symmetry_space_group_name_H-M "P -1"
_symmetry_group_IT_number 2
_symmetry_cell_setting 'triclinic'
loop_
_space_group_symop_operation_xyz
x,y,z
-x,-y,-z
loop_
_atom_site_type_symbol
_atom_site_label
_atom_site_fract_x
_atom_site_fract_y
_atom_site_fract_z
Si Si1 0.922244 0.907335 0.126370
Si Si2 0.541463 0.322561 0.717539
Si Si3 0.786082 0.527287 0.343132
Si Si4 0.721944 0.695354 0.568469
Si Si5 0.846620 0.979451 0.874065
Si Si6 0.620117 0.144938 0.499548
Si Si7 0.959076 0.530305 0.777710
Si Si8 0.724529 0.213203 0.297365
O O1 0.007808 0.651445 0.138347
O O2 0.788732 0.033360 0.208000
O O3 0.835851 0.995144 0.003364
O O4 0.046236 0.956593 0.157324
O O5 0.404260 0.289512 0.695860
O O6 0.610663 0.288772 0.601448
O O7 0.456055 0.573211 0.746893
O O8 0.669615 0.156950 0.815347
O O9 0.819657 0.538742 0.473522
O O10 0.883371 0.571251 0.277933
O O11 0.835803 0.288606 0.319651
O O12 0.552442 0.749669 0.565506
O O13 0.818583 0.582210 0.686643
O O14 0.705597 0.910953 0.556143
O O15 0.913779 0.739402 0.841613
O O16 0.729584 0.119639 0.413625
#
# Coordination Sequence:
#
# PCOD8043288 Si02
#       8
#     2   2   2   2   2   2   2   2
#     4  11  26  42  66  87 123 168 203 264 302 360
#     4   9  20  38  66  86 125 165 194 262 301 359
#     4   9  21  37  58  92 130 157 194 251 303 370
#     4  10  21  34  60  92 129 161 199 248 305 374
#     4  11  23  46  64  91 119 159 221 251 306 359
#     4  10  19  36  60  94 125 157 202 250 304 370
#     4  12  22  42  64  91 126 162 206 252 311 362
#     4  10  21  39  61  89 127 163 199 254 305 361
#
# _framework density 19.762184999999999
#
# number of rings (size 3 to 8) (size 9 to 14) (size 15 to 20)
#    0.750    1.000    2.500    1.875    1.750    0.500 
#    0.000    2.500    0.000    0.000    0.000    0.000 
#    0.000    0.000    0.000    0.000    0.000    0.000 
#
# Total GULP energy -198346.164993 kJ/mol
# GULP energy per Si atom -12396.635312 kJ/mol
# Density = 1.971721 g / cm^3
# Si number density = 19.762185 Si / 1000 Ang^3
#
#
#
# Elastic Constant Matrix: (Units=GPa)
#
#
# Indices 1 2 3 4 5 6 
#
# 1 53.1417 22.6187 39.3628 -11.4481 2.3567 6.2038
# 2 22.6187 93.5131 30.3846 -0.6955 -1.1379 8.2707
# 3 39.3628 30.3846 88.9788 -6.5806 1.5090 -7.5704
# 4 -11.4481 -0.6955 -6.5806 33.7651 2.0107 -1.8110
# 5 2.3567 -1.1379 1.5090 2.0107 25.8200 0.9280
# 6 6.2038 8.2707 -7.5704 -1.8110 0.9280 24.3885
#
#
#
# Elastic Compliance Matrix: (Units=1/GPa)
#
#
# Indices 1 2 3 4 5 6 
#
# 1 0.033759 -0.002420 -0.014447 0.008113 -0.002560 -0.011551
# 2 -0.002420 0.013035 -0.003971 -0.001686 0.001346 -0.005214
# 3 -0.014447 -0.003971 0.019908 -0.000478 -0.000385 0.011181
# 4 0.008113 -0.001686 -0.000478 0.032487 -0.003349 0.000900
# 5 -0.002560 0.001346 -0.000385 -0.003349 0.039366 -0.001671
# 6 -0.011551 -0.005214 0.011181 0.000900 -0.001671 0.049310
#
#
# Mechanical properties :
#
#
# Convention : Reuss Voigt Hill
#
# Bulk Modulus (GPa) = 39.96189 46.70731 43.33460
# Shear Modulus (GPa) = 21.01861 26.34591 23.68226
#
# Velocity S-wave (km/s) = 3.26479 3.65519 3.46549
# Velocity P-wave (km/s) = 5.87172 6.44204 6.16348
#
# Compressibility (1/GPa) = 0.02502384
#
# Stress axis : x y z
#
# Youngs Moduli (GPa) = 29.62182 76.71944 50.22999
#
# Poissons Ratio (x) = 0.18570 0.72568
# Poissons Ratio (y) = 0.07170 0.19948
# Poissons Ratio (z) = 0.42795 0.30468
#
# Static dielectric constant tensor:
#      x y z
#    x 3.423650 0.063180 0.011010 
#    y 0.063180 3.548470 0.105700 
#    z 0.011010 0.105700 3.408710 
# 
# 
# High freq. dielectric constant tensor:
#      x y z
#    x 1.758940 0.004760 -0.003150 
#    y 0.004760 1.773520 0.008020 
#    z -0.003150 0.008020 1.761110 
# 
# From -- ./inp_files/417395.got.cif
#   From: 2010.06.25/outbox.cif.g09.slc.cpg/sg2_209_cif.got.tgz:417395.got - 2010.06.27 13:26:56.
