data_PCOD8043428
_publ_section_title
;
Structure prediction by ZEFSAII (Michael W. Deem and Ramdas Pophale) SiO2 
 PCOD8043428
Probable space group: P -1
;
_chemical_formula_sum "Si O2"
_cell_formula_units_Z 14
_cell_length_a 8.755412
_cell_length_b 9.407202
_cell_length_c 12.031327
_cell_angle_alpha 47.325397
_cell_angle_beta 69.550860
_cell_angle_gamma 66.598030
_cell_volume 663.894352
_symmetry_space_group_name_H-M "P -1"
_symmetry_group_IT_number 2
_symmetry_cell_setting 'triclinic'
loop_
_space_group_symop_operation_xyz
x,y,z
-x,-y,-z
loop_
_atom_site_type_symbol
_atom_site_label
_atom_site_fract_x
_atom_site_fract_y
_atom_site_fract_z
Si Si1 0.782071 0.332835 0.406043
Si Si2 0.666898 0.043693 0.988314
Si Si3 0.521750 0.781741 0.566492
Si Si4 0.623715 0.752139 0.319173
Si Si5 0.078226 0.403046 0.144245
Si Si6 0.362476 0.540259 0.108505
Si Si7 0.760888 0.033172 0.735933
O O1 0.663190 0.246882 0.398829
O O2 0.664338 0.527498 0.386751
O O3 0.860512 0.170347 0.568100
O O4 0.933407 0.384641 0.274820
O O5 0.734565 0.878227 0.154579
O O6 0.630562 0.257892 0.939045
O O7 0.800899 0.029254 0.860597
O O8 0.500000 0.000000 0.000000
O O9 0.650678 0.751342 0.445274
O O10 0.606322 0.633251 0.718349
O O11 0.500000 0.000000 0.500000
O O12 0.431766 0.860884 0.290499
O O13 0.182535 0.549508 0.093960
O O14 0.199893 0.188879 0.203760
O O15 0.000000 0.500000 0.000000
O O16 0.500000 0.500000 0.000000
#
# Coordination Sequence:
#
# PCOD8043428 Si02
#       7
#     2   2   2   2   2   2   2
#     4  11  22  41  64  93 129 166 206 263 321 371
#     4  10  19  36  62  91 119 157 206 257 300 360
#     4  11  21  37  63  95 123 162 216 263 306 374
#     4  10  20  38  65  94 122 164 210 254 309 377
#     4  12  26  43  62  93 131 169 209 264 324 373
#     4  12  23  40  64  93 124 167 215 260 313 384
#     4  10  20  39  65  91 124 169 210 251 310 379
#
# _framework density 21.087692000000001
#
# number of rings (size 3 to 8) (size 9 to 14) (size 15 to 20)
#    0.000    1.143    0.000   10.714    0.000    0.000 
#    0.000    7.143    0.000    0.000    0.000    0.000 
#    0.000    0.000    0.000    0.000    0.000    0.000 
#
# Total GULP energy -173573.155355 kJ/mol
# GULP energy per Si atom -12398.082525 kJ/mol
# Density = 2.103970 g / cm^3
# Si number density = 21.087692 Si / 1000 Ang^3
#
#
#
# Elastic Constant Matrix: (Units=GPa)
#
#
# Indices 1 2 3 4 5 6 
#
# 1 100.0253 50.2823 49.3263 6.4137 -9.2215 19.5064
# 2 50.2823 156.0438 41.3842 -8.3000 -6.8812 28.3485
# 3 49.3263 41.3842 179.8059 16.4493 5.6236 12.5503
# 4 6.4137 -8.3000 16.4493 52.8239 0.1670 -6.2665
# 5 -9.2215 -6.8812 5.6236 0.1670 26.2681 0.0635
# 6 19.5064 28.3485 12.5503 -6.2665 0.0635 30.4645
#
#
#
# Elastic Compliance Matrix: (Units=1/GPa)
#
#
# Indices 1 2 3 4 5 6 
#
# 1 0.014575 -0.002708 -0.002928 -0.002015 0.005061 -0.006031
# 2 -0.002708 0.008731 -0.001042 0.001345 0.001565 -0.005688
# 3 -0.002928 -0.001042 0.006902 -0.001997 -0.002765 -0.000404
# 4 -0.002015 0.001345 -0.001997 0.020614 -0.000071 0.005101
# 5 0.005061 0.001565 -0.002765 -0.000071 0.040857 -0.003658
# 6 -0.006031 -0.005688 -0.000404 0.005101 -0.003658 0.043203
#
#
# Mechanical properties :
#
#
# Convention : Reuss Voigt Hill
#
# Bulk Modulus (GPa) = 59.33975 79.76228 69.55102
# Shear Modulus (GPa) = 32.49819 41.57014 37.03417
#
# Velocity S-wave (km/s) = 3.92994 4.44475 4.19525
# Velocity P-wave (km/s) = 6.98521 8.01544 7.51799
#
# Compressibility (1/GPa) = 0.01685211
#
# Stress axis : x y z
#
# Youngs Moduli (GPa) = 68.61214 114.53014 144.88839
#
# Poissons Ratio (x) = 0.31018 0.42423
# Poissons Ratio (y) = 0.18582 0.15092
# Poissons Ratio (z) = 0.20090 0.11930
#
# Static dielectric constant tensor:
#      x y z
#    x 3.420170 0.143290 -0.016740 
#    y 0.143290 3.975240 0.306560 
#    z -0.016740 0.306560 5.232900 
# 
# 
# High freq. dielectric constant tensor:
#      x y z
#    x 1.780180 0.010920 -0.003380 
#    y 0.010920 1.841820 0.005390 
#    z -0.003380 0.005390 1.867200 
# 
# From -- ./inp_files/156739.got.cif
#   From: 2010.06.25/outbox.cif.g09.slc.cpg/sg2_79_cif.got.tgz:156739.got - 2010.06.27 13:26:56.
