data_PCOD8043087
_publ_section_title
;
Structure prediction by ZEFSAII (Michael W. Deem and Ramdas Pophale) SiO2 
 PCOD8043087
Probable space group: P -1
;
_chemical_formula_sum "Si O2"
_cell_formula_units_Z 14
_cell_length_a 10.482688
_cell_length_b 17.185956
_cell_length_c 8.953538
_cell_angle_alpha 31.545283
_cell_angle_beta 58.447765
_cell_angle_gamma 62.449438
_cell_volume 718.634528
_symmetry_space_group_name_H-M "P -1"
_symmetry_group_IT_number 2
_symmetry_cell_setting 'triclinic'
loop_
_space_group_symop_operation_xyz
x,y,z
-x,-y,-z
loop_
_atom_site_type_symbol
_atom_site_label
_atom_site_fract_x
_atom_site_fract_y
_atom_site_fract_z
Si Si1 0.655924 0.407629 0.557484
Si Si2 0.095550 0.856627 0.628847
Si Si3 0.353249 0.851178 0.245586
Si Si4 0.673883 0.297737 0.054820
Si Si5 0.420869 0.164469 0.606968
Si Si6 0.920166 0.583851 0.191952
Si Si7 0.804764 0.590201 0.579595
O O1 0.500000 0.500000 0.500000
O O2 0.670515 0.295298 0.595365
O O3 0.788679 0.523327 0.267843
O O4 0.678675 0.312911 0.849367
O O5 0.210717 0.892794 0.368007
O O6 0.181765 0.799438 0.818755
O O7 0.000000 0.000000 0.500000
O O8 0.984822 0.732509 0.837765
O O9 0.497690 0.814985 0.318169
O O10 0.382403 0.991829 0.890501
O O11 0.522567 0.217879 0.321346
O O12 0.684002 0.459566 0.862092
O O13 0.268882 0.264508 0.535853
O O14 0.855285 0.629196 0.318798
O O15 0.051367 0.456864 0.332592
#
# Coordination Sequence:
#
# PCOD8043087 Si02
#       7
#     2   2   2   2   2   2   2
#     4  11  23  39  56  82 118 148 180 234 287 330
#     4  10  20  38  61  84 112 149 189 232 274 325
#     4  10  22  35  55  85 113 147 192 227 274 340
#     4   9  20  35  58  84 109 145 191 225 274 342
#     4  10  19  36  58  80 110 147 190 236 273 322
#     4   9  19  33  54  80 110 144 186 228 275 332
#     4   9  16  32  56  81 104 141 189 233 271 320
#
# _framework density 19.481390000000001
#
# number of rings (size 3 to 8) (size 9 to 14) (size 15 to 20)
#    0.000    2.286    0.000    3.857    0.000    5.714 
#    0.000    2.857    0.000    0.000    0.000    0.000 
#    0.000    0.000    0.000    0.000    0.000    0.000 
#
# Total GULP energy -173619.940560 kJ/mol
# GULP energy per Si atom -12401.424326 kJ/mol
# Density = 1.943705 g / cm^3
# Si number density = 19.481390 Si / 1000 Ang^3
#
#
#
# Elastic Constant Matrix: (Units=GPa)
#
#
# Indices 1 2 3 4 5 6 
#
# 1 91.8521 43.1936 29.2886 -8.8532 -17.0165 -7.7218
# 2 43.1936 98.4488 21.2215 -15.8736 0.1656 -16.9644
# 3 29.2886 21.2215 84.7717 4.0759 -13.7852 -11.5578
# 4 -8.8532 -15.8736 4.0759 26.4357 -3.1197 0.4271
# 5 -17.0165 0.1656 -13.7852 -3.1197 32.2681 1.7672
# 6 -7.7218 -16.9644 -11.5578 0.4271 1.7672 30.8926
#
#
#
# Elastic Compliance Matrix: (Units=1/GPa)
#
#
# Indices 1 2 3 4 5 6 
#
# 1 0.016477 -0.006208 -0.003167 0.003206 0.007731 -0.000962
# 2 -0.006208 0.015505 -0.001817 0.006958 -0.003808 0.006404
# 3 -0.003167 -0.001817 0.014673 -0.003996 0.004029 0.003525
# 4 0.003206 0.006958 -0.003996 0.044142 0.004091 0.002283
# 5 0.007731 -0.003808 0.004029 0.004091 0.037249 -0.000839
# 6 -0.000962 0.006404 0.003525 0.002283 -0.000839 0.036982
#
#
# Mechanical properties :
#
#
# Convention : Reuss Voigt Hill
#
# Bulk Modulus (GPa) = 41.20195 51.38668 46.29432
# Shear Modulus (GPa) = 25.57527 30.01054 27.79291
#
# Velocity S-wave (km/s) = 3.62720 3.92914 3.78118
# Velocity P-wave (km/s) = 6.22394 6.85703 6.54814
#
# Compressibility (1/GPa) = 0.02427069
#
# Stress axis : x y z
#
# Youngs Moduli (GPa) = 60.69241 64.49550 68.15145
#
# Poissons Ratio (x) = 0.40040 0.21582
# Poissons Ratio (y) = 0.37679 0.12384
# Poissons Ratio (z) = 0.19220 0.11720
#
# Static dielectric constant tensor:
#      x y z
#    x 3.562480 -0.188280 -0.172330 
#    y -0.188280 3.219930 0.021400 
#    z -0.172330 0.021400 3.811590 
# 
# 
# High freq. dielectric constant tensor:
#      x y z
#    x 1.748110 -0.022450 -0.012970 
#    y -0.022450 1.740850 -0.003190 
#    z -0.012970 -0.003190 1.769000 
# 
# From -- ./inp_files/167445.got.cif
#   From: 2010.06.25/outbox.cif.g09.slc.cpg/sg2_84_cif.got.tgz:167445.got - 2010.06.27 13:26:56.
