data_PCOD8043909
_publ_section_title
;
Structure prediction by ZEFSAII (Michael W. Deem and Ramdas Pophale) SiO2 
 PCOD8043909
Probable space group: P -1
;
_chemical_formula_sum "Si O2"
_cell_formula_units_Z 16
_cell_length_a 17.748707
_cell_length_b 11.538294
_cell_length_c 20.865640
_cell_angle_alpha 156.980093
_cell_angle_beta 28.644857
_cell_angle_gamma 141.744605
_cell_volume 795.264284
_symmetry_space_group_name_H-M "P -1"
_symmetry_group_IT_number 2
_symmetry_cell_setting 'triclinic'
loop_
_space_group_symop_operation_xyz
x,y,z
-x,-y,-z
loop_
_atom_site_type_symbol
_atom_site_label
_atom_site_fract_x
_atom_site_fract_y
_atom_site_fract_z
Si Si1 0.641235 0.748389 0.248257
Si Si2 0.821803 0.321365 0.987571
Si Si3 0.272766 0.787622 0.329411
Si Si4 0.212501 0.887724 0.841860
Si Si5 0.126750 0.803831 0.727599
Si Si6 0.942740 0.650308 0.552074
Si Si7 0.164518 0.445238 0.763382
Si Si8 0.427291 0.371507 0.901829
O O1 0.672144 0.477901 0.138491
O O2 0.596200 0.591314 0.137016
O O3 0.500000 0.000000 0.500000
O O4 0.802136 0.901078 0.199542
O O5 0.794346 0.450714 0.144264
O O6 0.978880 0.411950 0.882163
O O7 0.830531 0.962419 0.803672
O O8 0.386950 0.646641 0.229371
O O9 0.098960 0.699872 0.422630
O O10 0.271157 0.140533 0.512245
O O11 0.337175 0.668284 0.151994
O O12 0.209670 0.704006 0.683107
O O13 0.219863 0.672986 0.787147
O O14 0.362416 0.072644 0.825111
O O15 0.058579 0.127770 0.085421
O O16 0.155654 0.556607 0.524108
O O17 0.000000 0.500000 0.500000
#
# Coordination Sequence:
#
# PCOD8043909 Si02
#       8
#     2   2   2   2   2   2   2   2
#     4  11  23  40  64  84 123 160 193 247 300 359
#     4  10  22  36  57  93 119 153 203 240 297 358
#     4  10  22  38  59  88 119 154 201 242 296 353
#     4  10  19  37  61  84 119 153 196 245 290 353
#     4  10  21  37  59  89 113 157 201 236 298 354
#     4  11  23  37  64  89 120 159 196 251 295 346
#     4  10  20  36  59  87 119 153 195 251 290 345
#     4  10  22  39  59  88 118 160 196 236 300 354
#
# _framework density 20.119098000000001
#
# number of rings (size 3 to 8) (size 9 to 14) (size 15 to 20)
#    0.000    1.750    2.500    1.500    5.250    1.500 
#    0.000    3.125    0.000    0.000    0.000    0.000 
#    0.000    0.000    0.000    0.000    0.000    0.000 
#
# Total GULP energy -198379.861804 kJ/mol
# GULP energy per Si atom -12398.741363 kJ/mol
# Density = 2.007331 g / cm^3
# Si number density = 20.119098 Si / 1000 Ang^3
#
#
#
# Elastic Constant Matrix: (Units=GPa)
#
#
# Indices 1 2 3 4 5 6 
#
# 1 123.8167 21.2737 79.0028 15.6762 15.4973 -12.3460
# 2 21.2737 26.6139 18.1611 7.5414 3.0130 -14.3613
# 3 79.0028 18.1611 139.2307 17.9002 11.3116 -11.8545
# 4 15.6762 7.5414 17.9002 23.4365 3.3647 -4.0984
# 5 15.4973 3.0130 11.3116 3.3647 37.0954 7.2215
# 6 -12.3460 -14.3613 -11.8545 -4.0984 7.2215 33.3122
#
#
#
# Elastic Compliance Matrix: (Units=1/GPa)
#
#
# Indices 1 2 3 4 5 6 
#
# 1 0.013979 -0.005090 -0.006642 -0.001948 -0.003445 0.001130
# 2 -0.005090 0.058084 -0.001023 -0.009664 -0.005855 0.022870
# 3 -0.006642 -0.001023 0.011710 -0.003940 -0.000530 0.000895
# 4 -0.001948 -0.009664 -0.003940 0.050407 -0.001832 0.000309
# 5 -0.003445 -0.005855 -0.000530 -0.001832 0.031343 -0.011009
# 6 0.001130 0.022870 0.000895 0.000309 -0.011009 0.043041
#
#
# Mechanical properties :
#
#
# Convention : Reuss Voigt Hill
#
# Bulk Modulus (GPa) = 17.16332 58.50405 37.83368
# Shear Modulus (GPa) = 19.72428 30.18374 24.95401
#
# Velocity S-wave (km/s) = 3.13449 3.87751 3.52563
# Velocity P-wave (km/s) = 4.65290 7.01347 5.95140
#
# Compressibility (1/GPa) = 0.05826378
#
# Stress axis : x y z
#
# Youngs Moduli (GPa) = 71.53424 17.21653 85.39591
#
# Poissons Ratio (x) = 0.08764 0.56718
# Poissons Ratio (y) = 0.36414 0.08732
# Poissons Ratio (z) = 0.47511 0.01760
#
# Static dielectric constant tensor:
#      x y z
#    x 3.735520 0.052940 0.126040 
#    y 0.052940 3.529950 -0.003980 
#    z 0.126040 -0.003980 3.743070 
# 
# 
# High freq. dielectric constant tensor:
#      x y z
#    x 1.790890 0.001190 0.013330 
#    y 0.001190 1.769910 -0.003120 
#    z 0.013330 -0.003120 1.786200 
# 
# From -- ./inp_files/176276.got.cif
#   From: 2010.06.25/outbox.cif.g09.slc.cpg/sg2_89_cif.got.tgz:176276.got - 2010.06.27 13:26:56.
