data_PCOD8043517
_publ_section_title
;
Structure prediction by ZEFSAII (Michael W. Deem and Ramdas Pophale) SiO2 
 PCOD8043517
Probable space group: P -1
;
_chemical_formula_sum "Si O2"
_cell_formula_units_Z 16
_cell_length_a 11.137421
_cell_length_b 21.804479
_cell_length_c 14.854004
_cell_angle_alpha 150.439300
_cell_angle_beta 29.546962
_cell_angle_gamma 130.018105
_cell_volume 775.885633
_symmetry_space_group_name_H-M "P -1"
_symmetry_group_IT_number 2
_symmetry_cell_setting 'triclinic'
loop_
_space_group_symop_operation_xyz
x,y,z
-x,-y,-z
loop_
_atom_site_type_symbol
_atom_site_label
_atom_site_fract_x
_atom_site_fract_y
_atom_site_fract_z
Si Si1 0.714605 0.180680 0.674861
Si Si2 0.257106 0.157619 0.864373
Si Si3 0.350575 0.530185 0.845053
Si Si4 0.429677 0.081894 0.278425
Si Si5 0.087789 0.677387 0.857536
Si Si6 0.942806 0.013341 0.950570
Si Si7 0.037136 0.394779 0.967268
Si Si8 0.169371 0.936549 0.166526
O O1 0.386145 0.228751 0.939751
O O2 0.863182 0.128034 0.412997
O O3 0.742364 0.313190 0.860743
O O4 0.861892 0.054443 0.490110
O O5 0.500000 0.000000 0.500000
O O6 0.985951 0.146575 0.059216
O O7 0.182535 0.239639 0.922425
O O8 0.677672 0.435809 0.503987
O O9 0.238219 0.462612 0.907083
O O10 0.233155 0.525991 0.817079
O O11 0.177388 0.234687 0.640850
O O12 0.290262 0.977992 0.228857
O O13 0.628639 0.070342 0.052884
O O14 0.622949 0.047139 0.195568
O O15 0.174840 0.787821 0.987730
O O16 0.033411 0.592822 0.865063
O O17 0.000000 0.000000 0.000000
#
# Coordination Sequence:
#
# PCOD8043517 Si02
#       8
#     2   2   2   2   2   2   2   2
#     4  10  21  41  64  91 129 169 206 268 323 371
#     4  10  20  40  63  88 127 166 207 271 317 372
#     4  11  24  46  60  93 137 168 211 262 323 386
#     4  10  19  36  63  95 121 163 207 266 321 363
#     4  12  23  42  66  96 129 170 219 257 325 388
#     4  10  21  37  63  97 124 164 211 264 323 377
#     4  11  24  39  70  90 130 177 206 262 329 385
#     4  10  19  38  65  95 126 157 214 271 317 374
#
# _framework density 20.621596
#
# number of rings (size 3 to 8) (size 9 to 14) (size 15 to 20)
#    0.000    1.500    6.250    0.375    3.500    1.000 
#    4.500    0.625    0.000    0.000    0.000    0.000 
#    0.000    0.000    0.000    0.000    0.000    0.000 
#
# Total GULP energy -198314.987038 kJ/mol
# GULP energy per Si atom -12394.686690 kJ/mol
# Density = 2.057466 g / cm^3
# Si number density = 20.621596 Si / 1000 Ang^3
#
#
#
# Elastic Constant Matrix: (Units=GPa)
#
#
# Indices 1 2 3 4 5 6 
#
# 1 117.7633 33.0077 24.0907 -24.6612 -6.7018 -10.0114
# 2 33.0077 81.5672 27.9733 -18.2471 12.6469 -17.2342
# 3 24.0907 27.9733 74.7675 10.4827 -6.9678 1.2673
# 4 -24.6612 -18.2471 10.4827 -0.4196 19.4773 -13.2835
# 5 -6.7018 12.6469 -6.9678 19.4773 22.0124 7.0253
# 6 -10.0114 -17.2342 1.2673 -13.2835 7.0253 27.4852
#
#
#
# Elastic Compliance Matrix: (Units=1/GPa)
#
#
# Indices 1 2 3 4 5 6 
#
# 1 0.010325 -0.005528 -0.000521 -0.000388 0.007030 -0.001666
# 2 -0.005528 0.011296 -0.000499 -0.011940 0.002668 -0.001360
# 3 -0.000521 -0.000499 0.012072 0.008233 -0.004646 0.004107
# 4 -0.000388 -0.011940 0.008233 -0.008663 0.022762 -0.018013
# 5 0.007030 0.002668 -0.004646 0.022762 0.021226 0.010023
# 6 -0.001666 -0.001360 0.004107 -0.018013 0.010023 0.023467
#
#
# Mechanical properties :
#
#
# Convention : Reuss Voigt Hill
#
# Bulk Modulus (GPa) = 48.55118 49.36016 48.95567
# Shear Modulus (GPa) = 55.75023 22.41736 39.08379
#
# Velocity S-wave (km/s) = 5.20515 3.30067 4.35821
# Velocity P-wave (km/s) = 7.72785 6.20596 7.00834
#
# Compressibility (1/GPa) = 0.02059682
#
# Stress axis : x y z
#
# Youngs Moduli (GPa) = 96.85376 88.52476 82.83308
#
# Poissons Ratio (x) = 0.48938 0.04313
# Poissons Ratio (y) = 0.53543 0.04137
# Poissons Ratio (z) = 0.05043 0.04421
#
# Static dielectric constant tensor:
#      x y z
#    x 4.210720 0.442290 -0.240140 
#    y 0.442290 3.896710 -0.120080 
#    z -0.240140 -0.120080 3.626570 
# 
# 
# High freq. dielectric constant tensor:
#      x y z
#    x 1.812360 0.012620 -0.013970 
#    y 0.012620 1.794330 -0.002120 
#    z -0.013970 -0.002120 1.790530 
# 
# From -- ./inp_files/523933.got.cif
#   From: 2010.06.25/outbox.cif.g09.slc.cpg/sg2_262_cif.got.tgz:523933.got - 2010.06.27 13:26:56.
