data_PCOD8043700
_publ_section_title
;
Structure prediction by ZEFSAII (Michael W. Deem and Ramdas Pophale) SiO2 
 PCOD8043700
Probable space group: P -1
;
_chemical_formula_sum "Si O2"
_cell_formula_units_Z 16
_cell_length_a 25.803982
_cell_length_b 14.128197
_cell_length_c 11.122322
_cell_angle_alpha 31.655593
_cell_angle_beta 155.166990
_cell_angle_gamma 147.652050
_cell_volume 844.253429
_symmetry_space_group_name_H-M "P -1"
_symmetry_group_IT_number 2
_symmetry_cell_setting 'triclinic'
loop_
_space_group_symop_operation_xyz
x,y,z
-x,-y,-z
loop_
_atom_site_type_symbol
_atom_site_label
_atom_site_fract_x
_atom_site_fract_y
_atom_site_fract_z
Si Si1 0.539976 0.027884 0.691818
Si Si2 0.946011 0.270657 0.131206
Si Si3 0.080034 0.576776 0.424619
Si Si4 0.126305 0.304151 0.277808
Si Si5 0.181715 0.963603 0.664026
Si Si6 0.379909 0.566143 0.646204
Si Si7 0.948768 0.180936 0.686997
Si Si8 0.714479 0.273397 0.498236
O O1 0.572247 0.251807 0.539321
O O2 0.500000 0.000000 0.500000
O O3 0.414058 0.891482 0.646072
O O4 0.667636 0.971436 0.050054
O O5 0.918808 0.192839 0.292652
O O6 0.052587 0.204714 0.352902
O O7 0.810206 0.182608 0.867902
O O8 0.000000 0.500000 0.000000
O O9 0.060151 0.377612 0.666852
O O10 0.208136 0.605044 0.582566
O O11 0.108713 0.761619 0.373445
O O12 0.952556 0.566706 0.087028
O O13 0.272430 0.421064 0.495369
O O14 0.134323 0.147652 0.367751
O O15 0.166651 0.878255 0.590806
O O16 0.322877 0.593921 0.625787
O O17 0.500000 0.500000 0.000000
O O18 0.000000 0.000000 0.000000
#
# Coordination Sequence:
#
# PCOD8043700 Si02
#       8
#     2   2   2   2   2   2   2   2
#     4  10  19  37  56  84 121 157 190 237 296 369
#     4  11  19  34  54  87 121 150 188 245 304 364
#     4  10  23  42  65  86 122 158 201 262 299 344
#     4  11  21  34  57  92 118 154 196 242 309 368
#     4  12  21  36  62  84 121 159 198 245 301 363
#     4  11  21  34  55  87 128 158 191 235 303 372
#     4  11  23  43  62  90 116 160 211 252 300 348
#     4  10  20  38  59  86 124 155 195 242 305 359
#
# _framework density 18.951656
#
# number of rings (size 3 to 8) (size 9 to 14) (size 15 to 20)
#    0.000    1.250    5.000    4.125    0.000    0.000 
#    2.250    0.625    0.000    0.750    0.000    0.000 
#    0.000    0.000    0.000    0.000    0.000    0.000 
#
# Total GULP energy -198271.555413 kJ/mol
# GULP energy per Si atom -12391.972213 kJ/mol
# Density = 1.890852 g / cm^3
# Si number density = 18.951656 Si / 1000 Ang^3
#
#
#
# Elastic Constant Matrix: (Units=GPa)
#
#
# Indices 1 2 3 4 5 6 
#
# 1 79.6657 40.3576 23.4966 3.9598 0.1377 -3.9076
# 2 40.3576 99.4686 35.9226 2.3771 8.4532 0.3500
# 3 23.4966 35.9226 76.3954 3.5636 6.7906 5.3003
# 4 3.9598 2.3771 3.5636 37.5138 -1.1610 -2.1489
# 5 0.1377 8.4532 6.7906 -1.1610 25.7818 2.6488
# 6 -3.9076 0.3500 5.3003 -2.1489 2.6488 32.7329
#
#
#
# Elastic Compliance Matrix: (Units=1/GPa)
#
#
# Indices 1 2 3 4 5 6 
#
# 1 0.016468 -0.005924 -0.002591 -0.000920 0.002269 0.002205
# 2 -0.005924 0.014439 -0.004673 0.000057 -0.003488 0.000181
# 3 -0.002591 -0.004673 0.016567 -0.001245 -0.002585 -0.002815
# 4 -0.000920 0.000057 -0.001245 0.027011 0.001350 0.001755
# 5 0.002269 -0.003488 -0.002585 0.001350 0.040916 -0.002496
# 6 0.002205 0.000181 -0.002815 0.001755 -0.002496 0.031585
#
#
# Mechanical properties :
#
#
# Convention : Reuss Voigt Hill
#
# Bulk Modulus (GPa) = 47.39774 50.56481 48.98128
# Shear Modulus (GPa) = 27.71709 29.58922 28.65316
#
# Velocity S-wave (km/s) = 3.82843 3.95562 3.89254
# Velocity P-wave (km/s) = 6.67882 6.89938 6.78999
#
# Compressibility (1/GPa) = 0.02109805
#
# Stress axis : x y z
#
# Youngs Moduli (GPa) = 60.72455 69.25670 60.36141
#
# Poissons Ratio (x) = 0.41031 0.15639
# Poissons Ratio (y) = 0.35976 0.28204
# Poissons Ratio (z) = 0.15733 0.32360
#
# Static dielectric constant tensor:
#      x y z
#    x 3.535410 -0.100000 0.009480 
#    y -0.100000 3.497810 0.013290 
#    z 0.009480 0.013290 3.378560 
# 
# 
# High freq. dielectric constant tensor:
#      x y z
#    x 1.720220 -0.004260 0.004900 
#    y -0.004260 1.746590 0.003560 
#    z 0.004900 0.003560 1.724870 
# 
# From -- ./inp_files/453507.got.cif
#   From: 2010.06.25/outbox.cif.g09.slc.cpg/sg2_227_cif.got.tgz:453507.got - 2010.06.27 13:26:56.
