data_PCOD8043449
_publ_section_title
;
Structure prediction by ZEFSAII (Michael W. Deem and Ramdas Pophale) SiO2 
 PCOD8043449
Probable space group: P -1
;
_chemical_formula_sum "Si O2"
_cell_formula_units_Z 16
_cell_length_a 5.284024
_cell_length_b 10.044227
_cell_length_c 19.063013
_cell_angle_alpha 77.825004
_cell_angle_beta 63.036276
_cell_angle_gamma 57.748130
_cell_volume 761.984551
_symmetry_space_group_name_H-M "P -1"
_symmetry_group_IT_number 2
_symmetry_cell_setting 'triclinic'
loop_
_space_group_symop_operation_xyz
x,y,z
-x,-y,-z
loop_
_atom_site_type_symbol
_atom_site_label
_atom_site_fract_x
_atom_site_fract_y
_atom_site_fract_z
Si Si1 0.308346 0.541189 0.398869
Si Si2 0.839246 0.391006 0.854346
Si Si3 0.353723 0.956865 0.434405
Si Si4 0.267092 0.253633 0.461700
Si Si5 0.779932 0.673554 0.326244
Si Si6 0.080461 0.554276 0.912018
Si Si7 0.280752 0.074402 0.088006
Si Si8 0.084325 0.059109 0.911822
O O1 0.442645 0.353236 0.408655
O O2 0.626723 0.559534 0.350612
O O3 0.118373 0.623566 0.486569
O O4 0.068565 0.607368 0.354660
O O5 0.467429 0.486017 0.863609
O O6 0.074643 0.315644 0.766936
O O7 0.936820 0.502709 0.871453
O O8 0.888803 0.248615 0.914272
O O9 0.608878 0.848176 0.472596
O O10 0.479934 0.851426 0.359975
O O11 0.335731 0.125578 0.406136
O O12 0.000000 0.000000 0.500000
O O13 0.908713 0.740017 0.912058
O O14 0.000000 0.500000 0.000000
O O15 0.522588 0.010437 0.132144
O O16 0.024406 0.010202 0.132149
O O17 0.500000 0.000000 0.000000
O O18 0.000000 0.000000 0.000000
#
# Coordination Sequence:
#
# PCOD8043449 Si02
#       8
#     2   2   2   2   2   2   2   2
#     4  10  21  38  63  89 123 167 212 262 311 366
#     4  12  25  42  64  94 130 170 210 264 338 384
#     4  10  19  36  62  93 126 165 218 260 305 371
#     4   9  20  34  61  96 119 161 222 267 298 357
#     4  11  24  41  60  87 133 170 204 262 324 381
#     4  12  23  41  68  94 119 161 217 265 310 394
#     4  10  20  36  60  89 117 145 193 259 309 356
#     4  10  19  37  61  89 119 155 203 254 310 379
#
# _framework density 20.997799000000001
#
# number of rings (size 3 to 8) (size 9 to 14) (size 15 to 20)
#    0.000    1.500    1.250    5.625    1.750    1.500 
#    0.000    3.750    2.750    0.000    0.000    0.000 
#    0.000    0.000    0.000    0.000    0.000    0.000 
#
# Total GULP energy -198321.565240 kJ/mol
# GULP energy per Si atom -12395.097828 kJ/mol
# Density = 2.095001 g / cm^3
# Si number density = 20.997799 Si / 1000 Ang^3
#
#
#
# Elastic Constant Matrix: (Units=GPa)
#
#
# Indices 1 2 3 4 5 6 
#
# 1 133.1346 40.5558 13.8635 -0.4762 -23.8592 20.8163
# 2 40.5558 176.3115 30.2461 1.6094 -12.4430 19.7176
# 3 13.8635 30.2461 76.1915 16.4966 -6.8986 12.9857
# 4 -0.4762 1.6094 16.4966 22.9885 -2.4805 -0.2270
# 5 -23.8592 -12.4430 -6.8986 -2.4805 21.0079 -0.2453
# 6 20.8163 19.7176 12.9857 -0.2270 -0.2453 34.5421
#
#
#
# Elastic Compliance Matrix: (Units=1/GPa)
#
#
# Indices 1 2 3 4 5 6 
#
# 1 0.010873 -0.001049 0.000236 0.001354 0.011895 -0.005949
# 2 -0.001049 0.006686 -0.002135 0.001255 0.002188 -0.002358
# 3 0.000236 -0.002135 0.017884 -0.012374 0.003348 -0.005704
# 4 0.001354 0.001255 -0.012374 0.052840 0.004498 0.003499
# 5 0.011895 0.002188 0.003348 0.004498 0.063930 -0.009193
# 6 -0.005949 -0.002358 -0.005704 0.003499 -0.009193 0.035983
#
#
# Mechanical properties :
#
#
# Convention : Reuss Voigt Hill
#
# Bulk Modulus (GPa) = 33.84516 61.66315 47.75416
# Shear Modulus (GPa) = 24.51682 35.77252 30.14467
#
# Velocity S-wave (km/s) = 3.42071 4.13199 3.79306
# Velocity P-wave (km/s) = 5.63517 7.22459 6.47880
#
# Compressibility (1/GPa) = 0.02954632
#
# Stress axis : x y z
#
# Youngs Moduli (GPa) = 91.97142 149.56554 55.91568
#
# Poissons Ratio (x) = 0.15690 -0.01318
# Poissons Ratio (y) = 0.09648 0.11938
# Poissons Ratio (z) = -0.02168 0.31933
#
# Static dielectric constant tensor:
#      x y z
#    x -2.026510 -0.668210 1.134730 
#    y -0.668210 3.728790 0.287710 
#    z 1.134730 0.287710 3.210640 
# 
# 
# High freq. dielectric constant tensor:
#      x y z
#    x 1.840840 0.008750 -0.011140 
#    y 0.008750 1.840900 0.000580 
#    z -0.011140 0.000580 1.774250 
# 
# From -- ./inp_files/46813.got.cif
#   From: 2010.06.25/outbox.cif.g09.slc.cpg/sg2_24_cif.got.tgz:46813.got - 2010.06.27 13:26:56.
