data_PCOD8043431
_publ_section_title
;
Structure prediction by ZEFSAII (Michael W. Deem and Ramdas Pophale) SiO2 
 PCOD8043431
Probable space group: P -1
;
_chemical_formula_sum "Si O2"
_cell_formula_units_Z 12
_cell_length_a 13.874467
_cell_length_b 13.830439
_cell_length_c 22.191546
_cell_angle_alpha 160.164562
_cell_angle_beta 21.345594
_cell_angle_gamma 149.817485
_cell_volume 523.575377
_symmetry_space_group_name_H-M "P -1"
_symmetry_group_IT_number 2
_symmetry_cell_setting 'triclinic'
loop_
_space_group_symop_operation_xyz
x,y,z
-x,-y,-z
loop_
_atom_site_type_symbol
_atom_site_label
_atom_site_fract_x
_atom_site_fract_y
_atom_site_fract_z
Si Si1 0.766407 0.898919 0.991168
Si Si2 0.519989 0.926129 0.025781
Si Si3 0.995606 0.666353 0.428076
Si Si4 0.710840 0.411308 0.133768
Si Si5 0.372009 0.107347 0.447129
Si Si6 0.820137 0.498247 0.304803
O O1 0.564499 0.844505 0.022044
O O2 0.618595 0.986078 0.191260
O O3 0.929862 0.167173 0.034210
O O4 0.966598 0.619662 0.721466
O O5 0.750136 0.111392 0.973571
O O6 0.264170 0.146800 0.289959
O O7 0.469775 0.639055 0.849848
O O8 0.976618 0.602493 0.331206
O O9 0.251846 0.839540 0.390843
O O10 0.547188 0.667673 0.417574
O O11 0.000000 0.500000 0.000000
O O12 0.138420 0.287949 0.649304
O O13 0.500000 0.500000 0.500000
#
# Coordination Sequence:
#
# PCOD8043431 Si02
#       6
#     2   2   2   2   2   2
#     4  11  23  41  66 100 129 166 221 272 328 385
#     4  11  23  44  70  94 130 176 221 264 329 394
#     4  12  22  38  68  99 132 168 213 279 327 379
#     4  11  23  42  71  92 129 183 216 264 329 393
#     4  11  21  40  66  98 131 168 221 265 327 388
#     4  10  19  36  62  91 126 165 211 262 324 380
#
# _framework density 22.919336999999999
#
# number of rings (size 3 to 8) (size 9 to 14) (size 15 to 20)
#    0.000    1.000    6.667    2.500    0.000    0.000 
#    0.000    4.167    3.667    0.000    0.000    0.000 
#    0.000    0.000    0.000    0.000    0.000    0.000 
#
# Total GULP energy -148709.186506 kJ/mol
# GULP energy per Si atom -12392.432209 kJ/mol
# Density = 2.286717 g / cm^3
# Si number density = 22.919337 Si / 1000 Ang^3
#
#
#
# Elastic Constant Matrix: (Units=GPa)
#
#
# Indices 1 2 3 4 5 6 
#
# 1 105.9442 17.7641 59.2242 14.3803 36.1745 19.8877
# 2 17.7641 90.8876 18.4967 12.9125 4.4912 10.3118
# 3 59.2242 18.4967 81.5455 16.7208 -0.3737 -3.0583
# 4 14.3803 12.9125 16.7208 35.7730 -2.0362 5.1498
# 5 36.1745 4.4912 -0.3737 -2.0362 35.3189 14.4122
# 6 19.8877 10.3118 -3.0583 5.1498 14.4122 37.7341
#
#
#
# Elastic Compliance Matrix: (Units=1/GPa)
#
#
# Indices 1 2 3 4 5 6 
#
# 1 0.042923 0.001654 -0.031221 -0.004234 -0.040911 -0.009402
# 2 0.001654 0.012310 -0.003484 -0.003130 -0.002141 -0.003273
# 3 -0.031221 -0.003484 0.036896 -0.003240 0.028574 0.009926
# 4 -0.004234 -0.003130 -0.003240 0.033527 0.008704 -0.005076
# 5 -0.040911 -0.002141 0.028574 0.008704 0.073204 -0.004684
# 6 -0.009402 -0.003273 0.009926 -0.005076 -0.004684 0.035637
#
#
# Mechanical properties :
#
#
# Convention : Reuss Voigt Hill
#
# Bulk Modulus (GPa) = 38.42155 52.14967 45.28561
# Shear Modulus (GPa) = 16.16681 33.95801 25.06241
#
# Velocity S-wave (km/s) = 2.65878 3.85337 3.31041
# Velocity P-wave (km/s) = 5.12110 6.52694 5.86629
#
# Compressibility (1/GPa) = 0.02602706
#
# Stress axis : x y z
#
# Youngs Moduli (GPa) = 23.29740 81.23253 27.10310
#
# Poissons Ratio (x) = -0.13438 0.84619
# Poissons Ratio (y) = -0.03854 0.09444
# Poissons Ratio (z) = 0.72737 0.28305
#
# Static dielectric constant tensor:
#      x y z
#    x 4.245040 -0.089360 0.216920 
#    y -0.089360 4.563300 0.543290 
#    z 0.216920 0.543290 3.997220 
# 
# 
# High freq. dielectric constant tensor:
#      x y z
#    x 1.901880 0.007520 0.023180 
#    y 0.007520 1.910030 0.026440 
#    z 0.023180 0.026440 1.870940 
# 
# From -- ./inp_files/450967.got.cif
#   From: 2010.06.25/outbox.cif.g09.slc.cpg/sg2_226_cif.got.tgz:450967.got - 2010.06.27 13:26:56.
