data_PCOD8043430
_publ_section_title
;
Structure prediction by ZEFSAII (Michael W. Deem and Ramdas Pophale) SiO2 
 PCOD8043430
Probable space group: P -1
;
_chemical_formula_sum "Si O2"
_cell_formula_units_Z 14
_cell_length_a 15.954475
_cell_length_b 12.595777
_cell_length_c 10.225244
_cell_angle_alpha 121.919210
_cell_angle_beta 151.774817
_cell_angle_gamma 46.585062
_cell_volume 688.043145
_symmetry_space_group_name_H-M "P -1"
_symmetry_group_IT_number 2
_symmetry_cell_setting 'triclinic'
loop_
_space_group_symop_operation_xyz
x,y,z
-x,-y,-z
loop_
_atom_site_type_symbol
_atom_site_label
_atom_site_fract_x
_atom_site_fract_y
_atom_site_fract_z
Si Si1 0.190151 0.961958 0.335320
Si Si2 0.273148 0.656167 0.279087
Si Si3 0.609992 0.905945 0.754056
Si Si4 0.493907 0.800537 0.282767
Si Si5 0.966505 0.371742 0.832313
Si Si6 0.285599 0.510815 0.696138
Si Si7 0.151165 0.735980 0.869007
O O1 0.288401 0.798361 0.427311
O O2 0.384550 0.960515 0.540144
O O3 0.071763 0.104997 0.362411
O O4 0.000000 0.000000 0.000000
O O5 0.500000 0.500000 0.500000
O O6 0.111184 0.665733 0.168108
O O7 0.179543 0.675226 0.016736
O O8 0.625254 0.835065 0.586644
O O9 0.636583 0.046979 0.882069
O O10 0.817102 0.771632 0.023660
O O11 0.665709 0.657225 0.337511
O O12 0.342689 0.758829 0.118906
O O13 0.797587 0.423187 0.518756
O O14 0.000000 0.500000 0.000000
O O15 0.138076 0.619178 0.681175
O O16 0.500000 0.500000 0.000000
#
# Coordination Sequence:
#
# PCOD8043430 Si02
#       7
#     2   2   2   2   2   2   2
#     4  10  20  37  59  89 123 163 207 247 305 371
#     4  11  21  37  61  93 123 158 208 257 302 360
#     4  11  21  35  62  93 124 154 214 260 299 353
#     4  10  19  36  62  91 120 164 203 254 306 368
#     4  12  24  39  63  96 122 160 212 260 299 360
#     4  10  22  42  63  89 128 165 201 248 318 379
#     4  10  21  40  62  89 121 166 206 246 309 375
#
# _framework density 20.347560000000001
#
# number of rings (size 3 to 8) (size 9 to 14) (size 15 to 20)
#    0.000    1.429    4.286    3.429    6.000    0.000 
#    0.000   11.429    0.000    0.000    0.000    0.000 
#    0.000    0.000    0.000    0.000    0.000    0.000 
#
# Total GULP energy -173459.008335 kJ/mol
# GULP energy per Si atom -12389.929167 kJ/mol
# Density = 2.030125 g / cm^3
# Si number density = 20.347560 Si / 1000 Ang^3
#
#
#
# Elastic Constant Matrix: (Units=GPa)
#
#
# Indices 1 2 3 4 5 6 
#
# 1 94.6394 56.8314 41.3255 3.9115 -5.9570 -6.3971
# 2 56.8314 215.1546 49.7825 -9.1171 -9.7906 -21.4398
# 3 41.3255 49.7825 82.4503 -9.1007 0.1222 -1.1652
# 4 3.9115 -9.1171 -9.1007 35.8719 -8.6496 0.3518
# 5 -5.9570 -9.7906 0.1222 -8.6496 27.1966 -3.2220
# 6 -6.3971 -21.4398 -1.1652 0.3518 -3.2220 40.0368
#
#
#
# Elastic Compliance Matrix: (Units=1/GPa)
#
#
# Indices 1 2 3 4 5 6 
#
# 1 0.015217 -0.002497 -0.006505 -0.003607 0.001441 0.001053
# 2 -0.002497 0.006369 -0.002341 0.001927 0.002742 0.003147
# 3 -0.006505 -0.002341 0.017242 0.004210 -0.001235 -0.001928
# 4 -0.003607 0.001927 0.004210 0.032298 0.010290 0.001123
# 5 0.001441 0.002742 -0.001235 0.010290 0.041936 0.004947
# 6 0.001053 0.003147 -0.001928 0.001123 0.004947 0.027163
#
#
# Mechanical properties :
#
#
# Convention : Reuss Voigt Hill
#
# Bulk Modulus (GPa) = 61.94855 76.45812 69.20333
# Shear Modulus (GPa) = 29.71031 36.90806 33.30918
#
# Velocity S-wave (km/s) = 3.82532 4.26359 4.05039
# Velocity P-wave (km/s) = 7.07263 7.86735 7.48055
#
# Compressibility (1/GPa) = 0.01614243
#
# Stress axis : x y z
#
# Youngs Moduli (GPa) = 65.71530 157.00898 57.99906
#
# Poissons Ratio (x) = 0.39201 0.37728
# Poissons Ratio (y) = 0.16407 0.13578
# Poissons Ratio (z) = 0.42748 0.36756
#
# Static dielectric constant tensor:
#      x y z
#    x 4.165620 -0.564800 -0.246860 
#    y -0.564800 5.016480 0.043620 
#    z -0.246860 0.043620 3.585550 
# 
# 
# High freq. dielectric constant tensor:
#      x y z
#    x 1.774520 -0.009530 0.016380 
#    y -0.009530 1.830630 -0.011490 
#    z 0.016380 -0.011490 1.765960 
# 
# From -- ./inp_files/308417.got.cif
#   From: 2010.06.25/outbox.cif.g09.slc.cpg/sg2_155_cif.got.tgz:308417.got - 2010.06.27 13:26:56.
