data_PCOD8043393
_publ_section_title
;
Structure prediction by ZEFSAII (Michael W. Deem and Ramdas Pophale) SiO2 
 PCOD8043393
Probable space group: P -1
;
_chemical_formula_sum "Si O2"
_cell_formula_units_Z 16
_cell_length_a 13.947264
_cell_length_b 9.353240
_cell_length_c 9.323240
_cell_angle_alpha 116.940272
_cell_angle_beta 131.287837
_cell_angle_gamma 88.591762
_cell_volume 743.232416
_symmetry_space_group_name_H-M "P -1"
_symmetry_group_IT_number 2
_symmetry_cell_setting 'triclinic'
loop_
_space_group_symop_operation_xyz
x,y,z
-x,-y,-z
loop_
_atom_site_type_symbol
_atom_site_label
_atom_site_fract_x
_atom_site_fract_y
_atom_site_fract_z
Si Si1 0.987933 0.243125 0.286059
Si Si2 0.823433 0.475788 0.210938
Si Si3 0.580665 0.524353 0.440988
Si Si4 0.505384 0.338836 0.849821
Si Si5 0.976859 0.341530 0.743375
Si Si6 0.867985 0.022630 0.312443
Si Si7 0.900278 0.657915 0.855430
Si Si8 0.443127 0.152028 0.984437
O O1 0.892312 0.346732 0.268172
O O2 0.904493 0.053622 0.192473
O O3 0.136953 0.361008 0.563487
O O4 0.016097 0.217846 0.137088
O O5 0.874649 0.551280 0.137966
O O6 0.661406 0.359366 0.991419
O O7 0.500000 0.500000 0.500000
O O8 0.556297 0.663013 0.371314
O O9 0.741279 0.627318 0.688151
O O10 0.546158 0.336112 0.243643
O O11 0.432488 0.170949 0.808474
O O12 0.500000 0.500000 0.000000
O O13 0.869333 0.199096 0.466399
O O14 0.900476 0.465379 0.764773
O O15 0.015763 0.249120 0.875937
O O16 0.710487 0.880627 0.117726
O O17 0.000000 0.000000 0.500000
O O18 0.500000 0.000000 0.000000
#
# Coordination Sequence:
#
# PCOD8043393 Si02
#       8
#     2   2   2   2   2   2   2   2
#     4   9  18  32  55  82 106 152 187 245 278 354
#     4   9  16  32  56  79 112 141 200 234 288 335
#     4  11  24  38  64  92 124 155 199 259 302 353
#     4  10  21  34  60  85 119 158 203 248 291 359
#     4   9  20  36  59  86 112 154 185 248 286 360
#     4  11  24  35  58  83 122 150 196 236 299 343
#     4  10  19  36  62  84 115 144 200 235 301 343
#     4  11  24  43  63  88 125 166 203 243 304 376
#
# _framework density 21.527585999999999
#
# number of rings (size 3 to 8) (size 9 to 14) (size 15 to 20)
#    0.000    2.000    0.000    4.500   10.500    0.000 
#    0.000    2.500    0.000    0.000    0.000    0.000 
#    0.000    0.000    0.000    0.000    0.000    0.000 
#
# Total GULP energy -198233.865992 kJ/mol
# GULP energy per Si atom -12389.616624 kJ/mol
# Density = 2.147859 g / cm^3
# Si number density = 21.527586 Si / 1000 Ang^3
#
#
#
# Elastic Constant Matrix: (Units=GPa)
#
#
# Indices 1 2 3 4 5 6 
#
# 1 81.8756 43.1995 20.7244 -20.9967 14.4881 24.7175
# 2 43.1995 120.7116 20.8126 -29.1766 -4.0282 32.2567
# 3 20.7244 20.8126 48.0834 -20.5056 7.2685 11.9169
# 4 -20.9967 -29.1766 -20.5056 35.9930 5.6935 -9.6368
# 5 14.4881 -4.0282 7.2685 5.6935 37.6708 -6.7820
# 6 24.7175 32.2567 11.9169 -9.6368 -6.7820 43.1211
#
#
#
# Elastic Compliance Matrix: (Units=1/GPa)
#
#
# Indices 1 2 3 4 5 6 
#
# 1 0.021143 -0.003236 0.000339 0.009184 -0.011654 -0.009573
# 2 -0.003236 0.012704 0.000280 0.006865 0.000408 -0.006128
# 3 0.000339 0.000280 0.031446 0.018165 -0.010106 -0.006624
# 4 0.009184 0.006865 0.018165 0.049639 -0.015009 -0.006688
# 5 -0.011654 0.000408 -0.010106 -0.015009 0.037395 0.011695
# 6 -0.009573 -0.006128 -0.006624 -0.006688 0.011695 0.035437
#
#
# Mechanical properties :
#
#
# Convention : Reuss Voigt Hill
#
# Bulk Modulus (GPa) = 16.65004 46.68260 31.66632
# Shear Modulus (GPa) = 23.47232 34.41926 28.94579
#
# Velocity S-wave (km/s) = 3.30561 4.00289 3.67084
# Velocity P-wave (km/s) = 4.72445 6.56478 5.71912
#
# Compressibility (1/GPa) = 0.06005991
#
# Stress axis : x y z
#
# Youngs Moduli (GPa) = 47.29783 78.71342 31.80072
#
# Poissons Ratio (x) = 0.25470 -0.01078
# Poissons Ratio (y) = 0.15305 -0.00892
# Poissons Ratio (z) = -0.01603 -0.02208
#
# Static dielectric constant tensor:
#      x y z
#    x 3.917340 0.237120 -0.192070 
#    y 0.237120 4.354510 -0.345150 
#    z -0.192070 -0.345150 3.788750 
# 
# 
# High freq. dielectric constant tensor:
#      x y z
#    x 1.852420 0.012590 0.004500 
#    y 0.012590 1.852440 -0.026100 
#    z 0.004500 -0.026100 1.816890 
# 
# From -- ./inp_files/299363.got.cif
#   From: 2010.06.25/outbox.cif.g09.slc.cpg/sg2_150_cif.got.tgz:299363.got - 2010.06.27 13:26:56.
