data_PCOD8043261
_publ_section_title
;
Structure prediction by ZEFSAII (Michael W. Deem and Ramdas Pophale) SiO2 
 PCOD8043261
Probable space group: P -1
;
_chemical_formula_sum "Si O2"
_cell_formula_units_Z 16
_cell_length_a 14.829365
_cell_length_b 8.065164
_cell_length_c 9.479827
_cell_angle_alpha 114.935420
_cell_angle_beta 64.726619
_cell_angle_gamma 132.682576
_cell_volume 738.654327
_symmetry_space_group_name_H-M "P -1"
_symmetry_group_IT_number 2
_symmetry_cell_setting 'triclinic'
loop_
_space_group_symop_operation_xyz
x,y,z
-x,-y,-z
loop_
_atom_site_type_symbol
_atom_site_label
_atom_site_fract_x
_atom_site_fract_y
_atom_site_fract_z
Si Si1 0.246787 0.111261 0.619885
Si Si2 0.703098 0.502812 0.651940
Si Si3 0.496454 0.704336 0.522862
Si Si4 0.903634 0.623271 0.332093
Si Si5 0.018273 0.631492 0.680231
Si Si6 0.249429 0.669262 0.178270
Si Si7 0.815142 0.974106 0.677028
Si Si8 0.696002 0.446252 0.185910
O O1 0.356338 0.076583 0.518058
O O2 0.303956 0.334699 0.760329
O O3 0.121163 0.901040 0.697662
O O4 0.207552 0.148566 0.505498
O O5 0.574641 0.348670 0.595329
O O6 0.825634 0.577443 0.509621
O O7 0.675793 0.336725 0.742206
O O8 0.734012 0.753748 0.758775
O O9 0.500000 0.500000 0.500000
O O10 0.424804 0.743711 0.705145
O O11 0.937058 0.447661 0.252372
O O12 0.828204 0.558193 0.214556
O O13 0.038047 0.877545 0.329407
O O14 0.000000 0.500000 0.500000
O O15 0.887782 0.573956 0.797496
O O16 0.238034 0.878066 0.253295
O O17 0.315841 0.677558 0.994414
#
# Coordination Sequence:
#
# PCOD8043261 Si02
#       8
#     2   2   2   2   2   2   2   2
#     4  11  19  39  65  88 117 165 205 251 297 359
#     4  11  19  37  66  85 115 170 209 241 299 375
#     4   9  19  39  67  86 116 162 215 246 290 368
#     4  10  19  36  60  90 116 164 206 240 308 361
#     4  11  20  35  62  91 128 150 200 263 286 369
#     4  11  24  40  58  98 128 151 202 262 310 352
#     4  11  20  35  66  85 122 161 204 250 295 369
#     4  10  23  39  59  88 129 154 198 262 304 358
#
# _framework density 21.661010999999998
#
# number of rings (size 3 to 8) (size 9 to 14) (size 15 to 20)
#    0.000    1.500    7.500    0.375    1.750    2.500 
#    2.250    8.750    0.000    0.000    0.000    0.000 
#    0.000    0.000    0.000    0.000    0.000    0.000 
#
# Total GULP energy -198211.893706 kJ/mol
# GULP energy per Si atom -12388.243357 kJ/mol
# Density = 2.161171 g / cm^3
# Si number density = 21.661011 Si / 1000 Ang^3
#
#
#
# Elastic Constant Matrix: (Units=GPa)
#
#
# Indices 1 2 3 4 5 6 
#
# 1 104.3000 -1.9577 29.0588 -13.3611 13.4794 6.0650
# 2 -1.9577 25.4476 -2.9852 -6.2428 -2.1627 -11.1597
# 3 29.0588 -2.9852 86.4184 -4.5563 5.4488 -6.0731
# 4 -13.3611 -6.2428 -4.5563 15.5817 0.1945 -2.7464
# 5 13.4794 -2.1627 5.4488 0.1945 23.1394 -4.8233
# 6 6.0650 -11.1597 -6.0731 -2.7464 -4.8233 29.8403
#
#
#
# Elastic Compliance Matrix: (Units=1/GPa)
#
#
# Indices 1 2 3 4 5 6 
#
# 1 0.013043 0.000966 -0.003586 0.010034 -0.007435 -0.003298
# 2 0.000966 0.060653 0.004780 0.031323 0.009529 0.027883
# 3 -0.003586 0.004780 0.013511 0.003789 0.000510 0.005698
# 4 0.010034 0.031323 0.003789 0.089725 -0.000688 0.018592
# 5 -0.007435 0.009529 0.000510 -0.000688 0.051112 0.013377
# 6 -0.003298 0.027883 0.005698 0.018592 0.013377 0.049643
#
#
# Mechanical properties :
#
#
# Convention : Reuss Voigt Hill
#
# Bulk Modulus (GPa) = 10.92567 29.37752 20.15159
# Shear Modulus (GPa) = 16.45411 26.51562 21.48486
#
# Velocity S-wave (km/s) = 2.75911 3.50253 3.15281
# Velocity P-wave (km/s) = 3.89937 5.47255 4.75152
#
# Compressibility (1/GPa) = 0.09152761
#
# Stress axis : x y z
#
# Youngs Moduli (GPa) = 76.66884 16.48715 74.01557
#
# Poissons Ratio (x) = -0.01593 0.26545
# Poissons Ratio (y) = -0.07408 -0.35382
# Poissons Ratio (z) = 0.27496 -0.07882
#
# Static dielectric constant tensor:
#      x y z
#    x 4.464680 0.116880 -0.142040 
#    y 0.116880 4.017720 -0.179550 
#    z -0.142040 -0.179550 3.496910 
# 
# 
# High freq. dielectric constant tensor:
#      x y z
#    x 1.872760 0.003140 -0.000950 
#    y 0.003140 1.844480 -0.003540 
#    z -0.000950 -0.003540 1.796130 
# 
# From -- ./inp_files/296051.got.cif
#   From: 2010.06.25/outbox.cif.g09.slc.cpg/sg2_149_cif.got.tgz:296051.got - 2010.06.27 13:26:56.
