data_PCOD8043053
_publ_section_title
;
Structure prediction by ZEFSAII (Michael W. Deem and Ramdas Pophale) SiO2 
 PCOD8043053
Probable space group: P -1
;
_chemical_formula_sum "Si O2"
_cell_formula_units_Z 16
_cell_length_a 14.764829
_cell_length_b 8.559011
_cell_length_c 14.418904
_cell_angle_alpha 100.060090
_cell_angle_beta 39.898875
_cell_angle_gamma 130.147312
_cell_volume 676.959596
_symmetry_space_group_name_H-M "P -1"
_symmetry_group_IT_number 2
_symmetry_cell_setting 'triclinic'
loop_
_space_group_symop_operation_xyz
x,y,z
-x,-y,-z
loop_
_atom_site_type_symbol
_atom_site_label
_atom_site_fract_x
_atom_site_fract_y
_atom_site_fract_z
Si Si1 0.089601 0.590560 0.288795
Si Si2 0.005982 0.808567 0.780238
Si Si3 0.641807 0.773755 0.592840
Si Si4 0.348248 0.273515 0.869656
Si Si5 0.353141 0.886280 0.296293
Si Si6 0.814970 0.133996 0.932443
Si Si7 0.772207 0.443806 0.205282
Si Si8 0.781107 0.120283 0.210540
O O1 0.290855 0.780832 0.229474
O O2 0.125788 0.772814 0.210620
O O3 0.130923 0.462650 0.188819
O O4 0.823623 0.363559 0.518444
O O5 0.226067 0.936382 0.681848
O O6 0.117239 0.027253 0.637383
O O7 0.837533 0.749598 0.978125
O O8 0.599614 0.581125 0.671457
O O9 0.423483 0.602122 0.673632
O O10 0.677565 0.954460 0.651451
O O11 0.288272 0.091206 0.819474
O O12 0.336044 0.169943 0.967573
O O13 0.630963 0.095360 0.118331
O O14 0.065655 0.349336 0.813643
O O15 0.635437 0.152771 0.309909
O O16 0.944416 0.576171 0.994789
#
# Coordination Sequence:
#
# PCOD8043053 Si02
#       8
#     2   2   2   2   2   2   2   2
#     4  10  22  43  67  91 112 150 212 255 290 350
#     4  11  22  39  60  86 120 162 202 240 297 352
#     4  11  23  39  60  89 123 164 195 241 302 354
#     4  11  24  38  56  87 133 159 194 237 295 370
#     4  10  22  43  68  88 115 153 203 259 298 337
#     4  11  22  40  64  90 119 161 196 247 300 352
#     4  10  20  38  61  87 124 153 202 251 287 350
#     4  10  19  36  57  82 119 160 191 245 290 340
#
# _framework density 23.635088
#
# number of rings (size 3 to 8) (size 9 to 14) (size 15 to 20)
#    0.000    1.500    2.500    3.750    1.750    2.000 
#    4.500    2.500    0.000    4.500    0.000    0.000 
#    0.000    0.000    0.000    0.000    0.000    0.000 
#
# Total GULP energy -198254.175797 kJ/mol
# GULP energy per Si atom -12390.885987 kJ/mol
# Density = 2.358129 g / cm^3
# Si number density = 23.635088 Si / 1000 Ang^3
#
#
#
# Elastic Constant Matrix: (Units=GPa)
#
#
# Indices 1 2 3 4 5 6 
#
# 1 95.5278 43.5085 25.5876 -16.9090 41.9381 -12.7418
# 2 43.5085 98.3503 15.0250 -15.1040 21.1365 -10.8000
# 3 25.5876 15.0250 44.2404 -15.0126 25.3407 -4.5326
# 4 -16.9090 -15.1040 -15.0126 26.4697 -11.1504 7.9375
# 5 41.9381 21.1365 25.3407 -11.1504 44.3717 -18.4851
# 6 -12.7418 -10.8000 -4.5326 7.9375 -18.4851 33.4680
#
#
#
# Elastic Compliance Matrix: (Units=1/GPa)
#
#
# Indices 1 2 3 4 5 6 
#
# 1 0.021061 -0.005251 0.001873 0.004923 -0.019462 -0.005339
# 2 -0.005251 0.013185 -0.000253 0.003731 0.000417 0.001567
# 3 0.001873 -0.000253 0.040908 0.017025 -0.025776 -0.012103
# 4 0.004923 0.003731 0.017025 0.052919 -0.007586 -0.011356
# 5 -0.019462 0.000417 -0.025776 -0.007586 0.064698 0.026768
# 6 -0.005339 0.001567 -0.012103 -0.011356 0.026768 0.044191
#
#
# Mechanical properties :
#
#
# Convention : Reuss Voigt Hill
#
# Bulk Modulus (GPa) = 14.72925 45.15118 29.94022
# Shear Modulus (GPa) = 18.73681 31.12838 24.93260
#
# Velocity S-wave (km/s) = 2.81864 3.63304 3.25144
# Velocity P-wave (km/s) = 4.10347 6.06165 5.17601
#
# Compressibility (1/GPa) = 0.06789212
#
# Stress axis : x y z
#
# Youngs Moduli (GPa) = 47.48062 75.84502 24.44508
#
# Poissons Ratio (x) = 0.39827 -0.04579
# Poissons Ratio (y) = 0.24932 0.00619
# Poissons Ratio (z) = -0.08894 0.01920
#
# Static dielectric constant tensor:
#      x y z
#    x 4.254180 -0.280490 0.412650 
#    y -0.280490 4.120660 -0.237460 
#    z 0.412650 -0.237460 4.205390 
# 
# 
# High freq. dielectric constant tensor:
#      x y z
#    x 1.920530 -0.014030 0.032170 
#    y -0.014030 1.924440 -0.006510 
#    z 0.032170 -0.006510 1.930350 
# 
# From -- ./inp_files/529889.got.cif
#   From: 2010.06.25/outbox.cif.g09.slc.cpg/sg2_265_cif.got.tgz:529889.got - 2010.06.27 13:26:56.
