data_PCOD8043550
_publ_section_title
;
Structure prediction by ZEFSAII (Michael W. Deem and Ramdas Pophale) SiO2 
 PCOD8043550
Probable space group: P -1
;
_chemical_formula_sum "Si O2"
_cell_formula_units_Z 14
_cell_length_a 16.318580
_cell_length_b 10.507043
_cell_length_c 9.062291
_cell_angle_alpha 52.327972
_cell_angle_beta 67.366893
_cell_angle_gamma 30.765406
_cell_volume 590.133424
_symmetry_space_group_name_H-M "P -1"
_symmetry_group_IT_number 2
_symmetry_cell_setting 'triclinic'
loop_
_space_group_symop_operation_xyz
x,y,z
-x,-y,-z
loop_
_atom_site_type_symbol
_atom_site_label
_atom_site_fract_x
_atom_site_fract_y
_atom_site_fract_z
Si Si1 0.626027 0.596546 0.250961
Si Si2 0.424785 0.515905 0.358715
Si Si3 0.115684 0.224066 0.999894
Si Si4 0.738342 0.214174 0.217223
Si Si5 0.037714 0.751044 0.156978
Si Si6 0.625151 0.631303 0.756836
Si Si7 0.355302 0.113407 0.823545
O O1 0.543685 0.587668 0.420860
O O2 0.777742 0.283909 0.269274
O O3 0.709111 0.611416 0.276791
O O4 0.480458 0.866087 0.043977
O O5 0.599305 0.306190 0.310996
O O6 0.378817 0.423548 0.368569
O O7 0.268812 0.883863 0.206375
O O8 0.994568 0.293023 0.941645
O O9 0.199813 0.229924 0.832712
O O10 0.000000 0.500000 0.000000
O O11 0.919106 0.856345 0.294728
O O12 0.664158 0.411814 0.981621
O O13 0.238394 0.433046 0.279379
O O14 0.000000 0.000000 0.000000
O O15 0.448851 0.979486 0.694572
#
# Coordination Sequence:
#
# PCOD8043550 Si02
#       7
#     2   2   2   2   2   2   2
#     4  10  23  37  69  94 130 166 220 263 318 381
#     4  12  21  40  65 100 122 173 220 266 308 385
#     4  12  25  38  67  97 129 163 219 266 318 376
#     4  10  19  36  64  91 127 166 217 252 314 385
#     4  10  21  37  63  98 124 174 215 254 314 396
#     4  10  20  37  69  88 129 169 220 247 325 385
#     4  10  23  43  65  93 129 174 209 263 329 378
#
# _framework density 23.723448999999999
#
# number of rings (size 3 to 8) (size 9 to 14) (size 15 to 20)
#    0.000    1.429    5.714    1.714    8.000    0.571 
#    0.000    2.857    0.000    2.571    0.000    0.000 
#    0.000    0.000    0.000    0.000    0.000    0.000 
#
# Total GULP energy -173480.226818 kJ/mol
# GULP energy per Si atom -12391.444773 kJ/mol
# Density = 2.366945 g / cm^3
# Si number density = 23.723449 Si / 1000 Ang^3
#
#
#
# Elastic Constant Matrix: (Units=GPa)
#
#
# Indices 1 2 3 4 5 6 
#
# 1 122.3466 54.5541 -7.1152 -3.9767 2.6032 11.5398
# 2 54.5541 151.4406 21.4050 26.1659 10.1380 6.0552
# 3 -7.1152 21.4050 35.6457 11.2236 0.2298 7.6878
# 4 -3.9767 26.1659 11.2236 21.3358 5.9630 2.9141
# 5 2.6032 10.1380 0.2298 5.9630 16.3558 7.9019
# 6 11.5398 6.0552 7.6878 2.9141 7.9019 45.6178
#
#
#
# Elastic Compliance Matrix: (Units=1/GPa)
#
#
# Indices 1 2 3 4 5 6 
#
# 1 0.011676 -0.006035 0.004319 0.007574 0.000749 -0.003494
# 2 -0.006035 0.011705 -0.004702 -0.012547 -0.002632 0.002023
# 3 0.004319 -0.004702 0.038279 -0.015616 0.011179 -0.007858
# 4 0.007574 -0.012547 -0.015616 0.077924 -0.022224 0.001253
# 5 0.000749 -0.002632 0.011179 -0.022224 0.077206 -0.013678
# 6 -0.003494 0.002023 -0.007858 0.001253 -0.013678 0.026150
#
#
# Mechanical properties :
#
#
# Convention : Reuss Voigt Hill
#
# Bulk Modulus (GPa) = 20.48254 49.68010 35.08132
# Shear Modulus (GPa) = 18.37883 32.70115 25.53999
#
# Velocity S-wave (km/s) = 2.78638 3.71675 3.28467
# Velocity P-wave (km/s) = 4.35942 6.27740 5.40418
#
# Compressibility (1/GPa) = 0.04882207
#
# Stress axis : x y z
#
# Youngs Moduli (GPa) = 85.64845 85.43171 26.12379
#
# Poissons Ratio (x) = 0.51562 -0.11282
# Poissons Ratio (y) = 0.51693 0.12284
# Poissons Ratio (z) = -0.36989 0.40172
#
# Static dielectric constant tensor:
#      x y z
#    x 4.634900 0.052640 -0.046360 
#    y 0.052640 4.973410 0.314220 
#    z -0.046360 0.314220 3.933330 
# 
# 
# High freq. dielectric constant tensor:
#      x y z
#    x 1.955630 0.011890 -0.002120 
#    y 0.011890 1.940150 0.030430 
#    z -0.002120 0.030430 1.908640 
# 
# From -- ./inp_files/331698.got.cif
#   From: 2010.06.25/outbox.cif.g09.slc.cpg/sg2_166_cif.got.tgz:331698.got - 2010.06.27 13:26:56.
