data_PCOD8043718
_publ_section_title
;
Structure prediction by ZEFSAII (Michael W. Deem and Ramdas Pophale) SiO2 
 PCOD8043718
Probable space group: P -1
;
_chemical_formula_sum "Si O2"
_cell_formula_units_Z 16
_cell_length_a 19.299643
_cell_length_b 11.970264
_cell_length_c 20.308614
_cell_angle_alpha 21.607666
_cell_angle_beta 29.038849
_cell_angle_gamma 38.164644
_cell_volume 829.295003
_symmetry_space_group_name_H-M "P -1"
_symmetry_group_IT_number 2
_symmetry_cell_setting 'triclinic'
loop_
_space_group_symop_operation_xyz
x,y,z
-x,-y,-z
loop_
_atom_site_type_symbol
_atom_site_label
_atom_site_fract_x
_atom_site_fract_y
_atom_site_fract_z
Si Si1 0.358926 0.051353 0.746337
Si Si2 0.775910 0.631732 0.791321
Si Si3 0.510286 0.804224 0.867508
Si Si4 0.542541 0.534907 0.240580
Si Si5 0.155158 0.398465 0.102029
Si Si6 0.618764 0.169362 0.899584
Si Si7 0.088042 0.759176 0.446738
Si Si8 0.075294 0.275885 0.830899
O O1 0.453845 0.234694 0.510689
O O2 0.212058 0.193225 0.802836
O O3 0.453538 0.067129 0.726358
O O4 0.317656 0.703633 0.947017
O O5 0.679505 0.879400 0.706806
O O6 0.817658 0.724736 0.780096
O O7 0.925354 0.633626 0.624998
O O8 0.500000 0.500000 0.000000
O O9 0.412669 0.758033 0.038944
O O10 0.460685 0.617576 0.198093
O O11 0.696589 0.446385 0.139712
O O12 0.562585 0.815394 0.122081
O O13 0.043705 0.644302 0.061725
O O14 0.085228 0.108741 0.277302
O O15 0.791889 0.255560 0.700776
O O16 0.130573 0.566147 0.579738
O O17 0.000000 0.000000 0.000000
#
# Coordination Sequence:
#
# PCOD8043718 Si02
#       8
#     2   2   2   2   2   2   2   2
#     4  11  22  37  56  89 120 151 197 237 300 348
#     4  10  19  37  57  83 121 153 193 235 295 356
#     4  10  23  41  56  84 122 162 191 230 300 365
#     4  10  21  36  59  90 113 152 198 248 291 332
#     4  10  20  35  58  87 117 151 194 245 295 343
#     4  10  20  38  60  84 118 151 201 242 286 351
#     4  10  20  35  61  86 112 154 198 242 295 339
#     4  11  19  34  55  89 119 146 192 249 292 333
#
# _framework density 19.293495
#
# number of rings (size 3 to 8) (size 9 to 14) (size 15 to 20)
#    0.000    1.750    5.000    1.500    0.000    2.000 
#    4.500    3.750    0.000    3.000    0.000    0.000 
#    0.000    0.000    0.000    0.000    0.000    0.000 
#
# Total GULP energy -198335.922148 kJ/mol
# GULP energy per Si atom -12395.995134 kJ/mol
# Density = 1.924958 g / cm^3
# Si number density = 19.293495 Si / 1000 Ang^3
#
#
#
# Elastic Constant Matrix: (Units=GPa)
#
#
# Indices 1 2 3 4 5 6 
#
# 1 92.4252 47.2889 21.4215 13.0358 12.4628 -26.7365
# 2 47.2889 136.7403 40.1543 18.2545 7.9243 -13.3881
# 3 21.4215 40.1543 93.7006 15.5257 -1.3324 -8.6355
# 4 13.0358 18.2545 15.5257 27.2408 -3.5561 -2.6325
# 5 12.4628 7.9243 -1.3324 -3.5561 18.4669 1.5850
# 6 -26.7365 -13.3881 -8.6355 -2.6325 1.5850 44.7052
#
#
#
# Elastic Compliance Matrix: (Units=1/GPa)
#
#
# Indices 1 2 3 4 5 6 
#
# 1 0.018360 -0.003473 -0.000875 -0.006720 -0.013102 0.009840
# 2 -0.003473 0.010070 -0.002912 -0.003785 -0.002939 0.000258
# 3 -0.000875 -0.002912 0.013001 -0.004729 0.001801 0.000773
# 4 -0.006720 -0.003785 -0.004729 0.046763 0.015153 -0.003849
# 5 -0.013102 -0.002939 0.001801 0.015153 0.068151 -0.009892
# 6 0.009840 0.000258 0.000773 -0.003849 -0.009892 0.028604
#
#
# Mechanical properties :
#
#
# Convention : Reuss Voigt Hill
#
# Bulk Modulus (GPa) = 37.15997 60.06617 48.61307
# Shear Modulus (GPa) = 23.98752 32.34934 28.16843
#
# Velocity S-wave (km/s) = 3.52987 4.09919 3.82513
# Velocity P-wave (km/s) = 5.99295 7.32154 6.69031
#
# Compressibility (1/GPa) = 0.02691068
#
# Stress axis : x y z
#
# Youngs Moduli (GPa) = 54.46532 99.30312 76.91722
#
# Poissons Ratio (x) = 0.34485 0.06732
# Poissons Ratio (y) = 0.18914 0.22401
# Poissons Ratio (z) = 0.04767 0.28921
#
# Static dielectric constant tensor:
#      x y z
#    x 3.777100 -0.472000 -0.093910 
#    y -0.472000 3.844230 0.160280 
#    z -0.093910 0.160280 3.483870 
# 
# 
# High freq. dielectric constant tensor:
#      x y z
#    x 1.726190 -0.020180 -0.013890 
#    y -0.020180 1.764270 0.008990 
#    z -0.013890 0.008990 1.740160 
# 
# From -- ./inp_files/257184.got.cif
#   From: 2010.06.25/outbox.cif.g09.slc.cpg/sg2_129_cif.got.tgz:257184.got - 2010.06.27 13:26:56.
