data_PCOD8043365
_publ_section_title
;
Structure prediction by ZEFSAII (Michael W. Deem and Ramdas Pophale) SiO2 
 PCOD8043365
Probable space group: P -1
;
_chemical_formula_sum "Si O2"
_cell_formula_units_Z 16
_cell_length_a 8.653868
_cell_length_b 11.925642
_cell_length_c 11.432009
_cell_angle_alpha 78.082286
_cell_angle_beta 63.887006
_cell_angle_gamma 49.589494
_cell_volume 801.262120
_symmetry_space_group_name_H-M "P -1"
_symmetry_group_IT_number 2
_symmetry_cell_setting 'triclinic'
loop_
_space_group_symop_operation_xyz
x,y,z
-x,-y,-z
loop_
_atom_site_type_symbol
_atom_site_label
_atom_site_fract_x
_atom_site_fract_y
_atom_site_fract_z
Si Si1 0.666754 0.770920 0.931542
Si Si2 0.256947 0.855247 0.178041
Si Si3 0.295044 0.145756 0.474375
Si Si4 0.118303 0.659979 0.261641
Si Si5 0.115280 0.242697 0.919300
Si Si6 0.374630 0.328682 0.265511
Si Si7 0.898697 0.115800 0.111959
Si Si8 0.395715 0.990438 0.244138
O O1 0.747338 0.666190 0.813235
O O2 0.671585 0.904378 0.869112
O O3 0.416489 0.833152 0.026067
O O4 0.815186 0.691379 0.018534
O O5 0.263996 0.714697 0.201731
O O6 0.344576 0.877037 0.264348
O O7 0.005888 0.010678 0.213330
O O8 0.336094 0.260792 0.402485
O O9 0.082913 0.229989 0.608659
O O10 0.500000 0.000000 0.500000
O O11 0.257175 0.089388 0.380941
O O12 0.273427 0.494392 0.296842
O O13 0.041160 0.652113 0.159089
O O14 0.338337 0.101872 0.810696
O O15 0.976928 0.211689 0.047791
O O16 0.635880 0.226347 0.181932
O O17 0.000000 0.000000 0.000000
#
# Coordination Sequence:
#
# PCOD8043365 Si02
#       8
#     2   2   2   2   2   2   2   2
#     4  10  19  36  61  92 120 154 193 247 300 339
#     4  11  20  34  63  91 123 148 198 248 294 351
#     4  11  22  43  68  84 108 157 215 247 284 343
#     4  12  25  38  57  90 124 163 191 239 305 356
#     4  11  19  33  62  91 122 148 194 242 296 353
#     4  11  25  40  59  86 127 156 193 245 301 357
#     4  12  18  35  61  92 115 157 199 242 289 347
#     4  10  19  37  64  94 114 150 203 259 282 330
#
# _framework density 19.968495999999998
#
# number of rings (size 3 to 8) (size 9 to 14) (size 15 to 20)
#    0.000    1.000    6.250    2.625    0.000    3.000 
#    0.000    1.250    0.000    1.500    0.000    0.000 
#    0.000    0.000    0.000    0.000    0.000    0.000 
#
# Total GULP energy -198233.966962 kJ/mol
# GULP energy per Si atom -12389.622935 kJ/mol
# Density = 1.992305 g / cm^3
# Si number density = 19.968496 Si / 1000 Ang^3
#
#
#
# Elastic Constant Matrix: (Units=GPa)
#
#
# Indices 1 2 3 4 5 6 
#
# 1 88.3358 29.1883 34.3914 -15.7029 -5.7000 11.2994
# 2 29.1883 98.6287 24.4497 -18.9496 -0.9818 10.8034
# 3 34.3914 24.4497 70.7965 -10.5435 4.4788 8.4403
# 4 -15.7029 -18.9496 -10.5435 21.9610 -2.1789 0.4527
# 5 -5.7000 -0.9818 4.4788 -2.1789 21.3045 -0.0068
# 6 11.2994 10.8034 8.4403 0.4527 -0.0068 17.2885
#
#
#
# Elastic Compliance Matrix: (Units=1/GPa)
#
#
# Indices 1 2 3 4 5 6 
#
# 1 0.017091 -0.000793 -0.006105 0.009442 0.006783 -0.007939
# 2 -0.000793 0.013751 -0.002018 0.010673 0.001935 -0.007368
# 3 -0.006105 -0.002018 0.019002 0.002559 -0.005461 -0.004095
# 4 0.009442 0.010673 0.002559 0.063944 0.009015 -0.015761
# 5 0.006783 0.001935 -0.005461 0.009015 0.050911 -0.003192
# 6 -0.007939 -0.007368 -0.004095 -0.015761 -0.003192 0.070045
#
#
# Mechanical properties :
#
#
# Convention : Reuss Voigt Hill
#
# Bulk Modulus (GPa) = 31.23869 48.20217 39.72043
# Shear Modulus (GPa) = 18.99351 23.42625 21.20988
#
# Velocity S-wave (km/s) = 3.08746 3.42886 3.26263
# Velocity P-wave (km/s) = 5.32802 6.31408 5.84189
#
# Compressibility (1/GPa) = 0.03201159
#
# Stress axis : x y z
#
# Youngs Moduli (GPa) = 58.51068 72.72177 52.62499
#
# Poissons Ratio (x) = 0.05770 0.32127
# Poissons Ratio (y) = 0.04642 0.10620
# Poissons Ratio (z) = 0.35720 0.14675
#
# Static dielectric constant tensor:
#      x y z
#    x 3.841250 -0.037370 -0.058150 
#    y -0.037370 3.569740 0.057470 
#    z -0.058150 0.057470 3.706960 
# 
# 
# High freq. dielectric constant tensor:
#      x y z
#    x 1.784320 0.004020 -0.000380 
#    y 0.004020 1.757860 -0.002660 
#    z -0.000380 -0.002660 1.768530 
# 
# From -- ./inp_files/175121.got.cif
#   From: 2010.06.25/outbox.cif.g09.slc.cpg/sg2_88_cif.got.tgz:175121.got - 2010.06.27 13:26:56.
