data_PCOD8043624
_publ_section_title
;
Structure prediction by ZEFSAII (Michael W. Deem and Ramdas Pophale) SiO2 
 PCOD8043624
Probable space group: P -1
;
_chemical_formula_sum "Si O2"
_cell_formula_units_Z 16
_cell_length_a 15.293020
_cell_length_b 19.634349
_cell_length_c 8.298601
_cell_angle_alpha 90.626572
_cell_angle_beta 97.973707
_cell_angle_gamma 18.576594
_cell_volume 726.487539
_symmetry_space_group_name_H-M "P -1"
_symmetry_group_IT_number 2
_symmetry_cell_setting 'triclinic'
loop_
_space_group_symop_operation_xyz
x,y,z
-x,-y,-z
loop_
_atom_site_type_symbol
_atom_site_label
_atom_site_fract_x
_atom_site_fract_y
_atom_site_fract_z
Si Si1 0.100691 0.069682 0.364096
Si Si2 0.510307 0.997830 0.193130
Si Si3 0.001684 0.003871 0.190838
Si Si4 0.425664 0.915704 0.176993
Si Si5 0.106266 0.491347 0.947731
Si Si6 0.384904 0.824849 0.747179
Si Si7 0.399316 0.501590 0.535914
Si Si8 0.087602 0.182496 0.787220
O O1 0.853310 0.301041 0.387123
O O2 0.938677 0.128463 0.226670
O O3 0.297573 0.970495 0.295420
O O4 0.329351 0.865469 0.542905
O O5 0.186319 0.256321 0.190735
O O6 0.592404 0.862266 0.280085
O O7 0.750673 0.880010 0.287129
O O8 0.500000 0.000000 0.000000
O O9 0.325603 0.742485 0.329822
O O10 0.738350 0.153153 0.203884
O O11 0.000000 0.000000 0.000000
O O12 0.661981 0.692959 0.141812
O O13 0.155033 0.140928 0.994171
O O14 0.264298 0.423173 0.122657
O O15 0.000000 0.500000 0.000000
O O16 0.203771 0.021934 0.774333
O O17 0.500000 0.500000 0.500000
O O18 0.262303 0.559451 0.349468
#
# Coordination Sequence:
#
# PCOD8043624 Si02
#       8
#     2   2   2   2   2   2   2   2
#     4  11  25  43  64  97 136 168 222 274 323 392
#     4  10  19  36  66  95 120 167 217 262 319 388
#     4  12  25  45  69  98 130 170 223 272 324 395
#     4  10  22  39  62  97 130 165 223 268 314 394
#     4  11  19  38  68  89 129 172 214 266 328 377
#     4  10  21  40  64  93 129 171 211 269 322 383
#     4  11  24  44  69  93 131 177 215 265 339 382
#     4   9  18  39  66  89 127 167 214 266 317 386
#
# _framework density 22.023778
#
# number of rings (size 3 to 8) (size 9 to 14) (size 15 to 20)
#    0.000    1.500    6.250    1.875    0.000    4.500 
#    0.000    3.125    2.750    0.000    0.000    0.000 
#    0.000    0.000    0.000    0.000    0.000    0.000 
#
# Total GULP energy -198329.164790 kJ/mol
# GULP energy per Si atom -12395.572799 kJ/mol
# Density = 2.197365 g / cm^3
# Si number density = 22.023778 Si / 1000 Ang^3
#
#
#
# Elastic Constant Matrix: (Units=GPa)
#
#
# Indices 1 2 3 4 5 6 
#
# 1 131.2003 15.6364 20.2916 7.3599 -2.5647 -36.8916
# 2 15.6364 82.5105 23.0428 -0.6445 -6.6034 -23.5505
# 3 20.2916 23.0428 76.6497 -7.2566 -7.6708 -21.2943
# 4 7.3599 -0.6445 -7.2566 39.0705 -10.5722 -4.1301
# 5 -2.5647 -6.6034 -7.6708 -10.5722 28.3548 1.9779
# 6 -36.8916 -23.5505 -21.2943 -4.1301 1.9779 42.4485
#
#
#
# Elastic Compliance Matrix: (Units=1/GPa)
#
#
# Indices 1 2 3 4 5 6 
#
# 1 0.010174 0.000746 -0.000566 -0.001095 -0.000086 0.008870
# 2 0.000746 0.015083 -0.002094 0.001364 0.002967 0.007960
# 3 -0.000566 -0.002094 0.016866 0.005459 0.005565 0.007079
# 4 -0.001095 0.001364 0.005459 0.030837 0.012848 0.004945
# 5 -0.000086 0.002967 0.005565 0.012848 0.041991 0.003656
# 6 0.008870 0.007960 0.007079 0.004945 0.003656 0.039545
#
#
# Mechanical properties :
#
#
# Convention : Reuss Voigt Hill
#
# Bulk Modulus (GPa) = 26.11265 45.36692 35.73978
# Shear Modulus (GPa) = 29.22426 37.40075 33.31250
#
# Velocity S-wave (km/s) = 3.64667 4.12539 3.89340
# Velocity P-wave (km/s) = 5.44181 6.58298 6.03941
#
# Compressibility (1/GPa) = 0.03829562
#
# Stress axis : x y z
#
# Youngs Moduli (GPa) = 98.28602 66.29814 59.29012
#
# Poissons Ratio (x) = -0.04947 0.03355
# Poissons Ratio (y) = -0.07334 0.12418
# Poissons Ratio (z) = 0.05562 0.13886
#
# Static dielectric constant tensor:
#      x y z
#    x 4.650210 0.162110 0.650920 
#    y 0.162110 4.188310 0.076500 
#    z 0.650920 0.076500 4.140540 
# 
# 
# High freq. dielectric constant tensor:
#      x y z
#    x 1.886990 -0.001360 0.022050 
#    y -0.001360 1.858560 -0.002770 
#    z 0.022050 -0.002770 1.845910 
# 
# From -- ./inp_files/319366.got.cif
#   From: 2010.06.25/outbox.cif.g09.slc.cpg/sg2_160_cif.got.tgz:319366.got - 2010.06.27 13:26:56.
