data_PCOD8043529
_publ_section_title
;
Structure prediction by ZEFSAII (Michael W. Deem and Ramdas Pophale) SiO2 
 PCOD8043529
Probable space group: P -1
;
_chemical_formula_sum "Si O2"
_cell_formula_units_Z 16
_cell_length_a 18.546851
_cell_length_b 11.653208
_cell_length_c 21.075271
_cell_angle_alpha 148.992802
_cell_angle_beta 153.077037
_cell_angle_gamma 35.696603
_cell_volume 1039.817615
_symmetry_space_group_name_H-M "P -1"
_symmetry_group_IT_number 2
_symmetry_cell_setting 'triclinic'
loop_
_space_group_symop_operation_xyz
x,y,z
-x,-y,-z
loop_
_atom_site_type_symbol
_atom_site_label
_atom_site_fract_x
_atom_site_fract_y
_atom_site_fract_z
Si Si1 0.110146 0.718298 0.019815
Si Si2 0.039817 0.248954 0.715567
Si Si3 0.768474 0.947079 0.813911
Si Si4 0.806759 0.227243 0.417508
Si Si5 0.328304 0.296075 0.496001
Si Si6 0.320365 0.865877 0.353188
Si Si7 0.689166 0.300374 0.491664
Si Si8 0.487568 0.805210 0.583053
O O1 0.173591 0.759003 0.159557
O O2 0.214367 0.818723 0.095442
O O3 0.133432 0.450243 0.898769
O O4 0.922818 0.848228 0.931825
O O5 0.979564 0.256097 0.597898
O O6 0.880816 0.269011 0.645655
O O7 0.166357 0.008762 0.712347
O O8 0.754722 0.757526 0.660462
O O9 0.602055 0.987563 0.744514
O O10 0.740684 0.436836 0.417175
O O11 0.675740 0.229117 0.373420
O O12 0.522169 0.246850 0.617833
O O13 0.281182 0.139854 0.441294
O O14 0.346796 0.815368 0.424321
O O15 0.606365 0.560976 0.560605
O O16 0.602387 0.145103 0.396180
#
# Coordination Sequence:
#
# PCOD8043529 Si02
#       8
#     2   2   2   2   2   2   2   2
#     4  10  16  25  41  69  93 109 139 179 224 248
#     4   9  16  28  44  68  84 112 149 183 206 243
#     4   9  15  25  44  63  91 112 138 184 213 255
#     4   9  15  28  48  64  82 112 152 185 199 244
#     4   9  14  28  42  64  87 111 148 174 216 250
#     4   9  17  24  43  65  94 112 129 184 221 260
#     4   9  16  27  49  63  86 110 154 175 203 259
#     4  10  16  29  45  66  89 116 140 172 219 264
#
# _framework density 15.387314
#
# number of rings (size 3 to 8) (size 9 to 14) (size 15 to 20)
#    0.750    2.000    5.000    0.750    0.000    0.000 
#    0.000    1.250    0.000    1.500    0.000    0.000 
#    0.000    0.000    0.000    0.000    0.000    0.000 
#
# Total GULP energy -198232.255459 kJ/mol
# GULP energy per Si atom -12389.515966 kJ/mol
# Density = 1.535229 g / cm^3
# Si number density = 15.387314 Si / 1000 Ang^3
#
#
#
# Elastic Constant Matrix: (Units=GPa)
#
#
# Indices 1 2 3 4 5 6 
#
# 1 62.8622 25.9103 27.2315 8.6452 13.9759 -0.9776
# 2 25.9103 92.2037 35.2135 17.3730 1.1170 -2.7232
# 3 27.2315 35.2135 75.9160 0.7005 9.7516 0.6758
# 4 8.6452 17.3730 0.7005 27.1626 4.2362 0.9851
# 5 13.9759 1.1170 9.7516 4.2362 16.4776 0.6738
# 6 -0.9776 -2.7232 0.6758 0.9851 0.6738 9.6855
#
#
#
# Elastic Compliance Matrix: (Units=1/GPa)
#
#
# Indices 1 2 3 4 5 6 
#
# 1 0.023616 -0.004285 -0.004340 -0.002158 -0.016734 0.002865
# 2 -0.004285 0.017053 -0.007547 -0.011034 0.009563 0.005346
# 3 -0.004340 -0.007547 0.019349 0.007252 -0.008959 -0.004024
# 4 -0.002158 -0.011034 0.007252 0.046742 -0.013418 -0.007646
# 5 -0.016734 0.009563 -0.008959 -0.013418 0.083099 -0.002792
# 6 0.002865 0.005346 -0.004024 -0.007646 -0.002792 0.106292
#
#
# Mechanical properties :
#
#
# Convention : Reuss Voigt Hill
#
# Bulk Modulus (GPa) = 36.13397 45.29915 40.71656
# Shear Modulus (GPa) = 14.80521 20.17359 17.48940
#
# Velocity S-wave (km/s) = 3.10525 3.62478 3.37502
# Velocity P-wave (km/s) = 6.03247 6.85725 6.45804
#
# Compressibility (1/GPa) = 0.02767479
#
# Stress axis : x y z
#
# Youngs Moduli (GPa) = 42.34500 58.64073 51.68108
#
# Poissons Ratio (x) = 0.25127 0.22427
# Poissons Ratio (y) = 0.18145 0.39004
# Poissons Ratio (z) = 0.18376 0.44257
#
# Static dielectric constant tensor:
#      x y z
#    x 2.839330 0.130720 0.271130 
#    y 0.130720 2.954760 -0.035960 
#    z 0.271130 -0.035960 2.846120 
# 
# 
# High freq. dielectric constant tensor:
#      x y z
#    x 1.547590 0.014620 0.020450 
#    y 0.014620 1.588870 -0.005470 
#    z 0.020450 -0.005470 1.565730 
# 
# From -- ./inp_files/576961.got.cif
#   From: 2010.06.25/outbox.cif.g09.slc.cpg/sg2_289_cif.got.tgz:576961.got - 2010.06.27 13:26:56.
