data_PCOD8043078
_publ_section_title
;
Structure prediction by ZEFSAII (Michael W. Deem and Ramdas Pophale) SiO2 
 PCOD8043078
Probable space group: P -1
;
_chemical_formula_sum "Si O2"
_cell_formula_units_Z 16
_cell_length_a 17.342793
_cell_length_b 12.595994
_cell_length_c 7.246675
_cell_angle_alpha 94.301273
_cell_angle_beta 89.797052
_cell_angle_gamma 29.718960
_cell_volume 774.983823
_symmetry_space_group_name_H-M "P -1"
_symmetry_group_IT_number 2
_symmetry_cell_setting 'triclinic'
loop_
_space_group_symop_operation_xyz
x,y,z
-x,-y,-z
loop_
_atom_site_type_symbol
_atom_site_label
_atom_site_fract_x
_atom_site_fract_y
_atom_site_fract_z
Si Si1 0.389948 0.095146 0.241122
Si Si2 0.697120 0.491753 0.614509
Si Si3 0.680922 0.274537 0.520351
Si Si4 0.593630 0.288160 0.894233
Si Si5 0.138675 0.550204 0.164382
Si Si6 0.425419 0.940312 0.590315
Si Si7 0.780191 0.984973 0.200258
Si Si8 0.587774 0.678827 0.023086
O O1 0.347782 0.084131 0.428407
O O2 0.227511 0.334054 0.188434
O O3 0.512341 0.043288 0.270293
O O4 0.469460 0.920421 0.071073
O O5 0.753504 0.306013 0.536205
O O6 0.847775 0.384312 0.650109
O O7 0.580641 0.685085 0.488298
O O8 0.575657 0.639751 0.811962
O O9 0.500000 0.500000 0.500000
O O10 0.771867 0.100467 0.341250
O O11 0.698204 0.194822 0.705987
O O12 0.708957 0.095491 0.015889
O O13 0.463800 0.354833 0.844162
O O14 0.500000 0.500000 0.000000
O O15 0.232237 0.494323 0.982925
O O16 0.962613 0.738303 0.133648
O O17 0.293642 0.027542 0.700445
#
# Coordination Sequence:
#
# PCOD8043078 Si02
#       8
#     2   2   2   2   2   2   2   2
#     4  10  20  36  64  81 115 160 201 242 294 346
#     4   9  19  38  56  87 116 143 204 237 280 363
#     4  12  21  37  67  91 111 159 194 248 301 341
#     4  12  20  39  64  91 115 152 208 244 278 369
#     4   9  22  39  55  85 125 158 187 251 299 342
#     4  10  19  36  57  91 112 150 209 240 285 355
#     4  12  23  39  61  86 130 151 193 253 299 344
#     4  10  19  38  61  82 115 155 197 244 283 351
#
# _framework density 20.645589999999999
#
# number of rings (size 3 to 8) (size 9 to 14) (size 15 to 20)
#    0.750    0.750    5.000    1.125    0.000    1.000 
#    0.000    8.750    0.000    0.000    0.000    0.000 
#    0.000    0.000    0.000    0.000    0.000    0.000 
#
# Total GULP energy -198229.729657 kJ/mol
# GULP energy per Si atom -12389.358104 kJ/mol
# Density = 2.059860 g / cm^3
# Si number density = 20.645590 Si / 1000 Ang^3
#
#
#
# Elastic Constant Matrix: (Units=GPa)
#
#
# Indices 1 2 3 4 5 6 
#
# 1 109.8315 51.2807 15.4158 -6.4507 -11.6474 12.3601
# 2 51.2807 96.5020 23.4923 -5.9079 -7.5915 -5.6756
# 3 15.4158 23.4923 57.5442 -4.9390 -0.9338 5.3035
# 4 -6.4507 -5.9079 -4.9390 28.4442 10.6266 6.9452
# 5 -11.6474 -7.5915 -0.9338 10.6266 21.1752 3.9793
# 6 12.3601 -5.6756 5.3035 6.9452 3.9793 40.5328
#
#
#
# Elastic Compliance Matrix: (Units=1/GPa)
#
#
# Indices 1 2 3 4 5 6 
#
# 1 0.013770 -0.007150 -0.000050 0.000968 0.005634 -0.005913
# 2 -0.007150 0.015707 -0.005021 -0.000822 0.000933 0.005086
# 3 -0.000050 -0.005021 0.020120 0.004252 -0.002357 -0.003817
# 4 0.000968 -0.000822 0.004252 0.045473 -0.021139 -0.006683
# 5 0.005634 0.000933 -0.002357 -0.021139 0.061864 -0.003730
# 6 -0.005913 0.005086 -0.003817 -0.006683 -0.003730 0.029197
#
#
# Mechanical properties :
#
#
# Convention : Reuss Voigt Hill
#
# Bulk Modulus (GPa) = 39.75609 49.36172 44.55890
# Shear Modulus (GPa) = 22.83542 29.60971 26.22257
#
# Velocity S-wave (km/s) = 3.32937 3.79118 3.56775
# Velocity P-wave (km/s) = 5.83762 6.56697 6.21301
#
# Compressibility (1/GPa) = 0.02515338
#
# Stress axis : x y z
#
# Youngs Moduli (GPa) = 72.62061 63.66723 49.70264
#
# Poissons Ratio (x) = 0.45525 0.00250
# Poissons Ratio (y) = 0.51927 0.24955
# Poissons Ratio (z) = 0.00366 0.31966
#
# Static dielectric constant tensor:
#      x y z
#    x 3.903300 0.374120 -0.092430 
#    y 0.374120 3.617580 -0.064300 
#    z -0.092430 -0.064300 3.847470 
# 
# 
# High freq. dielectric constant tensor:
#      x y z
#    x 1.811310 0.030800 0.001430 
#    y 0.030800 1.782360 -0.005650 
#    z 0.001430 -0.005650 1.798190 
# 
# From -- ./inp_files/332060.got.cif
#   From: 2010.06.25/outbox.cif.g09.slc.cpg/sg2_167_cif.got.tgz:332060.got - 2010.06.27 13:26:56.
