data_PCOD8043198
_publ_section_title
;
Structure prediction by ZEFSAII (Michael W. Deem and Ramdas Pophale) SiO2 
 PCOD8043198
Probable space group: P -1
;
_chemical_formula_sum "Si O2"
_cell_formula_units_Z 14
_cell_length_a 5.946092
_cell_length_b 11.910415
_cell_length_c 14.508467
_cell_angle_alpha 53.515515
_cell_angle_beta 57.318852
_cell_angle_gamma 47.972089
_cell_volume 596.093927
_symmetry_space_group_name_H-M "P -1"
_symmetry_group_IT_number 2
_symmetry_cell_setting 'triclinic'
loop_
_space_group_symop_operation_xyz
x,y,z
-x,-y,-z
loop_
_atom_site_type_symbol
_atom_site_label
_atom_site_fract_x
_atom_site_fract_y
_atom_site_fract_z
Si Si1 0.256580 0.984348 0.626839
Si Si2 0.412385 0.654174 0.698972
Si Si3 0.717003 0.251152 0.519910
Si Si4 0.341179 0.377720 0.824655
Si Si5 0.876443 0.507906 0.384419
Si Si6 0.950157 0.912956 0.180732
Si Si7 0.823041 0.867990 0.033892
O O1 0.359058 0.794809 0.713820
O O2 0.500000 0.000000 0.500000
O O3 0.919871 0.072505 0.607551
O O4 0.238984 0.059177 0.695814
O O5 0.234578 0.754932 0.597420
O O6 0.292280 0.533085 0.820976
O O7 0.777578 0.528515 0.661118
O O8 0.851489 0.352015 0.494262
O O9 0.346421 0.334770 0.579978
O O10 0.256941 0.454668 0.706093
O O11 0.692915 0.228032 0.820101
O O12 0.112795 0.307606 0.933137
O O13 0.799694 0.866497 0.152111
O O14 0.921657 0.087042 0.076070
O O15 0.500000 0.000000 0.000000
#
# Coordination Sequence:
#
# PCOD8043198 Si02
#       7
#     2   2   2   2   2   2   2
#     4  12  24  42  61  99 140 177 206 259 335 395
#     4  11  23  36  60  92 136 175 209 263 326 385
#     4  10  21  38  57  86 130 180 225 256 307 382
#     4  10  20  38  65  93 123 165 223 271 315 379
#     4  10  19  36  59  91 123 173 228 263 307 375
#     4  10  21  42  69  94 127 168 219 273 322 379
#     4   9  20  41  69  97 118 161 230 281 315 369
#
# _framework density 23.486229999999999
#
# number of rings (size 3 to 8) (size 9 to 14) (size 15 to 20)
#    0.000    1.714    2.857    1.714    0.000    2.286 
#    5.143    0.714    0.000   12.000    0.000    0.000 
#    0.000    0.000    0.000    0.000    0.000    0.000 
#
# Total GULP energy -173435.225210 kJ/mol
# GULP energy per Si atom -12388.230372 kJ/mol
# Density = 2.343277 g / cm^3
# Si number density = 23.486230 Si / 1000 Ang^3
#
#
#
# Elastic Constant Matrix: (Units=GPa)
#
#
# Indices 1 2 3 4 5 6 
#
# 1 96.1349 37.5290 25.9526 -9.6498 5.7111 4.1101
# 2 37.5290 103.4568 26.5871 -21.0113 -8.2683 11.7340
# 3 25.9526 26.5871 62.2325 -6.9271 11.6029 3.6455
# 4 -9.6498 -21.0113 -6.9271 35.0487 12.6785 -8.0174
# 5 5.7111 -8.2683 11.6029 12.6785 32.3548 -14.2034
# 6 4.1101 11.7340 3.6455 -8.0174 -14.2034 33.1866
#
#
#
# Elastic Compliance Matrix: (Units=1/GPa)
#
#
# Indices 1 2 3 4 5 6 
#
# 1 0.013096 -0.003792 -0.002978 0.001722 -0.003306 -0.000953
# 2 -0.003792 0.013482 -0.004155 0.004772 0.003146 -0.001342
# 3 -0.002978 -0.004155 0.022158 0.004429 -0.012326 -0.004801
# 4 0.001722 0.004772 0.004429 0.038450 -0.015650 0.000204
# 5 -0.003306 0.003146 -0.012326 -0.015650 0.051068 0.018727
# 6 -0.000953 -0.001342 -0.004801 0.000204 0.018727 0.039317
#
#
# Mechanical properties :
#
#
# Convention : Reuss Voigt Hill
#
# Bulk Modulus (GPa) = 37.19303 49.10684 43.14993
# Shear Modulus (GPa) = 23.99436 31.56840 27.78138
#
# Velocity S-wave (km/s) = 3.19977 3.67021 3.44303
# Velocity P-wave (km/s) = 5.43340 6.23817 5.84964
#
# Compressibility (1/GPa) = 0.02688676
#
# Stress axis : x y z
#
# Youngs Moduli (GPa) = 76.35843 74.17311 45.13049
#
# Poissons Ratio (x) = 0.28125 0.13438
# Poissons Ratio (y) = 0.28954 0.18753
# Poissons Ratio (z) = 0.22736 0.30821
#
# Static dielectric constant tensor:
#      x y z
#    x 4.453940 0.300500 -0.162070 
#    y 0.300500 4.424620 -0.589870 
#    z -0.162070 -0.589870 4.276490 
# 
# 
# High freq. dielectric constant tensor:
#      x y z
#    x 1.936350 0.011920 0.005280 
#    y 0.011920 1.917840 -0.042760 
#    z 0.005280 -0.042760 1.898660 
# 
# From -- ./inp_files/39662.got.cif
#   From: 2010.06.25/outbox.cif.g09.slc.cpg/sg2_20_cif.got.tgz:39662.got - 2010.06.27 13:26:56.
