data_PCOD8043619
_publ_section_title
;
Structure prediction by ZEFSAII (Michael W. Deem and Ramdas Pophale) SiO2 
 PCOD8043619
Probable space group: P -1
;
_chemical_formula_sum "Si O2"
_cell_formula_units_Z 16
_cell_length_a 17.662535
_cell_length_b 9.343018
_cell_length_c 5.181425
_cell_angle_alpha 84.026092
_cell_angle_beta 112.861020
_cell_angle_gamma 100.397386
_cell_volume 774.400474
_symmetry_space_group_name_H-M "P -1"
_symmetry_group_IT_number 2
_symmetry_cell_setting 'triclinic'
loop_
_space_group_symop_operation_xyz
x,y,z
-x,-y,-z
loop_
_atom_site_type_symbol
_atom_site_label
_atom_site_fract_x
_atom_site_fract_y
_atom_site_fract_z
Si Si1 0.448611 0.389566 0.257434
Si Si2 0.982604 0.671270 0.171374
Si Si3 0.321860 0.906549 0.683337
Si Si4 0.917934 0.351424 0.181368
Si Si5 0.054522 0.042439 0.813878
Si Si6 0.583103 0.335592 0.037857
Si Si7 0.463161 0.119124 0.595918
Si Si8 0.784023 0.106339 0.962239
O O1 0.500000 0.500000 0.500000
O O2 0.508445 0.341217 0.131596
O O3 0.409352 0.233553 0.360464
O O4 0.384457 0.494758 0.039282
O O5 0.053368 0.665175 0.483625
O O6 0.922448 0.519649 0.083325
O O7 0.923337 0.782679 0.168633
O O8 0.026375 0.720193 0.944252
O O9 0.342679 0.740610 0.732206
O O10 0.281543 0.945336 0.890892
O O11 0.403598 0.029324 0.745101
O O12 0.259425 0.917341 0.365335
O O13 0.822810 0.274573 0.038244
O O14 0.140882 0.985080 0.916172
O O15 0.000000 0.000000 0.500000
O O16 0.000000 0.000000 0.000000
O O17 0.544900 0.222987 0.786310
O O18 0.500000 0.000000 0.500000
#
# Coordination Sequence:
#
# PCOD8043619 Si02
#       8
#     2   2   2   2   2   2   2   2
#     4   9  20  37  67  94 116 155 228 268 311 366
#     4  10  19  36  66  91 112 154 210 265 296 358
#     4  12  26  39  64  93 138 171 209 266 340 385
#     4  10  20  37  62  91 117 154 209 254 307 375
#     4  12  21  39  67  92 121 161 210 263 309 376
#     4  10  21  40  65  94 122 170 224 269 313 383
#     4  11  21  39  67  94 125 169 226 272 309 385
#     4  12  25  40  59  96 133 171 207 262 339 389
#
# _framework density 20.661147
#
# number of rings (size 3 to 8) (size 9 to 14) (size 15 to 20)
#    0.000    1.250    3.750    2.625    3.500    0.000 
#    0.000    1.250    0.000    0.000    0.000    0.000 
#    0.000    0.000    0.000    0.000    0.000    0.000 
#
# Total GULP energy -198234.187811 kJ/mol
# GULP energy per Si atom -12389.636738 kJ/mol
# Density = 2.061412 g / cm^3
# Si number density = 20.661147 Si / 1000 Ang^3
#
#
#
# Elastic Constant Matrix: (Units=GPa)
#
#
# Indices 1 2 3 4 5 6 
#
# 1 85.6257 46.8930 15.5103 -13.6717 -8.6201 -8.8537
# 2 46.8930 138.2806 21.6144 -13.1625 -2.3916 -19.3524
# 3 15.5103 21.6144 83.0655 -8.0589 -5.9685 -13.2842
# 4 -13.6717 -13.1625 -8.0589 41.9570 -2.9649 1.2703
# 5 -8.6201 -2.3916 -5.9685 -2.9649 34.2088 -2.0174
# 6 -8.8537 -19.3524 -13.2842 1.2703 -2.0174 34.8367
#
#
#
# Elastic Compliance Matrix: (Units=1/GPa)
#
#
# Indices 1 2 3 4 5 6 
#
# 1 0.015394 -0.004505 -0.000889 0.003665 0.003795 0.001157
# 2 -0.004505 0.009539 -0.000950 0.001208 -0.000309 0.003730
# 3 -0.000889 -0.000950 0.013549 0.002057 0.002516 0.004484
# 4 0.003665 0.001208 0.002057 0.026015 0.003719 0.001654
# 5 0.003795 -0.000309 0.002516 0.003719 0.031130 0.003419
# 6 0.001157 0.003730 0.004484 0.001654 0.003419 0.032919
#
#
# Mechanical properties :
#
#
# Convention : Reuss Voigt Hill
#
# Bulk Modulus (GPa) = 38.76610 52.77857 45.77234
# Shear Modulus (GPa) = 33.37078 37.06411 35.21745
#
# Velocity S-wave (km/s) = 4.02325 4.24005 4.13307
# Velocity P-wave (km/s) = 6.35496 7.04066 6.70658
#
# Compressibility (1/GPa) = 0.02579574
#
# Stress axis : x y z
#
# Youngs Moduli (GPa) = 64.96157 104.82802 73.80495
#
# Poissons Ratio (x) = 0.47224 0.06560
# Poissons Ratio (y) = 0.29264 0.07008
# Poissons Ratio (z) = 0.05774 0.09954
#
# Static dielectric constant tensor:
#      x y z
#    x 3.505440 -0.061610 -0.334190 
#    y -0.061610 4.520580 -0.402490 
#    z -0.334190 -0.402490 3.834610 
# 
# 
# High freq. dielectric constant tensor:
#      x y z
#    x 1.774590 -0.009700 -0.031970 
#    y -0.009700 1.834990 -0.006210 
#    z -0.031970 -0.006210 1.812110 
# 
# From -- ./inp_files/46283.got.cif
#   From: 2010.06.25/outbox.cif.g09.slc.cpg/sg2_24_cif.got.tgz:46283.got - 2010.06.27 13:26:56.
