data_PCOD8043450
_publ_section_title
;
Structure prediction by ZEFSAII (Michael W. Deem and Ramdas Pophale) SiO2 
 PCOD8043450
Probable space group: P -1
;
_chemical_formula_sum "Si O2"
_cell_formula_units_Z 16
_cell_length_a 9.081159
_cell_length_b 5.127928
_cell_length_c 27.316287
_cell_angle_alpha 97.529844
_cell_angle_beta 37.645103
_cell_angle_gamma 110.823063
_cell_volume 700.516465
_symmetry_space_group_name_H-M "P -1"
_symmetry_group_IT_number 2
_symmetry_cell_setting 'triclinic'
loop_
_space_group_symop_operation_xyz
x,y,z
-x,-y,-z
loop_
_atom_site_type_symbol
_atom_site_label
_atom_site_fract_x
_atom_site_fract_y
_atom_site_fract_z
Si Si1 0.337277 0.612737 0.009507
Si Si2 0.205602 0.242039 0.174213
Si Si3 0.164325 0.712876 0.351648
Si Si4 0.864546 0.059874 0.084706
Si Si5 0.260267 0.824102 0.220325
Si Si6 0.849864 0.668940 0.519320
Si Si7 0.463574 0.371671 0.313111
Si Si8 0.954701 0.824573 0.151002
O O1 0.255326 0.846437 0.064411
O O2 0.500000 0.500000 0.000000
O O3 0.501595 0.720920 0.919072
O O4 0.047956 0.372906 0.064994
O O5 0.206917 0.549652 0.193215
O O6 0.131589 0.024850 0.234670
O O7 0.996613 0.099259 0.181453
O O8 0.112668 0.700885 0.307215
O O9 0.877191 0.633295 0.452478
O O10 0.284348 0.486038 0.329972
O O11 0.376544 0.032827 0.318583
O O12 0.571273 0.027327 0.149449
O O13 0.828354 0.830400 0.131847
O O14 0.000000 0.000000 0.000000
O O15 0.000000 0.500000 0.500000
O O16 0.564747 0.566054 0.619308
O O17 0.000000 0.000000 0.500000
O O18 0.768111 0.534371 0.221476
#
# Coordination Sequence:
#
# PCOD8043450 Si02
#       8
#     2   2   2   2   2   2   2   2
#     4  12  25  44  63  87 123 166 209 255 317 366
#     4  12  27  43  61  85 127 168 207 251 313 370
#     4  10  19  36  62  93 127 157 196 256 311 356
#     4  12  25  39  64  89 118 157 206 263 306 352
#     4  12  25  42  62  94 123 161 207 261 305 365
#     4   8  16  31  56  91 126 155 188 247 310 363
#     4  10  20  36  62  95 123 155 207 251 304 367
#     4  12  26  41  64  87 122 168 206 257 308 370
#
# _framework density 22.840292000000002
#
# number of rings (size 3 to 8) (size 9 to 14) (size 15 to 20)
#    0.000    1.000    3.750    3.375    1.750    1.000 
#    0.000    0.000    0.000    1.500    0.000    0.000 
#    0.000    0.000    0.000    0.000    0.000    0.000 
#
# Total GULP energy -198299.131216 kJ/mol
# GULP energy per Si atom -12393.695701 kJ/mol
# Density = 2.278831 g / cm^3
# Si number density = 22.840292 Si / 1000 Ang^3
#
#
#
# Elastic Constant Matrix: (Units=GPa)
#
#
# Indices 1 2 3 4 5 6 
#
# 1 77.7644 14.5299 9.9469 0.9560 19.4774 4.1057
# 2 14.5299 70.1882 -14.0094 -1.3501 2.8148 1.0642
# 3 9.9469 -14.0094 106.1849 5.3042 37.4898 12.4772
# 4 0.9560 -1.3501 5.3042 28.2525 0.1814 6.8716
# 5 19.4774 2.8148 37.4898 0.1814 31.2768 4.1976
# 6 4.1057 1.0642 12.4772 6.8716 4.1976 34.6264
#
#
#
# Elastic Compliance Matrix: (Units=1/GPa)
#
#
# Indices 1 2 3 4 5 6 
#
# 1 0.016350 -0.002205 0.003168 -0.000877 -0.013617 -0.001188
# 2 -0.002205 0.015740 0.004098 0.000378 -0.004798 -0.001192
# 3 0.003168 0.004098 0.018849 -0.002353 -0.024403 -0.003869
# 4 -0.000877 0.000378 -0.002353 0.037562 0.004054 -0.007006
# 5 -0.013617 -0.004798 -0.024403 0.004054 0.069940 0.001272
# 6 -0.001188 -0.001192 -0.003869 -0.007006 0.001272 0.031687
#
#
# Mechanical properties :
#
#
# Convention : Reuss Voigt Hill
#
# Bulk Modulus (GPa) = 16.37669 30.56361 23.47015
# Shear Modulus (GPa) = 24.95517 35.07579 30.01548
#
# Velocity S-wave (km/s) = 3.30903 3.92305 3.62905
# Velocity P-wave (km/s) = 4.66746 5.82503 5.27807
#
# Compressibility (1/GPa) = 0.06106238
#
# Stress axis : x y z
#
# Youngs Moduli (GPa) = 61.16152 63.53371 53.05283
#
# Poissons Ratio (x) = 0.14010 -0.16809
# Poissons Ratio (y) = 0.13487 -0.21743
# Poissons Ratio (z) = -0.19379 -0.26038
#
# Static dielectric constant tensor:
#      x y z
#    x 3.877960 -0.004070 0.529700 
#    y -0.004070 4.171930 0.100610 
#    z 0.529700 0.100610 4.846670 
# 
# 
# High freq. dielectric constant tensor:
#      x y z
#    x 1.872570 -0.014040 0.036510 
#    y -0.014040 1.911080 0.007000 
#    z 0.036510 0.007000 1.907990 
# 
# From -- ./inp_files/43844.got.cif
#   From: 2010.06.25/outbox.cif.g09.slc.cpg/sg2_22_cif.got.tgz:43844.got - 2010.06.27 13:26:56.
