data_PCOD8043952
_publ_section_title
;
Structure prediction by ZEFSAII (Michael W. Deem and Ramdas Pophale) SiO2 
 PCOD8043952
Probable space group: P -1
;
_chemical_formula_sum "Si O2"
_cell_formula_units_Z 14
_cell_length_a 21.276035
_cell_length_b 8.976133
_cell_length_c 9.191543
_cell_angle_alpha 33.691273
_cell_angle_beta 42.662693
_cell_angle_gamma 42.423040
_cell_volume 621.498290
_symmetry_space_group_name_H-M "P -1"
_symmetry_group_IT_number 2
_symmetry_cell_setting 'triclinic'
loop_
_space_group_symop_operation_xyz
x,y,z
-x,-y,-z
loop_
_atom_site_type_symbol
_atom_site_label
_atom_site_fract_x
_atom_site_fract_y
_atom_site_fract_z
Si Si1 0.676216 0.688266 0.876682
Si Si2 0.632669 0.741700 0.365796
Si Si3 0.535426 0.731897 0.826999
Si Si4 0.970522 0.832746 0.935157
Si Si5 0.850854 0.559421 0.192989
Si Si6 0.608704 0.359790 0.489205
Si Si7 0.875078 0.469672 0.544239
O O1 0.599609 0.621325 0.950971
O O2 0.784667 0.602291 0.697234
O O3 0.641580 0.021131 0.702508
O O4 0.680112 0.489631 0.170695
O O5 0.604574 0.812568 0.524964
O O6 0.745468 0.722633 0.167935
O O7 0.616094 0.453127 0.568833
O O8 0.559714 0.999050 0.185716
O O9 0.500000 0.500000 0.000000
O O10 0.086773 0.690644 0.819463
O O11 0.944071 0.167375 0.736166
O O12 0.910192 0.781436 0.937096
O O13 0.939247 0.682719 0.250718
O O14 0.836538 0.427932 0.481529
O O15 0.500000 0.500000 0.500000
#
# Coordination Sequence:
#
# PCOD8043952 Si02
#       7
#     2   2   2   2   2   2   2
#     4  12  25  43  67  88 129 176 208 249 314 382
#     4  11  24  41  61  94 128 161 212 263 307 370
#     4  11  24  38  64  94 124 165 208 269 308 358
#     4   9  19  35  60  95 123 150 201 266 318 359
#     4   9  20  34  61  93 121 158 198 269 313 358
#     4  12  26  45  61  89 132 177 209 246 313 377
#     4  10  19  37  61  91 116 160 204 253 302 375
#
# _framework density 22.526209000000001
#
# number of rings (size 3 to 8) (size 9 to 14) (size 15 to 20)
#    0.857    0.571    2.857    2.571    6.000    0.000 
#    0.000    0.000    0.000    5.143    0.000    0.000 
#    0.000    0.000    0.000    0.000    0.000    0.000 
#
# Total GULP energy -173549.235171 kJ/mol
# GULP energy per Si atom -12396.373941 kJ/mol
# Density = 2.247494 g / cm^3
# Si number density = 22.526209 Si / 1000 Ang^3
#
#
#
# Elastic Constant Matrix: (Units=GPa)
#
#
# Indices 1 2 3 4 5 6 
#
# 1 52.4221 28.1821 -0.1297 3.6320 -6.0258 -2.5201
# 2 28.1821 143.6506 38.2769 2.6761 -9.2791 -13.0435
# 3 -0.1297 38.2769 98.1292 -9.2229 -2.6450 4.0782
# 4 3.6320 2.6761 -9.2229 39.2510 1.8828 -11.9155
# 5 -6.0258 -9.2791 -2.6450 1.8828 19.2407 2.2267
# 6 -2.5201 -13.0435 4.0782 -11.9155 2.2267 37.3631
#
#
#
# Elastic Compliance Matrix: (Units=1/GPa)
#
#
# Indices 1 2 3 4 5 6 
#
# 1 0.022232 -0.004580 0.001828 -0.001947 0.005339 -0.001238
# 2 -0.004580 0.009281 -0.003720 -0.000238 0.002191 0.003131
# 3 0.001828 -0.003720 0.011948 0.002340 0.000395 -0.001757
# 4 -0.001947 -0.000238 0.002340 0.029192 -0.004312 0.009097
# 5 0.005339 0.002191 0.000395 -0.004312 0.055596 -0.003607
# 6 -0.001238 0.003131 -0.001757 0.009097 -0.003607 0.031082
#
#
# Mechanical properties :
#
#
# Convention : Reuss Voigt Hill
#
# Bulk Modulus (GPa) = 32.76805 47.42897 40.09851
# Shear Modulus (GPa) = 27.40555 34.36249 30.88402
#
# Velocity S-wave (km/s) = 3.49177 3.90993 3.70675
# Velocity P-wave (km/s) = 5.55291 6.44082 6.01328
#
# Compressibility (1/GPa) = 0.03051753
#
# Stress axis : x y z
#
# Youngs Moduli (GPa) = 44.98081 107.74400 83.69906
#
# Poissons Ratio (x) = 0.49346 -0.15302
# Poissons Ratio (y) = 0.20601 0.31134
# Poissons Ratio (z) = -0.08223 0.40078
#
# Static dielectric constant tensor:
#      x y z
#    x 3.672040 0.064550 0.081900 
#    y 0.064550 4.213750 0.145610 
#    z 0.081900 0.145610 4.109540 
# 
# 
# High freq. dielectric constant tensor:
#      x y z
#    x 1.851150 -0.001830 -0.005430 
#    y -0.001830 1.902030 0.010150 
#    z -0.005430 0.010150 1.881740 
# 
# From -- ./inp_files/342367.got.cif
#   From: 2010.06.25/outbox.cif.g09.slc.cpg/sg2_172_cif.got.tgz:342367.got - 2010.06.27 13:26:56.
