data_PCOD8043152
_publ_section_title
;
Structure prediction by ZEFSAII (Michael W. Deem and Ramdas Pophale) SiO2 
 PCOD8043152
Probable space group: P -1
;
_chemical_formula_sum "Si O2"
_cell_formula_units_Z 16
_cell_length_a 21.983467
_cell_length_b 5.231461
_cell_length_c 28.964594
_cell_angle_alpha 122.508937
_cell_angle_beta 162.469950
_cell_angle_gamma 55.510287
_cell_volume 826.941767
_symmetry_space_group_name_H-M "P -1"
_symmetry_group_IT_number 2
_symmetry_cell_setting 'triclinic'
loop_
_space_group_symop_operation_xyz
x,y,z
-x,-y,-z
loop_
_atom_site_type_symbol
_atom_site_label
_atom_site_fract_x
_atom_site_fract_y
_atom_site_fract_z
Si Si1 0.243081 0.970308 0.670585
Si Si2 0.512623 0.298222 0.265732
Si Si3 0.742625 0.195674 0.935571
Si Si4 0.128801 0.003925 0.138752
Si Si5 0.499740 0.274931 0.435611
Si Si6 0.395970 0.343973 0.045322
Si Si7 0.542168 0.595816 0.407290
Si Si8 0.520489 0.333979 0.950026
O O1 0.317590 0.902553 0.665044
O O2 0.369638 0.690067 0.767236
O O3 0.303975 0.285902 0.765430
O O4 0.000000 0.000000 0.500000
O O5 0.386433 0.609736 0.180397
O O6 0.627085 0.402654 0.403750
O O7 0.357782 0.086924 0.149347
O O8 0.759389 0.413187 0.012602
O O9 0.978192 0.063134 0.079265
O O10 0.258305 0.274000 0.252657
O O11 0.290559 0.675739 0.230546
O O12 0.000000 0.000000 0.000000
O O13 0.500000 0.500000 0.500000
O O14 0.607878 0.392664 0.480783
O O15 0.623220 0.919395 0.500656
O O16 0.377470 0.457453 0.990312
O O17 0.333079 0.008409 0.970359
O O18 0.500000 0.500000 0.000000
#
# Coordination Sequence:
#
# PCOD8043152 Si02
#       8
#     2   2   2   2   2   2   2   2
#     4   9  21  36  59  84 110 143 185 226 282 336
#     4  11  20  35  55  83 117 143 178 236 289 318
#     4  11  19  33  53  83 119 141 179 230 280 326
#     4  10  21  32  58  89 110 142 191 230 270 321
#     4  10  22  39  57  77 113 156 188 221 279 329
#     4   9  19  35  54  82 107 148 179 220 279 325
#     4  10  21  35  58  82 111 147 190 226 276 324
#     4  10  19  36  59  80 106 147 181 222 274 334
#
# _framework density 19.348402
#
# number of rings (size 3 to 8) (size 9 to 14) (size 15 to 20)
#    1.500    0.500    2.500    2.250    1.750    1.500 
#    0.000    0.000    5.500    0.000    0.000    0.000 
#    0.000    0.000    0.000    0.000    0.000    0.000 
#
# Total GULP energy -198216.986142 kJ/mol
# GULP energy per Si atom -12388.561634 kJ/mol
# Density = 1.930436 g / cm^3
# Si number density = 19.348402 Si / 1000 Ang^3
#
#
#
# Elastic Constant Matrix: (Units=GPa)
#
#
# Indices 1 2 3 4 5 6 
#
# 1 158.3360 56.6103 20.7909 10.3107 -18.0638 -3.6854
# 2 56.6103 95.9073 15.1811 19.9510 -4.4454 6.2471
# 3 20.7909 15.1811 38.2068 7.2029 -0.4017 -9.2566
# 4 10.3107 19.9510 7.2029 24.5062 -11.1147 -5.2769
# 5 -18.0638 -4.4454 -0.4017 -11.1147 27.9245 5.4873
# 6 -3.6854 6.2471 -9.2566 -5.2769 5.4873 49.5185
#
#
#
# Elastic Compliance Matrix: (Units=1/GPa)
#
#
# Indices 1 2 3 4 5 6 
#
# 1 0.009289 -0.005676 -0.003549 0.005018 0.006952 0.000508
# 2 -0.005676 0.017068 -0.001953 -0.014474 -0.005993 -0.003819
# 3 -0.003549 -0.001953 0.031704 -0.007910 -0.006435 0.005779
# 4 0.005018 -0.014474 -0.007910 0.065638 0.026004 0.004834
# 5 0.006952 -0.005993 -0.006435 0.026004 0.050145 -0.002715
# 6 0.000508 -0.003819 0.005779 0.004834 -0.002715 0.022610
#
#
# Mechanical properties :
#
#
# Convention : Reuss Voigt Hill
#
# Bulk Modulus (GPa) = 28.00709 53.06831 40.53770
# Shear Modulus (GPa) = 21.67193 33.71437 27.69315
#
# Velocity S-wave (km/s) = 3.35040 4.17884 3.78734
# Velocity P-wave (km/s) = 5.42895 7.12537 6.33421
#
# Compressibility (1/GPa) = 0.03570525
#
# Stress axis : x y z
#
# Youngs Moduli (GPa) = 107.65065 58.58888 31.54150
#
# Poissons Ratio (x) = 0.33256 0.11195
# Poissons Ratio (y) = 0.61104 0.06159
# Poissons Ratio (z) = 0.38210 0.11440
#
# Static dielectric constant tensor:
#      x y z
#    x 3.627810 -0.072930 -0.071470 
#    y -0.072930 3.631710 0.065900 
#    z -0.071470 0.065900 2.972290 
# 
# 
# High freq. dielectric constant tensor:
#      x y z
#    x 1.768750 0.000430 -0.012060 
#    y 0.000430 1.760200 0.014330 
#    z -0.012060 0.014330 1.692740 
# 
# From -- ./inp_files/612590.got.cif
#   From: 2010.06.25/outbox.cif.g09.slc.cpg/sg2_307_cif.got.tgz:612590.got - 2010.06.27 13:26:56.
