data_PCOD8043749
_publ_section_title
;
Structure prediction by ZEFSAII (Michael W. Deem and Ramdas Pophale) SiO2 
 PCOD8043749
Probable space group: P -1
;
_chemical_formula_sum "Si O2"
_cell_formula_units_Z 14
_cell_length_a 16.834915
_cell_length_b 10.104345
_cell_length_c 20.061110
_cell_angle_alpha 40.099001
_cell_angle_beta 158.469868
_cell_angle_gamma 125.699883
_cell_volume 678.116489
_symmetry_space_group_name_H-M "P -1"
_symmetry_group_IT_number 2
_symmetry_cell_setting 'triclinic'
loop_
_space_group_symop_operation_xyz
x,y,z
-x,-y,-z
loop_
_atom_site_type_symbol
_atom_site_label
_atom_site_fract_x
_atom_site_fract_y
_atom_site_fract_z
Si Si1 0.143328 0.032001 0.439026
Si Si2 0.441872 0.231456 0.540752
Si Si3 0.467043 0.470919 0.596257
Si Si4 0.945392 0.764134 0.150047
Si Si5 0.618966 0.126384 0.179610
Si Si6 0.875032 0.339808 0.229442
Si Si7 0.173221 0.059062 0.865689
O O1 0.267315 0.117039 0.446816
O O2 0.364701 0.855336 0.733780
O O3 0.911298 0.266774 0.207333
O O4 0.038852 0.882246 0.378519
O O5 0.354881 0.397679 0.475249
O O6 0.394814 0.393275 0.375892
O O7 0.746946 0.028338 0.861505
O O8 0.670275 0.232173 0.887770
O O9 0.229205 0.655863 0.385499
O O10 0.829261 0.602061 0.103751
O O11 0.965696 0.787374 0.235992
O O12 0.359118 0.142173 0.950803
O O13 0.864708 0.862306 0.449542
O O14 0.632125 0.338630 0.070511
#
# Coordination Sequence:
#
# PCOD8043749 Si02
#       7
#     2   2   2   2   2   2   2
#     4  10  19  40  56  84 115 150 184 230 279 337
#     4  10  20  35  61  82 113 146 193 226 280 329
#     4  10  19  37  58  84 111 153 182 232 279 333
#     4  11  18  38  59  86 109 152 186 235 273 334
#     4   9  18  40  56  82 113 150 185 230 276 337
#     4   9  18  36  65  76 112 152 188 223 286 327
#     4  11  22  36  60  83 120 143 187 233 280 327
#
# _framework density 20.645419
#
# number of rings (size 3 to 8) (size 9 to 14) (size 15 to 20)
#    0.857    1.143    5.714    0.429    0.000    1.714 
#    2.571    1.429    0.000    0.000    0.000    0.000 
#    0.000    0.000    0.000    0.000    0.000    0.000 
#
# Total GULP energy -173544.435352 kJ/mol
# GULP energy per Si atom -12396.031097 kJ/mol
# Density = 2.059843 g / cm^3
# Si number density = 20.645419 Si / 1000 Ang^3
#
#
#
# Elastic Constant Matrix: (Units=GPa)
#
#
# Indices 1 2 3 4 5 6 
#
# 1 81.8122 36.1920 18.6420 7.8881 23.4369 12.4316
# 2 36.1920 83.9960 20.6419 23.1141 10.0539 -10.0495
# 3 18.6420 20.6419 34.2876 9.4934 18.6467 -3.9789
# 4 7.8881 23.1141 9.4934 38.7195 -0.2985 10.3564
# 5 23.4369 10.0539 18.6467 -0.2985 26.5285 0.1344
# 6 12.4316 -10.0495 -3.9789 10.3564 0.1344 34.7930
#
#
#
# Elastic Compliance Matrix: (Units=1/GPa)
#
#
# Indices 1 2 3 4 5 6 
#
# 1 0.023227 -0.011041 -0.000221 0.005272 -0.016056 -0.013021
# 2 -0.011041 0.022839 -0.004309 -0.014105 0.003896 0.014232
# 3 -0.000221 -0.004309 0.058713 -0.014786 -0.039658 0.010103
# 4 0.005272 -0.014105 -0.014786 0.042315 0.011660 -0.020289
# 5 -0.016056 0.003896 -0.039658 0.011660 0.078418 -0.001447
# 6 -0.013021 0.014232 0.010103 -0.020289 -0.001447 0.044705
#
#
# Mechanical properties :
#
#
# Convention : Reuss Voigt Hill
#
# Bulk Modulus (GPa) = 13.57977 39.00530 26.29253
# Shear Modulus (GPa) = 15.34194 28.31619 21.82907
#
# Velocity S-wave (km/s) = 2.72897 3.70746 3.25519
# Velocity P-wave (km/s) = 4.06468 6.10418 5.18568
#
# Compressibility (1/GPa) = 0.07363896
#
# Stress axis : x y z
#
# Youngs Moduli (GPa) = 43.05281 43.78410 17.03198
#
# Poissons Ratio (x) = 0.48340 0.00376
# Poissons Ratio (y) = 0.47533 0.07339
# Poissons Ratio (z) = 0.00951 0.18866
#
# Static dielectric constant tensor:
#      x y z
#    x 3.710270 0.146480 0.189060 
#    y 0.146480 3.604570 -0.105380 
#    z 0.189060 -0.105380 3.268170 
# 
# 
# High freq. dielectric constant tensor:
#      x y z
#    x 1.804120 0.013830 0.026000 
#    y 0.013830 1.799870 -0.008390 
#    z 0.026000 -0.008390 1.773130 
# 
# From -- ./inp_files/599197.got.cif
#   From: 2010.06.25/outbox.cif.g09.slc.cpg/sg2_300_cif.got.tgz:599197.got - 2010.06.27 13:26:56.
