data_PCOD8043363
_publ_section_title
;
Structure prediction by ZEFSAII (Michael W. Deem and Ramdas Pophale) SiO2 
 PCOD8043363
Probable space group: P -1
;
_chemical_formula_sum "Si O2"
_cell_formula_units_Z 16
_cell_length_a 12.746650
_cell_length_b 8.690936
_cell_length_c 9.111416
_cell_angle_alpha 103.385394
_cell_angle_beta 64.320587
_cell_angle_gamma 66.569634
_cell_volume 728.379014
_symmetry_space_group_name_H-M "P -1"
_symmetry_group_IT_number 2
_symmetry_cell_setting 'triclinic'
loop_
_space_group_symop_operation_xyz
x,y,z
-x,-y,-z
loop_
_atom_site_type_symbol
_atom_site_label
_atom_site_fract_x
_atom_site_fract_y
_atom_site_fract_z
Si Si1 0.240606 0.343185 0.902825
Si Si2 0.011396 0.689604 0.281060
Si Si3 0.104426 0.717237 0.541900
Si Si4 0.647828 0.429116 0.196973
Si Si5 0.930404 0.067519 0.897948
Si Si6 0.231453 0.338625 0.563611
Si Si7 0.545848 0.076156 0.358234
Si Si8 0.354839 0.666774 0.511989
O O1 0.335657 0.428347 0.881755
O O2 0.198959 0.384225 0.766006
O O3 0.329610 0.116965 0.844858
O O4 0.103378 0.466823 0.117726
O O5 0.088669 0.708266 0.377098
O O6 0.005643 0.821331 0.183701
O O7 0.853228 0.759869 0.439787
O O8 0.154338 0.520453 0.544830
O O9 0.217754 0.772251 0.515373
O O10 0.960425 0.890839 0.741815
O O11 0.484936 0.500259 0.297157
O O12 0.670165 0.441672 0.363762
O O13 0.759396 0.207571 0.037103
O O14 0.000000 0.000000 0.000000
O O15 0.398241 0.208160 0.387343
O O16 0.610532 0.189354 0.405863
O O17 0.500000 0.000000 0.500000
#
# Coordination Sequence:
#
# PCOD8043363 Si02
#       8
#     2   2   2   2   2   2   2   2
#     4  10  20  41  61  94 120 155 218 257 300 364
#     4  11  26  41  62  94 129 168 200 257 320 366
#     4  12  24  42  62  92 133 165 203 253 319 377
#     4  10  19  36  61  92 118 151 212 254 297 361
#     4  11  23  41  63  93 125 160 215 255 300 373
#     4  11  21  42  65  90 123 168 212 258 301 368
#     4  10  21  35  64  95 115 152 218 262 295 356
#     4  11  19  37  63  91 123 156 203 260 313 353
#
# _framework density 21.966586
#
# number of rings (size 3 to 8) (size 9 to 14) (size 15 to 20)
#    0.000    1.250    5.000    2.625    3.500    1.000 
#    0.000    4.375    0.000    0.000    0.000    0.000 
#    0.000    0.000    0.000    0.000    0.000    0.000 
#
# Total GULP energy -198218.565832 kJ/mol
# GULP energy per Si atom -12388.660364 kJ/mol
# Density = 2.191659 g / cm^3
# Si number density = 21.966586 Si / 1000 Ang^3
#
#
#
# Elastic Constant Matrix: (Units=GPa)
#
#
# Indices 1 2 3 4 5 6 
#
# 1 110.1707 38.0890 43.7424 0.9635 -5.2394 -2.2542
# 2 38.0890 110.6094 51.3667 19.2210 -4.6630 -2.7146
# 3 43.7424 51.3667 92.4557 18.3755 0.3562 -15.7860
# 4 0.9635 19.2210 18.3755 30.7897 -3.2182 -7.6015
# 5 -5.2394 -4.6630 0.3562 -3.2182 27.6002 -2.9477
# 6 -2.2542 -2.7146 -15.7860 -7.6015 -2.9477 22.8801
#
#
#
# Elastic Compliance Matrix: (Units=1/GPa)
#
#
# Indices 1 2 3 4 5 6 
#
# 1 0.012110 -0.002282 -0.005523 0.004304 0.002363 -0.001154
# 2 -0.002282 0.013599 -0.006116 -0.005842 0.000763 -0.004674
# 3 -0.005523 -0.006116 0.019660 -0.005405 -0.001870 0.010258
# 4 0.004304 -0.005842 -0.005405 0.042540 0.006025 0.010911
# 5 0.002363 0.000763 -0.001870 0.006025 0.038172 0.005953
# 6 -0.001154 -0.004674 0.010258 0.010911 0.005953 0.054507
#
#
# Mechanical properties :
#
#
# Convention : Reuss Voigt Hill
#
# Bulk Modulus (GPa) = 57.05278 64.40355 60.72816
# Shear Modulus (GPa) = 23.33482 28.25652 25.79567
#
# Velocity S-wave (km/s) = 3.26281 3.59045 3.43054
# Velocity P-wave (km/s) = 6.34220 6.82429 6.58766
#
# Compressibility (1/GPa) = 0.01752763
#
# Stress axis : x y z
#
# Youngs Moduli (GPa) = 82.57822 73.53253 50.86506
#
# Poissons Ratio (x) = 0.16778 0.28094
# Poissons Ratio (y) = 0.18842 0.31108
# Poissons Ratio (z) = 0.45609 0.44971
#
# Static dielectric constant tensor:
#      x y z
#    x 4.199280 -0.096590 -0.607390 
#    y -0.096590 4.359370 0.468250 
#    z -0.607390 0.468250 4.208650 
# 
# 
# High freq. dielectric constant tensor:
#      x y z
#    x 1.846250 0.005610 -0.033760 
#    y 0.005610 1.873000 0.017640 
#    z -0.033760 0.017640 1.841510 
# 
# From -- ./inp_files/244981.got.cif
#   From: 2010.06.25/outbox.cif.g09.slc.cpg/sg2_123_cif.got.tgz:244981.got - 2010.06.27 13:26:56.
