data_PCOD8043830
_publ_section_title
;
Structure prediction by ZEFSAII (Michael W. Deem and Ramdas Pophale) SiO2 
 PCOD8043830
Probable space group: P -1
;
_chemical_formula_sum "Si O2"
_cell_formula_units_Z 16
_cell_length_a 20.183091
_cell_length_b 11.188619
_cell_length_c 12.481752
_cell_angle_alpha 54.691007
_cell_angle_beta 34.303366
_cell_angle_gamma 30.521245
_cell_volume 713.427886
_symmetry_space_group_name_H-M "P -1"
_symmetry_group_IT_number 2
_symmetry_cell_setting 'triclinic'
loop_
_space_group_symop_operation_xyz
x,y,z
-x,-y,-z
loop_
_atom_site_type_symbol
_atom_site_label
_atom_site_fract_x
_atom_site_fract_y
_atom_site_fract_z
Si Si1 0.438024 0.778167 0.417678
Si Si2 0.909433 0.717839 0.776288
Si Si3 0.398196 0.945886 0.790280
Si Si4 0.726902 0.864604 0.365893
Si Si5 0.851967 0.789418 0.581560
Si Si6 0.993393 0.958480 0.344170
Si Si7 0.237761 0.645152 0.375138
Si Si8 0.149474 0.805251 0.801073
O O1 0.320147 0.749226 0.564691
O O2 0.698032 0.492270 0.218316
O O3 0.352836 0.912687 0.577724
O O4 0.360728 0.978616 0.328675
O O5 0.780128 0.848040 0.770216
O O6 0.042325 0.428776 0.752455
O O7 0.063182 0.697350 0.593596
O O8 0.737742 0.894500 0.005966
O O9 0.559760 0.910602 0.583104
O O10 0.523540 0.662360 0.775588
O O11 0.247256 0.107481 0.804664
O O12 0.986429 0.800614 0.388803
O O13 0.000000 0.500000 0.500000
O O14 0.203371 0.755932 0.245721
O O15 0.795800 0.204536 0.560825
O O16 0.993620 0.067371 0.182923
O O17 0.000000 0.000000 0.000000
#
# Coordination Sequence:
#
# PCOD8043830 Si02
#       8
#     2   2   2   2   2   2   2   2
#     4  10  21  38  58  79 112 155 183 229 289 330
#     4  10  20  35  57  84 111 146 189 229 279 336
#     4  10  21  34  55  85 110 144 190 230 280 337
#     4  10  20  36  54  78 119 146 181 232 284 332
#     4  10  19  37  60  82 115 153 187 232 281 331
#     4   9  19  37  59  80 114 149 184 230 288 327
#     4   9  19  37  57  80 111 145 180 238 283 328
#     4  10  22  37  56  84 112 145 195 233 272 335
#
# _framework density 22.426935
#
# number of rings (size 3 to 8) (size 9 to 14) (size 15 to 20)
#    0.000    2.250    1.250    1.125    0.000    3.000 
#    0.000    6.250    0.000    0.000    0.000    0.000 
#    0.000    0.000    0.000    0.000    0.000    0.000 
#
# Total GULP energy -198276.466079 kJ/mol
# GULP energy per Si atom -12392.279130 kJ/mol
# Density = 2.237589 g / cm^3
# Si number density = 22.426935 Si / 1000 Ang^3
#
#
#
# Elastic Constant Matrix: (Units=GPa)
#
#
# Indices 1 2 3 4 5 6 
#
# 1 85.5117 48.9730 25.8099 -8.4644 39.9109 -14.3156
# 2 48.9730 163.5722 49.4447 18.3188 23.1559 -26.8605
# 3 25.8099 49.4447 81.3525 6.2093 37.8909 -16.5834
# 4 -8.4644 18.3188 6.2093 21.4610 -0.7008 17.9259
# 5 39.9109 23.1559 37.8909 -0.7008 36.8947 -9.6547
# 6 -14.3156 -26.8605 -16.5834 17.9259 -9.6547 52.1719
#
#
#
# Elastic Compliance Matrix: (Units=1/GPa)
#
#
# Indices 1 2 3 4 5 6 
#
# 1 0.045337 -0.017177 0.018170 0.037557 -0.060041 -0.014643
# 2 -0.017177 0.017186 -0.008890 -0.031507 0.020494 0.015928
# 3 0.018170 -0.008890 0.035589 0.001080 -0.050060 0.002086
# 4 0.037557 -0.031507 0.001080 0.135877 -0.034738 -0.058688
# 5 -0.060041 0.020494 -0.050060 -0.034738 0.133833 0.014867
# 6 -0.014643 0.015928 0.002086 -0.058688 0.014867 0.046929
#
#
# Mechanical properties :
#
#
# Convention : Reuss Voigt Hill
#
# Bulk Modulus (GPa) = 12.14790 64.32129 38.23460
# Shear Modulus (GPa) = 10.91739 35.85276 23.38508
#
# Velocity S-wave (km/s) = 2.20874 4.00265 3.23263
# Velocity P-wave (km/s) = 3.45444 7.07843 5.56944
#
# Compressibility (1/GPa) = 0.08231876
#
# Stress axis : x y z
#
# Youngs Moduli (GPa) = 22.05721 58.18579 28.09820
#
# Poissons Ratio (x) = 0.99946 -0.51054
# Poissons Ratio (y) = 0.37888 0.24978
# Poissons Ratio (z) = -0.40078 0.51725
#
# Static dielectric constant tensor:
#      x y z
#    x 4.209090 -0.338740 0.230680 
#    y -0.338740 4.706290 -0.006580 
#    z 0.230680 -0.006580 3.509810 
# 
# 
# High freq. dielectric constant tensor:
#      x y z
#    x 1.884730 -0.010090 0.028350 
#    y -0.010090 1.910010 0.002590 
#    z 0.028350 0.002590 1.840640 
# 
# From -- ./inp_files/70646.got.cif
#   From: 2010.06.25/outbox.cif.g09.slc.cpg/sg2_36_cif.got.tgz:70646.got - 2010.06.27 13:26:56.
