data_PCOD8043837
_publ_section_title
;
Structure prediction by ZEFSAII (Michael W. Deem and Ramdas Pophale) SiO2 
 PCOD8043837
Probable space group: P -1
;
_chemical_formula_sum "Si O2"
_cell_formula_units_Z 16
_cell_length_a 20.602811
_cell_length_b 6.174517
_cell_length_c 8.633204
_cell_angle_alpha 127.177733
_cell_angle_beta 59.229853
_cell_angle_gamma 107.275080
_cell_volume 751.744818
_symmetry_space_group_name_H-M "P -1"
_symmetry_group_IT_number 2
_symmetry_cell_setting 'triclinic'
loop_
_space_group_symop_operation_xyz
x,y,z
-x,-y,-z
loop_
_atom_site_type_symbol
_atom_site_label
_atom_site_fract_x
_atom_site_fract_y
_atom_site_fract_z
Si Si1 0.109362 0.683741 0.475659
Si Si2 0.908389 0.727437 0.260253
Si Si3 0.391029 0.520567 0.766546
Si Si4 0.555386 0.481014 0.649658
Si Si5 0.661897 0.056057 0.470781
Si Si6 0.023579 0.452431 0.207715
Si Si7 0.339701 0.053755 0.219373
Si Si8 0.780775 0.487216 0.481873
O O1 0.090824 0.544078 0.275871
O O2 0.178619 0.529404 0.407680
O O3 0.035522 0.711792 0.687854
O O4 0.133572 0.986845 0.535252
O O5 0.844997 0.502273 0.276122
O O6 0.979394 0.697923 0.278587
O O7 0.936283 0.728704 0.050305
O O8 0.464964 0.488423 0.770287
O O9 0.413704 0.557709 0.577794
O O10 0.341385 0.248120 0.728050
O O11 0.344254 0.788470 0.990265
O O12 0.584697 0.765906 0.806301
O O13 0.584120 0.222070 0.602248
O O14 0.673681 0.048092 0.635573
O O15 0.732150 0.221381 0.385383
O O16 0.270423 0.242612 0.329612
#
# Coordination Sequence:
#
# PCOD8043837 Si02
#       8
#     2   2   2   2   2   2   2   2
#     4  10  19  37  60  84 115 147 189 235 285 341
#     4  10  19  37  60  84 117 149 186 234 288 338
#     4  10  20  37  62  86 113 149 192 242 294 341
#     4   9  20  37  59  89 115 142 189 249 297 340
#     4  10  21  38  56  81 117 153 194 238 285 343
#     4   9  20  35  60  91 110 141 188 241 287 333
#     4  10  21  38  57  82 117 154 193 238 287 343
#     4  10  22  39  54  78 121 160 191 234 280 339
#
# _framework density 21.283816999999999
#
# number of rings (size 3 to 8) (size 9 to 14) (size 15 to 20)
#    0.000    2.250    0.000    2.250    0.000    2.500 
#    0.000   16.250    0.000    0.000    0.000    0.000 
#    0.000    0.000    0.000    0.000    0.000    0.000 
#
# Total GULP energy -198365.847870 kJ/mol
# GULP energy per Si atom -12397.865492 kJ/mol
# Density = 2.123537 g / cm^3
# Si number density = 21.283817 Si / 1000 Ang^3
#
#
#
# Elastic Constant Matrix: (Units=GPa)
#
#
# Indices 1 2 3 4 5 6 
#
# 1 137.7105 48.0407 43.0014 10.1127 -0.5390 -10.0162
# 2 48.0407 91.1344 35.5629 24.2335 6.8512 -3.5580
# 3 43.0014 35.5629 70.0305 26.4709 7.2147 3.0992
# 4 10.1127 24.2335 26.4709 31.4800 -2.6086 -1.5748
# 5 -0.5390 6.8512 7.2147 -2.6086 23.3545 1.3859
# 6 -10.0162 -3.5580 3.0992 -1.5748 1.3859 32.0665
#
#
#
# Elastic Compliance Matrix: (Units=1/GPa)
#
#
# Indices 1 2 3 4 5 6 
#
# 1 0.011206 -0.005049 -0.007778 0.007413 0.004742 0.003851
# 2 -0.005049 0.017528 -0.000682 -0.011820 -0.006376 0.000129
# 3 -0.007778 -0.000682 0.029553 -0.023067 -0.011329 -0.006004
# 4 0.007413 -0.011820 -0.023067 0.059568 0.017096 0.005420
# 5 0.004742 -0.006376 -0.011329 0.017096 0.050176 0.000540
# 6 0.003851 0.000129 -0.006004 0.005420 0.000540 0.033225
#
#
# Mechanical properties :
#
#
# Convention : Reuss Voigt Hill
#
# Bulk Modulus (GPa) = 31.97964 61.34281 46.66123
# Shear Modulus (GPa) = 20.94705 28.86489 24.90597
#
# Velocity S-wave (km/s) = 3.14056 3.68664 3.42451
# Velocity P-wave (km/s) = 5.31120 6.85607 6.13247
#
# Compressibility (1/GPa) = 0.03126989
#
# Stress axis : x y z
#
# Youngs Moduli (GPa) = 89.23733 57.05207 33.83710
#
# Poissons Ratio (x) = 0.28808 0.26318
# Poissons Ratio (y) = 0.45060 0.02306
# Poissons Ratio (z) = 0.69406 0.03888
#
# Static dielectric constant tensor:
#      x y z
#    x 4.033420 -0.052950 0.039470 
#    y -0.052950 3.974880 0.036930 
#    z 0.039470 0.036930 3.403760 
# 
# 
# High freq. dielectric constant tensor:
#      x y z
#    x 1.845980 -0.008260 0.001820 
#    y -0.008260 1.846000 0.004220 
#    z 0.001820 0.004220 1.799960 
# 
# From -- ./inp_files/51789.got.cif
#   From: 2010.06.25/outbox.cif.g09.slc.cpg/sg2_26_cif.got.tgz:51789.got - 2010.06.27 13:26:56.
