data_PCOD8043734
_publ_section_title
;
Structure prediction by ZEFSAII (Michael W. Deem and Ramdas Pophale) SiO2 
 PCOD8043734
Probable space group: P -1
;
_chemical_formula_sum "Si O2"
_cell_formula_units_Z 14
_cell_length_a 11.133259
_cell_length_b 9.762977
_cell_length_c 11.320545
_cell_angle_alpha 91.339983
_cell_angle_beta 36.086861
_cell_angle_gamma 100.609611
_cell_volume 695.458915
_symmetry_space_group_name_H-M "P -1"
_symmetry_group_IT_number 2
_symmetry_cell_setting 'triclinic'
loop_
_space_group_symop_operation_xyz
x,y,z
-x,-y,-z
loop_
_atom_site_type_symbol
_atom_site_label
_atom_site_fract_x
_atom_site_fract_y
_atom_site_fract_z
Si Si1 0.813484 0.536339 0.716748
Si Si2 0.744628 0.140878 0.015887
Si Si3 0.857217 0.966000 0.729420
Si Si4 0.481883 0.290753 0.098363
Si Si5 0.916028 0.830312 0.074691
Si Si6 0.485852 0.098152 0.624161
Si Si7 0.962405 0.235307 0.271165
O O1 0.698918 0.629289 0.726270
O O2 0.000000 0.500000 0.500000
O O3 0.909032 0.623452 0.759949
O O4 0.645565 0.388399 0.879088
O O5 0.605134 0.253872 0.114215
O O6 0.606842 0.000806 0.191405
O O7 0.962955 0.218236 0.912796
O O8 0.809633 0.102851 0.831472
O O9 0.629796 0.857630 0.879933
O O10 0.985678 0.904303 0.722790
O O11 0.000000 0.000000 0.500000
O O12 0.662418 0.799555 0.291259
O O13 0.966640 0.745821 0.920399
O O14 0.000000 0.000000 0.000000
O O15 0.709781 0.207710 0.482191
O O16 0.500000 0.000000 0.500000
#
# Coordination Sequence:
#
# PCOD8043734 Si02
#       7
#     2   2   2   2   2   2   2
#     4  10  25  44  62  83 122 173 220 254 296 364
#     4  11  21  37  63  94 133 152 198 262 320 376
#     4  11  22  36  61  99 129 158 198 258 323 377
#     4  10  24  41  60  89 122 165 208 254 308 363
#     4  10  19  37  57  94 125 158 191 252 312 375
#     4  11  19  34  61  94 128 158 194 244 322 371
#     4  11  21  38  62  89 123 163 207 247 308 376
#
# _framework density 20.130593999999999
#
# number of rings (size 3 to 8) (size 9 to 14) (size 15 to 20)
#    0.000    1.429    5.714    1.286    6.000    1.143 
#    0.000    0.714    0.000    1.714    0.000    0.000 
#    0.000    0.000    0.000    0.000    0.000    0.000 
#
# Total GULP energy -173555.488794 kJ/mol
# GULP energy per Si atom -12396.820628 kJ/mol
# Density = 2.008478 g / cm^3
# Si number density = 20.130594 Si / 1000 Ang^3
#
#
#
# Elastic Constant Matrix: (Units=GPa)
#
#
# Indices 1 2 3 4 5 6 
#
# 1 144.5629 45.7335 58.0727 15.0844 -26.6731 -16.6292
# 2 45.7335 63.5630 35.4559 7.2452 -4.3773 1.0372
# 3 58.0727 35.4559 129.9915 16.7625 -10.7944 -0.4659
# 4 15.0844 7.2452 16.7625 29.4908 3.2142 -7.0280
# 5 -26.6731 -4.3773 -10.7944 3.2142 50.1160 8.9664
# 6 -16.6292 1.0372 -0.4659 -7.0280 8.9664 28.6563
#
#
#
# Elastic Compliance Matrix: (Units=1/GPa)
#
#
# Indices 1 2 3 4 5 6 
#
# 1 0.011655 -0.006362 -0.002839 -0.002028 0.004250 0.005121
# 2 -0.006362 0.022215 -0.003163 -0.001340 -0.001238 -0.004489
# 3 -0.002839 -0.003163 0.010510 -0.004573 0.001286 -0.002886
# 4 -0.002028 -0.001340 -0.004573 0.041247 -0.006802 0.011042
# 5 0.004250 -0.001238 0.001286 -0.006802 0.024010 -0.006649
# 6 0.005121 -0.004489 -0.002886 0.011042 -0.006649 0.042772
#
#
# Mechanical properties :
#
#
# Convention : Reuss Voigt Hill
#
# Bulk Modulus (GPa) = 50.88495 68.51573 59.70034
# Shear Modulus (GPa) = 27.21995 34.90963 31.06479
#
# Velocity S-wave (km/s) = 3.68117 4.16884 3.93257
# Velocity P-wave (km/s) = 6.58789 7.56847 7.09514
#
# Compressibility (1/GPa) = 0.01965218
#
# Stress axis : x y z
#
# Youngs Moduli (GPa) = 85.79772 45.01420 95.14865
#
# Poissons Ratio (x) = 0.28639 0.27011
# Poissons Ratio (y) = 0.54586 0.30096
# Poissons Ratio (z) = 0.24356 0.14238
#
# Static dielectric constant tensor:
#      x y z
#    x 4.099630 -0.050610 -0.467410 
#    y -0.050610 3.499460 0.201080 
#    z -0.467410 0.201080 3.994000 
# 
# 
# High freq. dielectric constant tensor:
#      x y z
#    x 1.799170 0.004830 -0.024770 
#    y 0.004830 1.745900 0.011660 
#    z -0.024770 0.011660 1.791920 
# 
# From -- ./inp_files/72381.got.cif
#   From: 2010.06.25/outbox.cif.g09.slc.cpg/sg2_37_cif.got.tgz:72381.got - 2010.06.27 13:26:56.
