data_PCOD8043966
_publ_section_title
;
Structure prediction by ZEFSAII (Michael W. Deem and Ramdas Pophale) SiO2 
 PCOD8043966
Probable space group: P -1
;
_chemical_formula_sum "Si O2"
_cell_formula_units_Z 16
_cell_length_a 9.535002
_cell_length_b 17.374639
_cell_length_c 11.527761
_cell_angle_alpha 148.514979
_cell_angle_beta 125.524180
_cell_angle_gamma 66.939388
_cell_volume 787.201252
_symmetry_space_group_name_H-M "P -1"
_symmetry_group_IT_number 2
_symmetry_cell_setting 'triclinic'
loop_
_space_group_symop_operation_xyz
x,y,z
-x,-y,-z
loop_
_atom_site_type_symbol
_atom_site_label
_atom_site_fract_x
_atom_site_fract_y
_atom_site_fract_z
Si Si1 0.913830 0.624340 0.175004
Si Si2 0.306149 0.065797 0.736416
Si Si3 0.988630 0.968837 0.619217
Si Si4 0.396435 0.998511 0.067230
Si Si5 0.887925 0.830985 0.868569
Si Si6 0.381935 0.403264 0.165338
Si Si7 0.917431 0.281798 0.386420
Si Si8 0.764143 0.549665 0.603269
O O1 0.989509 0.792923 0.374406
O O2 0.944992 0.634330 0.340502
O O3 0.706134 0.576059 0.975222
O O4 0.000000 0.500000 0.000000
O O5 0.183383 0.991588 0.473296
O O6 0.458778 0.979591 0.730727
O O7 0.413412 0.236106 0.978486
O O8 0.172997 0.068345 0.783135
O O9 0.989911 0.016241 0.815730
O O10 0.305389 0.139571 0.213245
O O11 0.500000 0.000000 0.000000
O O12 0.251884 0.837039 0.794042
O O13 0.882243 0.694596 0.780549
O O14 0.978971 0.806873 0.761823
O O15 0.570589 0.521844 0.415601
O O16 0.250257 0.429404 0.238464
O O17 0.853702 0.409618 0.446793
#
# Coordination Sequence:
#
# PCOD8043966 Si02
#       8
#     2   2   2   2   2   2   2   2
#     4  11  22  38  61  94 124 168 211 266 320 372
#     4  10  19  37  61  95 120 161 213 270 307 362
#     4  10  21  37  62  93 130 157 211 265 320 372
#     4  12  22  40  65  95 124 166 222 260 310 375
#     4  12  25  42  63  97 135 170 209 260 327 385
#     4  10  20  36  65  92 122 157 224 271 300 363
#     4  12  25  42  64  94 135 172 207 260 329 386
#     4  11  22  40  64  91 127 173 213 259 316 377
#
# _framework density 20.325171000000001
#
# number of rings (size 3 to 8) (size 9 to 14) (size 15 to 20)
#    0.000    1.000    6.250    0.750    1.750    1.000 
#    0.000    2.500    0.000    0.000    0.000    0.000 
#    0.000    0.000    0.000    0.000    0.000    0.000 
#
# Total GULP energy -198365.138617 kJ/mol
# GULP energy per Si atom -12397.821164 kJ/mol
# Density = 2.027891 g / cm^3
# Si number density = 20.325171 Si / 1000 Ang^3
#
#
#
# Elastic Constant Matrix: (Units=GPa)
#
#
# Indices 1 2 3 4 5 6 
#
# 1 92.4878 48.2611 42.3824 -10.5620 -16.3149 -9.5643
# 2 48.2611 127.1027 49.6285 -12.8588 -8.2965 -24.4156
# 3 42.3824 49.6285 96.1877 -16.9542 -10.7909 -3.2229
# 4 -10.5620 -12.8588 -16.9542 45.0766 0.8405 1.3402
# 5 -16.3149 -8.2965 -10.7909 0.8405 31.3430 2.1683
# 6 -9.5643 -24.4156 -3.2229 1.3402 2.1683 27.6196
#
#
#
# Elastic Compliance Matrix: (Units=1/GPa)
#
#
# Indices 1 2 3 4 5 6 
#
# 1 0.015938 -0.003664 -0.004280 0.000934 0.005738 0.001284
# 2 -0.003664 0.012988 -0.004708 0.000802 -0.000782 0.009686
# 3 -0.004280 -0.004708 0.015424 0.003541 0.002030 -0.004176
# 4 0.000934 0.000802 0.003541 0.023935 0.001263 0.000185
# 5 0.005738 -0.000782 0.002030 0.001263 0.035441 -0.001311
# 6 0.001284 0.009686 -0.004176 0.000185 -0.001311 0.044819
#
#
# Mechanical properties :
#
#
# Convention : Reuss Voigt Hill
#
# Bulk Modulus (GPa) = 52.51309 66.25803 59.38556
# Shear Modulus (GPa) = 27.74712 32.50825 30.12768
#
# Velocity S-wave (km/s) = 3.69882 4.00360 3.85422
# Velocity P-wave (km/s) = 6.64336 7.35129 7.00627
#
# Compressibility (1/GPa) = 0.01904287
#
# Stress axis : x y z
#
# Youngs Moduli (GPa) = 62.74473 76.99321 64.83519
#
# Poissons Ratio (x) = 0.28214 0.27752
# Poissons Ratio (y) = 0.22993 0.30528
# Poissons Ratio (z) = 0.26857 0.36252
#
# Static dielectric constant tensor:
#      x y z
#    x 3.294090 -0.177420 0.061000 
#    y -0.177420 4.002510 -0.136050 
#    z 0.061000 -0.136050 3.761950 
# 
# 
# High freq. dielectric constant tensor:
#      x y z
#    x 1.751420 -0.013370 0.005560 
#    y -0.013370 1.816430 -0.002330 
#    z 0.005560 -0.002330 1.793700 
# 
# From -- ./inp_files/260292.got.cif
#   From: 2010.06.25/outbox.cif.g09.slc.cpg/sg2_131_cif.got.tgz:260292.got - 2010.06.27 13:26:56.
