data_PCOD8043905
_publ_section_title
;
Structure prediction by ZEFSAII (Michael W. Deem and Ramdas Pophale) SiO2 
 PCOD8043905
Probable space group: P -1
;
_chemical_formula_sum "Si O2"
_cell_formula_units_Z 12
_cell_length_a 10.276662
_cell_length_b 14.534934
_cell_length_c 14.419807
_cell_angle_alpha 20.362074
_cell_angle_beta 99.009846
_cell_angle_gamma 88.790762
_cell_volume 645.821171
_symmetry_space_group_name_H-M "P -1"
_symmetry_group_IT_number 2
_symmetry_cell_setting 'triclinic'
loop_
_space_group_symop_operation_xyz
x,y,z
-x,-y,-z
loop_
_atom_site_type_symbol
_atom_site_label
_atom_site_fract_x
_atom_site_fract_y
_atom_site_fract_z
Si Si1 0.073419 0.657930 0.800216
Si Si2 0.698893 0.401168 0.875460
Si Si3 0.582980 0.651876 0.814950
Si Si4 0.342110 0.616470 0.321836
Si Si5 0.859014 0.681156 0.379084
Si Si6 0.108928 0.292878 0.432849
O O1 0.040119 0.639455 0.705038
O O2 0.250019 0.493925 0.989061
O O3 0.000000 0.000000 0.500000
O O4 0.000000 0.500000 0.000000
O O5 0.579490 0.605680 0.747232
O O6 0.620140 0.462946 0.707706
O O7 0.833590 0.481923 0.811134
O O8 0.762249 0.053908 0.240693
O O9 0.500000 0.000000 0.500000
O O10 0.500000 0.500000 0.000000
O O11 0.500000 0.500000 0.500000
O O12 0.256246 0.449993 0.512312
O O13 0.234411 0.971813 0.990875
O O14 0.932288 0.649834 0.517967
O O15 0.000000 0.500000 0.500000
#
# Coordination Sequence:
#
# PCOD8043905 Si02
#       6
#     2   2   2   2   2   2
#     4  12  21  38  63  81 109 152 199 226 263 354
#     4  10  20  38  60  79 114 153 188 226 279 342
#     4  12  24  38  55  86 121 144 182 242 292 315
#     4  10  21  39  62  84 111 154 192 223 279 352
#     4  10  21  38  61  86 118 142 183 246 286 319
#     4  10  19  37  61  84 105 153 196 223 272 341
#
# _framework density 18.580995000000001
#
# number of rings (size 3 to 8) (size 9 to 14) (size 15 to 20)
#    0.000    1.333    3.333    3.000    0.000    0.000 
#    6.000    0.000    0.000    0.000    0.000    0.000 
#    0.000    0.000    0.000    0.000    0.000    0.000 
#
# Total GULP energy -148823.043263 kJ/mol
# GULP energy per Si atom -12401.920272 kJ/mol
# Density = 1.853870 g / cm^3
# Si number density = 18.580995 Si / 1000 Ang^3
#
#
#
# Elastic Constant Matrix: (Units=GPa)
#
#
# Indices 1 2 3 4 5 6 
#
# 1 119.2070 74.5257 58.5624 0.9643 9.0646 10.4554
# 2 74.5257 158.1676 61.8347 -4.3771 18.2622 -0.7131
# 3 58.5624 61.8347 109.8877 -18.1362 -1.1684 5.7371
# 4 0.9643 -4.3771 -18.1362 33.9882 5.7857 7.5296
# 5 9.0646 18.2622 -1.1684 5.7857 37.5530 -0.1536
# 6 10.4554 -0.7131 5.7371 7.5296 -0.1536 37.7880
#
#
#
# Elastic Compliance Matrix: (Units=1/GPa)
#
#
# Indices 1 2 3 4 5 6 
#
# 1 0.014229 -0.004591 -0.005394 -0.003149 -0.000895 -0.002581
# 2 -0.004591 0.010339 -0.003553 -0.000205 -0.003990 0.002029
# 3 -0.005394 -0.003553 0.015472 0.008130 0.002248 -0.002535
# 4 -0.003149 -0.000205 0.008130 0.036277 -0.004508 -0.007614
# 5 -0.000895 -0.003990 0.002248 -0.004508 0.029554 0.000849
# 6 -0.002581 0.002029 -0.002535 -0.007614 0.000849 0.029121
#
#
# Mechanical properties :
#
#
# Convention : Reuss Voigt Hill
#
# Bulk Modulus (GPa) = 77.13999 86.34534 81.74267
# Shear Modulus (GPa) = 30.04984 34.68847 32.36915
#
# Velocity S-wave (km/s) = 4.02585 4.32543 4.17832
# Velocity P-wave (km/s) = 7.95082 8.45673 8.20768
#
# Compressibility (1/GPa) = 0.01296344
#
# Stress axis : x y z
#
# Youngs Moduli (GPa) = 70.28010 96.72148 64.63113
#
# Poissons Ratio (x) = 0.44405 0.34862
# Poissons Ratio (y) = 0.32266 0.22965
# Poissons Ratio (z) = 0.37910 0.34368
#
# Static dielectric constant tensor:
#      x y z
#    x 0.800810 -0.694220 -2.398740 
#    y -0.694220 3.522710 -0.661330 
#    z -2.398740 -0.661330 1.765950 
# 
# 
# High freq. dielectric constant tensor:
#      x y z
#    x 1.712760 0.010660 -0.022470 
#    y 0.010660 1.735790 -0.001220 
#    z -0.022470 -0.001220 1.733840 
# 
# From -- ./inp_files/29343.got.cif
#   From: 2010.06.25/outbox.cif.g09.slc.cpg/sg2_15_cif.got.tgz:29343.got - 2010.06.27 13:26:56.
