data_PCOD8043950
_publ_section_title
;
Structure prediction by ZEFSAII (Michael W. Deem and Ramdas Pophale) SiO2 
 PCOD8043950
Probable space group: P -1
;
_chemical_formula_sum "Si O2"
_cell_formula_units_Z 16
_cell_length_a 14.115287
_cell_length_b 27.258003
_cell_length_c 8.882673
_cell_angle_alpha 143.766760
_cell_angle_beta 142.990271
_cell_angle_gamma 23.647044
_cell_volume 784.197152
_symmetry_space_group_name_H-M "P -1"
_symmetry_group_IT_number 2
_symmetry_cell_setting 'triclinic'
loop_
_space_group_symop_operation_xyz
x,y,z
-x,-y,-z
loop_
_atom_site_type_symbol
_atom_site_label
_atom_site_fract_x
_atom_site_fract_y
_atom_site_fract_z
Si Si1 0.107662 0.586823 0.493149
Si Si2 0.554025 0.773369 0.227305
Si Si3 0.040371 0.173484 0.015841
Si Si4 0.840150 0.484683 0.291876
Si Si5 0.607865 0.286602 0.903840
Si Si6 0.435312 0.654115 0.680736
Si Si7 0.536471 0.002967 0.380046
Si Si8 0.000150 0.758467 0.197274
O O1 0.843995 0.659099 0.290805
O O2 0.092453 0.690322 0.758622
O O3 0.209122 0.499955 0.554964
O O4 0.297121 0.492928 0.367742
O O5 0.488404 0.765576 0.293395
O O6 0.430972 0.911923 0.393044
O O7 0.449845 0.749180 0.913064
O O8 0.313624 0.055225 0.131413
O O9 0.050714 0.167083 0.832610
O O10 0.867140 0.171349 0.860751
O O11 0.581024 0.594075 0.152874
O O12 0.000000 0.500000 0.500000
O O13 0.985116 0.344669 0.075500
O O14 0.636827 0.333758 0.206122
O O15 0.247647 0.690686 0.417521
O O16 0.780301 0.858774 0.282271
O O17 0.500000 0.000000 0.500000
#
# Coordination Sequence:
#
# PCOD8043950 Si02
#       8
#     2   2   2   2   2   2   2   2
#     4  10  19  37  61  90 124 163 196 249 301 358
#     4   9  22  39  63  87 129 157 201 252 296 354
#     4  10  22  41  61  88 122 159 206 248 302 357
#     4  11  21  37  62  91 124 157 198 246 303 363
#     4  10  21  38  62  92 125 160 195 251 306 351
#     4  10  21  36  60  93 123 156 201 247 302 354
#     4  11  24  44  66  86 117 164 208 250 298 359
#     4  11  24  40  63  91 121 163 201 251 300 362
#
# _framework density 20.403032
#
# number of rings (size 3 to 8) (size 9 to 14) (size 15 to 20)
#    0.750    1.000    1.250    3.000    0.000    7.500 
#    0.000    0.625    0.000    0.000    0.000    0.000 
#    0.000    0.000    0.000    0.000    0.000    0.000 
#
# Total GULP energy -198378.610713 kJ/mol
# GULP energy per Si atom -12398.663170 kJ/mol
# Density = 2.035659 g / cm^3
# Si number density = 20.403032 Si / 1000 Ang^3
#
#
#
# Elastic Constant Matrix: (Units=GPa)
#
#
# Indices 1 2 3 4 5 6 
#
# 1 96.3080 29.8018 20.4128 -0.4242 -5.2550 -9.9565
# 2 29.8018 68.6434 26.5245 0.4698 14.0092 -11.2914
# 3 20.4128 26.5245 79.7107 -11.4963 -3.2916 -4.7364
# 4 -0.4242 0.4698 -11.4963 33.1064 -1.7991 -3.4283
# 5 -5.2550 14.0092 -3.2916 -1.7991 26.3605 -3.6902
# 6 -9.9565 -11.2914 -4.7364 -3.4283 -3.6902 38.3372
#
#
#
# Elastic Compliance Matrix: (Units=1/GPa)
#
#
# Indices 1 2 3 4 5 6 
#
# 1 0.013049 -0.006276 -0.000799 0.000530 0.006164 0.002083
# 2 -0.006276 0.023468 -0.007128 -0.003395 -0.014466 0.002705
# 3 -0.000799 -0.007128 0.016321 0.006185 0.006210 0.000860
# 4 0.000530 -0.003395 0.006185 0.033052 0.005411 0.003378
# 5 0.006164 -0.014466 0.006210 0.005411 0.048453 0.003255
# 6 0.002083 0.002705 0.000860 0.003378 0.003255 0.028144
#
#
# Mechanical properties :
#
#
# Convention : Reuss Voigt Hill
#
# Bulk Modulus (GPa) = 40.92860 44.23780 42.58320
# Shear Modulus (GPa) = 25.12121 30.75570 27.93846
#
# Velocity S-wave (km/s) = 3.51272 3.88675 3.70446
# Velocity P-wave (km/s) = 6.04615 6.47082 6.26208
#
# Compressibility (1/GPa) = 0.02443279
#
# Stress axis : x y z
#
# Youngs Moduli (GPa) = 76.63694 42.61205 61.26907
#
# Poissons Ratio (x) = 0.26742 0.04893
# Poissons Ratio (y) = 0.48094 0.43674
# Poissons Ratio (z) = 0.06120 0.30375
#
# Static dielectric constant tensor:
#      x y z
#    x 3.831460 -0.011140 -0.033990 
#    y -0.011140 3.526900 -0.122990 
#    z -0.033990 -0.122990 3.692310 
# 
# 
# High freq. dielectric constant tensor:
#      x y z
#    x 1.805050 -0.008090 0.000190 
#    y -0.008090 1.789830 -0.012870 
#    z 0.000190 -0.012870 1.791810 
# 
# From -- ./inp_files/321100.got.cif
#   From: 2010.06.25/outbox.cif.g09.slc.cpg/sg2_161_cif.got.tgz:321100.got - 2010.06.27 13:26:56.
