data_PCOD8043662
_publ_section_title
;
Structure prediction by ZEFSAII (Michael W. Deem and Ramdas Pophale) SiO2 
 PCOD8043662
Probable space group: P -1
;
_chemical_formula_sum "Si O2"
_cell_formula_units_Z 16
_cell_length_a 15.670604
_cell_length_b 24.541729
_cell_length_c 15.950128
_cell_angle_alpha 28.646204
_cell_angle_beta 26.904453
_cell_angle_gamma 18.957442
_cell_volume 876.992377
_symmetry_space_group_name_H-M "P -1"
_symmetry_group_IT_number 2
_symmetry_cell_setting 'triclinic'
loop_
_space_group_symop_operation_xyz
x,y,z
-x,-y,-z
loop_
_atom_site_type_symbol
_atom_site_label
_atom_site_fract_x
_atom_site_fract_y
_atom_site_fract_z
Si Si1 0.334776 0.563416 0.777491
Si Si2 0.056010 0.735802 0.051211
Si Si3 0.669132 0.719749 0.338502
Si Si4 0.820372 0.606110 0.931806
Si Si5 0.387082 0.481700 0.245793
Si Si6 0.355580 0.399356 0.649547
Si Si7 0.449046 0.865689 0.036463
Si Si8 0.279832 0.081214 0.159714
O O1 0.549719 0.468976 0.795306
O O2 0.476688 0.563881 0.573918
O O3 0.051663 0.761427 0.788769
O O4 0.280436 0.459676 0.940017
O O5 0.118988 0.657686 0.194138
O O6 0.914226 0.702195 0.163962
O O7 0.345013 0.648510 0.874620
O O8 0.858562 0.936211 0.962011
O O9 0.695009 0.608283 0.533552
O O10 0.701354 0.660893 0.295523
O O11 0.357758 0.922413 0.344827
O O12 0.037174 0.578105 0.719932
O O13 0.542238 0.801302 0.944516
O O14 0.000000 0.500000 0.000000
O O15 0.548146 0.251151 0.752847
O O16 0.685877 0.839804 0.905388
O O17 0.500000 0.000000 0.000000
#
# Coordination Sequence:
#
# PCOD8043662 Si02
#       8
#     2   2   2   2   2   2   2   2
#     4  11  21  33  55  79 106 138 174 219 259 318
#     4  10  21  37  53  76 109 140 176 214 256 316
#     4  10  20  33  56  78 106 137 171 217 263 318
#     4  10  19  37  50  76 109 138 174 211 271 306
#     4  10  22  35  54  79 105 142 175 212 262 311
#     4  10  20  32  54  82 104 138 170 216 272 310
#     4  10  20  34  55  76 106 140 173 216 260 313
#     4  11  18  32  53  82 108 135 166 213 271 314
#
# _framework density 18.244173
#
# number of rings (size 3 to 8) (size 9 to 14) (size 15 to 20)
#    0.000    1.750    3.750    2.625    1.750    3.000 
#    0.000    0.625    0.000    3.000    0.000    0.000 
#    0.000    0.000    0.000    0.000    0.000    0.000 
#
# Total GULP energy -198334.267511 kJ/mol
# GULP energy per Si atom -12395.891719 kJ/mol
# Density = 1.820265 g / cm^3
# Si number density = 18.244173 Si / 1000 Ang^3
#
#
#
# Elastic Constant Matrix: (Units=GPa)
#
#
# Indices 1 2 3 4 5 6 
#
# 1 52.2597 24.3201 12.7249 -0.4293 4.3332 1.9644
# 2 24.3201 74.9239 35.2106 5.4168 9.6518 4.4327
# 3 12.7249 35.2106 82.3685 10.1061 15.0624 6.4539
# 4 -0.4293 5.4168 10.1061 25.8938 -3.5944 6.8158
# 5 4.3332 9.6518 15.0624 -3.5944 23.0736 -0.8599
# 6 1.9644 4.4327 6.4539 6.8158 -0.8599 28.3669
#
#
#
# Elastic Compliance Matrix: (Units=1/GPa)
#
#
# Indices 1 2 3 4 5 6 
#
# 1 0.022693 -0.007140 -0.000548 0.002233 -0.000602 -0.000886
# 2 -0.007140 0.019164 -0.006270 -0.001898 -0.002904 -0.000706
# 3 -0.000548 -0.006270 0.017643 -0.006497 -0.009868 -0.001735
# 4 0.002233 -0.001898 -0.006497 0.045530 0.011374 -0.008975
# 5 -0.000602 -0.002904 -0.009868 0.011374 0.052942 0.001613
# 6 -0.000886 -0.000706 -0.001735 -0.008975 0.001613 0.038024
#
#
# Mechanical properties :
#
#
# Convention : Reuss Voigt Hill
#
# Bulk Modulus (GPa) = 31.66125 39.34036 35.50080
# Shear Modulus (GPa) = 21.32740 24.61995 22.97367
#
# Velocity S-wave (km/s) = 3.42277 3.67750 3.55242
# Velocity P-wave (km/s) = 5.74564 6.29619 6.02720
#
# Compressibility (1/GPa) = 0.03158435
#
# Stress axis : x y z
#
# Youngs Moduli (GPa) = 44.06650 52.18077 56.67940
#
# Poissons Ratio (x) = 0.37257 0.03106
# Poissons Ratio (y) = 0.31463 0.35538
# Poissons Ratio (z) = 0.02415 0.32717
#
# Static dielectric constant tensor:
#      x y z
#    x 3.504310 0.182610 0.147070 
#    y 0.182610 3.620360 0.016050 
#    z 0.147070 0.016050 3.387580 
# 
# 
# High freq. dielectric constant tensor:
#      x y z
#    x 1.703960 0.006430 0.002070 
#    y 0.006430 1.692350 0.008120 
#    z 0.002070 0.008120 1.702730 
# 
# From -- ./inp_files/421393.got.cif
#   From: 2010.06.25/outbox.cif.g09.slc.cpg/sg2_211_cif.got.tgz:421393.got - 2010.06.27 13:26:56.
