data_PCOD8043931
_publ_section_title
;
Structure prediction by ZEFSAII (Michael W. Deem and Ramdas Pophale) SiO2 
 PCOD8043931
Probable space group: P -1
;
_chemical_formula_sum "Si O2"
_cell_formula_units_Z 16
_cell_length_a 5.450254
_cell_length_b 28.610289
_cell_length_c 7.252540
_cell_angle_alpha 39.154029
_cell_angle_beta 91.618427
_cell_angle_gamma 107.419658
_cell_volume 641.108134
_symmetry_space_group_name_H-M "P -1"
_symmetry_group_IT_number 2
_symmetry_cell_setting 'triclinic'
loop_
_space_group_symop_operation_xyz
x,y,z
-x,-y,-z
loop_
_atom_site_type_symbol
_atom_site_label
_atom_site_fract_x
_atom_site_fract_y
_atom_site_fract_z
Si Si1 0.715754 0.894203 0.417036
Si Si2 0.087338 0.163249 0.081882
Si Si3 0.284748 0.745856 0.297254
Si Si4 0.912578 0.065276 0.028365
Si Si5 0.228422 0.380043 0.847200
Si Si6 0.608997 0.491366 0.239797
Si Si7 0.012306 0.425992 0.368430
Si Si8 0.801773 0.211911 0.441801
O O1 0.927103 0.869716 0.608988
O O2 0.821401 0.921421 0.127663
O O3 0.421902 0.814288 0.646688
O O4 0.690488 0.970157 0.289511
O O5 0.405669 0.218325 0.875642
O O6 0.984458 0.084186 0.186532
O O7 0.897135 0.210249 0.920722
O O8 0.143453 0.651542 0.526253
O O9 0.291535 0.749120 0.509044
O O10 0.801068 0.127686 0.762606
O O11 0.509203 0.417707 0.619059
O O12 0.289819 0.420446 0.927767
O O13 0.013311 0.401933 0.658337
O O14 0.097285 0.280519 0.167966
O O15 0.870134 0.487820 0.158414
O O16 0.334059 0.470393 0.171145
#
# Coordination Sequence:
#
# PCOD8043931 Si02
#       8
#     2   2   2   2   2   2   2   2
#     4  11  23  42  70  92 130 181 219 270 336 386
#     4  11  24  44  66  96 133 176 220 268 330 386
#     4  11  24  42  61  98 136 166 221 276 319 390
#     4  10  24  44  62 100 134 167 225 279 320 398
#     4   9  21  35  64  90 125 166 217 264 326 388
#     4   9  20  38  61  94 123 162 221 267 310 396
#     4  10  19  37  61  87 126 164 211 262 321 381
#     4  11  23  42  62  97 131 174 214 279 329 388
#
# _framework density 24.956792
#
# number of rings (size 3 to 8) (size 9 to 14) (size 15 to 20)
#    0.750    1.000    1.250    2.625    3.500    1.000 
#    0.000    3.125    0.000    0.000    0.000    0.000 
#    0.000    0.000    0.000    0.000    0.000    0.000 
#
# Total GULP energy -198356.302884 kJ/mol
# GULP energy per Si atom -12397.268930 kJ/mol
# Density = 2.489999 g / cm^3
# Si number density = 24.956792 Si / 1000 Ang^3
#
#
#
# Elastic Constant Matrix: (Units=GPa)
#
#
# Indices 1 2 3 4 5 6 
#
# 1 115.7935 41.7994 24.3434 -15.5511 -2.6127 1.0298
# 2 41.7994 138.3636 35.4972 -38.2750 1.3870 22.0705
# 3 24.3434 35.4972 77.3949 -18.1370 -6.0944 10.5451
# 4 -15.5511 -38.2750 -18.1370 41.2088 3.9129 -0.7971
# 5 -2.6127 1.3870 -6.0944 3.9129 37.7093 2.8071
# 6 1.0298 22.0705 10.5451 -0.7971 2.8071 34.2006
#
#
#
# Elastic Compliance Matrix: (Units=1/GPa)
#
#
# Indices 1 2 3 4 5 6 
#
# 1 0.010107 -0.002759 -0.002099 0.000343 0.000270 0.002109
# 2 -0.002759 0.012281 -0.001665 0.009629 -0.001391 -0.006990
# 3 -0.002099 -0.001665 0.016107 0.004451 0.002349 -0.003917
# 4 0.000343 0.009629 0.004451 0.035438 -0.002801 -0.006541
# 5 0.000270 -0.001391 0.002349 -0.002801 0.027419 -0.002150
# 6 0.002109 -0.006990 -0.003917 -0.006541 -0.002150 0.034918
#
#
# Mechanical properties :
#
#
# Convention : Reuss Voigt Hill
#
# Bulk Modulus (GPa) = 39.29805 59.42576 49.36190
# Shear Modulus (GPa) = 31.68594 37.95120 34.81857
#
# Velocity S-wave (km/s) = 3.56706 3.90382 3.73923
# Velocity P-wave (km/s) = 5.72239 6.64702 6.20196
#
# Compressibility (1/GPa) = 0.02544656
#
# Stress axis : x y z
#
# Youngs Moduli (GPa) = 98.94416 81.42922 62.08616
#
# Poissons Ratio (x) = 0.22466 0.13034
# Poissons Ratio (y) = 0.27299 0.10340
# Poissons Ratio (z) = 0.20772 0.13561
#
# Static dielectric constant tensor:
#      x y z
#    x 4.305230 0.091350 -0.158940 
#    y 0.091350 4.901050 0.091220 
#    z -0.158940 0.091220 4.403260 
# 
# 
# High freq. dielectric constant tensor:
#      x y z
#    x 1.982050 0.005550 -0.009020 
#    y 0.005550 2.021380 0.008020 
#    z -0.009020 0.008020 1.999000 
# 
# From -- ./inp_files/143373.got.cif
#   From: 2010.06.25/outbox.cif.g09.slc.cpg/sg2_72_cif.got.tgz:143373.got - 2010.06.27 13:26:56.
