data_PCOD8043023
_publ_section_title
;
Structure prediction by ZEFSAII (Michael W. Deem and Ramdas Pophale) SiO2 
 PCOD8043023
Probable space group: P -1
;
_chemical_formula_sum "Si O2"
_cell_formula_units_Z 16
_cell_length_a 8.987892
_cell_length_b 12.513816
_cell_length_c 12.070285
_cell_angle_alpha 48.869613
_cell_angle_beta 123.613168
_cell_angle_gamma 106.261822
_cell_volume 843.882776
_symmetry_space_group_name_H-M "P -1"
_symmetry_group_IT_number 2
_symmetry_cell_setting 'triclinic'
loop_
_space_group_symop_operation_xyz
x,y,z
-x,-y,-z
loop_
_atom_site_type_symbol
_atom_site_label
_atom_site_fract_x
_atom_site_fract_y
_atom_site_fract_z
Si Si1 0.885332 0.412913 0.830112
Si Si2 0.125677 0.842523 0.422261
Si Si3 0.454345 0.641086 0.954685
Si Si4 0.953436 0.296191 0.288836
Si Si5 0.489920 0.506895 0.273779
Si Si6 0.119435 0.603648 0.415982
Si Si7 0.906743 0.844409 0.765526
Si Si8 0.468292 0.230818 0.312063
O O1 0.671150 0.426549 0.757082
O O2 0.931317 0.375089 0.747432
O O3 0.948656 0.564292 0.778721
O O4 0.996119 0.288959 0.033607
O O5 0.048708 0.756590 0.550014
O O6 0.082245 0.760379 0.349219
O O7 0.339041 0.846309 0.516727
O O8 0.030980 0.006822 0.267199
O O9 0.242474 0.669195 0.866860
O O10 0.528608 0.759537 0.828194
O O11 0.500000 0.500000 0.000000
O O12 0.539331 0.626469 0.123182
O O13 0.051606 0.171248 0.337063
O O14 0.669162 0.459080 0.449760
O O15 0.426167 0.380732 0.258765
O O16 0.000000 0.500000 0.500000
O O17 0.690273 0.861946 0.668184
#
# Coordination Sequence:
#
# PCOD8043023 Si02
#       8
#     2   2   2   2   2   2   2   2
#     4  12  22  36  61  88 116 151 195 241 283 335
#     4  10  23  41  57  85 121 160 189 230 292 346
#     4   9  17  30  54  85 120 141 181 242 288 336
#     4  11  20  37  59  90 118 150 188 234 296 346
#     4  10  19  36  56  86 115 144 197 241 282 334
#     4  11  24  40  61  80 110 161 205 233 273 341
#     4  12  22  35  62  92 123 144 186 245 296 347
#     4   9  19  33  58  86 118 151 185 233 294 345
#
# _framework density 18.959980000000002
#
# number of rings (size 3 to 8) (size 9 to 14) (size 15 to 20)
#    0.000    1.500    3.750    3.750    1.750    0.500 
#    0.000    0.000    0.000    0.750    0.000    0.000 
#    0.000    0.000    0.000    0.000    0.000    0.000 
#
# Total GULP energy -198310.761201 kJ/mol
# GULP energy per Si atom -12394.422575 kJ/mol
# Density = 1.891683 g / cm^3
# Si number density = 18.959980 Si / 1000 Ang^3
#
#
#
# Elastic Constant Matrix: (Units=GPa)
#
#
# Indices 1 2 3 4 5 6 
#
# 1 96.0780 28.2960 20.6147 -7.7615 0.2017 -13.9979
# 2 28.2960 90.8514 27.9555 -14.6541 -4.4135 -16.5706
# 3 20.6147 27.9555 46.9543 -3.1347 -5.0218 -5.9901
# 4 -7.7615 -14.6541 -3.1347 26.6464 -7.8460 -5.7852
# 5 0.2017 -4.4135 -5.0218 -7.8460 14.8297 7.0787
# 6 -13.9979 -16.5706 -5.9901 -5.7852 7.0787 26.4905
#
#
#
# Elastic Compliance Matrix: (Units=1/GPa)
#
#
# Indices 1 2 3 4 5 6 
#
# 1 0.012906 -0.001151 -0.004302 0.003026 -0.003595 0.006748
# 2 -0.001151 0.017660 -0.007457 0.011955 0.004181 0.010246
# 3 -0.004302 -0.007457 0.028179 -0.000105 0.008719 -0.002919
# 4 0.003026 0.011955 -0.000105 0.055776 0.026197 0.014234
# 5 -0.003595 0.004181 0.008719 0.026197 0.093443 -0.016561
# 6 0.006748 0.010246 -0.002919 0.014234 -0.016561 0.054599
#
#
# Mechanical properties :
#
#
# Convention : Reuss Voigt Hill
#
# Bulk Modulus (GPa) = 30.37259 43.06845 36.72052
# Shear Modulus (GPa) = 16.70244 24.06117 20.38180
#
# Velocity S-wave (km/s) = 2.97127 3.56624 3.28226
# Velocity P-wave (km/s) = 5.27497 6.30255 5.81152
#
# Compressibility (1/GPa) = 0.03292442
#
# Stress axis : x y z
#
# Youngs Moduli (GPa) = 77.48624 56.62409 35.48787
#
# Poissons Ratio (x) = 0.06520 0.15267
# Poissons Ratio (y) = 0.08922 0.26462
# Poissons Ratio (z) = 0.33335 0.42222
#
# Static dielectric constant tensor:
#      x y z
#    x 3.748930 -0.169600 -0.176110 
#    y -0.169600 3.259330 0.015360 
#    z -0.176110 0.015360 3.443570 
# 
# 
# High freq. dielectric constant tensor:
#      x y z
#    x 1.756600 -0.014270 -0.005670 
#    y -0.014270 1.709900 -0.000950 
#    z -0.005670 -0.000950 1.726100 
# 
# From -- ./inp_files/204199.got.cif
#   From: 2010.06.25/outbox.cif.g09.slc.cpg/sg2_103_cif.got.tgz:204199.got - 2010.06.27 13:26:56.
