data_PCOD8043040
_publ_section_title
;
Structure prediction by ZEFSAII (Michael W. Deem and Ramdas Pophale) SiO2 
 PCOD8043040
Probable space group: P -1
;
_chemical_formula_sum "Si O2"
_cell_formula_units_Z 14
_cell_length_a 20.394157
_cell_length_b 16.951588
_cell_length_c 5.179654
_cell_angle_alpha 114.387067
_cell_angle_beta 116.644241
_cell_angle_gamma 24.260972
_cell_volume 657.603304
_symmetry_space_group_name_H-M "P -1"
_symmetry_group_IT_number 2
_symmetry_cell_setting 'triclinic'
loop_
_space_group_symop_operation_xyz
x,y,z
-x,-y,-z
loop_
_atom_site_type_symbol
_atom_site_label
_atom_site_fract_x
_atom_site_fract_y
_atom_site_fract_z
Si Si1 0.430387 0.978979 0.394517
Si Si2 0.154678 0.760023 0.678901
Si Si3 0.206242 0.813233 0.346605
Si Si4 0.101791 0.308371 0.473936
Si Si5 0.170190 0.159485 0.895907
Si Si6 0.580896 0.645739 0.304395
Si Si7 0.599966 0.225894 0.336782
O O1 0.294638 0.128005 0.582458
O O2 0.500000 0.000000 0.500000
O O3 0.571534 0.760509 0.422900
O O4 0.334954 0.044783 0.060684
O O5 0.221433 0.725033 0.476405
O O6 0.235188 0.580071 0.618471
O O7 0.211607 0.764774 0.009984
O O8 0.960464 0.956514 0.598726
O O9 0.360419 0.714139 0.503963
O O10 0.054789 0.316640 0.676140
O O11 0.000000 0.500000 0.500000
O O12 0.068070 0.274096 0.137926
O O13 0.227620 0.002115 0.727838
O O14 0.461116 0.740886 0.447666
O O15 0.528323 0.657135 0.957734
#
# Coordination Sequence:
#
# PCOD8043040 Si02
#       7
#     2   2   2   2   2   2   2
#     4   9  21  38  58  81 114 152 186 235 288 332
#     4  10  22  40  57  87 120 149 189 235 291 334
#     4  10  22  39  62  82 120 155 185 235 285 350
#     4  10  19  36  57  79 109 149 182 237 279 331
#     4   9  19  36  56  79 115 142 184 236 274 329
#     4  11  22  38  59  86 118 147 195 244 276 341
#     4  11  20  38  61  84 114 153 189 232 288 330
#
# _framework density 21.289431
#
# number of rings (size 3 to 8) (size 9 to 14) (size 15 to 20)
#    0.857    1.143    1.429    2.143    0.000    4.000 
#    2.571    0.000    0.000    0.000    0.000    0.000 
#    0.000    0.000    0.000    0.000    0.000    0.000 
#
# Total GULP energy -173489.905207 kJ/mol
# GULP energy per Si atom -12392.136086 kJ/mol
# Density = 2.124097 g / cm^3
# Si number density = 21.289431 Si / 1000 Ang^3
#
#
#
# Elastic Constant Matrix: (Units=GPa)
#
#
# Indices 1 2 3 4 5 6 
#
# 1 74.6832 15.6843 28.8474 -5.2268 3.9871 16.0112
# 2 15.6843 114.6686 4.3133 -0.0561 -2.1191 41.1679
# 3 28.8474 4.3133 87.7949 -7.0777 -24.8668 6.0939
# 4 -5.2268 -0.0561 -7.0777 25.5541 7.2731 -8.4343
# 5 3.9871 -2.1191 -24.8668 7.2731 35.8836 -2.1103
# 6 16.0112 41.1679 6.0939 -8.4343 -2.1103 27.5523
#
#
#
# Elastic Compliance Matrix: (Units=1/GPa)
#
#
# Indices 1 2 3 4 5 6 
#
# 1 0.019301 0.002576 -0.007839 -0.000564 -0.008141 -0.014128
# 2 0.002576 0.022125 0.000108 -0.012415 0.001360 -0.038276
# 3 -0.007839 0.000108 0.017580 0.000027 0.013144 0.001521
# 4 -0.000564 -0.012415 0.000027 0.053014 -0.009375 0.034382
# 5 -0.008141 0.001360 0.013144 -0.009375 0.039860 -0.000025
# 6 -0.014128 -0.038276 0.001521 0.034382 -0.000025 0.111882
#
#
# Mechanical properties :
#
#
# Convention : Reuss Voigt Hill
#
# Bulk Modulus (GPa) = 20.53570 41.64852 31.09211
# Shear Modulus (GPa) = 17.22334 33.01813 25.12074
#
# Velocity S-wave (km/s) = 2.84739 3.94244 3.43879
# Velocity P-wave (km/s) = 4.52516 6.35053 5.51391
#
# Compressibility (1/GPa) = 0.04869568
#
# Stress axis : x y z
#
# Youngs Moduli (GPa) = 51.81114 45.19771 56.88232
#
# Poissons Ratio (x) = -0.11644 0.44591
# Poissons Ratio (y) = -0.13348 -0.00613
# Poissons Ratio (z) = 0.40616 -0.00487
#
# Static dielectric constant tensor:
#      x y z
#    x 3.427660 0.186010 -0.218090 
#    y 0.186010 3.931150 0.073130 
#    z -0.218090 0.073130 3.923820 
# 
# 
# High freq. dielectric constant tensor:
#      x y z
#    x 1.797900 0.024940 -0.020870 
#    y 0.024940 1.841200 0.009070 
#    z -0.020870 0.009070 1.840370 
# 
# From -- ./inp_files/110986.got.cif
#   From: 2010.06.25/outbox.cif.g09.slc.cpg/sg2_56_cif.got.tgz:110986.got - 2010.06.27 13:26:56.
