data_PCOD8043704
_publ_section_title
;
Structure prediction by ZEFSAII (Michael W. Deem and Ramdas Pophale) SiO2 
 PCOD8043704
Probable space group: P -1
;
_chemical_formula_sum "Si O2"
_cell_formula_units_Z 16
_cell_length_a 9.152935
_cell_length_b 9.058846
_cell_length_c 14.698704
_cell_angle_alpha 84.650863
_cell_angle_beta 128.205918
_cell_angle_gamma 122.036848
_cell_volume 759.697325
_symmetry_space_group_name_H-M "P -1"
_symmetry_group_IT_number 2
_symmetry_cell_setting 'triclinic'
loop_
_space_group_symop_operation_xyz
x,y,z
-x,-y,-z
loop_
_atom_site_type_symbol
_atom_site_label
_atom_site_fract_x
_atom_site_fract_y
_atom_site_fract_z
Si Si1 0.299008 0.125907 0.135029
Si Si2 0.302935 0.506451 0.688752
Si Si3 0.919692 0.469498 0.103477
Si Si4 0.572252 0.650570 0.097020
Si Si5 0.983897 0.245244 0.018078
Si Si6 0.906298 0.028314 0.747902
Si Si7 0.502167 0.632600 0.563575
Si Si8 0.873856 0.325399 0.642568
O O1 0.574191 0.278795 0.244840
O O2 0.233802 0.976465 0.039706
O O3 0.166086 0.983929 0.175501
O O4 0.209466 0.252850 0.082268
O O5 0.386512 0.407773 0.787030
O O6 0.372553 0.510117 0.611086
O O7 0.028790 0.403250 0.605222
O O8 0.053581 0.656559 0.083833
O O9 0.974030 0.527256 0.226272
O O10 0.642202 0.337957 0.981407
O O11 0.011346 0.349887 0.116972
O O12 0.812633 0.853018 0.154360
O O13 0.500000 0.500000 0.000000
O O14 0.815759 0.127412 0.652749
O O15 0.768560 0.815291 0.671827
O O16 0.500000 0.500000 0.500000
O O17 0.364387 0.704508 0.464075
#
# Coordination Sequence:
#
# PCOD8043704 Si02
#       8
#     2   2   2   2   2   2   2   2
#     4  10  19  37  56  90 123 168 205 251 311 383
#     4  10  22  39  67  88 122 170 208 255 317 368
#     4  11  21  35  60  98 128 166 200 260 318 378
#     4  11  19  39  64  96 126 163 199 254 319 388
#     4  10  21  32  57  91 133 165 205 252 308 386
#     4  10  22  40  66  87 118 171 213 247 312 381
#     4  11  26  45  65  91 121 166 219 274 303 354
#     4  11  22  42  65  89 123 169 211 252 309 383
#
# _framework density 21.061019000000002
#
# number of rings (size 3 to 8) (size 9 to 14) (size 15 to 20)
#    0.000    1.500    5.000    0.750    5.250    0.000 
#    2.250    3.750    0.000    0.000    0.000    0.000 
#    0.000    0.000    0.000    0.000    0.000    0.000 
#
# Total GULP energy -198259.021189 kJ/mol
# GULP energy per Si atom -12391.188824 kJ/mol
# Density = 2.101308 g / cm^3
# Si number density = 21.061019 Si / 1000 Ang^3
#
#
#
# Elastic Constant Matrix: (Units=GPa)
#
#
# Indices 1 2 3 4 5 6 
#
# 1 73.9091 48.0491 25.5518 12.3869 -10.6694 -4.3976
# 2 48.0491 96.3745 25.0706 12.3720 -10.6880 -2.8037
# 3 25.5518 25.0706 66.2431 8.1321 -5.5098 0.3729
# 4 12.3869 12.3720 8.1321 36.9286 1.0713 -4.0159
# 5 -10.6694 -10.6880 -5.5098 1.0713 38.3766 4.2517
# 6 -4.3976 -2.8037 0.3729 -4.0159 4.2517 35.7013
#
#
#
# Elastic Compliance Matrix: (Units=1/GPa)
#
#
# Indices 1 2 3 4 5 6 
#
# 1 0.021978 -0.009020 -0.004422 -0.003316 0.002909 0.001326
# 2 -0.009020 0.015853 -0.002147 -0.001889 0.001680 -0.000256
# 3 -0.004422 -0.002147 0.017933 -0.001907 0.000936 -0.001227
# 4 -0.003316 -0.001889 -0.001907 0.029671 -0.002899 0.003146
# 5 0.002909 0.001680 0.000936 -0.002899 0.027901 -0.003168
# 6 0.001326 -0.000256 -0.001227 0.003146 -0.003168 0.028897
#
#
# Mechanical properties :
#
#
# Convention : Reuss Voigt Hill
#
# Bulk Modulus (GPa) = 40.67504 48.20775 44.44139
# Shear Modulus (GPa) = 27.53201 31.39167 29.46184
#
# Velocity S-wave (km/s) = 3.61951 3.86490 3.74422
# Velocity P-wave (km/s) = 6.06817 6.54644 6.31184
#
# Compressibility (1/GPa) = 0.02458510
#
# Stress axis : x y z
#
# Youngs Moduli (GPa) = 45.50103 63.07812 55.76244
#
# Poissons Ratio (x) = 0.56897 0.24658
# Poissons Ratio (y) = 0.41042 0.11975
# Poissons Ratio (z) = 0.20120 0.13546
#
# Static dielectric constant tensor:
#      x y z
#    x 3.744270 0.153920 0.048680 
#    y 0.153920 3.872940 0.023860 
#    z 0.048680 0.023860 3.874620 
# 
# 
# High freq. dielectric constant tensor:
#      x y z
#    x 1.803080 0.013570 0.000230 
#    y 0.013570 1.832190 -0.001700 
#    z 0.000230 -0.001700 1.821140 
# 
# From -- ./inp_files/495080.got.cif
#   From: 2010.06.25/outbox.cif.g09.slc.cpg/sg2_248_cif.got.tgz:495080.got - 2010.06.27 13:26:56.
