data_PCOD8043412
_publ_section_title
;
Structure prediction by ZEFSAII (Michael W. Deem and Ramdas Pophale) SiO2 
 PCOD8043412
Probable space group: P -1
;
_chemical_formula_sum "Si O2"
_cell_formula_units_Z 16
_cell_length_a 12.868876
_cell_length_b 9.755742
_cell_length_c 9.045334
_cell_angle_alpha 119.724658
_cell_angle_beta 77.667665
_cell_angle_gamma 130.320658
_cell_volume 741.964794
_symmetry_space_group_name_H-M "P -1"
_symmetry_group_IT_number 2
_symmetry_cell_setting 'triclinic'
loop_
_space_group_symop_operation_xyz
x,y,z
-x,-y,-z
loop_
_atom_site_type_symbol
_atom_site_label
_atom_site_fract_x
_atom_site_fract_y
_atom_site_fract_z
Si Si1 0.274972 0.061590 0.212953
Si Si2 0.960691 0.912790 0.683875
Si Si3 0.841235 0.673179 0.293422
Si Si4 0.943017 0.581927 0.668460
Si Si5 0.846450 0.329476 0.138878
Si Si6 0.682262 0.213678 0.429448
Si Si7 0.407167 0.132286 0.519411
Si Si8 0.533854 0.480546 0.313543
O O1 0.161190 0.086620 0.230501
O O2 0.299405 0.066641 0.384453
O O3 0.411384 0.246030 0.178380
O O4 0.228011 0.848906 0.053692
O O5 0.920106 0.780407 0.478602
O O6 0.990494 0.805470 0.737330
O O7 0.100892 0.148240 0.749058
O O8 0.876072 0.526323 0.159016
O O9 0.677517 0.526146 0.282306
O O10 0.776634 0.412309 0.615561
O O11 0.000000 0.500000 0.500000
O O12 0.005975 0.606279 0.824061
O O13 0.747382 0.255255 0.271234
O O14 0.533639 0.153103 0.424229
O O15 0.668836 0.030360 0.412548
O O16 0.459503 0.348660 0.688511
O O17 0.500000 0.500000 0.500000
#
# Coordination Sequence:
#
# PCOD8043412 Si02
#       8
#     2   2   2   2   2   2   2   2
#     4  11  24  40  66  91 130 160 210 261 316 361
#     4  11  22  38  62  94 120 166 213 252 303 372
#     4  11  22  36  65  93 121 160 218 255 298 374
#     4  10  21  37  63  86 125 163 204 250 306 375
#     4  11  24  40  63  94 128 164 201 261 320 362
#     4  10  21  38  61  94 122 165 206 252 311 376
#     4  10  21  37  65  92 122 161 213 258 298 374
#     4  10  19  36  62  89 118 161 208 255 298 366
#
# _framework density 21.564366
#
# number of rings (size 3 to 8) (size 9 to 14) (size 15 to 20)
#    0.000    1.500    5.000    2.250    5.250    3.000 
#    0.000    0.625    2.750    0.000    0.000    0.000 
#    0.000    0.000    0.000    0.000    0.000    0.000 
#
# Total GULP energy -198360.452470 kJ/mol
# GULP energy per Si atom -12397.528279 kJ/mol
# Density = 2.151528 g / cm^3
# Si number density = 21.564366 Si / 1000 Ang^3
#
#
#
# Elastic Constant Matrix: (Units=GPa)
#
#
# Indices 1 2 3 4 5 6 
#
# 1 95.6332 31.3964 16.8655 12.7282 -13.2918 -3.5313
# 2 31.3964 103.7992 25.1669 37.8753 -9.2009 -11.1499
# 3 16.8655 25.1669 78.8950 38.8705 -3.3317 -5.8138
# 4 12.7282 37.8753 38.8705 35.0787 -6.2700 -6.8328
# 5 -13.2918 -9.2009 -3.3317 -6.2700 19.2888 15.1380
# 6 -3.5313 -11.1499 -5.8138 -6.8328 15.1380 39.0238
#
#
#
# Elastic Compliance Matrix: (Units=1/GPa)
#
#
# Indices 1 2 3 4 5 6 
#
# 1 0.013361 -0.004670 -0.004176 0.006067 0.011477 -0.004137
# 2 -0.004670 0.019886 0.009992 -0.031058 -0.004500 0.003055
# 3 -0.004176 0.009992 0.033811 -0.047975 -0.010310 0.003113
# 4 0.006067 -0.031058 -0.047975 0.116178 0.021597 -0.003508
# 5 0.011477 -0.004500 -0.010310 0.021597 0.088098 -0.032176
# 6 -0.004137 0.003055 0.003113 -0.003508 -0.032176 0.038455
#
#
# Mechanical properties :
#
#
# Convention : Reuss Voigt Hill
#
# Bulk Modulus (GPa) = 14.41947 47.24278 30.83112
# Shear Modulus (GPa) = 15.12338 32.33817 23.73077
#
# Velocity S-wave (km/s) = 2.65110 3.87668 3.32092
# Velocity P-wave (km/s) = 4.00904 6.48025 5.38823
#
# Compressibility (1/GPa) = 0.06935068
#
# Stress axis : x y z
#
# Youngs Moduli (GPa) = 74.84413 50.28698 29.57584
#
# Poissons Ratio (x) = 0.23482 0.12350
# Poissons Ratio (y) = 0.34949 -0.29551
# Poissons Ratio (z) = 0.31254 -0.50245
#
# Static dielectric constant tensor:
#      x y z
#    x 4.109640 0.040840 0.106790 
#    y 0.040840 4.365450 0.590510 
#    z 0.106790 0.590510 3.716660 
# 
# 
# High freq. dielectric constant tensor:
#      x y z
#    x 1.856990 -0.001390 -0.008940 
#    y -0.001390 1.853830 0.037640 
#    z -0.008940 0.037640 1.807550 
# 
# From -- ./inp_files/420000.got.cif
#   From: 2010.06.25/outbox.cif.g09.slc.cpg/sg2_210_cif.got.tgz:420000.got - 2010.06.27 13:26:56.
