data_PCOD8043874
_publ_section_title
;
Structure prediction by ZEFSAII (Michael W. Deem and Ramdas Pophale) SiO2 
 PCOD8043874
Probable space group: P -1
;
_chemical_formula_sum "Si O2"
_cell_formula_units_Z 16
_cell_length_a 13.150989
_cell_length_b 12.675590
_cell_length_c 15.246465
_cell_angle_alpha 152.407490
_cell_angle_beta 44.303824
_cell_angle_gamma 127.749605
_cell_volume 820.311899
_symmetry_space_group_name_H-M "P -1"
_symmetry_group_IT_number 2
_symmetry_cell_setting 'triclinic'
loop_
_space_group_symop_operation_xyz
x,y,z
-x,-y,-z
loop_
_atom_site_type_symbol
_atom_site_label
_atom_site_fract_x
_atom_site_fract_y
_atom_site_fract_z
Si Si1 0.391996 0.063230 0.193450
Si Si2 0.056360 0.233460 0.099160
Si Si3 0.785315 0.574752 0.522173
Si Si4 0.703315 0.793775 0.204508
Si Si5 0.426296 0.795304 0.662731
Si Si6 0.722814 0.724100 0.861970
Si Si7 0.394759 0.661493 0.024879
Si Si8 0.567551 0.071563 0.640024
O O1 0.241760 0.193650 0.347642
O O2 0.467253 0.231142 0.338689
O O3 0.352663 0.831294 0.095541
O O4 0.500000 0.000000 0.000000
O O5 0.163330 0.350877 0.187347
O O6 0.928083 0.422018 0.293584
O O7 0.140795 0.177632 0.914954
O O8 0.000000 0.000000 0.000000
O O9 0.643954 0.436755 0.487928
O O10 0.798052 0.643503 0.665909
O O11 0.676740 0.002400 0.442366
O O12 0.578299 0.793847 0.207836
O O13 0.695978 0.560259 0.092429
O O14 0.516887 0.851618 0.561403
O O15 0.306109 0.001549 0.912200
O O16 0.570291 0.604752 0.877915
O O17 0.348836 0.773406 0.229638
#
# Coordination Sequence:
#
# PCOD8043874 Si02
#       8
#     2   2   2   2   2   2   2   2
#     4  10  20  37  61  91 114 149 202 248 286 337
#     4  12  24  40  57  88 128 153 193 234 289 375
#     4  12  21  37  60  85 121 163 184 235 307 340
#     4  11  20  37  57  85 116 157 186 240 298 335
#     4  10  19  37  60  89 120 143 199 253 286 337
#     4  10  20  38  57  90 119 149 193 241 295 347
#     4  10  20  37  60  85 121 137 204 251 280 334
#     4   9  19  33  58  85 111 147 192 239 292 334
#
# _framework density 19.504777000000001
#
# number of rings (size 3 to 8) (size 9 to 14) (size 15 to 20)
#    0.000    1.750    6.250    1.875    0.000    1.000 
#    2.250    0.625    0.000    3.000    0.000    0.000 
#    0.000    0.000    0.000    0.000    0.000    0.000 
#
# Total GULP energy -198353.553914 kJ/mol
# GULP energy per Si atom -12397.097120 kJ/mol
# Density = 1.946038 g / cm^3
# Si number density = 19.504777 Si / 1000 Ang^3
#
#
#
# Elastic Constant Matrix: (Units=GPa)
#
#
# Indices 1 2 3 4 5 6 
#
# 1 66.7253 26.1705 32.4982 -6.7480 -14.7853 -18.3136
# 2 26.1705 87.2536 41.9456 -8.2452 -8.6846 -7.8829
# 3 32.4982 41.9456 97.3152 -21.7773 -15.3318 -11.3821
# 4 -6.7480 -8.2452 -21.7773 28.9620 -3.8570 4.5100
# 5 -14.7853 -8.6846 -15.3318 -3.8570 34.3976 -0.0885
# 6 -18.3136 -7.8829 -11.3821 4.5100 -0.0885 26.0182
#
#
#
# Elastic Compliance Matrix: (Units=1/GPa)
#
#
# Indices 1 2 3 4 5 6 
#
# 1 0.023634 -0.003328 -0.003360 0.000908 0.007958 0.014027
# 2 -0.003328 0.015043 -0.005569 -0.000690 -0.000193 -0.000102
# 3 -0.003360 -0.005569 0.017522 0.011379 0.006240 0.001662
# 4 0.000908 -0.000690 0.011379 0.044835 0.010309 -0.002329
# 5 0.007958 -0.000193 0.006240 0.010309 0.036398 0.006610
# 6 0.014027 -0.000102 0.001662 -0.002329 0.006610 0.049430
#
#
# Mechanical properties :
#
#
# Convention : Reuss Voigt Hill
#
# Bulk Modulus (GPa) = 31.56189 50.28031 40.92110
# Shear Modulus (GPa) = 22.52877 27.92088 25.22483
#
# Velocity S-wave (km/s) = 3.40227 3.78761 3.60010
# Velocity P-wave (km/s) = 5.62590 6.70540 6.18923
#
# Compressibility (1/GPa) = 0.03168378
#
# Stress axis : x y z
#
# Youngs Moduli (GPa) = 42.31220 66.47744 57.06960
#
# Poissons Ratio (x) = 0.22124 0.19178
# Poissons Ratio (y) = 0.14082 0.31783
# Poissons Ratio (z) = 0.14219 0.37023
#
# Static dielectric constant tensor:
#      x y z
#    x 3.511740 -0.247640 0.084570 
#    y -0.247640 3.458240 -0.023260 
#    z 0.084570 -0.023260 3.533570 
# 
# 
# High freq. dielectric constant tensor:
#      x y z
#    x 1.738030 -0.023250 0.016650 
#    y -0.023250 1.744320 0.001690 
#    z 0.016650 0.001690 1.763040 
# 
# From -- ./inp_files/532776.got.cif
#   From: 2010.06.25/outbox.cif.g09.slc.cpg/sg2_267_cif.got.tgz:532776.got - 2010.06.27 13:26:56.
