data_PCOD8043712
_publ_section_title
;
Structure prediction by ZEFSAII (Michael W. Deem and Ramdas Pophale) SiO2 
 PCOD8043712
Probable space group: P -1
;
_chemical_formula_sum "Si O2"
_cell_formula_units_Z 12
_cell_length_a 15.804284
_cell_length_b 9.604064
_cell_length_c 15.395613
_cell_angle_alpha 48.629973
_cell_angle_beta 25.169127
_cell_angle_gamma 34.313440
_cell_volume 522.393230
_symmetry_space_group_name_H-M "P -1"
_symmetry_group_IT_number 2
_symmetry_cell_setting 'triclinic'
loop_
_space_group_symop_operation_xyz
x,y,z
-x,-y,-z
loop_
_atom_site_type_symbol
_atom_site_label
_atom_site_fract_x
_atom_site_fract_y
_atom_site_fract_z
Si Si1 0.601787 0.954108 0.562134
Si Si2 0.971558 0.717372 0.979314
Si Si3 0.860975 0.077101 0.383031
Si Si4 0.183976 0.992461 0.264189
Si Si5 0.564712 0.585525 0.202504
Si Si6 0.268051 0.416502 0.546504
O O1 0.833725 0.899824 0.430670
O O2 0.411912 0.232249 0.573289
O O3 0.772333 0.704443 0.443428
O O4 0.361833 0.003695 0.820294
O O5 0.152386 0.747767 0.745883
O O6 0.103282 0.622148 0.994948
O O7 0.000000 0.500000 0.000000
O O8 0.604812 0.259892 0.614279
O O9 0.159364 0.901258 0.231783
O O10 0.043472 0.290773 0.261215
O O11 0.496686 0.778411 0.106949
O O12 0.000000 0.000000 0.500000
O O13 0.481801 0.435897 0.307209
#
# Coordination Sequence:
#
# PCOD8043712 Si02
#       6
#     2   2   2   2   2   2
#     4  11  21  34  58  89 110 143 185 229 282 322
#     4  12  21  32  61  88 107 143 191 232 268 326
#     4  10  19  37  57  82 112 142 186 231 269 320
#     4   8  18  35  63  76 107 158 179 221 281 323
#     4  10  19  38  59  81 113 148 184 228 274 327
#     4   9  19  37  54  84 115 143 183 228 280 326
#
# _framework density 22.971202000000002
#
# number of rings (size 3 to 8) (size 9 to 14) (size 15 to 20)
#    0.000    2.333    3.333    2.500    0.000    0.667 
#    0.000   10.833    0.000    9.000    0.000    0.000 
#    0.000    0.000    0.000    0.000    0.000    0.000 
#
# Total GULP energy -148660.820061 kJ/mol
# GULP energy per Si atom -12388.401672 kJ/mol
# Density = 2.291892 g / cm^3
# Si number density = 22.971202 Si / 1000 Ang^3
#
#
#
# Elastic Constant Matrix: (Units=GPa)
#
#
# Indices 1 2 3 4 5 6 
#
# 1 197.7505 64.9164 28.9630 -0.2912 -24.9037 6.5650
# 2 64.9164 65.8860 9.7172 -14.2593 -11.3774 2.4514
# 3 28.9630 9.7172 33.5685 2.9763 -14.5287 4.6881
# 4 -0.2912 -14.2593 2.9763 15.5397 -0.3306 -1.9727
# 5 -24.9037 -11.3774 -14.5287 -0.3306 30.6871 -1.1086
# 6 6.5650 2.4514 4.6881 -1.9727 -1.1086 44.2293
#
#
#
# Elastic Compliance Matrix: (Units=1/GPa)
#
#
# Indices 1 2 3 4 5 6 
#
# 1 0.009026 -0.009832 -0.003215 -0.008292 0.002040 -0.000773
# 2 -0.009832 0.032221 -0.002286 0.030059 0.003256 0.001338
# 3 -0.003215 -0.002286 0.041595 -0.010275 0.015986 -0.003863
# 4 -0.008292 0.030059 -0.010275 0.094382 0.000744 0.004882
# 5 0.002040 0.003256 0.015986 0.000744 0.042988 -0.001067
# 6 -0.000773 0.001338 -0.003863 0.004882 -0.001067 0.023250
#
#
# Mechanical properties :
#
#
# Convention : Reuss Voigt Hill
#
# Bulk Modulus (GPa) = 19.16677 56.04424 37.60551
# Shear Modulus (GPa) = 17.15147 30.99845 24.07496
#
# Velocity S-wave (km/s) = 2.73546 3.67747 3.24087
# Velocity P-wave (km/s) = 4.28239 6.51784 5.51458
#
# Compressibility (1/GPa) = 0.05217363
#
# Stress axis : x y z
#
# Youngs Moduli (GPa) = 110.79263 31.03606 24.04130
#
# Poissons Ratio (x) = 0.30516 0.07730
# Poissons Ratio (y) = 1.08936 0.05496
# Poissons Ratio (z) = 0.35624 0.07095
#
# Static dielectric constant tensor:
#      x y z
#    x 5.026780 -0.672800 -0.279960 
#    y -0.672800 4.275310 -0.124250 
#    z -0.279960 -0.124250 3.998210 
# 
# 
# High freq. dielectric constant tensor:
#      x y z
#    x 1.924400 -0.007020 -0.014210 
#    y -0.007020 1.870780 -0.023690 
#    z -0.014210 -0.023690 1.884330 
# 
# From -- ./inp_files/501503.got.cif
#   From: 2010.06.25/outbox.cif.g09.slc.cpg/sg2_251_cif.got.tgz:501503.got - 2010.06.27 13:26:56.
