data_PCOD8043315
_publ_section_title
;
Structure prediction by ZEFSAII (Michael W. Deem and Ramdas Pophale) SiO2 
 PCOD8043315
Probable space group: P -1
;
_chemical_formula_sum "Si O2"
_cell_formula_units_Z 14
_cell_length_a 15.025165
_cell_length_b 5.203339
_cell_length_c 10.669210
_cell_angle_alpha 70.372170
_cell_angle_beta 72.587433
_cell_angle_gamma 49.646122
_cell_volume 594.826015
_symmetry_space_group_name_H-M "P -1"
_symmetry_group_IT_number 2
_symmetry_cell_setting 'triclinic'
loop_
_space_group_symop_operation_xyz
x,y,z
-x,-y,-z
loop_
_atom_site_type_symbol
_atom_site_label
_atom_site_fract_x
_atom_site_fract_y
_atom_site_fract_z
Si Si1 0.242640 0.647111 0.062235
Si Si2 0.272889 0.231704 0.720718
Si Si3 0.862803 0.078250 0.179296
Si Si4 0.549171 0.456651 0.122734
Si Si5 0.983780 0.246258 0.616649
Si Si6 0.198173 0.690128 0.465390
Si Si7 0.703966 0.043122 0.785090
O O1 0.255988 0.856952 0.126421
O O2 0.238689 0.355575 0.170481
O O3 0.127812 0.902236 0.979810
O O4 0.351365 0.484858 0.942148
O O5 0.205283 0.537787 0.799851
O O6 0.296646 0.350014 0.558974
O O7 0.203045 0.085392 0.734111
O O8 0.396702 0.918045 0.780887
O O9 0.991866 0.808295 0.234374
O O10 0.436700 0.741206 0.207280
O O11 0.500000 0.500000 0.000000
O O12 0.000000 0.500000 0.500000
O O13 0.852004 0.365943 0.630443
O O14 0.087285 0.877335 0.575368
O O15 0.246935 0.898516 0.370586
#
# Coordination Sequence:
#
# PCOD8043315 Si02
#       7
#     2   2   2   2   2   2   2
#     4  10  21  38  59  85 118 158 191 230 283 341
#     4  10  20  34  59  86 116 147 194 239 277 343
#     4  10  19  36  61  86 109 149 200 237 279 340
#     4   9  19  37  60  86 115 159 193 225 281 343
#     4  10  20  39  65  80 111 153 196 240 290 350
#     4  10  23  38  57  91 114 151 192 240 297 335
#     4  11  23  37  59  85 125 151 189 240 281 342
#
# _framework density 23.536293000000001
#
# number of rings (size 3 to 8) (size 9 to 14) (size 15 to 20)
#    0.000    2.000    1.429    3.000    2.000    4.000 
#    0.000    1.429    0.000   12.000    0.000    0.000 
#    0.000    0.000    0.000    0.000    0.000    0.000 
#
# Total GULP energy -173436.477141 kJ/mol
# GULP energy per Si atom -12388.319796 kJ/mol
# Density = 2.348272 g / cm^3
# Si number density = 23.536293 Si / 1000 Ang^3
#
#
#
# Elastic Constant Matrix: (Units=GPa)
#
#
# Indices 1 2 3 4 5 6 
#
# 1 62.9366 21.3372 37.9099 -20.4511 11.9599 8.6632
# 2 21.3372 57.4839 31.0180 -21.8126 10.9687 12.5044
# 3 37.9099 31.0180 144.8295 -46.3880 4.1513 -10.4066
# 4 -20.4511 -21.8126 -46.3880 46.9490 -5.8271 -1.8023
# 5 11.9599 10.9687 4.1513 -5.8271 48.9846 -11.6242
# 6 8.6632 12.5044 -10.4066 -1.8023 -11.6242 28.0364
#
#
#
# Elastic Compliance Matrix: (Units=1/GPa)
#
#
# Indices 1 2 3 4 5 6 
#
# 1 0.023663 -0.000335 -0.005850 0.002929 -0.007795 -0.012377
# 2 -0.000335 0.028198 -0.004975 0.006204 -0.009290 -0.017772
# 3 -0.005850 -0.004975 0.013150 0.009240 0.005304 0.011700
# 4 0.002929 0.006204 0.009240 0.034936 0.001934 0.002806
# 5 -0.007795 -0.009290 0.005304 0.001934 0.029093 0.020707
# 6 -0.012377 -0.017772 0.011700 0.002806 0.020707 0.060528
#
#
# Mechanical properties :
#
#
# Convention : Reuss Voigt Hill
#
# Bulk Modulus (GPa) = 23.42445 49.53112 36.47778
# Shear Modulus (GPa) = 22.11229 36.45965 29.28597
#
# Velocity S-wave (km/s) = 3.06845 3.94011 3.53128
# Velocity P-wave (km/s) = 4.74636 6.46448 5.67087
#
# Compressibility (1/GPa) = 0.04269044
#
# Stress axis : x y z
#
# Youngs Moduli (GPa) = 42.25931 35.46354 76.04697
#
# Poissons Ratio (x) = 0.01190 0.44487
# Poissons Ratio (y) = 0.01418 0.37833
# Poissons Ratio (z) = 0.24721 0.17643
#
# Static dielectric constant tensor:
#      x y z
#    x 4.794910 -0.503600 0.246690 
#    y -0.503600 4.788630 -0.140490 
#    z 0.246690 -0.140490 4.604100 
# 
# 
# High freq. dielectric constant tensor:
#      x y z
#    x 1.928340 0.005180 0.014260 
#    y 0.005180 1.907840 -0.027040 
#    z 0.014260 -0.027040 1.945650 
# 
# From -- ./inp_files/66570.got.cif
#   From: 2010.06.25/outbox.cif.g09.slc.cpg/sg2_34_cif.got.tgz:66570.got - 2010.06.27 13:26:56.
