data_PCOD8043179
_publ_section_title
;
Structure prediction by ZEFSAII (Michael W. Deem and Ramdas Pophale) SiO2 
 PCOD8043179
Probable space group: P -1
;
_chemical_formula_sum "Si O2"
_cell_formula_units_Z 16
_cell_length_a 10.805685
_cell_length_b 12.073937
_cell_length_c 8.338644
_cell_angle_alpha 97.691263
_cell_angle_beta 121.754010
_cell_angle_gamma 59.753782
_cell_volume 786.281222
_symmetry_space_group_name_H-M "P -1"
_symmetry_group_IT_number 2
_symmetry_cell_setting 'triclinic'
loop_
_space_group_symop_operation_xyz
x,y,z
-x,-y,-z
loop_
_atom_site_type_symbol
_atom_site_label
_atom_site_fract_x
_atom_site_fract_y
_atom_site_fract_z
Si Si1 0.642469 0.715692 0.487639
Si Si2 0.197294 0.164466 0.206047
Si Si3 0.248120 0.034583 0.756800
Si Si4 0.305906 0.916139 0.426335
Si Si5 0.453408 0.178305 0.894027
Si Si6 0.067920 0.808799 0.202982
Si Si7 0.220896 0.340827 0.012627
Si Si8 0.840177 0.461429 0.719642
O O1 0.798607 0.742318 0.631924
O O2 0.498886 0.794006 0.542805
O O3 0.540412 0.769552 0.265366
O O4 0.725066 0.559153 0.517925
O O5 0.268567 0.202783 0.105430
O O6 0.308697 0.017914 0.320003
O O7 0.014731 0.190714 0.027211
O O8 0.332099 0.119439 0.794634
O O9 0.063897 0.119112 0.727327
O O10 0.239109 0.974942 0.568595
O O11 0.357136 0.922606 0.939715
O O12 0.179561 0.873371 0.262242
O O13 0.367111 0.303763 0.975638
O O14 0.193601 0.657257 0.309090
O O15 0.218346 0.448483 0.145342
O O16 0.039756 0.400302 0.812991
#
# Coordination Sequence:
#
# PCOD8043179 Si02
#       8
#     2   2   2   2   2   2   2   2
#     4  11  23  36  61  91 115 151 199 242 284 335
#     4  10  19  36  59  87 113 143 194 240 287 333
#     4  11  22  37  59  87 118 153 190 240 297 343
#     4  12  24  37  60  89 121 153 192 240 288 352
#     4  11  21  36  63  89 116 146 192 254 293 328
#     4  11  23  41  59  84 123 160 187 230 298 351
#     4   9  18  36  60  87 114 150 191 244 290 334
#     4   9  19  37  58  83 116 153 198 230 283 349
#
# _framework density 20.348953999999999
#
# number of rings (size 3 to 8) (size 9 to 14) (size 15 to 20)
#    0.000    1.500    3.750    4.125    3.500    1.000 
#    0.000    0.000    0.000    1.500    0.000    0.000 
#    0.000    0.000    0.000    0.000    0.000    0.000 
#
# Total GULP energy -198252.117081 kJ/mol
# GULP energy per Si atom -12390.757318 kJ/mol
# Density = 2.030264 g / cm^3
# Si number density = 20.348954 Si / 1000 Ang^3
#
#
#
# Elastic Constant Matrix: (Units=GPa)
#
#
# Indices 1 2 3 4 5 6 
#
# 1 50.2642 44.4205 26.0516 -1.8519 0.3872 -3.2780
# 2 44.4205 117.5423 42.1008 -21.2588 -4.6903 -1.6572
# 3 26.0516 42.1008 103.4552 -13.5035 -8.4445 6.0649
# 4 -1.8519 -21.2588 -13.5035 37.5306 6.3286 -0.9235
# 5 0.3872 -4.6903 -8.4445 6.3286 25.2244 2.3879
# 6 -3.2780 -1.6572 6.0649 -0.9235 2.3879 18.1863
#
#
#
# Elastic Compliance Matrix: (Units=1/GPa)
#
#
# Indices 1 2 3 4 5 6 
#
# 1 0.033285 -0.011947 -0.005005 -0.006170 -0.003496 0.006726
# 2 -0.011947 0.015116 -0.002193 0.007114 0.000451 0.000257
# 3 -0.005005 -0.002193 0.012777 0.002306 0.003913 -0.005759
# 4 -0.006170 0.007114 0.002306 0.032243 -0.006013 0.001194
# 5 -0.003496 0.000451 0.003913 -0.006013 0.043347 -0.007891
# 6 0.006726 0.000257 -0.005759 0.001194 -0.007891 0.059240
#
#
# Mechanical properties :
#
#
# Convention : Reuss Voigt Hill
#
# Bulk Modulus (GPa) = 43.68968 55.15639 49.42304
# Shear Modulus (GPa) = 20.66741 26.76752 23.71747
#
# Velocity S-wave (km/s) = 3.19038 3.63081 3.41770
# Velocity P-wave (km/s) = 5.92353 6.68889 6.31781
#
# Compressibility (1/GPa) = 0.02288870
#
# Stress axis : x y z
#
# Youngs Moduli (GPa) = 30.04355 66.15472 78.26679
#
# Poissons Ratio (x) = 0.79033 0.39173
# Poissons Ratio (y) = 0.35892 0.17162
# Poissons Ratio (z) = 0.15037 0.14506
#
# Static dielectric constant tensor:
#      x y z
#    x 3.297040 -0.056660 -0.093290 
#    y -0.056660 3.894470 -0.067110 
#    z -0.093290 -0.067110 3.809880 
# 
# 
# High freq. dielectric constant tensor:
#      x y z
#    x 1.752530 -0.007660 -0.005010 
#    y -0.007660 1.799160 -0.008710 
#    z -0.005010 -0.008710 1.799520 
# 
# From -- ./inp_files/262737.got.cif
#   From: 2010.06.25/outbox.cif.g09.slc.cpg/sg2_132_cif.got.tgz:262737.got - 2010.06.27 13:26:56.
