data_PCOD8043146
_publ_section_title
;
Structure prediction by ZEFSAII (Michael W. Deem and Ramdas Pophale) SiO2 
 PCOD8043146
Probable space group: P -1
;
_chemical_formula_sum "Si O2"
_cell_formula_units_Z 14
_cell_length_a 9.567454
_cell_length_b 9.182539
_cell_length_c 14.433997
_cell_angle_alpha 61.908600
_cell_angle_beta 134.268577
_cell_angle_gamma 100.975025
_cell_volume 781.636351
_symmetry_space_group_name_H-M "P -1"
_symmetry_group_IT_number 2
_symmetry_cell_setting 'triclinic'
loop_
_space_group_symop_operation_xyz
x,y,z
-x,-y,-z
loop_
_atom_site_type_symbol
_atom_site_label
_atom_site_fract_x
_atom_site_fract_y
_atom_site_fract_z
Si Si1 0.927035 0.759297 0.218853
Si Si2 0.004737 0.369265 0.364267
Si Si3 0.282431 0.925211 0.319991
Si Si4 0.278751 0.868114 0.669478
Si Si5 0.352764 0.044176 0.122918
Si Si6 0.250600 0.167321 0.685378
Si Si7 0.268321 0.120796 0.430322
O O1 0.935667 0.566593 0.254654
O O2 0.804766 0.808795 0.241180
O O3 0.149881 0.789126 0.321504
O O4 0.812464 0.877507 0.050568
O O5 0.807186 0.299296 0.317601
O O6 0.156809 0.335677 0.532300
O O7 0.107086 0.281240 0.344854
O O8 0.513673 0.835092 0.471075
O O9 0.241565 0.988709 0.176947
O O10 0.220214 0.086659 0.311773
O O11 0.512707 0.822164 0.823429
O O12 0.159754 0.015639 0.641059
O O13 0.267085 0.948644 0.537698
O O14 0.507742 0.879617 0.200345
#
# Coordination Sequence:
#
# PCOD8043146 Si02
#       7
#     2   2   2   2   2   2   2
#     4  12  22  31  55  84 109 137 165 219 272 306
#     4  11  19  33  55  85 108 124 176 230 265 288
#     4  10  19  36  59  73 103 142 185 204 254 317
#     4   8  17  33  58  72 104 136 176 215 244 311
#     4   9  21  37  54  74 108 143 181 202 251 323
#     4   9  19  37  54  76 103 141 181 207 250 316
#     4   9  18  35  57  80  95 141 182 218 246 310
#
# _framework density 17.911142999999999
#
# number of rings (size 3 to 8) (size 9 to 14) (size 15 to 20)
#    0.857    1.429    1.429    4.714    0.000    1.143 
#    0.000    0.714    0.000    0.000    0.000    0.000 
#    0.000    0.000    0.000    0.000    0.000    0.000 
#
# Total GULP energy -173519.944288 kJ/mol
# GULP energy per Si atom -12394.281735 kJ/mol
# Density = 1.787038 g / cm^3
# Si number density = 17.911143 Si / 1000 Ang^3
#
#
#
# Elastic Constant Matrix: (Units=GPa)
#
#
# Indices 1 2 3 4 5 6 
#
# 1 112.4057 44.6851 19.2598 5.5186 -6.9468 -13.7302
# 2 44.6851 61.4493 9.1432 -3.0249 2.2820 -3.8297
# 3 19.2598 9.1432 32.5021 1.7609 1.2661 -8.5996
# 4 5.5186 -3.0249 1.7609 12.4072 -1.0428 -0.1646
# 5 -6.9468 2.2820 1.2661 -1.0428 21.6705 14.8662
# 6 -13.7302 -3.8297 -8.5996 -0.1646 14.8662 22.6778
#
#
#
# Elastic Compliance Matrix: (Units=1/GPa)
#
#
# Indices 1 2 3 4 5 6 
#
# 1 0.014858 -0.010450 -0.004816 -0.008116 0.003792 0.002860
# 2 -0.010450 0.024857 -0.000421 0.010200 -0.007146 0.002470
# 3 -0.004816 -0.000421 0.042650 -0.005658 -0.024136 0.028967
# 4 -0.008116 0.010200 -0.005658 0.087999 0.007473 -0.009597
# 5 0.003792 -0.007146 -0.024136 0.007473 0.100634 -0.073978
# 6 0.002860 0.002470 0.028967 -0.009597 -0.073978 0.105655
#
#
# Mechanical properties :
#
#
# Convention : Reuss Voigt Hill
#
# Bulk Modulus (GPa) = 19.61119 39.17038 29.39079
# Shear Modulus (GPa) = 11.76406 20.23570 15.99988
#
# Velocity S-wave (km/s) = 2.56559 3.36487 2.99204
# Velocity P-wave (km/s) = 4.44402 6.08385 5.32741
#
# Compressibility (1/GPa) = 0.05099129
#
# Stress axis : x y z
#
# Youngs Moduli (GPa) = 67.30424 40.23063 23.44641
#
# Poissons Ratio (x) = 0.42041 0.11292
# Poissons Ratio (y) = 0.70333 0.00987
# Poissons Ratio (z) = 0.32414 0.01693
#
# Static dielectric constant tensor:
#      x y z
#    x 3.445600 -0.050320 0.006500 
#    y -0.050320 2.996970 0.182070 
#    z 0.006500 0.182070 3.040350 
# 
# 
# High freq. dielectric constant tensor:
#      x y z
#    x 1.708840 -0.003610 0.000610 
#    y -0.003610 1.663260 0.022630 
#    z 0.000610 0.022630 1.671930 
# 
# From -- ./inp_files/239967.got.cif
#   From: 2010.06.25/outbox.cif.g09.slc.cpg/sg2_120_cif.got.tgz:239967.got - 2010.06.27 13:26:56.
