data_PCOD8043384
_publ_section_title
;
Structure prediction by ZEFSAII (Michael W. Deem and Ramdas Pophale) SiO2 
 PCOD8043384
Probable space group: P -1
;
_chemical_formula_sum "Si O2"
_cell_formula_units_Z 16
_cell_length_a 11.368872
_cell_length_b 11.832737
_cell_length_c 10.024126
_cell_angle_alpha 111.793296
_cell_angle_beta 59.240494
_cell_angle_gamma 141.469718
_cell_volume 720.795665
_symmetry_space_group_name_H-M "P -1"
_symmetry_group_IT_number 2
_symmetry_cell_setting 'triclinic'
loop_
_space_group_symop_operation_xyz
x,y,z
-x,-y,-z
loop_
_atom_site_type_symbol
_atom_site_label
_atom_site_fract_x
_atom_site_fract_y
_atom_site_fract_z
Si Si1 0.536078 0.836003 0.622130
Si Si2 0.014274 0.038304 0.197690
Si Si3 0.942039 0.727898 0.204199
Si Si4 0.670615 0.858696 0.117227
Si Si5 0.647435 0.439877 0.634676
Si Si6 0.494654 0.416690 0.335651
Si Si7 0.659830 0.096794 0.068762
Si Si8 0.029231 0.800443 0.494447
O O1 0.445180 0.706643 0.491139
O O2 0.619541 0.787940 0.658371
O O3 0.361573 0.803535 0.775283
O O4 0.725487 0.050517 0.568227
O O5 0.039234 0.119400 0.360215
O O6 0.941591 0.853178 0.179366
O O7 0.232044 0.178197 0.055234
O O8 0.837913 0.991458 0.195269
O O9 0.723245 0.524107 0.211216
O O10 0.964180 0.766559 0.364840
O O11 0.114757 0.751506 0.059152
O O12 0.450954 0.668717 0.217234
O O13 0.620907 0.948722 0.108250
O O14 0.601700 0.555542 0.703609
O O15 0.898030 0.602751 0.553613
O O16 0.500000 0.500000 0.500000
O O17 0.500000 0.000000 0.000000
#
# Coordination Sequence:
#
# PCOD8043384 Si02
#       8
#     2   2   2   2   2   2   2   2
#     4  11  23  41  61  95 130 172 216 256 317 369
#     4  10  21  37  67  96 126 170 204 268 330 370
#     4  11  20  38  65  98 127 167 215 264 309 379
#     4  10  22  43  63  91 134 167 210 263 326 381
#     4  11  23  40  66  99 130 164 211 269 319 382
#     4  10  19  36  61  98 128 158 207 267 318 365
#     4  11  25  42  67  90 127 177 220 258 313 386
#     4  12  22  36  69  96 128 167 215 261 316 378
#
# _framework density 22.197690999999999
#
# number of rings (size 3 to 8) (size 9 to 14) (size 15 to 20)
#    0.000    1.250    6.250    1.125    1.750    1.500 
#    0.000    0.625    2.750    0.000    0.000    0.000 
#    0.000    0.000    0.000    0.000    0.000    0.000 
#
# Total GULP energy -198245.676549 kJ/mol
# GULP energy per Si atom -12390.354784 kJ/mol
# Density = 2.214717 g / cm^3
# Si number density = 22.197691 Si / 1000 Ang^3
#
#
#
# Elastic Constant Matrix: (Units=GPa)
#
#
# Indices 1 2 3 4 5 6 
#
# 1 71.7454 24.0986 31.6082 -7.2748 -11.0060 -14.4988
# 2 24.0986 109.1647 39.2877 -32.3606 -6.3162 7.0563
# 3 31.6082 39.2877 135.6153 -19.8805 -7.6486 -4.7863
# 4 -7.2748 -32.3606 -19.8805 34.0301 -1.9944 0.4878
# 5 -11.0060 -6.3162 -7.6486 -1.9944 24.1883 -8.7733
# 6 -14.4988 7.0563 -4.7863 0.4878 -8.7733 27.3935
#
#
#
# Elastic Compliance Matrix: (Units=1/GPa)
#
#
# Indices 1 2 3 4 5 6 
#
# 1 0.022078 -0.004311 -0.002537 -0.000270 0.014231 0.016915
# 2 -0.004311 0.014780 -0.001721 0.012220 -0.000040 -0.006620
# 3 -0.002537 -0.001721 0.009096 0.003233 0.002001 0.001273
# 4 -0.000270 0.012220 0.003233 0.043278 0.007231 -0.001181
# 5 0.014231 -0.000040 0.002001 0.007231 0.058667 0.026552
# 6 0.016915 -0.006620 0.001273 -0.001181 0.026552 0.055910
#
#
# Mechanical properties :
#
#
# Convention : Reuss Voigt Hill
#
# Bulk Modulus (GPa) = 34.70459 56.27937 45.49198
# Shear Modulus (GPa) = 21.68717 31.89110 26.78914
#
# Velocity S-wave (km/s) = 3.12909 3.79448 3.47773
# Velocity P-wave (km/s) = 5.35941 6.67878 6.05514
#
# Compressibility (1/GPa) = 0.02881463
#
# Stress axis : x y z
#
# Youngs Moduli (GPa) = 45.29454 67.66046 109.94404
#
# Poissons Ratio (x) = 0.29167 0.27892
# Poissons Ratio (y) = 0.19526 0.18926
# Poissons Ratio (z) = 0.11491 0.11647
#
# Static dielectric constant tensor:
#      x y z
#    x 3.852560 -0.031130 -0.054570 
#    y -0.031130 4.224470 -0.494250 
#    z -0.054570 -0.494250 4.388060 
# 
# 
# High freq. dielectric constant tensor:
#      x y z
#    x 1.842020 0.003630 0.001160 
#    y 0.003630 1.869860 -0.025700 
#    z 0.001160 -0.025700 1.885770 
# 
# From -- ./inp_files/428677.got.cif
#   From: 2010.06.25/outbox.cif.g09.slc.cpg/sg2_215_cif.got.tgz:428677.got - 2010.06.27 13:26:56.
