data_PCOD8043982
_publ_section_title
;
Structure prediction by ZEFSAII (Michael W. Deem and Ramdas Pophale) SiO2 
 PCOD8043982
Probable space group: P -1
;
_chemical_formula_sum "Si O2"
_cell_formula_units_Z 16
_cell_length_a 9.733303
_cell_length_b 34.842703
_cell_length_c 5.116728
_cell_angle_alpha 67.994326
_cell_angle_beta 58.314995
_cell_angle_gamma 33.863476
_cell_volume 815.855091
_symmetry_space_group_name_H-M "P -1"
_symmetry_group_IT_number 2
_symmetry_cell_setting 'triclinic'
loop_
_space_group_symop_operation_xyz
x,y,z
-x,-y,-z
loop_
_atom_site_type_symbol
_atom_site_label
_atom_site_fract_x
_atom_site_fract_y
_atom_site_fract_z
Si Si1 0.678380 0.559982 0.168480
Si Si2 0.824640 0.671085 0.241306
Si Si3 0.685109 0.170924 0.690354
Si Si4 0.881617 0.172612 0.988519
Si Si5 0.471009 0.033485 0.693597
Si Si6 0.390937 0.330176 0.038492
Si Si7 0.555293 0.439747 0.098442
Si Si8 0.004587 0.972179 0.316205
O O1 0.576427 0.555397 0.532361
O O2 0.563200 0.630161 0.102821
O O3 0.576851 0.555163 0.032586
O O4 0.000000 0.500000 0.000000
O O5 0.627681 0.751582 0.228314
O O6 0.776823 0.652551 0.591008
O O7 0.775387 0.650829 0.097005
O O8 0.119789 0.631190 0.045688
O O9 0.860633 0.161784 0.335383
O O10 0.739075 0.111845 0.723435
O O11 0.780056 0.158370 0.924864
O O12 0.699279 0.250597 0.927906
O O13 0.194502 0.117299 0.757633
O O14 0.500000 0.000000 0.500000
O O15 0.713547 0.013637 0.500018
O O16 0.500000 0.000000 0.000000
O O17 0.500000 0.500000 0.000000
O O18 0.000000 0.000000 0.500000
O O19 0.000000 0.000000 0.000000
#
# Coordination Sequence:
#
# PCOD8043982 Si02
#       8
#     2   2   2   2   2   2   2   2
#     4  12  24  41  64  93 126 156 192 248 292 336
#     4  10  21  40  64  87 115 162 197 239 287 359
#     4  10  20  38  61  81 117 154 199 235 297 356
#     4  10  19  37  62  86 107 155 202 244 282 356
#     4  12  21  38  63  82 112 153 208 242 286 353
#     4  10  21  39  63  88 120 152 198 243 300 339
#     4  12  24  41  64  92 124 159 202 232 284 356
#     4  12  24  38  55  87 119 153 192 251 306 341
#
# _framework density 19.611325000000001
#
# number of rings (size 3 to 8) (size 9 to 14) (size 15 to 20)
#    0.000    1.000    2.500    5.250    0.000    0.000 
#    4.500    0.000    0.000    0.000    0.000    0.000 
#    0.000    0.000    0.000    0.000    0.000    0.000 
#
# Total GULP energy -198331.156889 kJ/mol
# GULP energy per Si atom -12395.697306 kJ/mol
# Density = 1.956669 g / cm^3
# Si number density = 19.611325 Si / 1000 Ang^3
#
#
#
# Elastic Constant Matrix: (Units=GPa)
#
#
# Indices 1 2 3 4 5 6 
#
# 1 163.1447 69.7997 78.8471 2.3856 6.5222 6.4798
# 2 69.7997 150.8053 64.5320 7.1055 -11.9654 10.8129
# 3 78.8471 64.5320 164.6706 -2.2250 0.1971 -7.2931
# 4 2.3856 7.1055 -2.2250 35.5074 -6.4803 -4.9423
# 5 6.5222 -11.9654 0.1971 -6.4803 43.9464 4.1416
# 6 6.4798 10.8129 -7.2931 -4.9423 4.1416 35.3301
#
#
#
# Elastic Compliance Matrix: (Units=1/GPa)
#
#
# Indices 1 2 3 4 5 6 
#
# 1 0.009087 -0.002817 -0.003316 -0.000826 -0.002094 -0.001359
# 2 -0.002817 0.009649 -0.002621 -0.001837 0.003125 -0.003601
# 3 -0.003316 -0.002621 0.008867 0.001732 -0.000338 0.003523
# 4 -0.000826 -0.001837 0.001732 0.030024 0.003585 0.004851
# 5 -0.002094 0.003125 -0.000338 0.003585 0.024733 -0.003040
# 6 -0.001359 -0.003601 0.003523 0.004851 -0.003040 0.031418
#
#
# Mechanical properties :
#
#
# Convention : Reuss Voigt Hill
#
# Bulk Modulus (GPa) = 99.04432 100.55311 99.79872
# Shear Modulus (GPa) = 37.13304 40.65289 38.89297
#
# Velocity S-wave (km/s) = 4.35610 4.55788 4.45813
# Velocity P-wave (km/s) = 8.71287 8.89288 8.80334
#
# Compressibility (1/GPa) = 0.01009649
#
# Stress axis : x y z
#
# Youngs Moduli (GPa) = 110.04666 103.63916 112.77406
#
# Poissons Ratio (x) = 0.29192 0.37396
# Poissons Ratio (y) = 0.30997 0.29553
# Poissons Ratio (z) = 0.36492 0.27159
#
# Static dielectric constant tensor:
#      x y z
#    x 3.644700 -0.065740 0.230140 
#    y -0.065740 3.948820 0.112650 
#    z 0.230140 0.112650 3.799590 
# 
# 
# High freq. dielectric constant tensor:
#      x y z
#    x 1.767480 -0.007660 0.020100 
#    y -0.007660 1.780240 0.008060 
#    z 0.020100 0.008060 1.777890 
# 
# From -- ./inp_files/56830.got.cif
#   From: 2010.06.25/outbox.cif.g09.slc.cpg/sg2_29_cif.got.tgz:56830.got - 2010.06.27 13:26:56.
