data_PCOD8043103
_publ_section_title
;
Structure prediction by ZEFSAII (Michael W. Deem and Ramdas Pophale) SiO2 
 PCOD8043103
Probable space group: P -1
;
_chemical_formula_sum "Si O2"
_cell_formula_units_Z 16
_cell_length_a 14.593948
_cell_length_b 14.540388
_cell_length_c 9.023202
_cell_angle_alpha 91.089516
_cell_angle_beta 129.165247
_cell_angle_gamma 49.900641
_cell_volume 859.197903
_symmetry_space_group_name_H-M "P -1"
_symmetry_group_IT_number 2
_symmetry_cell_setting 'triclinic'
loop_
_space_group_symop_operation_xyz
x,y,z
-x,-y,-z
loop_
_atom_site_type_symbol
_atom_site_label
_atom_site_fract_x
_atom_site_fract_y
_atom_site_fract_z
Si Si1 0.863485 0.000962 0.572748
Si Si2 0.271940 0.516173 0.027779
Si Si3 0.961900 0.209669 0.988657
Si Si4 0.267895 0.714724 0.521353
Si Si5 0.571555 0.778902 0.769271
Si Si6 0.053199 0.742404 0.542627
Si Si7 0.647475 0.916291 0.008997
Si Si8 0.591225 0.033036 0.662334
O O1 0.847396 0.120025 0.538413
O O2 0.641994 0.095129 0.359507
O O3 0.975615 0.885379 0.543650
O O4 0.993195 0.898471 0.849663
O O5 0.159768 0.605966 0.761584
O O6 0.140853 0.637728 0.033364
O O7 0.491156 0.425144 0.245064
O O8 0.283829 0.399280 0.058850
O O9 0.805515 0.265715 0.715462
O O10 0.166072 0.115394 0.115889
O O11 0.217081 0.666026 0.582979
O O12 0.525086 0.812716 0.543992
O O13 0.676077 0.803437 0.943510
O O14 0.869846 0.803393 0.284460
O O15 0.500000 0.000000 0.000000
O O16 0.555465 0.052315 0.804820
O O17 0.500000 0.000000 0.500000
#
# Coordination Sequence:
#
# PCOD8043103 Si02
#       8
#     2   2   2   2   2   2   2   2
#     4   9  19  34  57  84 110 145 183 234 277 318
#     4  10  23  37  55  79 120 154 176 220 282 333
#     4  10  19  36  58  84 108 148 190 223 275 325
#     4  11  20  36  56  81 115 144 193 227 266 329
#     4   9  19  38  57  82 113 145 183 228 275 325
#     4  11  21  36  57  84 114 150 181 224 285 332
#     4  11  20  36  63  84 109 139 188 234 275 327
#     4   9  19  36  61  83 107 140 185 237 272 313
#
# _framework density 18.622019999999999
#
# number of rings (size 3 to 8) (size 9 to 14) (size 15 to 20)
#    0.000    2.000    2.500    1.500    1.750    0.500 
#    0.000    3.750    0.000    0.000    0.000    0.000 
#    0.000    0.000    0.000    0.000    0.000    0.000 
#
# Total GULP energy -198371.021817 kJ/mol
# GULP energy per Si atom -12398.188864 kJ/mol
# Density = 1.857964 g / cm^3
# Si number density = 18.622020 Si / 1000 Ang^3
#
#
#
# Elastic Constant Matrix: (Units=GPa)
#
#
# Indices 1 2 3 4 5 6 
#
# 1 101.5555 32.9080 43.8213 5.9957 -14.7093 -2.7474
# 2 32.9080 63.9536 40.1948 -1.2426 -20.7204 5.0319
# 3 43.8213 40.1948 117.6761 17.7190 -22.9582 6.0887
# 4 5.9957 -1.2426 17.7190 28.5247 6.0446 -2.7087
# 5 -14.7093 -20.7204 -22.9582 6.0446 22.1308 0.5757
# 6 -2.7474 5.0319 6.0887 -2.7087 0.5757 25.3345
#
#
#
# Elastic Compliance Matrix: (Units=1/GPa)
#
#
# Indices 1 2 3 4 5 6 
#
# 1 0.012965 -0.004578 -0.002945 -0.001144 0.001514 0.002866
# 2 -0.004578 0.026556 -0.003485 -0.000120 0.018378 -0.005364
# 3 -0.002945 -0.003485 0.015977 -0.013148 0.015080 -0.005215
# 4 -0.001144 -0.000120 -0.013148 0.050364 -0.028505 0.009092
# 5 0.001514 0.018378 0.015080 -0.028505 0.087144 -0.012138
# 6 0.002866 -0.005364 -0.005215 0.009092 -0.012138 0.043349
#
#
# Mechanical properties :
#
#
# Convention : Reuss Voigt Hill
#
# Bulk Modulus (GPa) = 29.86639 57.44816 43.65728
# Shear Modulus (GPa) = 18.55060 26.28206 22.41633
#
# Velocity S-wave (km/s) = 3.15963 3.76086 3.47328
# Velocity P-wave (km/s) = 5.42071 7.05516 6.29124
#
# Compressibility (1/GPa) = 0.03348246
#
# Stress axis : x y z
#
# Youngs Moduli (GPa) = 77.12820 37.65598 62.59022
#
# Poissons Ratio (x) = 0.17237 0.18435
# Poissons Ratio (y) = 0.35306 0.21814
# Poissons Ratio (z) = 0.22717 0.13124
#
# Static dielectric constant tensor:
#      x y z
#    x 3.686810 -0.007590 -0.216170 
#    y -0.007590 3.209970 0.059500 
#    z -0.216170 0.059500 3.617330 
# 
# 
# High freq. dielectric constant tensor:
#      x y z
#    x 1.734240 0.000030 -0.005720 
#    y 0.000030 1.697800 0.010190 
#    z -0.005720 0.010190 1.736040 
# 
# From -- ./inp_files/170556.got.cif
#   From: 2010.06.25/outbox.cif.g09.slc.cpg/sg2_86_cif.got.tgz:170556.got - 2010.06.27 13:26:56.
