data_PCOD8043838
_publ_section_title
;
Structure prediction by ZEFSAII (Michael W. Deem and Ramdas Pophale) SiO2 
 PCOD8043838
Probable space group: P -1
;
_chemical_formula_sum "Si O2"
_cell_formula_units_Z 14
_cell_length_a 9.009324
_cell_length_b 9.157551
_cell_length_c 21.773474
_cell_angle_alpha 118.180911
_cell_angle_beta 28.771485
_cell_angle_gamma 106.758419
_cell_volume 727.965224
_symmetry_space_group_name_H-M "P -1"
_symmetry_group_IT_number 2
_symmetry_cell_setting 'triclinic'
loop_
_space_group_symop_operation_xyz
x,y,z
-x,-y,-z
loop_
_atom_site_type_symbol
_atom_site_label
_atom_site_fract_x
_atom_site_fract_y
_atom_site_fract_z
Si Si1 0.913870 0.176016 0.529183
Si Si2 0.659851 0.630368 0.632188
Si Si3 0.764681 0.456853 0.987167
Si Si4 0.850434 0.290676 0.797188
Si Si5 0.400692 0.528713 0.818459
Si Si6 0.549230 0.584208 0.435005
Si Si7 0.214048 0.924320 0.573894
O O1 0.675208 0.340247 0.683572
O O2 0.732286 0.152207 0.528860
O O3 0.263811 0.203532 0.392336
O O4 0.000000 0.000000 0.500000
O O5 0.481466 0.667023 0.770190
O O6 0.453776 0.551019 0.644688
O O7 0.000000 0.500000 0.500000
O O8 0.499978 0.617963 0.084477
O O9 0.623752 0.394511 0.088198
O O10 0.866856 0.308936 0.868857
O O11 0.065544 0.514035 0.911914
O O12 0.115867 0.366006 0.682008
O O13 0.893899 0.086286 0.729221
O O14 0.500000 0.500000 0.500000
O O15 0.244006 0.759060 0.574430
O O16 0.500000 0.000000 0.500000
#
# Coordination Sequence:
#
# PCOD8043838 Si02
#       7
#     2   2   2   2   2   2   2
#     4  11  22  35  62  92 115 145 188 249 309 338
#     4  10  20  37  57  87 116 146 191 244 296 342
#     4  10  20  35  60  83 113 165 199 227 271 357
#     4  10  21  37  58  86 118 153 200 229 286 346
#     4  10  19  37  60  84 115 152 199 232 286 340
#     4  11  22  36  60  90 118 152 188 247 304 339
#     4  10  20  36  55  84 122 141 186 247 287 340
#
# _framework density 19.231686
#
# number of rings (size 3 to 8) (size 9 to 14) (size 15 to 20)
#    0.000    1.714    4.286    1.714    8.000    0.000 
#    0.000    0.000    0.000   18.857    0.000    0.000 
#    0.000    0.000    0.000    0.000    0.000    0.000 
#
# Total GULP energy -173446.042064 kJ/mol
# GULP energy per Si atom -12389.003005 kJ/mol
# Density = 1.918791 g / cm^3
# Si number density = 19.231686 Si / 1000 Ang^3
#
#
#
# Elastic Constant Matrix: (Units=GPa)
#
#
# Indices 1 2 3 4 5 6 
#
# 1 83.1248 29.3891 25.1824 -10.1739 17.0379 -16.6129
# 2 29.3891 115.5644 33.3449 -11.5520 9.0344 -25.1380
# 3 25.1824 33.3449 82.3857 -12.3532 17.2403 -14.4084
# 4 -10.1739 -11.5520 -12.3532 25.1444 -6.7684 3.2125
# 5 17.0379 9.0344 17.2403 -6.7684 39.6648 -4.7040
# 6 -16.6129 -25.1380 -14.4084 3.2125 -4.7040 32.6179
#
#
#
# Elastic Compliance Matrix: (Units=1/GPa)
#
#
# Indices 1 2 3 4 5 6 
#
# 1 0.015388 -0.001723 -0.001840 0.002739 -0.004382 0.004795
# 2 -0.001723 0.011531 -0.002703 0.002563 0.000513 0.006637
# 3 -0.001840 -0.002703 0.015869 0.004246 -0.004419 0.002934
# 4 0.002739 0.002563 0.004246 0.045107 0.004260 0.001417
# 5 -0.004382 0.000513 -0.004419 0.004260 0.029632 0.000065
# 6 0.004795 0.006637 0.002934 0.001417 0.000065 0.039381
#
#
# Mechanical properties :
#
#
# Convention : Reuss Voigt Hill
#
# Bulk Modulus (GPa) = 33.05075 50.76750 41.90912
# Shear Modulus (GPa) = 27.85113 32.36265 30.10689
#
# Velocity S-wave (km/s) = 3.80964 4.10662 3.96091
# Velocity P-wave (km/s) = 6.04764 6.99578 6.53892
#
# Compressibility (1/GPa) = 0.03025650
#
# Stress axis : x y z
#
# Youngs Moduli (GPa) = 64.98394 86.72299 63.01641
#
# Poissons Ratio (x) = 0.14943 0.11595
# Poissons Ratio (y) = 0.11197 0.17032
# Poissons Ratio (z) = 0.11957 0.23439
#
# Static dielectric constant tensor:
#      x y z
#    x 3.713910 -0.034980 0.207460 
#    y -0.034980 4.209900 -0.038900 
#    z 0.207460 -0.038900 4.129980 
# 
# 
# High freq. dielectric constant tensor:
#      x y z
#    x 1.767740 -0.002210 0.004880 
#    y -0.002210 1.728390 -0.008270 
#    z 0.004880 -0.008270 1.736160 
# 
# From -- ./inp_files/176164.got.cif
#   From: 2010.06.25/outbox.cif.g09.slc.cpg/sg2_89_cif.got.tgz:176164.got - 2010.06.27 13:26:56.
