data_PCOD8043524
_publ_section_title
;
Structure prediction by ZEFSAII (Michael W. Deem and Ramdas Pophale) SiO2 
 PCOD8043524
Probable space group: P -1
;
_chemical_formula_sum "Si O2"
_cell_formula_units_Z 16
_cell_length_a 7.896870
_cell_length_b 10.347922
_cell_length_c 15.460367
_cell_angle_alpha 57.782578
_cell_angle_beta 99.829366
_cell_angle_gamma 134.952773
_cell_volume 710.247917
_symmetry_space_group_name_H-M "P -1"
_symmetry_group_IT_number 2
_symmetry_cell_setting 'triclinic'
loop_
_space_group_symop_operation_xyz
x,y,z
-x,-y,-z
loop_
_atom_site_type_symbol
_atom_site_label
_atom_site_fract_x
_atom_site_fract_y
_atom_site_fract_z
Si Si1 0.849934 0.325502 0.811525
Si Si2 0.333159 0.359714 0.451142
Si Si3 0.137353 0.835869 0.955214
Si Si4 0.220369 0.970380 0.509093
Si Si5 0.612387 0.219584 0.317339
Si Si6 0.498608 0.642772 0.206366
Si Si7 0.479089 0.875223 0.856556
Si Si8 0.256075 0.228667 0.987072
O O1 0.775497 0.451198 0.784788
O O2 0.142142 0.512355 0.740172
O O3 0.679781 0.146586 0.782743
O O4 0.781996 0.171357 0.940951
O O5 0.500000 0.500000 0.500000
O O6 0.238308 0.123047 0.522759
O O7 0.504781 0.523030 0.326104
O O8 0.062597 0.271713 0.457529
O O9 0.209534 0.750440 0.922824
O O10 0.292497 0.089288 0.853925
O O11 0.835052 0.687899 0.988552
O O12 0.367465 0.122969 0.380748
O O13 0.355009 0.926760 0.589362
O O14 0.574012 0.192933 0.222095
O O15 0.553678 0.593370 0.137323
O O16 0.600111 0.803189 0.933529
O O17 0.000000 0.000000 0.000000
#
# Coordination Sequence:
#
# PCOD8043524 Si02
#       8
#     2   2   2   2   2   2   2   2
#     4  11  20  41  67  94 132 185 213 276 347 398
#     4  11  25  45  75  97 130 182 231 279 345 398
#     4  10  21  37  67  99 137 172 225 278 334 410
#     4  10  26  49  61 102 138 168 234 293 328 398
#     4  11  26  43  70  95 138 180 223 284 341 400
#     4  10  19  38  64  97 132 175 218 278 343 394
#     4  11  22  42  66  99 136 180 229 272 334 424
#     4  10  19  36  63  99 135 173 220 273 335 404
#
# _framework density 22.527345
#
# number of rings (size 3 to 8) (size 9 to 14) (size 15 to 20)
#    0.000    1.500    5.000    0.750    5.250    3.500 
#    2.250    3.125    0.000    0.000    0.000    0.000 
#    0.000    0.000    0.000    0.000    0.000    0.000 
#
# Total GULP energy -198263.371278 kJ/mol
# GULP energy per Si atom -12391.460705 kJ/mol
# Density = 2.247607 g / cm^3
# Si number density = 22.527345 Si / 1000 Ang^3
#
#
#
# Elastic Constant Matrix: (Units=GPa)
#
#
# Indices 1 2 3 4 5 6 
#
# 1 130.2700 28.8773 32.0944 23.9927 -16.4286 14.7976
# 2 28.8773 90.3465 33.8976 4.2643 -7.4660 11.8396
# 3 32.0944 33.8976 113.0996 4.9489 -7.6253 16.0466
# 4 23.9927 4.2643 4.9489 30.1258 4.2156 -4.4952
# 5 -16.4286 -7.4660 -7.6253 4.2156 34.9802 -6.3139
# 6 14.7976 11.8396 16.0466 -4.4952 -6.3139 15.5154
#
#
#
# Elastic Compliance Matrix: (Units=1/GPa)
#
#
# Indices 1 2 3 4 5 6 
#
# 1 0.012170 -0.001198 -0.000622 -0.011799 0.004658 -0.011573
# 2 -0.001198 0.013435 -0.002639 -0.001594 0.000741 -0.006540
# 3 -0.000622 -0.002639 0.011309 -0.002463 0.000148 -0.009743
# 4 -0.011799 -0.001594 -0.002463 0.048141 -0.007547 0.025894
# 5 0.004658 0.000741 0.000148 -0.007547 0.032971 0.006070
# 6 -0.011573 -0.006540 -0.009743 0.025894 0.006070 0.100528
#
#
# Mechanical properties :
#
#
# Convention : Reuss Voigt Hill
#
# Bulk Modulus (GPa) = 35.71947 58.16163 46.94055
# Shear Modulus (GPa) = 21.11432 32.04739 26.58086
#
# Velocity S-wave (km/s) = 3.06482 3.77583 3.43875
# Velocity P-wave (km/s) = 5.33054 6.69951 6.05384
#
# Compressibility (1/GPa) = 0.02799594
#
# Stress axis : x y z
#
# Youngs Moduli (GPa) = 82.16650 74.43155 88.42229
#
# Poissons Ratio (x) = 0.08918 0.05502
# Poissons Ratio (y) = 0.09845 0.23336
# Poissons Ratio (z) = 0.05113 0.19643
#
# Static dielectric constant tensor:
#      x y z
#    x 4.888260 0.116170 -0.276410 
#    y 0.116170 3.705410 -0.111260 
#    z -0.276410 -0.111260 4.133910 
# 
# 
# High freq. dielectric constant tensor:
#      x y z
#    x 1.905720 0.007200 -0.003060 
#    y 0.007200 1.856220 -0.012180 
#    z -0.003060 -0.012180 1.889340 
# 
# From -- ./inp_files/398524.got.cif
#   From: 2010.06.25/outbox.cif.g09.slc.cpg/sg2_200_cif.got.tgz:398524.got - 2010.06.27 13:26:56.
