data_PCOD8043039
_publ_section_title
;
Structure prediction by ZEFSAII (Michael W. Deem and Ramdas Pophale) SiO2 
 PCOD8043039
Probable space group: P -1
;
_chemical_formula_sum "Si O2"
_cell_formula_units_Z 12
_cell_length_a 12.713972
_cell_length_b 10.011411
_cell_length_c 9.347674
_cell_angle_alpha 63.757256
_cell_angle_beta 133.403089
_cell_angle_gamma 82.364342
_cell_volume 575.483972
_symmetry_space_group_name_H-M "P -1"
_symmetry_group_IT_number 2
_symmetry_cell_setting 'triclinic'
loop_
_space_group_symop_operation_xyz
x,y,z
-x,-y,-z
loop_
_atom_site_type_symbol
_atom_site_label
_atom_site_fract_x
_atom_site_fract_y
_atom_site_fract_z
Si Si1 0.771761 0.117629 0.071342
Si Si2 0.990590 0.528703 0.309648
Si Si3 0.385043 0.976540 0.606391
Si Si4 0.009215 0.222443 0.329626
Si Si5 0.311629 0.003875 0.215010
Si Si6 0.566990 0.782192 0.139990
O O1 0.844997 0.236549 0.091758
O O2 0.910599 0.914859 0.389206
O O3 0.553604 0.253428 0.863460
O O4 0.772546 0.068228 0.929412
O O5 0.908070 0.442153 0.188463
O O6 0.211746 0.400040 0.524150
O O7 0.000000 0.500000 0.500000
O O8 0.854597 0.757822 0.031344
O O9 0.491654 0.062009 0.638414
O O10 0.179323 0.143328 0.413613
O O11 0.356843 0.910148 0.460605
O O12 0.526205 0.780351 0.933358
O O13 0.500000 0.000000 0.000000
#
# Coordination Sequence:
#
# PCOD8043039 Si02
#       6
#     2   2   2   2   2   2
#     4  10  19  36  57  79 107 151 180 213 273 334
#     4  12  19  34  59  86 105 136 187 236 254 309
#     4  10  20  36  56  82 110 148 176 219 274 329
#     4  10  20  35  56  79 112 146 180 216 275 326
#     4  11  21  34  59  86 108 137 187 227 265 313
#     4  11  17  37  59  79 105 148 183 218 266 327
#
# _framework density 20.852015999999999
#
# number of rings (size 3 to 8) (size 9 to 14) (size 15 to 20)
#    0.000    1.333    8.333    0.000    0.000    1.333 
#    0.000    2.500    0.000    5.000    0.000    0.000 
#    0.000    0.000    0.000    0.000    0.000    0.000 
#
# Total GULP energy -148758.047829 kJ/mol
# GULP energy per Si atom -12396.503986 kJ/mol
# Density = 2.080456 g / cm^3
# Si number density = 20.852016 Si / 1000 Ang^3
#
#
#
# Elastic Constant Matrix: (Units=GPa)
#
#
# Indices 1 2 3 4 5 6 
#
# 1 83.6358 57.3447 38.4280 11.8022 17.9337 -4.5828
# 2 57.3447 147.0504 59.4978 42.5554 9.3058 0.0860
# 3 38.4280 59.4978 77.9871 22.2713 9.5882 1.8333
# 4 11.8022 42.5554 22.2713 37.7308 -5.7061 -3.1253
# 5 17.9337 9.3058 9.5882 -5.7061 35.9591 13.7843
# 6 -4.5828 0.0860 1.8333 -3.1253 13.7843 21.0679
#
#
#
# Elastic Compliance Matrix: (Units=1/GPa)
#
#
# Indices 1 2 3 4 5 6 
#
# 1 0.021961 -0.006317 -0.005548 0.002761 -0.012792 0.014064
# 2 -0.006317 0.014604 -0.004457 -0.012136 -0.000368 -0.002606
# 3 -0.005548 -0.004457 0.020944 -0.006071 -0.001506 -0.002927
# 4 0.002761 -0.012136 -0.006071 0.044523 0.009963 0.001264
# 5 -0.012792 -0.000368 -0.001506 0.009963 0.049007 -0.033236
# 6 0.014064 -0.002606 -0.002927 0.001264 -0.033236 0.072724
#
#
# Mechanical properties :
#
#
# Convention : Reuss Voigt Hill
#
# Bulk Modulus (GPa) = 40.21662 68.80159 54.50911
# Shear Modulus (GPa) = 18.88973 29.17843 24.03408
#
# Velocity S-wave (km/s) = 3.01307 3.74479 3.39868
# Velocity P-wave (km/s) = 5.60655 7.19477 6.44973
#
# Compressibility (1/GPa) = 0.02486534
#
# Stress axis : x y z
#
# Youngs Moduli (GPa) = 45.53553 68.47533 47.74582
#
# Poissons Ratio (x) = 0.43254 0.26491
# Poissons Ratio (y) = 0.28763 0.21279
# Poissons Ratio (z) = 0.25265 0.30518
#
# Static dielectric constant tensor:
#      x y z
#    x 3.835430 -0.210210 0.190410 
#    y -0.210210 3.740660 0.432600 
#    z 0.190410 0.432600 4.048090 
# 
# 
# High freq. dielectric constant tensor:
#      x y z
#    x 1.810300 -0.025830 0.015180 
#    y -0.025830 1.795500 0.035900 
#    z 0.015180 0.035900 1.808060 
# 
# From -- ./inp_files/146544.got.cif
#   From: 2010.06.25/outbox.cif.g09.slc.cpg/sg2_74_cif.got.tgz:146544.got - 2010.06.27 13:26:56.
