data_PCOD8043895
_publ_section_title
;
Structure prediction by ZEFSAII (Michael W. Deem and Ramdas Pophale) SiO2 
 PCOD8043895
Probable space group: P -1
;
_chemical_formula_sum "Si O2"
_cell_formula_units_Z 16
_cell_length_a 10.752803
_cell_length_b 16.466384
_cell_length_c 14.618367
_cell_angle_alpha 154.034634
_cell_angle_beta 102.775672
_cell_angle_gamma 61.613174
_cell_volume 841.928796
_symmetry_space_group_name_H-M "P -1"
_symmetry_group_IT_number 2
_symmetry_cell_setting 'triclinic'
loop_
_space_group_symop_operation_xyz
x,y,z
-x,-y,-z
loop_
_atom_site_type_symbol
_atom_site_label
_atom_site_fract_x
_atom_site_fract_y
_atom_site_fract_z
Si Si1 0.134833 0.629643 0.901434
Si Si2 0.741317 0.771571 0.232195
Si Si3 0.337481 0.746233 0.759856
Si Si4 0.129879 0.234719 0.141797
Si Si5 0.028246 0.770587 0.229828
Si Si6 0.927521 0.320607 0.373019
Si Si7 0.245741 0.890890 0.088511
Si Si8 0.633226 0.916757 0.566024
O O1 0.273061 0.337813 0.625193
O O2 0.958916 0.725575 0.928399
O O3 0.217674 0.712516 0.940080
O O4 0.094640 0.739877 0.107543
O O5 0.854645 0.820467 0.251603
O O6 0.711090 0.864497 0.425247
O O7 0.565471 0.930939 0.312587
O O8 0.832780 0.483657 0.950674
O O9 0.500000 0.500000 0.500000
O O10 0.180270 0.760012 0.737785
O O11 0.361006 0.777229 0.901187
O O12 0.300718 0.959364 0.905915
O O13 0.179163 0.405188 0.328477
O O14 0.999207 0.303148 0.268493
O O15 0.000000 0.000000 0.500000
O O16 0.070003 0.151149 0.299461
O O17 0.339697 0.918416 0.208956
#
# Coordination Sequence:
#
# PCOD8043895 Si02
#       8
#     2   2   2   2   2   2   2   2
#     4  11  20  36  61  88 107 145 199 234 270 340
#     4   9  21  42  58  84 120 148 183 236 286 337
#     4  11  23  39  53  83 124 150 183 236 287 334
#     4  10  19  37  61  81 106 153 192 227 279 335
#     4  10  21  39  62  84 117 152 183 227 292 343
#     4  10  19  37  63  77 112 150 190 233 279 334
#     4  11  20  37  61  84 110 152 194 231 279 336
#     4  10  21  38  62  86 112 147 193 237 279 331
#
# _framework density 19.003981
#
# number of rings (size 3 to 8) (size 9 to 14) (size 15 to 20)
#    0.000    1.750    3.750    1.500    0.000    1.500 
#    6.750    3.750    0.000    0.000    0.000    0.000 
#    0.000    0.000    0.000    0.000    0.000    0.000 
#
# Total GULP energy -198412.350305 kJ/mol
# GULP energy per Si atom -12400.771894 kJ/mol
# Density = 1.896073 g / cm^3
# Si number density = 19.003981 Si / 1000 Ang^3
#
#
#
# Elastic Constant Matrix: (Units=GPa)
#
#
# Indices 1 2 3 4 5 6 
#
# 1 35.4912 12.7602 19.5433 1.6239 1.1307 -4.6858
# 2 12.7602 77.8690 31.7765 5.4594 3.4570 -3.5838
# 3 19.5433 31.7765 114.3909 13.7238 9.2753 -8.8389
# 4 1.6239 5.4594 13.7238 24.2966 -6.9009 9.6113
# 5 1.1307 3.4570 9.2753 -6.9009 34.9685 3.2513
# 6 -4.6858 -3.5838 -8.8389 9.6113 3.2513 23.9047
#
#
#
# Elastic Compliance Matrix: (Units=1/GPa)
#
#
# Indices 1 2 3 4 5 6 
#
# 1 0.032306 -0.003321 -0.004067 -0.001108 -0.000304 0.004818
# 2 -0.003321 0.014932 -0.003090 -0.002322 -0.001150 0.001535
# 3 -0.004067 -0.003090 0.012877 -0.011599 -0.006104 0.008994
# 4 -0.001108 -0.002322 -0.011599 0.067737 0.019945 -0.034802
# 5 -0.000304 -0.001150 -0.006104 0.019945 0.035704 -0.015365
# 6 0.004818 0.001535 0.008994 -0.034802 -0.015365 0.062416
#
#
# Mechanical properties :
#
#
# Convention : Reuss Voigt Hill
#
# Bulk Modulus (GPa) = 25.53775 39.54567 32.54171
# Shear Modulus (GPa) = 19.23217 27.54537 23.38877
#
# Velocity S-wave (km/s) = 3.18466 3.81130 3.51198
# Velocity P-wave (km/s) = 5.19519 6.34211 5.79708
#
# Compressibility (1/GPa) = 0.03915771
#
# Stress axis : x y z
#
# Youngs Moduli (GPa) = 30.95394 66.97120 77.66026
#
# Poissons Ratio (x) = 0.22244 0.31584
# Poissons Ratio (y) = 0.10281 0.23998
# Poissons Ratio (z) = 0.12589 0.20695
#
# Static dielectric constant tensor:
#      x y z
#    x 3.393200 0.056790 0.149600 
#    y 0.056790 3.685560 0.180710 
#    z 0.149600 0.180710 3.677150 
# 
# 
# High freq. dielectric constant tensor:
#      x y z
#    x 1.723590 0.002270 0.016160 
#    y 0.002270 1.743460 0.006030 
#    z 0.016160 0.006030 1.746770 
# 
# From -- ./inp_files/267512.got.cif
#   From: 2010.06.25/outbox.cif.g09.slc.cpg/sg2_134_cif.got.tgz:267512.got - 2010.06.27 13:26:56.
