data_PCOD8043292
_publ_section_title
;
Structure prediction by ZEFSAII (Michael W. Deem and Ramdas Pophale) SiO2 
 PCOD8043292
Probable space group: P -1
;
_chemical_formula_sum "Si O2"
_cell_formula_units_Z 16
_cell_length_a 8.724338
_cell_length_b 14.700081
_cell_length_c 12.199586
_cell_angle_alpha 74.183943
_cell_angle_beta 109.174370
_cell_angle_gamma 148.472580
_cell_volume 772.654226
_symmetry_space_group_name_H-M "P -1"
_symmetry_group_IT_number 2
_symmetry_cell_setting 'triclinic'
loop_
_space_group_symop_operation_xyz
x,y,z
-x,-y,-z
loop_
_atom_site_type_symbol
_atom_site_label
_atom_site_fract_x
_atom_site_fract_y
_atom_site_fract_z
Si Si1 0.499177 0.919821 0.715811
Si Si2 0.785184 0.918569 0.294675
Si Si3 0.287158 0.923169 0.876646
Si Si4 0.553986 0.745171 0.711289
Si Si5 0.974401 0.327997 0.495474
Si Si6 0.330757 0.675036 0.450353
Si Si7 0.592646 0.570533 0.877246
Si Si8 0.826271 0.727849 0.293730
O O1 0.351886 0.888270 0.800238
O O2 0.529088 0.821065 0.762842
O O3 0.288098 0.842538 0.587638
O O4 0.834149 0.122754 0.715541
O O5 0.636799 0.846395 0.403683
O O6 0.744669 0.796146 0.273973
O O7 0.643873 0.932915 0.182250
O O8 0.130465 0.111667 0.323407
O O9 0.947723 0.738074 0.892800
O O10 0.500000 0.000000 0.000000
O O11 0.339144 0.649745 0.589067
O O12 0.474960 0.617906 0.809240
O O13 0.842212 0.309516 0.584043
O O14 0.160002 0.500527 0.414603
O O15 0.193598 0.348884 0.577135
O O16 0.422765 0.418467 0.805220
O O17 0.500000 0.500000 0.000000
#
# Coordination Sequence:
#
# PCOD8043292 Si02
#       8
#     2   2   2   2   2   2   2   2
#     4  10  22  40  65  90 125 167 207 250 308 369
#     4  10  23  37  64  89 126 164 207 251 311 371
#     4  11  25  47  64  89 122 164 212 262 311 367
#     4   9  20  41  61  92 127 165 203 253 308 369
#     4  10  21  35  61  94 132 166 201 251 306 368
#     4  10  19  36  60  95 131 163 204 248 307 365
#     4  11  24  42  65  91 122 164 210 261 311 364
#     4  11  22  40  62  96 127 167 205 251 309 373
#
# _framework density 20.707840000000001
#
# number of rings (size 3 to 8) (size 9 to 14) (size 15 to 20)
#    0.000    1.750    1.250    2.250    1.750    5.500 
#    0.000    5.000    0.000    0.000    0.000    0.000 
#    0.000    0.000    0.000    0.000    0.000    0.000 
#
# Total GULP energy -198272.137280 kJ/mol
# GULP energy per Si atom -12392.008580 kJ/mol
# Density = 2.066071 g / cm^3
# Si number density = 20.707840 Si / 1000 Ang^3
#
#
#
# Elastic Constant Matrix: (Units=GPa)
#
#
# Indices 1 2 3 4 5 6 
#
# 1 112.1222 39.0695 55.5849 -13.7943 3.2512 -9.8707
# 2 39.0695 98.7496 50.7960 0.1617 -1.4163 -7.3812
# 3 55.5849 50.7960 116.0812 -5.2705 5.7305 -6.4608
# 4 -13.7943 0.1617 -5.2705 39.1859 4.1921 -0.8325
# 5 3.2512 -1.4163 5.7305 4.1921 29.7372 -6.4749
# 6 -9.8707 -7.3812 -6.4608 -0.8325 -6.4749 29.3543
#
#
#
# Elastic Compliance Matrix: (Units=1/GPa)
#
#
# Indices 1 2 3 4 5 6 
#
# 1 0.012867 -0.002483 -0.004715 0.004027 -0.000608 0.002645
# 2 -0.002483 0.013863 -0.004973 -0.001834 0.002601 0.002078
# 3 -0.004715 -0.004973 0.013159 0.000379 -0.002411 -0.000461
# 4 0.004027 -0.001834 0.000379 0.027472 -0.004298 0.000807
# 5 -0.000608 0.002601 -0.002411 -0.004298 0.036602 0.007871
# 6 0.002645 0.002078 -0.000461 0.000807 0.007871 0.037136
#
#
# Mechanical properties :
#
#
# Convention : Reuss Voigt Hill
#
# Bulk Modulus (GPa) = 64.32143 68.65044 66.48594
# Shear Modulus (GPa) = 29.30400 31.75564 30.52982
#
# Velocity S-wave (km/s) = 3.76588 3.92025 3.84384
# Velocity P-wave (km/s) = 7.07375 7.32905 7.20254
#
# Compressibility (1/GPa) = 0.01554692
#
# Stress axis : x y z
#
# Youngs Moduli (GPa) = 77.71566 72.13483 75.99297
#
# Poissons Ratio (x) = 0.17913 0.35829
# Poissons Ratio (y) = 0.19299 0.37793
# Poissons Ratio (z) = 0.36641 0.35874
#
# Static dielectric constant tensor:
#      x y z
#    x 4.026420 -0.081150 0.179590 
#    y -0.081150 3.936740 -0.045810 
#    z 0.179590 -0.045810 3.548830 
# 
# 
# High freq. dielectric constant tensor:
#      x y z
#    x 1.820540 -0.003170 0.015090 
#    y -0.003170 1.826220 -0.003370 
#    z 0.015090 -0.003370 1.784030 
# 
# From -- ./inp_files/203596.got.cif
#   From: 2010.06.25/outbox.cif.g09.slc.cpg/sg2_102_cif.got.tgz:203596.got - 2010.06.27 13:26:56.
