data_PCOD8043769
_publ_section_title
;
Structure prediction by ZEFSAII (Michael W. Deem and Ramdas Pophale) SiO2 
 PCOD8043769
Probable space group: P -1
;
_chemical_formula_sum "Si O2"
_cell_formula_units_Z 12
_cell_length_a 9.183324
_cell_length_b 13.366451
_cell_length_c 10.713236
_cell_angle_alpha 147.185849
_cell_angle_beta 114.333568
_cell_angle_gamma 44.643286
_cell_volume 437.025245
_symmetry_space_group_name_H-M "P -1"
_symmetry_group_IT_number 2
_symmetry_cell_setting 'triclinic'
loop_
_space_group_symop_operation_xyz
x,y,z
-x,-y,-z
loop_
_atom_site_type_symbol
_atom_site_label
_atom_site_fract_x
_atom_site_fract_y
_atom_site_fract_z
Si Si1 0.939431 0.142538 0.335480
Si Si2 0.055622 0.744503 0.280399
Si Si3 0.871972 0.805257 0.033380
Si Si4 0.607898 0.752303 0.443315
Si Si5 0.425642 0.806882 0.190432
Si Si6 0.224631 0.397537 0.400721
O O1 0.962377 0.272730 0.595500
O O2 0.826135 0.349615 0.397076
O O3 0.218514 0.852149 0.108756
O O4 0.794283 0.079970 0.249357
O O5 0.878285 0.775617 0.158095
O O6 0.325552 0.482153 0.064814
O O7 0.000000 0.000000 0.500000
O O8 0.708068 0.792851 0.892538
O O9 0.140260 0.553779 0.817672
O O10 0.412072 0.825596 0.359392
O O11 0.557858 0.773757 0.599617
O O12 0.625079 0.951715 0.631026
O O13 0.000000 0.500000 0.500000
#
# Coordination Sequence:
#
# PCOD8043769 Si02
#       6
#     2   2   2   2   2   2
#     4  11  21  37  69  85 115 168 193 239 315 335
#     4   9  21  37  59  93 120 148 205 250 286 361
#     4   9  19  36  59  90 118 152 203 243 286 362
#     4   9  19  36  57  87 125 148 196 253 285 346
#     4  10  19  39  63  87 118 156 200 251 288 354
#     4  10  19  37  58  91 123 155 198 245 292 362
#
# _framework density 27.458369000000001
#
# number of rings (size 3 to 8) (size 9 to 14) (size 15 to 20)
#    0.000    2.333    3.333    0.000    0.000    9.333 
#    0.000    0.833    0.000    2.000    0.000    0.000 
#    0.000    0.000    0.000    0.000    0.000    0.000 
#
# Total GULP energy -148687.200149 kJ/mol
# GULP energy per Si atom -12390.600012 kJ/mol
# Density = 2.739587 g / cm^3
# Si number density = 27.458369 Si / 1000 Ang^3
#
#
#
# Elastic Constant Matrix: (Units=GPa)
#
#
# Indices 1 2 3 4 5 6 
#
# 1 43.8248 16.4976 5.8829 19.5629 11.6190 15.5205
# 2 16.4976 192.4254 38.1818 13.2884 1.4872 21.6596
# 3 5.8829 38.1818 72.7797 2.4587 10.6989 14.2152
# 4 19.5629 13.2884 2.4587 25.5364 13.5280 0.3918
# 5 11.6190 1.4872 10.6989 13.5280 15.3322 -5.9348
# 6 15.5205 21.6596 14.2152 0.3918 -5.9348 43.9979
#
#
#
# Elastic Compliance Matrix: (Units=1/GPa)
#
#
# Indices 1 2 3 4 5 6 
#
# 1 0.047321 -0.001329 0.006705 -0.018490 -0.032792 -0.022464
# 2 -0.001329 0.006651 -0.004658 -0.007396 0.010192 0.000140
# 3 0.006705 -0.004658 0.023864 0.017384 -0.041879 -0.013586
# 4 -0.018490 -0.007396 0.017384 0.105370 -0.093877 -0.009054
# 5 -0.032792 0.010192 -0.041879 -0.093877 0.220760 0.050695
# 6 -0.022464 0.000140 -0.013586 -0.009054 0.050695 0.041892
#
#
# Mechanical properties :
#
#
# Convention : Reuss Voigt Hill
#
# Bulk Modulus (GPa) = 12.61450 47.79493 30.20472
# Shear Modulus (GPa) = 10.61916 33.53780 22.07848
#
# Velocity S-wave (km/s) = 1.96870 3.49865 2.83869
# Velocity P-wave (km/s) = 3.12597 5.81075 4.66565
#
# Compressibility (1/GPa) = 0.07927384
#
# Stress axis : x y z
#
# Youngs Moduli (GPa) = 21.13210 150.34999 41.90336
#
# Poissons Ratio (x) = 0.19976 -0.28095
# Poissons Ratio (y) = 0.02808 0.19517
# Poissons Ratio (z) = -0.14168 0.70027
#
# Static dielectric constant tensor:
#      x y z
#    x 4.430320 0.138330 -0.358020 
#    y 0.138330 6.369780 -0.706910 
#    z -0.358020 -0.706910 5.057760 
# 
# 
# High freq. dielectric constant tensor:
#      x y z
#    x 2.082140 0.000580 -0.012140 
#    y 0.000580 2.126580 0.004380 
#    z -0.012140 0.004380 2.119090 
# 
# From -- ./inp_files/198439.got.cif
#   From: 2010.06.25/outbox.cif.g09.slc.cpg/sg2_100_cif.got.tgz:198439.got - 2010.06.27 13:26:56.
