data_PCOD8043526
_publ_section_title
;
Structure prediction by ZEFSAII (Michael W. Deem and Ramdas Pophale) SiO2 
 PCOD8043526
Probable space group: P -1
;
_chemical_formula_sum "Si O2"
_cell_formula_units_Z 14
_cell_length_a 12.661270
_cell_length_b 9.009667
_cell_length_c 9.351589
_cell_angle_alpha 126.564966
_cell_angle_beta 131.284338
_cell_angle_gamma 76.357977
_cell_volume 621.621386
_symmetry_space_group_name_H-M "P -1"
_symmetry_group_IT_number 2
_symmetry_cell_setting 'triclinic'
loop_
_space_group_symop_operation_xyz
x,y,z
-x,-y,-z
loop_
_atom_site_type_symbol
_atom_site_label
_atom_site_fract_x
_atom_site_fract_y
_atom_site_fract_z
Si Si1 0.402602 0.336697 0.916292
Si Si2 0.415221 0.318851 0.238587
Si Si3 0.114530 0.141051 0.022259
Si Si4 0.925854 0.753975 0.508730
Si Si5 0.537181 0.029475 0.321310
Si Si6 0.020100 0.589105 0.770703
Si Si7 0.268311 0.919028 0.219623
O O1 0.240768 0.252343 0.666601
O O2 0.482536 0.168384 0.889870
O O3 0.500000 0.500000 0.000000
O O4 0.401837 0.398402 0.114420
O O5 0.500000 0.500000 0.500000
O O6 0.519933 0.175867 0.265995
O O7 0.256096 0.229089 0.106614
O O8 0.017770 0.973935 0.737135
O O9 0.039277 0.314655 0.088611
O O10 0.152025 0.045850 0.152160
O O11 0.986370 0.639418 0.365951
O O12 0.926887 0.624965 0.574143
O O13 0.690179 0.085095 0.578078
O O14 0.409712 0.016954 0.313532
O O15 0.191986 0.702279 0.975873
#
# Coordination Sequence:
#
# PCOD8043526 Si02
#       7
#     2   2   2   2   2   2   2
#     4  12  26  43  71 101 134 176 230 279 336 403
#     4  11  28  46  64  99 140 175 227 281 337 405
#     4  10  21  43  65  95 139 178 217 279 341 395
#     4  10  22  38  66 103 131 172 231 273 324 411
#     4  10  21  40  68  95 137 180 217 278 342 391
#     4  10  19  36  64 101 134 172 219 276 335 396
#     4   9  18  34  68 101 132 171 224 268 333 416
#
# _framework density 22.521747000000001
#
# number of rings (size 3 to 8) (size 9 to 14) (size 15 to 20)
#    0.000    1.714    0.000    4.714   10.000    1.714 
#    2.571    0.714    0.000    0.000    0.000    0.000 
#    0.000    0.000    0.000    0.000    0.000    0.000 
#
# Total GULP energy -173459.758475 kJ/mol
# GULP energy per Si atom -12389.982748 kJ/mol
# Density = 2.247049 g / cm^3
# Si number density = 22.521747 Si / 1000 Ang^3
#
#
#
# Elastic Constant Matrix: (Units=GPa)
#
#
# Indices 1 2 3 4 5 6 
#
# 1 74.1509 56.6275 56.5908 11.4165 0.4312 -11.4735
# 2 56.6275 98.6383 59.3465 17.1869 3.9369 -6.6439
# 3 56.5908 59.3465 153.4968 11.8268 11.8717 4.3648
# 4 11.4165 17.1869 11.8268 41.6892 -9.4904 -13.3091
# 5 0.4312 3.9369 11.8717 -9.4904 30.5750 3.5726
# 6 -11.4735 -6.6439 4.3648 -13.3091 3.5726 39.9075
#
#
#
# Elastic Compliance Matrix: (Units=1/GPa)
#
#
# Indices 1 2 3 4 5 6 
#
# 1 0.028869 -0.012804 -0.006357 0.002327 0.003577 0.007320
# 2 -0.012804 0.019749 -0.002245 -0.005176 -0.002909 -0.001613
# 3 -0.006357 -0.002245 0.010318 -0.002354 -0.003919 -0.003764
# 4 0.002327 -0.005176 -0.002354 0.031566 0.010215 0.009678
# 5 0.003577 -0.002909 -0.003919 0.010215 0.037604 0.001013
# 6 0.007320 -0.001613 -0.003764 0.009678 0.001013 0.030442
#
#
# Mechanical properties :
#
#
# Convention : Reuss Voigt Hill
#
# Bulk Modulus (GPa) = 62.02224 74.60173 68.31199
# Shear Modulus (GPa) = 24.18527 32.68242 28.43385
#
# Velocity S-wave (km/s) = 3.28054 3.81353 3.55703
# Velocity P-wave (km/s) = 6.47672 7.25168 6.87513
#
# Compressibility (1/GPa) = 0.01612325
#
# Stress axis : x y z
#
# Youngs Moduli (GPa) = 34.63873 50.63552 96.91655
#
# Poissons Ratio (x) = 0.64835 0.61611
# Poissons Ratio (y) = 0.44352 0.21761
# Poissons Ratio (z) = 0.22020 0.11369
#
# Static dielectric constant tensor:
#      x y z
#    x 3.468450 -1.077600 -0.065480 
#    y -1.077600 3.115750 -0.188130 
#    z -0.065480 -0.188130 4.297620 
# 
# 
# High freq. dielectric constant tensor:
#      x y z
#    x 1.871060 -0.030340 0.003900 
#    y -0.030340 1.874620 0.002500 
#    z 0.003900 0.002500 1.907300 
# 
# From -- ./inp_files/216379.got.cif
#   From: 2010.06.25/outbox.cif.g09.slc.cpg/sg2_109_cif.got.tgz:216379.got - 2010.06.27 13:26:56.
