data_PCOD8043401
_publ_section_title
;
Structure prediction by ZEFSAII (Michael W. Deem and Ramdas Pophale) SiO2 
 PCOD8043401
Probable space group: P -1
;
_chemical_formula_sum "Si O2"
_cell_formula_units_Z 14
_cell_length_a 18.217015
_cell_length_b 20.739579
_cell_length_c 11.652106
_cell_angle_alpha 153.756729
_cell_angle_beta 151.689741
_cell_angle_gamma 21.536988
_cell_volume 685.201049
_symmetry_space_group_name_H-M "P -1"
_symmetry_group_IT_number 2
_symmetry_cell_setting 'triclinic'
loop_
_space_group_symop_operation_xyz
x,y,z
-x,-y,-z
loop_
_atom_site_type_symbol
_atom_site_label
_atom_site_fract_x
_atom_site_fract_y
_atom_site_fract_z
Si Si1 0.684672 0.191948 0.140066
Si Si2 0.440121 0.236332 0.082093
Si Si3 0.292760 0.549628 0.549674
Si Si4 0.050788 0.247147 0.210850
Si Si5 0.983568 0.579411 0.320309
Si Si6 0.317780 0.205246 0.308427
Si Si7 0.422167 0.395612 0.896771
O O1 0.760395 0.310028 0.407894
O O2 0.596381 0.230933 0.209013
O O3 0.501135 0.265263 0.913864
O O4 0.883221 0.962845 0.029346
O O5 0.213531 0.371665 0.929762
O O6 0.530046 0.018226 0.880561
O O7 0.420599 0.330227 0.326725
O O8 0.080466 0.635410 0.455138
O O9 0.435732 0.548601 0.836801
O O10 0.197162 0.242595 0.318527
O O11 0.083171 0.296510 0.458452
O O12 0.815342 0.405005 0.095009
O O13 0.154830 0.345399 0.207165
O O14 0.448099 0.269665 0.623057
#
# Coordination Sequence:
#
# PCOD8043401 Si02
#       7
#     2   2   2   2   2   2   2
#     4   9  20  38  58  86 110 147 191 229 280 331
#     4  11  21  41  60  79 117 154 188 230 273 342
#     4  10  24  39  54  88 118 150 185 227 292 331
#     4  10  19  36  62  88 108 147 193 233 281 330
#     4  11  22  38  60  83 118 147 188 236 278 336
#     4  10  21  37  62  88 105 150 198 227 280 334
#     4   9  19  37  55  86 115 140 185 239 277 326
#
# _framework density 20.43196
#
# number of rings (size 3 to 8) (size 9 to 14) (size 15 to 20)
#    0.857    1.143    0.000    5.143    0.000    5.714 
#    5.143    1.429    0.000    0.000    0.000    0.000 
#    0.000    0.000    0.000    0.000    0.000    0.000 
#
# Total GULP energy -173560.619372 kJ/mol
# GULP energy per Si atom -12397.187098 kJ/mol
# Density = 2.038546 g / cm^3
# Si number density = 20.431960 Si / 1000 Ang^3
#
#
#
# Elastic Constant Matrix: (Units=GPa)
#
#
# Indices 1 2 3 4 5 6 
#
# 1 58.7471 27.0682 35.7333 8.2083 17.5011 -0.7038
# 2 27.0682 95.7176 33.6163 22.7424 2.2818 9.5340
# 3 35.7333 33.6163 86.1882 25.5030 6.2338 -3.8929
# 4 8.2083 22.7424 25.5030 24.1159 2.5121 -0.0590
# 5 17.5011 2.2818 6.2338 2.5121 13.0098 -0.9830
# 6 -0.7038 9.5340 -3.8929 -0.0590 -0.9830 15.9755
#
#
#
# Elastic Compliance Matrix: (Units=1/GPa)
#
#
# Indices 1 2 3 4 5 6 
#
# 1 0.045058 -0.009874 -0.015650 0.016199 -0.054452 0.000773
# 2 -0.009874 0.017293 0.000338 -0.014595 0.012152 -0.009979
# 3 -0.015650 0.000338 0.023483 -0.021299 0.014279 0.005631
# 4 0.016199 -0.014595 -0.021299 0.074666 -0.023211 0.003081
# 5 -0.054452 0.012152 0.014279 -0.023211 0.145830 0.002716
# 6 0.000773 -0.009979 0.005631 0.003081 0.002716 0.070136
#
#
# Mechanical properties :
#
#
# Convention : Reuss Voigt Hill
#
# Bulk Modulus (GPa) = 28.19865 48.16539 38.18202
# Shear Modulus (GPa) = 11.39838 20.23590 15.81714
#
# Velocity S-wave (km/s) = 2.36449 3.15048 2.78535
# Velocity P-wave (km/s) = 4.61363 6.07114 5.39186
#
# Compressibility (1/GPa) = 0.03546269
#
# Stress axis : x y z
#
# Youngs Moduli (GPa) = 22.19356 57.82674 42.58370
#
# Poissons Ratio (x) = 0.57096 0.66643
# Poissons Ratio (y) = 0.21913 -0.01438
# Poissons Ratio (z) = 0.34732 -0.01953
#
# Static dielectric constant tensor:
#      x y z
#    x 3.523640 0.086360 0.080630 
#    y 0.086360 3.730250 0.175390 
#    z 0.080630 0.175390 3.595520 
# 
# 
# High freq. dielectric constant tensor:
#      x y z
#    x 1.786670 0.002110 0.006470 
#    y 0.002110 1.797870 0.010650 
#    z 0.006470 0.010650 1.790490 
# 
# From -- ./inp_files/180292.got.cif
#   From: 2010.06.25/outbox.cif.g09.slc.cpg/sg2_91_cif.got.tgz:180292.got - 2010.06.27 13:26:56.
