data_PCOD8043595
_publ_section_title
;
Structure prediction by ZEFSAII (Michael W. Deem and Ramdas Pophale) SiO2 
 PCOD8043595
Probable space group: P -1
;
_chemical_formula_sum "Si O2"
_cell_formula_units_Z 16
_cell_length_a 22.880337
_cell_length_b 9.229024
_cell_length_c 14.554137
_cell_angle_alpha 80.539197
_cell_angle_beta 19.203214
_cell_angle_gamma 68.762191
_cell_volume 767.775299
_symmetry_space_group_name_H-M "P -1"
_symmetry_group_IT_number 2
_symmetry_cell_setting 'triclinic'
loop_
_space_group_symop_operation_xyz
x,y,z
-x,-y,-z
loop_
_atom_site_type_symbol
_atom_site_label
_atom_site_fract_x
_atom_site_fract_y
_atom_site_fract_z
Si Si1 0.797209 0.198001 0.824192
Si Si2 0.567620 0.016099 0.671006
Si Si3 0.956758 0.653780 0.614498
Si Si4 0.922308 0.385757 0.367248
Si Si5 0.959050 0.027912 0.349671
Si Si6 0.053623 0.314249 0.984026
Si Si7 0.143516 0.880829 0.711865
Si Si8 0.507744 0.224627 0.101335
O O1 0.840617 0.342648 0.717177
O O2 0.563298 0.262191 0.117209
O O3 0.000000 0.000000 0.500000
O O4 0.816699 0.159872 0.910601
O O5 0.619419 0.151829 0.621726
O O6 0.723133 0.889197 0.364775
O O7 0.622403 0.862483 0.681900
O O8 0.299097 0.143680 0.032665
O O9 0.000000 0.500000 0.500000
O O10 0.985389 0.578764 0.683788
O O11 0.928986 0.212480 0.403373
O O12 0.660591 0.572682 0.718978
O O13 0.087188 0.329971 0.040729
O O14 0.979856 0.998440 0.211792
O O15 0.727108 0.073912 0.727289
O O16 0.000000 0.500000 0.000000
O O17 0.838274 0.308212 0.296844
O O18 0.000000 0.000000 0.000000
#
# Coordination Sequence:
#
# PCOD8043595 Si02
#       8
#     2   2   2   2   2   2   2   2
#     4  10  19  40  59  89 133 162 207 255 318 381
#     4  11  22  42  62  92 134 168 206 260 327 364
#     4  12  26  40  58  94 138 166 204 268 319 379
#     4  11  22  38  64  98 121 163 223 261 309 382
#     4  10  19  36  65  90 126 170 206 253 323 371
#     4  10  21  43  68  92 118 166 219 270 303 377
#     4   9  22  38  62  93 129 163 212 259 308 379
#     4  11  20  34  67  95 124 161 210 262 314 374
#
# _framework density 20.839431999999999
#
# number of rings (size 3 to 8) (size 9 to 14) (size 15 to 20)
#    0.000    1.500    6.250    0.375    1.750    3.000 
#    0.000    1.250    0.000    0.750    0.000    0.000 
#    0.000    0.000    0.000    0.000    0.000    0.000 
#
# Total GULP energy -198212.437741 kJ/mol
# GULP energy per Si atom -12388.277359 kJ/mol
# Density = 2.079200 g / cm^3
# Si number density = 20.839432 Si / 1000 Ang^3
#
#
#
# Elastic Constant Matrix: (Units=GPa)
#
#
# Indices 1 2 3 4 5 6 
#
# 1 160.8049 55.7797 29.9442 -4.7584 12.5112 -13.2084
# 2 55.7797 117.5073 30.7420 -19.9500 -3.1526 -0.9304
# 3 29.9442 30.7420 48.8622 -6.5403 0.5680 1.7265
# 4 -4.7584 -19.9500 -6.5403 36.9982 -1.4410 -2.2462
# 5 12.5112 -3.1526 0.5680 -1.4410 32.9958 -0.4702
# 6 -13.2084 -0.9304 1.7265 -2.2462 -0.4702 34.6285
#
#
#
# Elastic Compliance Matrix: (Units=1/GPa)
#
#
# Indices 1 2 3 4 5 6 
#
# 1 0.008537 -0.003483 -0.003287 -0.001305 -0.003525 0.003194
# 2 -0.003483 0.012477 -0.005001 0.005485 0.002834 -0.000350
# 3 -0.003287 -0.005001 0.025890 0.001313 0.000343 -0.002589
# 4 -0.001305 0.005485 0.001313 0.030237 0.002339 0.001577
# 5 -0.003525 0.002834 0.000343 0.002339 0.032000 -0.000699
# 6 0.003194 -0.000350 -0.002589 0.001577 -0.000699 0.030309
#
#
# Mechanical properties :
#
#
# Convention : Reuss Voigt Hill
#
# Bulk Modulus (GPa) = 42.80744 62.23402 52.52073
# Shear Modulus (GPa) = 29.27758 34.97175 32.12466
#
# Velocity S-wave (km/s) = 3.75228 4.10097 3.93050
# Velocity P-wave (km/s) = 6.27367 7.23549 6.77168
#
# Compressibility (1/GPa) = 0.02336043
#
# Stress axis : x y z
#
# Youngs Moduli (GPa) = 117.13659 80.15066 38.62515
#
# Poissons Ratio (x) = 0.27920 0.12695
# Poissons Ratio (y) = 0.40803 0.19318
# Poissons Ratio (z) = 0.38499 0.40087
#
# Static dielectric constant tensor:
#      x y z
#    x 4.365390 0.081360 -0.314830 
#    y 0.081360 2.261290 0.367330 
#    z -0.314830 0.367330 3.555990 
# 
# 
# High freq. dielectric constant tensor:
#      x y z
#    x 1.819060 -0.004700 0.006780 
#    y -0.004700 1.820940 -0.019270 
#    z 0.006780 -0.019270 1.786310 
# 
# From -- ./inp_files/320331.got.cif
#   From: 2010.06.25/outbox.cif.g09.slc.cpg/sg2_161_cif.got.tgz:320331.got - 2010.06.27 13:26:56.
