data_PCOD8043865
_publ_section_title
;
Structure prediction by ZEFSAII (Michael W. Deem and Ramdas Pophale) SiO2 
 PCOD8043865
Probable space group: P -1
;
_chemical_formula_sum "Si O2"
_cell_formula_units_Z 16
_cell_length_a 9.235026
_cell_length_b 7.944797
_cell_length_c 15.805466
_cell_angle_alpha 100.321324
_cell_angle_beta 134.841295
_cell_angle_gamma 67.489413
_cell_volume 752.284212
_symmetry_space_group_name_H-M "P -1"
_symmetry_group_IT_number 2
_symmetry_cell_setting 'triclinic'
loop_
_space_group_symop_operation_xyz
x,y,z
-x,-y,-z
loop_
_atom_site_type_symbol
_atom_site_label
_atom_site_fract_x
_atom_site_fract_y
_atom_site_fract_z
Si Si1 0.013014 0.531802 0.607105
Si Si2 0.887106 0.145249 0.362282
Si Si3 0.367000 0.369792 0.419307
Si Si4 0.211217 0.181545 0.777597
Si Si5 0.645965 0.054356 0.398443
Si Si6 0.984859 0.442729 0.848978
Si Si7 0.089456 0.708198 0.027468
Si Si8 0.643635 0.037919 0.856542
O O1 0.766913 0.635780 0.551819
O O2 0.000000 0.500000 0.500000
O O3 0.152515 0.666579 0.689941
O O4 0.126955 0.340026 0.685669
O O5 0.698669 0.182364 0.359659
O O6 0.899442 0.971074 0.293989
O O7 0.124353 0.105419 0.499407
O O8 0.500000 0.500000 0.500000
O O9 0.539681 0.168366 0.448844
O O10 0.200647 0.435093 0.279059
O O11 0.153120 0.264766 0.854419
O O12 0.473207 0.080340 0.868155
O O13 0.480695 0.965586 0.282864
O O14 0.862219 0.384831 0.869319
O O15 0.123267 0.559234 0.953647
O O16 0.264346 0.800547 0.093435
O O17 0.837000 0.845058 0.934552
#
# Coordination Sequence:
#
# PCOD8043865 Si02
#       8
#     2   2   2   2   2   2   2   2
#     4  11  22  38  59  90 129 168 205 250 310 375
#     4  10  21  38  61  90 131 166 200 257 316 376
#     4  11  22  36  62  92 127 162 205 257 309 378
#     4  10  23  42  62  94 127 164 206 260 313 375
#     4  10  19  37  60  87 126 162 204 255 312 371
#     4  10  22  42  61  90 127 159 209 258 312 364
#     4  10  22  41  64  87 123 165 208 263 302 368
#     4  10  21  39  63  91 119 163 210 258 314 359
#
# _framework density 21.268557999999999
#
# number of rings (size 3 to 8) (size 9 to 14) (size 15 to 20)
#    0.000    1.750    1.250    4.500    0.000    5.500 
#    4.500    0.000    0.000    0.000    0.000    0.000 
#    0.000    0.000    0.000    0.000    0.000    0.000 
#
# Total GULP energy -198384.764077 kJ/mol
# GULP energy per Si atom -12399.047755 kJ/mol
# Density = 2.122015 g / cm^3
# Si number density = 21.268558 Si / 1000 Ang^3
#
#
#
# Elastic Constant Matrix: (Units=GPa)
#
#
# Indices 1 2 3 4 5 6 
#
# 1 101.1940 37.7270 40.5837 24.7708 -3.7377 -8.0394
# 2 37.7270 107.6040 27.7131 34.6473 -3.6706 7.0279
# 3 40.5837 27.7131 83.5575 24.0628 -2.5095 0.8114
# 4 24.7708 34.6473 24.0628 29.8186 -5.0209 -1.4031
# 5 -3.7377 -3.6706 -2.5095 -5.0209 36.0391 4.6642
# 6 -8.0394 7.0279 0.8114 -1.4031 4.6642 44.8473
#
#
#
# Elastic Compliance Matrix: (Units=1/GPa)
#
#
# Indices 1 2 3 4 5 6 
#
# 1 0.014071 -0.002241 -0.004607 -0.005266 -0.000187 0.002812
# 2 -0.002241 0.015597 0.000894 -0.017233 -0.000550 -0.003344
# 3 -0.004607 0.000894 0.017135 -0.011205 -0.000552 -0.001569
# 4 -0.005266 -0.017233 -0.011205 0.068144 0.005963 0.003471
# 5 -0.000187 -0.000550 -0.000552 0.005963 0.028820 -0.002748
# 6 0.002812 -0.003344 -0.001569 0.003471 -0.002748 0.023749
#
#
# Mechanical properties :
#
#
# Convention : Reuss Voigt Hill
#
# Bulk Modulus (GPa) = 28.65832 56.04479 42.35156
# Shear Modulus (GPa) = 26.17043 34.56312 30.36677
#
# Velocity S-wave (km/s) = 3.51162 4.03560 3.78269
# Velocity P-wave (km/s) = 5.47227 6.93707 6.24775
#
# Compressibility (1/GPa) = 0.03489388
#
# Stress axis : x y z
#
# Youngs Moduli (GPa) = 71.06912 64.11394 58.36140
#
# Poissons Ratio (x) = 0.14369 0.26889
# Poissons Ratio (y) = 0.15928 -0.05218
# Poissons Ratio (z) = 0.32743 -0.05732
#
# Static dielectric constant tensor:
#      x y z
#    x 4.036210 -0.111790 0.042210 
#    y -0.111790 4.032350 0.152960 
#    z 0.042210 0.152960 3.726550 
# 
# 
# High freq. dielectric constant tensor:
#      x y z
#    x 1.834900 -0.006970 0.005830 
#    y -0.006970 1.845020 0.016760 
#    z 0.005830 0.016760 1.818060 
# 
# From -- ./inp_files/495293.got.cif
#   From: 2010.06.25/outbox.cif.g09.slc.cpg/sg2_248_cif.got.tgz:495293.got - 2010.06.27 13:26:56.
