data_PCOD8043787
_publ_section_title
;
Structure prediction by ZEFSAII (Michael W. Deem and Ramdas Pophale) SiO2 
 PCOD8043787
Probable space group: P -1
;
_chemical_formula_sum "Si O2"
_cell_formula_units_Z 16
_cell_length_a 18.861786
_cell_length_b 9.588318
_cell_length_c 16.079506
_cell_angle_alpha 40.203594
_cell_angle_beta 33.802933
_cell_angle_gamma 64.617709
_cell_volume 855.445034
_symmetry_space_group_name_H-M "P -1"
_symmetry_group_IT_number 2
_symmetry_cell_setting 'triclinic'
loop_
_space_group_symop_operation_xyz
x,y,z
-x,-y,-z
loop_
_atom_site_type_symbol
_atom_site_label
_atom_site_fract_x
_atom_site_fract_y
_atom_site_fract_z
Si Si1 0.131334 0.143959 0.875513
Si Si2 0.123477 0.440325 0.888996
Si Si3 0.642712 0.994055 0.052266
Si Si4 0.498292 0.630076 0.812534
Si Si5 0.445682 0.828056 0.474418
Si Si6 0.701941 0.531022 0.762446
Si Si7 0.513012 0.517362 0.669013
Si Si8 0.059115 0.917290 0.220028
O O1 0.122988 0.373125 0.822351
O O2 0.300661 0.275494 0.610654
O O3 0.097178 0.930382 0.077766
O O4 0.000000 0.000000 0.000000
O O5 0.290134 0.694258 0.633709
O O6 0.000000 0.500000 0.000000
O O7 0.082475 0.190732 0.098673
O O8 0.579217 0.876030 0.259763
O O9 0.547083 0.766489 0.180891
O O10 0.622311 0.229280 0.947033
O O11 0.825241 0.111514 0.822803
O O12 0.653185 0.674155 0.681893
O O13 0.458346 0.467837 0.840352
O O14 0.524771 0.906252 0.638246
O O15 0.355134 0.464181 0.091364
O O16 0.432301 0.640406 0.645683
O O17 0.885631 0.674910 0.519982
#
# Coordination Sequence:
#
# PCOD8043787 Si02
#       8
#     2   2   2   2   2   2   2   2
#     4  10  21  34  57  88 118 144 182 245 295 331
#     4  10  20  33  58  84 116 149 184 229 295 345
#     4  11  20  37  64  84 112 156 195 238 279 344
#     4  10  24  37  60  82 118 156 192 237 282 342
#     4  11  19  39  60  89 114 151 189 237 296 349
#     4  10  22  41  57  80 115 162 202 218 283 350
#     4  12  20  39  61  90 117 142 196 247 289 335
#     4  10  19  37  59  83 114 151 194 233 281 347
#
# _framework density 18.703714000000002
#
# number of rings (size 3 to 8) (size 9 to 14) (size 15 to 20)
#    0.750    0.750    3.750    2.625    1.750    0.500 
#    0.000    0.625    0.000    0.000    0.000    0.000 
#    0.000    0.000    0.000    0.000    0.000    0.000 
#
# Total GULP energy -198368.406757 kJ/mol
# GULP energy per Si atom -12398.025422 kJ/mol
# Density = 1.866114 g / cm^3
# Si number density = 18.703714 Si / 1000 Ang^3
#
#
#
# Elastic Constant Matrix: (Units=GPa)
#
#
# Indices 1 2 3 4 5 6 
#
# 1 77.4187 46.1434 33.3829 10.5964 -12.3596 12.7067
# 2 46.1434 105.0278 29.3390 7.2808 1.1145 7.7989
# 3 33.3829 29.3390 90.2917 11.3701 -15.2398 7.9911
# 4 10.5964 7.2808 11.3701 23.4782 -6.6644 -2.8775
# 5 -12.3596 1.1145 -15.2398 -6.6644 32.4777 0.6315
# 6 12.7067 7.7989 7.9911 -2.8775 0.6315 31.8542
#
#
#
# Elastic Compliance Matrix: (Units=1/GPa)
#
#
# Indices 1 2 3 4 5 6 
#
# 1 0.021725 -0.007886 -0.003250 -0.004835 0.006147 -0.006479
# 2 -0.007886 0.013700 -0.002253 -0.000892 -0.004718 0.000370
# 3 -0.003250 -0.002253 0.014507 -0.003735 0.004925 -0.002226
# 4 -0.004835 -0.000892 -0.003735 0.049610 0.006473 0.007437
# 5 0.006147 -0.004718 0.004925 0.006473 0.036983 -0.002681
# 6 -0.006479 0.000370 -0.002226 0.007437 -0.002681 0.035170
#
#
# Mechanical properties :
#
#
# Convention : Reuss Voigt Hill
#
# Bulk Modulus (GPa) = 43.18756 54.49654 48.84205
# Shear Modulus (GPa) = 24.24950 28.48687 26.36819
#
# Velocity S-wave (km/s) = 3.60461 3.90687 3.75878
# Velocity P-wave (km/s) = 6.36119 7.03929 6.70881
#
# Compressibility (1/GPa) = 0.02315482
#
# Stress axis : x y z
#
# Youngs Moduli (GPa) = 46.03058 72.99475 68.93009
#
# Poissons Ratio (x) = 0.57562 0.22403
# Poissons Ratio (y) = 0.36298 0.15528
# Poissons Ratio (z) = 0.14960 0.16443
#
# Static dielectric constant tensor:
#      x y z
#    x 3.315980 -0.150090 -0.320640 
#    y -0.150090 3.539980 0.261890 
#    z -0.320640 0.261890 3.955690 
# 
# 
# High freq. dielectric constant tensor:
#      x y z
#    x 1.710140 -0.008070 -0.009980 
#    y -0.008070 1.730130 0.003260 
#    z -0.009980 0.003260 1.721680 
# 
# From -- ./inp_files/576979.got.cif
#   From: 2010.06.25/outbox.cif.g09.slc.cpg/sg2_289_cif.got.tgz:576979.got - 2010.06.27 13:26:56.
