data_PCOD8043131
_publ_section_title
;
Structure prediction by ZEFSAII (Michael W. Deem and Ramdas Pophale) SiO2 
 PCOD8043131
Probable space group: P -1
;
_chemical_formula_sum "Si O2"
_cell_formula_units_Z 14
_cell_length_a 9.382921
_cell_length_b 11.335330
_cell_length_c 12.578048
_cell_angle_alpha 143.054798
_cell_angle_beta 50.215912
_cell_angle_gamma 119.857416
_cell_volume 617.634078
_symmetry_space_group_name_H-M "P -1"
_symmetry_group_IT_number 2
_symmetry_cell_setting 'triclinic'
loop_
_space_group_symop_operation_xyz
x,y,z
-x,-y,-z
loop_
_atom_site_type_symbol
_atom_site_label
_atom_site_fract_x
_atom_site_fract_y
_atom_site_fract_z
Si Si1 0.718516 0.692870 0.809982
Si Si2 0.680131 0.180959 0.936802
Si Si3 0.247013 0.494146 0.696218
Si Si4 0.026445 0.094640 0.309073
Si Si5 0.922741 0.210890 0.654713
Si Si6 0.361213 0.656799 0.542629
Si Si7 0.167702 0.059031 0.890725
O O1 0.903224 0.750251 0.699239
O O2 0.670587 0.469864 0.642119
O O3 0.542183 0.836200 0.964940
O O4 0.754637 0.736234 0.950555
O O5 0.738327 0.257932 0.846604
O O6 0.789726 0.978041 0.766409
O O7 0.748597 0.323077 0.097289
O O8 0.068049 0.377162 0.729353
O O9 0.233259 0.570886 0.635989
O O10 0.427783 0.353494 0.525318
O O11 0.887420 0.202344 0.537690
O O12 0.909560 0.925108 0.182286
O O13 0.000000 0.000000 0.500000
O O14 0.322217 0.883486 0.697354
O O15 0.000000 0.000000 0.000000
#
# Coordination Sequence:
#
# PCOD8043131 Si02
#       7
#     2   2   2   2   2   2   2
#     4  10  20  37  60  84 116 150 194 239 283 335
#     4  10  21  35  61  84 112 152 196 237 283 339
#     4  10  19  36  58  89 114 146 196 241 286 333
#     4  10  20  37  55  88 115 151 192 234 293 339
#     4  10  21  35  57  84 118 151 189 237 288 338
#     4  10  21  35  61  91 115 148 193 244 287 336
#     4  10  22  36  56  88 122 150 187 239 294 340
#
# _framework density 22.667141999999998
#
# number of rings (size 3 to 8) (size 9 to 14) (size 15 to 20)
#    0.000    2.000    1.429    2.571    4.000    2.286 
#    2.571    0.714    0.000    1.714    0.000    0.000 
#    0.000    0.000    0.000    0.000    0.000    0.000 
#
# Total GULP energy -173458.421263 kJ/mol
# GULP energy per Si atom -12389.887233 kJ/mol
# Density = 2.261555 g / cm^3
# Si number density = 22.667142 Si / 1000 Ang^3
#
#
#
# Elastic Constant Matrix: (Units=GPa)
#
#
# Indices 1 2 3 4 5 6 
#
# 1 71.1456 4.3097 29.7634 -12.2113 36.4222 -0.9997
# 2 4.3097 37.0380 0.9106 -11.2417 0.2345 8.1867
# 3 29.7634 0.9106 92.0439 -12.9657 22.6523 1.4908
# 4 -12.2113 -11.2417 -12.9657 22.7008 2.2182 2.6139
# 5 36.4222 0.2345 22.6523 2.2182 43.7269 10.0799
# 6 -0.9997 8.1867 1.4908 2.6139 10.0799 16.2647
#
#
#
# Elastic Compliance Matrix: (Units=1/GPa)
#
#
# Indices 1 2 3 4 5 6 
#
# 1 0.036994 -0.003783 -0.000605 0.018511 -0.036994 0.024185
# 2 -0.003783 0.040391 0.002667 0.022110 0.007054 -0.028732
# 3 -0.000605 0.002667 0.014251 0.009824 -0.007477 0.000369
# 4 0.018511 0.022110 0.009824 0.073776 -0.022313 -0.008920
# 5 -0.036994 0.007054 -0.007477 -0.022313 0.068844 -0.044219
# 6 0.024185 -0.028732 0.000369 -0.008920 -0.044219 0.106235
#
#
# Mechanical properties :
#
#
# Convention : Reuss Voigt Hill
#
# Bulk Modulus (GPa) = 11.33836 30.02165 20.68000
# Shear Modulus (GPa) = 13.39298 27.55474 20.47386
#
# Velocity S-wave (km/s) = 2.43339 3.49036 3.00865
# Velocity P-wave (km/s) = 3.59279 5.43294 4.60570
#
# Compressibility (1/GPa) = 0.08819619
#
# Stress axis : x y z
#
# Youngs Moduli (GPa) = 27.03164 24.75806 70.16866
#
# Poissons Ratio (x) = 0.09365 0.04242
# Poissons Ratio (y) = 0.10225 -0.18717
# Poissons Ratio (z) = 0.01634 -0.06604
#
# Static dielectric constant tensor:
#      x y z
#    x 4.718020 -0.122450 0.402180 
#    y -0.122450 3.764110 -0.389820 
#    z 0.402180 -0.389820 4.811300 
# 
# 
# High freq. dielectric constant tensor:
#      x y z
#    x 1.890260 0.006020 0.020300 
#    y 0.006020 1.837690 -0.006820 
#    z 0.020300 -0.006820 1.915230 
# 
# From -- ./inp_files/158847.got.cif
#   From: 2010.06.25/outbox.cif.g09.slc.cpg/sg2_80_cif.got.tgz:158847.got - 2010.06.27 13:26:56.
