data_PCOD8043234
_publ_section_title
;
Structure prediction by ZEFSAII (Michael W. Deem and Ramdas Pophale) SiO2 
 PCOD8043234
Probable space group: P -1
;
_chemical_formula_sum "Si O2"
_cell_formula_units_Z 16
_cell_length_a 10.374441
_cell_length_b 15.806998
_cell_length_c 11.690792
_cell_angle_alpha 139.787203
_cell_angle_beta 56.935857
_cell_angle_gamma 143.784209
_cell_volume 718.699196
_symmetry_space_group_name_H-M "P -1"
_symmetry_group_IT_number 2
_symmetry_cell_setting 'triclinic'
loop_
_space_group_symop_operation_xyz
x,y,z
-x,-y,-z
loop_
_atom_site_type_symbol
_atom_site_label
_atom_site_fract_x
_atom_site_fract_y
_atom_site_fract_z
Si Si1 0.743449 0.809969 0.816573
Si Si2 0.865420 0.026942 0.349667
Si Si3 0.400149 0.726638 0.751568
Si Si4 0.546457 0.628051 0.210214
Si Si5 0.190252 0.429729 0.355907
Si Si6 0.941271 0.812622 0.351780
Si Si7 0.312341 0.895246 0.127590
Si Si8 0.273986 0.943163 0.774842
O O1 0.521818 0.684817 0.717870
O O2 0.737944 0.666903 0.731522
O O3 0.967069 0.964303 0.791956
O O4 0.747206 0.924144 0.028108
O O5 0.674925 0.830440 0.304642
O O6 0.017073 0.198018 0.546331
O O7 0.750754 0.061233 0.355326
O O8 0.243758 0.574170 0.571829
O O9 0.600801 0.937395 0.823569
O O10 0.259605 0.731740 0.911618
O O11 0.319248 0.537877 0.286546
O O12 0.687763 0.641583 0.255881
O O13 0.500000 0.500000 0.000000
O O14 0.925088 0.269200 0.296760
O O15 0.084480 0.801997 0.195646
O O16 0.000000 0.000000 0.500000
O O17 0.493493 0.979744 0.226483
#
# Coordination Sequence:
#
# PCOD8043234 Si02
#       8
#     2   2   2   2   2   2   2   2
#     4  10  19  37  62  88 120 159 205 246 295 357
#     4  10  19  36  60  85 117 161 202 236 290 361
#     4  10  20  35  59  86 120 160 199 253 302 352
#     4  11  21  34  60  93 123 150 192 254 303 346
#     4  11  21  36  61  94 121 151 202 256 300 349
#     4  10  21  38  60  83 112 155 202 240 292 363
#     4  10  22  40  59  86 124 165 203 242 302 366
#     4  10  22  38  61  90 124 162 200 247 298 354
#
# _framework density 22.262443000000001
#
# number of rings (size 3 to 8) (size 9 to 14) (size 15 to 20)
#    0.000    1.750    0.000    7.125    0.000    4.000 
#    0.000    2.500    0.000   17.250    0.000    0.000 
#    0.000    0.000    0.000    0.000    0.000    0.000 
#
# Total GULP energy -198387.021567 kJ/mol
# GULP energy per Si atom -12399.188848 kJ/mol
# Density = 2.221177 g / cm^3
# Si number density = 22.262443 Si / 1000 Ang^3
#
#
#
# Elastic Constant Matrix: (Units=GPa)
#
#
# Indices 1 2 3 4 5 6 
#
# 1 53.4619 14.5173 23.8172 -10.1124 9.4100 1.3178
# 2 14.5173 92.3304 18.7955 -9.0770 1.2031 -1.5332
# 3 23.8172 18.7955 98.9607 2.0926 23.2449 7.2135
# 4 -10.1124 -9.0770 2.0926 31.0794 -1.1293 5.6057
# 5 9.4100 1.2031 23.2449 -1.1293 38.2897 -3.3371
# 6 1.3178 -1.5332 7.2135 5.6057 -3.3371 24.3763
#
#
#
# Elastic Compliance Matrix: (Units=1/GPa)
#
#
# Indices 1 2 3 4 5 6 
#
# 1 0.023263 -0.001984 -0.004553 0.007584 -0.002856 -0.002170
# 2 -0.001984 0.011892 -0.002324 0.002844 0.001706 0.001123
# 3 -0.004553 -0.002324 0.013820 -0.002567 -0.007661 -0.004448
# 4 0.007584 0.002844 -0.002567 0.037090 0.000002 -0.008001
# 5 -0.002856 0.001706 -0.007661 0.000002 0.032018 0.006912
# 6 -0.002170 0.001123 -0.004448 -0.008001 0.006912 0.045314
#
#
# Mechanical properties :
#
#
# Convention : Reuss Voigt Hill
#
# Bulk Modulus (GPa) = 31.99737 39.89032 35.94384
# Shear Modulus (GPa) = 26.10468 31.25728 28.68098
#
# Velocity S-wave (km/s) = 3.42802 3.75111 3.59320
# Velocity P-wave (km/s) = 5.48384 6.05956 5.77887
#
# Compressibility (1/GPa) = 0.03125257
#
# Stress axis : x y z
#
# Youngs Moduli (GPa) = 42.98703 84.09278 72.35702
#
# Poissons Ratio (x) = 0.16684 0.32946
# Poissons Ratio (y) = 0.08529 0.16815
# Poissons Ratio (z) = 0.19573 0.19542
#
# Static dielectric constant tensor:
#      x y z
#    x 4.075640 -0.125130 0.241450 
#    y -0.125130 3.621060 -0.203430 
#    z 0.241450 -0.203430 4.124810 
# 
# 
# High freq. dielectric constant tensor:
#      x y z
#    x 1.877890 0.004650 0.017440 
#    y 0.004650 1.857060 -0.007500 
#    z 0.017440 -0.007500 1.881560 
# 
# From -- ./inp_files/436951.got.cif
#   From: 2010.06.25/outbox.cif.g09.slc.cpg/sg2_219_cif.got.tgz:436951.got - 2010.06.27 13:26:56.
