data_PCOD8043379
_publ_section_title
;
Structure prediction by ZEFSAII (Michael W. Deem and Ramdas Pophale) SiO2 
 PCOD8043379
Probable space group: P -1
;
_chemical_formula_sum "Si O2"
_cell_formula_units_Z 16
_cell_length_a 19.893720
_cell_length_b 5.158051
_cell_length_c 25.024669
_cell_angle_alpha 67.859680
_cell_angle_beta 158.321249
_cell_angle_gamma 122.383623
_cell_volume 738.522235
_symmetry_space_group_name_H-M "P -1"
_symmetry_group_IT_number 2
_symmetry_cell_setting 'triclinic'
loop_
_space_group_symop_operation_xyz
x,y,z
-x,-y,-z
loop_
_atom_site_type_symbol
_atom_site_label
_atom_site_fract_x
_atom_site_fract_y
_atom_site_fract_z
Si Si1 0.720786 0.522294 0.601955
Si Si2 0.016919 0.420325 0.580406
Si Si3 0.164131 0.206379 0.556621
Si Si4 0.523611 0.200815 0.054842
Si Si5 0.791355 0.142374 0.057359
Si Si6 0.146483 0.887120 0.089647
Si Si7 0.661433 0.640237 0.905474
Si Si8 0.477168 0.859598 0.410223
O O1 0.597522 0.706589 0.479669
O O2 0.681560 0.420507 0.643061
O O3 0.973834 0.782462 0.761798
O O4 0.653821 0.201661 0.542233
O O5 0.855120 0.476848 0.492068
O O6 0.000000 0.500000 0.500000
O O7 0.253169 0.657826 0.760126
O O8 0.923844 0.026687 0.543385
O O9 0.412079 0.333842 0.740695
O O10 0.000000 0.000000 0.500000
O O11 0.500000 0.500000 0.000000
O O12 0.500000 0.000000 0.000000
O O13 0.334883 0.947617 0.973726
O O14 0.802154 0.472471 0.019039
O O15 0.680224 0.832450 0.958774
O O16 0.342704 0.951234 0.266187
O O17 0.255159 0.092796 0.100540
O O18 0.000000 0.500000 0.000000
O O19 0.000000 0.000000 0.000000
#
# Coordination Sequence:
#
# PCOD8043379 Si02
#       8
#     2   2   2   2   2   2   2   2
#     4  10  21  39  66  88 127 180 217 266 327 405
#     4  10  20  39  66  91 125 176 221 270 343 410
#     4  10  19  36  61  95 126 168 222 278 328 395
#     4  12  26  46  68 101 140 184 232 297 356 412
#     4  12  24  44  69  97 136 176 242 272 341 425
#     4  12  25  43  67 101 143 174 221 290 355 396
#     4  12  24  41  70 104 132 182 233 285 343 421
#     4  10  21  40  62  95 130 168 220 267 335 404
#
# _framework density 21.664884000000001
#
# number of rings (size 3 to 8) (size 9 to 14) (size 15 to 20)
#    0.000    1.000    0.000    9.000    0.000    2.000 
#    6.750    0.000    0.000    0.000    0.000    0.000 
#    0.000    0.000    0.000    0.000    0.000    0.000 
#
# Total GULP energy -198373.151191 kJ/mol
# GULP energy per Si atom -12398.321949 kJ/mol
# Density = 2.161557 g / cm^3
# Si number density = 21.664884 Si / 1000 Ang^3
#
#
#
# Elastic Constant Matrix: (Units=GPa)
#
#
# Indices 1 2 3 4 5 6 
#
# 1 102.7603 47.7339 58.3970 9.7384 0.6456 -26.6187
# 2 47.7339 112.1225 42.7992 -1.9990 -0.3539 -32.4173
# 3 58.3970 42.7992 146.0437 3.9821 6.2041 -3.8906
# 4 9.7384 -1.9990 3.9821 45.5224 -6.8390 0.0998
# 5 0.6456 -0.3539 6.2041 -6.8390 33.5236 -2.0913
# 6 -26.6187 -32.4173 -3.8906 0.0998 -2.0913 49.9804
#
#
#
# Elastic Compliance Matrix: (Units=1/GPa)
#
#
# Indices 1 2 3 4 5 6 
#
# 1 0.016051 -0.003091 -0.005281 -0.003062 0.000395 0.006155
# 2 -0.003091 0.013205 -0.002560 0.001666 0.001435 0.006776
# 3 -0.005281 -0.002560 0.009695 -0.000120 -0.001981 -0.003801
# 4 -0.003062 0.001666 -0.000120 0.023436 0.004855 -0.000403
# 5 0.000395 0.001435 -0.001981 0.004855 0.031337 0.002289
# 6 0.006155 0.006776 -0.003801 -0.000403 0.002289 0.027482
#
#
# Mechanical properties :
#
#
# Convention : Reuss Voigt Hill
#
# Bulk Modulus (GPa) = 58.52478 73.19852 65.86165
# Shear Modulus (GPa) = 33.60978 39.93837 36.77408
#
# Velocity S-wave (km/s) = 3.94299 4.29821 4.12443
# Velocity P-wave (km/s) = 6.91389 7.64807 7.29022
#
# Compressibility (1/GPa) = 0.01708678
#
# Stress axis : x y z
#
# Youngs Moduli (GPa) = 62.30300 75.72750 103.14092
#
# Poissons Ratio (x) = 0.23407 0.54474
# Poissons Ratio (y) = 0.19258 0.26402
# Poissons Ratio (z) = 0.32905 0.19385
#
# Static dielectric constant tensor:
#      x y z
#    x 3.118070 0.310630 0.600270 
#    y 0.310630 3.488670 -0.379090 
#    z 0.600270 -0.379090 3.508200 
# 
# 
# High freq. dielectric constant tensor:
#      x y z
#    x 1.847190 -0.029400 0.007740 
#    y -0.029400 1.865410 0.002670 
#    z 0.007740 0.002670 1.860510 
# 
# From -- ./inp_files/613422.got.cif
#   From: 2010.06.25/outbox.cif.g09.slc.cpg/sg2_307_cif.got.tgz:613422.got - 2010.06.27 13:26:56.
