data_PCOD8043221
_publ_section_title
;
Structure prediction by ZEFSAII (Michael W. Deem and Ramdas Pophale) SiO2 
 PCOD8043221
Probable space group: P -1
;
_chemical_formula_sum "Si O2"
_cell_formula_units_Z 16
_cell_length_a 13.845175
_cell_length_b 10.135898
_cell_length_c 11.373248
_cell_angle_alpha 69.433422
_cell_angle_beta 149.342865
_cell_angle_gamma 108.933365
_cell_volume 761.123711
_symmetry_space_group_name_H-M "P -1"
_symmetry_group_IT_number 2
_symmetry_cell_setting 'triclinic'
loop_
_space_group_symop_operation_xyz
x,y,z
-x,-y,-z
loop_
_atom_site_type_symbol
_atom_site_label
_atom_site_fract_x
_atom_site_fract_y
_atom_site_fract_z
Si Si1 0.627130 0.737392 0.581219
Si Si2 0.121733 0.654775 0.324467
Si Si3 0.667355 0.081747 0.888573
Si Si4 0.443085 0.785874 0.774661
Si Si5 0.617674 0.595245 0.384952
Si Si6 0.305682 0.389113 0.059813
Si Si7 0.989304 0.122722 0.043175
Si Si8 0.453221 0.838211 0.027189
O O1 0.434076 0.814775 0.338605
O O2 0.632136 0.604103 0.539121
O O3 0.632737 0.699953 0.735081
O O4 0.803922 0.842054 0.699382
O O5 0.249076 0.759272 0.507451
O O6 0.223783 0.508599 0.458528
O O7 0.088330 0.735241 0.141798
O O8 0.921051 0.611623 0.190239
O O9 0.537570 0.939620 0.803777
O O10 0.869295 0.061180 0.047133
O O11 0.698310 0.156647 0.025392
O O12 0.602443 0.676909 0.939479
O O13 0.384162 0.764251 0.856653
O O14 0.404484 0.543250 0.136582
O O15 0.633504 0.752302 0.293268
O O16 0.000000 0.000000 0.000000
O O17 0.500000 0.000000 0.000000
#
# Coordination Sequence:
#
# PCOD8043221 Si02
#       8
#     2   2   2   2   2   2   2   2
#     4  10  21  35  56  87 118 147 183 229 282 340
#     4  10  22  36  57  88 118 148 184 232 283 336
#     4  10  19  36  60  82 113 153 186 229 284 330
#     4  10  20  38  57  80 114 150 193 235 276 328
#     4  10  21  38  59  81 113 150 190 231 280 337
#     4  10  21  35  56  85 115 148 183 228 283 338
#     4  11  22  35  57  91 121 147 184 227 278 343
#     4   9  21  40  61  81 107 148 194 238 279 327
#
# _framework density 21.021550000000001
#
# number of rings (size 3 to 8) (size 9 to 14) (size 15 to 20)
#    0.000    2.000    0.000    4.125    0.000    8.500 
#    0.000    5.000    0.000   13.500    0.000    0.000 
#    0.000    0.000    0.000    0.000    0.000    0.000 
#
# Total GULP energy -198265.957393 kJ/mol
# GULP energy per Si atom -12391.622337 kJ/mol
# Density = 2.097370 g / cm^3
# Si number density = 21.021550 Si / 1000 Ang^3
#
#
#
# Elastic Constant Matrix: (Units=GPa)
#
#
# Indices 1 2 3 4 5 6 
#
# 1 135.1228 38.7662 37.6413 11.7911 1.3291 -18.6185
# 2 38.7662 90.5590 20.7032 -1.7522 4.1726 -15.5386
# 3 37.6413 20.7032 41.9859 9.5631 8.1830 2.5450
# 4 11.7911 -1.7522 9.5631 34.6687 2.6815 -7.7587
# 5 1.3291 4.1726 8.1830 2.6815 32.6181 4.7939
# 6 -18.6185 -15.5386 2.5450 -7.7587 4.7939 32.2873
#
#
#
# Elastic Compliance Matrix: (Units=1/GPa)
#
#
# Indices 1 2 3 4 5 6 
#
# 1 0.011606 -0.001516 -0.010368 0.000218 0.001329 0.006635
# 2 -0.001516 0.015035 -0.007464 0.005364 -0.001678 0.008488
# 3 -0.010368 -0.007464 0.041358 -0.011069 -0.005941 -0.014609
# 4 0.000218 0.005364 -0.011069 0.035072 -0.002623 0.012397
# 5 0.001329 -0.001678 -0.005941 -0.002623 0.033281 -0.005144
# 6 0.006635 0.008488 -0.014609 0.012397 -0.005144 0.043777
#
#
# Mechanical properties :
#
#
# Convention : Reuss Voigt Hill
#
# Bulk Modulus (GPa) = 34.12666 51.32102 42.72384
# Shear Modulus (GPa) = 21.87284 31.28529 26.57907
#
# Velocity S-wave (km/s) = 3.22917 3.86197 3.55966
# Velocity P-wave (km/s) = 5.49297 6.65980 6.10433
#
# Compressibility (1/GPa) = 0.02930260
#
# Stress axis : x y z
#
# Youngs Moduli (GPa) = 86.16045 66.50944 24.17916
#
# Poissons Ratio (x) = 0.10086 0.25070
# Poissons Ratio (y) = 0.13066 0.18046
# Poissons Ratio (z) = 0.89335 0.49640
#
# Static dielectric constant tensor:
#      x y z
#    x 4.142930 -0.116850 -0.128560 
#    y -0.116850 3.982530 0.134120 
#    z -0.128560 0.134120 3.757110 
# 
# 
# High freq. dielectric constant tensor:
#      x y z
#    x 1.824600 -0.012700 -0.005710 
#    y -0.012700 1.833880 0.001070 
#    z -0.005710 0.001070 1.803710 
# 
# From -- ./inp_files/428126.got.cif
#   From: 2010.06.25/outbox.cif.g09.slc.cpg/sg2_215_cif.got.tgz:428126.got - 2010.06.27 13:26:56.
