data_PCOD8043134
_publ_section_title
;
Structure prediction by ZEFSAII (Michael W. Deem and Ramdas Pophale) SiO2 
 PCOD8043134
Probable space group: P -1
;
_chemical_formula_sum "Si O2"
_cell_formula_units_Z 14
_cell_length_a 11.198888
_cell_length_b 12.278358
_cell_length_c 10.308367
_cell_angle_alpha 48.920773
_cell_angle_beta 137.190286
_cell_angle_gamma 126.456950
_cell_volume 708.477314
_symmetry_space_group_name_H-M "P -1"
_symmetry_group_IT_number 2
_symmetry_cell_setting 'triclinic'
loop_
_space_group_symop_operation_xyz
x,y,z
-x,-y,-z
loop_
_atom_site_type_symbol
_atom_site_label
_atom_site_fract_x
_atom_site_fract_y
_atom_site_fract_z
Si Si1 0.211331 0.206883 0.240104
Si Si2 0.001777 0.170212 0.861213
Si Si3 0.798063 0.323054 0.226244
Si Si4 0.472508 0.479040 0.147700
Si Si5 0.838146 0.662694 0.383141
Si Si6 0.319231 0.915017 0.484393
Si Si7 0.051483 0.175434 0.409101
O O1 0.403636 0.308503 0.269721
O O2 0.157684 0.245046 0.311442
O O3 0.218837 0.034425 0.374622
O O4 0.060279 0.241488 0.992434
O O5 0.801489 0.180919 0.649998
O O6 0.146870 0.247214 0.809576
O O7 0.000000 0.000000 0.000000
O O8 0.658603 0.200910 0.295782
O O9 0.977172 0.398239 0.396697
O O10 0.869499 0.240422 0.226072
O O11 0.685279 0.439199 0.996110
O O12 0.658445 0.534726 0.330260
O O13 0.500000 0.500000 0.000000
O O14 0.821414 0.772359 0.404599
O O15 0.500000 0.000000 0.500000
O O16 0.000000 0.000000 0.500000
#
# Coordination Sequence:
#
# PCOD8043134 Si02
#       7
#     2   2   2   2   2   2   2
#     4  11  21  36  64  86 118 165 198 243 310 354
#     4   9  17  34  56  86 111 156 202 247 295 343
#     4   9  22  40  62  86 125 159 199 248 308 351
#     4  12  23  39  62  93 127 157 203 253 299 365
#     4   9  21  40  60  85 128 161 194 251 308 350
#     4  10  19  36  58  89 120 150 207 259 295 347
#     4  10  19  43  64  83 123 166 198 249 305 360
#
# _framework density 19.760688999999999
#
# number of rings (size 3 to 8) (size 9 to 14) (size 15 to 20)
#    0.857    1.143    2.857    1.714    2.000    1.714 
#    2.571    2.143    0.000    0.000    0.000    0.000 
#    0.000    0.000    0.000    0.000    0.000    0.000 
#
# Total GULP energy -173454.214425 kJ/mol
# GULP energy per Si atom -12389.586745 kJ/mol
# Density = 1.971571 g / cm^3
# Si number density = 19.760689 Si / 1000 Ang^3
#
#
#
# Elastic Constant Matrix: (Units=GPa)
#
#
# Indices 1 2 3 4 5 6 
#
# 1 82.9552 11.8639 15.6937 15.7290 -15.8247 7.3687
# 2 11.8639 101.3868 19.1671 22.4866 -7.4976 15.1130
# 3 15.6937 19.1671 48.7401 7.2258 -5.2337 2.0406
# 4 15.7290 22.4866 7.2258 29.0295 -0.7417 0.2219
# 5 -15.8247 -7.4976 -5.2337 -0.7417 38.5619 -1.6647
# 6 7.3687 15.1130 2.0406 0.2219 -1.6647 31.8213
#
#
#
# Elastic Compliance Matrix: (Units=1/GPa)
#
#
# Indices 1 2 3 4 5 6 
#
# 1 0.015628 0.001829 -0.003647 -0.008796 0.005937 -0.003882
# 2 0.001829 0.013926 -0.003944 -0.010684 0.002433 -0.006583
# 3 -0.003647 -0.003944 0.023407 -0.000780 0.000953 0.001272
# 4 -0.008796 -0.010684 -0.000780 0.047515 -0.004594 0.006589
# 5 0.005937 0.002433 0.000953 -0.004594 0.028838 -0.001051
# 6 -0.003882 -0.006583 0.001272 0.006589 -0.001051 0.035268
#
#
# Mechanical properties :
#
#
# Convention : Reuss Voigt Hill
#
# Bulk Modulus (GPa) = 24.13376 36.28130 30.20753
# Shear Modulus (GPa) = 26.32693 32.30637 29.31665
#
# Velocity S-wave (km/s) = 3.65401 4.04775 3.85591
# Velocity P-wave (km/s) = 5.48105 6.34397 5.92823
#
# Compressibility (1/GPa) = 0.04143572
#
# Stress axis : x y z
#
# Youngs Moduli (GPa) = 63.98669 71.81038 42.72170
#
# Poissons Ratio (x) = -0.13136 0.15583
# Poissons Ratio (y) = -0.11705 0.16852
# Poissons Ratio (z) = 0.23339 0.28326
#
# Static dielectric constant tensor:
#      x y z
#    x 3.529450 -0.050540 -0.141480 
#    y -0.050540 3.804320 0.224770 
#    z -0.141480 0.224770 3.878110 
# 
# 
# High freq. dielectric constant tensor:
#      x y z
#    x 1.755150 0.009060 -0.007970 
#    y 0.009060 1.778170 -0.004470 
#    z -0.007970 -0.004470 1.750020 
# 
# From -- ./inp_files/204380.got.cif
#   From: 2010.06.25/outbox.cif.g09.slc.cpg/sg2_103_cif.got.tgz:204380.got - 2010.06.27 13:26:56.
