data_PCOD8043786
_publ_section_title
;
Structure prediction by ZEFSAII (Michael W. Deem and Ramdas Pophale) SiO2 
 PCOD8043786
Probable space group: P -1
;
_chemical_formula_sum "Si O2"
_cell_formula_units_Z 16
_cell_length_a 13.956571
_cell_length_b 17.329409
_cell_length_c 10.005713
_cell_angle_alpha 137.712735
_cell_angle_beta 30.367834
_cell_angle_gamma 127.252510
_cell_volume 819.301585
_symmetry_space_group_name_H-M "P -1"
_symmetry_group_IT_number 2
_symmetry_cell_setting 'triclinic'
loop_
_space_group_symop_operation_xyz
x,y,z
-x,-y,-z
loop_
_atom_site_type_symbol
_atom_site_label
_atom_site_fract_x
_atom_site_fract_y
_atom_site_fract_z
Si Si1 0.772073 0.212426 0.492645
Si Si2 0.055801 0.092710 0.446647
Si Si3 0.656928 0.733350 0.966414
Si Si4 0.308156 0.281122 0.409208
Si Si5 0.278476 0.762726 0.104939
Si Si6 0.848695 0.475454 0.040186
Si Si7 0.976058 0.599222 0.548904
Si Si8 0.722095 0.974727 0.163458
O O1 0.764021 0.230257 0.680475
O O2 0.925560 0.295849 0.364433
O O3 0.836488 0.076877 0.214932
O O4 0.568787 0.247413 0.708837
O O5 0.140505 0.203291 0.554349
O O6 0.857473 0.137786 0.673837
O O7 0.220340 0.034744 0.074927
O O8 0.000000 0.000000 0.500000
O O9 0.691744 0.699845 0.726758
O O10 0.754374 0.638008 0.828967
O O11 0.771012 0.847060 0.002744
O O12 0.289899 0.407513 0.659226
O O13 0.501783 0.214874 0.150177
O O14 0.251847 0.633254 0.921787
O O15 0.929347 0.445515 0.759264
O O16 0.000000 0.500000 0.000000
O O17 0.000000 0.500000 0.500000
O O18 0.500000 0.000000 0.500000
#
# Coordination Sequence:
#
# PCOD8043786 Si02
#       8
#     2   2   2   2   2   2   2   2
#     4   9  19  36  57  81 106 145 193 233 280 338
#     4  11  23  37  55  87 124 154 187 243 300 343
#     4   9  18  35  58  79 108 143 187 241 278 332
#     4  10  19  37  59  83 111 148 200 242 281 347
#     4  10  21  36  60  86 110 150 200 242 286 345
#     4  11  18  37  63  81 106 153 202 237 284 350
#     4  11  23  35  51  84 117 144 183 235 291 339
#     4   9  18  37  63  84 105 151 201 233 283 350
#
# _framework density 19.528829000000002
#
# number of rings (size 3 to 8) (size 9 to 14) (size 15 to 20)
#    0.000    2.000    2.500    3.375    0.000    4.000 
#    0.000    2.500    0.000    0.000    0.000    0.000 
#    0.000    0.000    0.000    0.000    0.000    0.000 
#
# Total GULP energy -198218.569652 kJ/mol
# GULP energy per Si atom -12388.660603 kJ/mol
# Density = 1.948438 g / cm^3
# Si number density = 19.528829 Si / 1000 Ang^3
#
#
#
# Elastic Constant Matrix: (Units=GPa)
#
#
# Indices 1 2 3 4 5 6 
#
# 1 93.7887 53.2170 37.3276 11.6979 -19.8152 9.2789
# 2 53.2170 93.5065 31.9650 11.2405 -13.8522 0.8776
# 3 37.3276 31.9650 88.3189 14.8462 -10.0935 -2.8629
# 4 11.6979 11.2405 14.8462 27.6357 4.7049 4.6055
# 5 -19.8152 -13.8522 -10.0935 4.7049 37.6998 13.4176
# 6 9.2789 0.8776 -2.8629 4.6055 13.4176 29.5768
#
#
#
# Elastic Compliance Matrix: (Units=1/GPa)
#
#
# Indices 1 2 3 4 5 6 
#
# 1 0.021046 -0.008302 -0.004439 -0.003166 0.011279 -0.011410
# 2 -0.008302 0.016475 -0.001848 -0.002664 0.000824 0.001978
# 3 -0.004439 -0.001848 0.015078 -0.006161 0.000498 0.003640
# 4 -0.003166 -0.002664 -0.006161 0.043823 -0.008947 -0.002289
# 5 0.011279 0.000824 0.000498 -0.008947 0.041454 -0.020928
# 6 -0.011410 0.001978 0.003640 -0.002289 -0.020928 0.047534
#
#
# Mechanical properties :
#
#
# Convention : Reuss Voigt Hill
#
# Bulk Modulus (GPa) = 42.69590 57.84814 50.27202
# Shear Modulus (GPa) = 22.48247 29.18943 25.83595
#
# Velocity S-wave (km/s) = 3.39668 3.87031 3.64120
# Velocity P-wave (km/s) = 6.10686 7.04689 6.59365
#
# Compressibility (1/GPa) = 0.02342146
#
# Stress axis : x y z
#
# Youngs Moduli (GPa) = 47.51413 60.69945 66.32137
#
# Poissons Ratio (x) = 0.50392 0.29441
# Poissons Ratio (y) = 0.39446 0.12255
# Poissons Ratio (z) = 0.21092 0.11216
#
# Static dielectric constant tensor:
#      x y z
#    x 3.586910 0.530580 -0.045840 
#    y 0.530580 3.578960 0.309320 
#    z -0.045840 0.309320 4.101490 
# 
# 
# High freq. dielectric constant tensor:
#      x y z
#    x 1.749910 0.030360 -0.008450 
#    y 0.030360 1.744070 0.020390 
#    z -0.008450 0.020390 1.766670 
# 
# From -- ./inp_files/274224.got.cif
#   From: 2010.06.25/outbox.cif.g09.slc.cpg/sg2_138_cif.got.tgz:274224.got - 2010.06.27 13:26:56.
