data_PCOD8043918
_publ_section_title
;
Structure prediction by ZEFSAII (Michael W. Deem and Ramdas Pophale) SiO2 
 PCOD8043918
Probable space group: P -1
;
_chemical_formula_sum "Si O2"
_cell_formula_units_Z 16
_cell_length_a 26.635414
_cell_length_b 5.298535
_cell_length_c 17.606672
_cell_angle_alpha 96.482156
_cell_angle_beta 18.772792
_cell_angle_gamma 90.902551
_cell_volume 761.583431
_symmetry_space_group_name_H-M "P -1"
_symmetry_group_IT_number 2
_symmetry_cell_setting 'triclinic'
loop_
_space_group_symop_operation_xyz
x,y,z
-x,-y,-z
loop_
_atom_site_type_symbol
_atom_site_label
_atom_site_fract_x
_atom_site_fract_y
_atom_site_fract_z
Si Si1 0.613617 0.078661 0.105320
Si Si2 0.255940 0.239594 0.602742
Si Si3 0.908119 0.534582 0.901855
Si Si4 0.390454 0.462768 0.982350
Si Si5 0.994888 0.285047 0.084629
Si Si6 0.276671 0.833188 0.444973
Si Si7 0.171141 0.668315 0.443061
Si Si8 0.839255 0.027873 0.924191
O O1 0.424886 0.211978 0.403059
O O2 0.665921 0.266810 0.975416
O O3 0.645228 0.780083 0.019734
O O4 0.716778 0.072304 0.031995
O O5 0.148889 0.540505 0.757152
O O6 0.304970 0.105563 0.444561
O O7 0.139600 0.105732 0.817043
O O8 0.822553 0.309827 0.996691
O O9 0.922444 0.540611 0.973019
O O10 0.090094 0.474993 0.601507
O O11 0.799245 0.821366 0.035038
O O12 0.581766 0.404528 0.727491
O O13 0.287007 0.496713 0.208443
O O14 0.908679 0.130084 0.259969
O O15 0.277864 0.799844 0.351396
O O16 0.025126 0.902984 0.623234
#
# Coordination Sequence:
#
# PCOD8043918 Si02
#       8
#     2   2   2   2   2   2   2   2
#     4  11  24  40  57  84 121 148 194 237 281 335
#     4  10  21  36  60  87 114 150 187 235 294 338
#     4   9  21  38  59  86 112 150 194 236 277 335
#     4  11  23  38  58  88 115 154 188 236 286 334
#     4  10  19  37  61  86 112 149 189 237 288 346
#     4  10  19  39  57  87 117 148 185 242 282 344
#     4   9  22  36  61  84 117 153 193 229 283 338
#     4  10  21  40  59  80 119 154 190 236 279 330
#
# _framework density 21.008861
#
# number of rings (size 3 to 8) (size 9 to 14) (size 15 to 20)
#    0.750    1.250    1.250    2.250    1.750    1.000 
#    0.000    3.125    0.000    0.000    0.000    0.000 
#    0.000    0.000    0.000    0.000    0.000    0.000 
#
# Total GULP energy -198229.607852 kJ/mol
# GULP energy per Si atom -12389.350491 kJ/mol
# Density = 2.096104 g / cm^3
# Si number density = 21.008861 Si / 1000 Ang^3
#
#
#
# Elastic Constant Matrix: (Units=GPa)
#
#
# Indices 1 2 3 4 5 6 
#
# 1 115.1045 22.6552 43.6979 10.4781 -26.9770 16.1839
# 2 22.6552 93.5009 13.5284 12.2177 -9.4402 6.6944
# 3 43.6979 13.5284 61.9332 9.4410 -3.1513 9.1043
# 4 10.4781 12.2177 9.4410 17.2811 -0.4294 1.7362
# 5 -26.9770 -9.4402 -3.1513 -0.4294 31.0810 -5.8039
# 6 16.1839 6.6944 9.1043 1.7362 -5.8039 31.5811
#
#
#
# Elastic Compliance Matrix: (Units=1/GPa)
#
#
# Indices 1 2 3 4 5 6 
#
# 1 0.016024 -0.000608 -0.009604 -0.003447 0.012163 -0.002889
# 2 -0.000608 0.012332 -0.000774 -0.007743 0.002821 -0.001135
# 3 -0.009604 -0.000774 0.024180 -0.006730 -0.006726 -0.002751
# 4 -0.003447 -0.007743 -0.006730 0.068919 -0.004952 0.000649
# 5 0.012163 0.002821 -0.006726 -0.004952 0.043466 0.003369
# 6 -0.002889 -0.001135 -0.002751 0.000649 0.003369 0.034762
#
#
# Mechanical properties :
#
#
# Convention : Reuss Voigt Hill
#
# Bulk Modulus (GPa) = 32.71832 47.81129 40.26481
# Shear Modulus (GPa) = 21.56618 28.69913 25.13265
#
# Velocity S-wave (km/s) = 3.20742 3.70002 3.46249
# Velocity P-wave (km/s) = 5.41518 6.40786 5.93232
#
# Compressibility (1/GPa) = 0.03056391
#
# Stress axis : x y z
#
# Youngs Moduli (GPa) = 62.40615 81.08834 41.35646
#
# Poissons Ratio (x) = 0.04928 0.39720
# Poissons Ratio (y) = 0.03793 0.03202
# Poissons Ratio (z) = 0.59936 0.06278
#
# Static dielectric constant tensor:
#      x y z
#    x 3.814040 0.121840 -0.008900 
#    y 0.121840 3.588360 -0.021620 
#    z -0.008900 -0.021620 3.763200 
# 
# 
# High freq. dielectric constant tensor:
#      x y z
#    x 1.822790 0.010180 -0.004090 
#    y 0.010180 1.812620 0.004710 
#    z -0.004090 0.004710 1.804270 
# 
# From -- ./inp_files/75165.got.cif
#   From: 2010.06.25/outbox.cif.g09.slc.cpg/sg2_38_cif.got.tgz:75165.got - 2010.06.27 13:26:56.
