data_PCOD8043048
_publ_section_title
;
Structure prediction by ZEFSAII (Michael W. Deem and Ramdas Pophale) SiO2 
 PCOD8043048
Probable space group: P -1
;
_chemical_formula_sum "Si O2"
_cell_formula_units_Z 12
_cell_length_a 23.549921
_cell_length_b 13.614995
_cell_length_c 8.488372
_cell_angle_alpha 131.871247
_cell_angle_beta 35.122688
_cell_angle_gamma 155.783649
_cell_volume 605.717503
_symmetry_space_group_name_H-M "P -1"
_symmetry_group_IT_number 2
_symmetry_cell_setting 'triclinic'
loop_
_space_group_symop_operation_xyz
x,y,z
-x,-y,-z
loop_
_atom_site_type_symbol
_atom_site_label
_atom_site_fract_x
_atom_site_fract_y
_atom_site_fract_z
Si Si1 0.784376 0.296487 0.802816
Si Si2 0.177142 0.362795 0.367441
Si Si3 0.774497 0.830038 0.725024
Si Si4 0.564556 0.278831 0.115418
Si Si5 0.486244 0.640180 0.368535
Si Si6 0.328969 0.717810 0.644048
O O1 0.000000 0.500000 0.500000
O O2 0.633508 0.008426 0.802580
O O3 0.715027 0.342642 0.906931
O O4 0.790995 0.336667 0.016022
O O5 0.197313 0.268584 0.343693
O O6 0.201615 0.530268 0.582392
O O7 0.331036 0.526325 0.054949
O O8 0.962953 0.106329 0.513446
O O9 0.638195 0.633697 0.678687
O O10 0.692433 0.848122 0.047882
O O11 0.508875 0.326593 0.420656
O O12 0.408197 0.679709 0.505958
O O13 0.500000 0.000000 0.500000
#
# Coordination Sequence:
#
# PCOD8043048 Si02
#       6
#     2   2   2   2   2   2
#     4  10  22  38  55  84 119 149 182 227 286 339
#     4  10  20  36  58  83 110 147 187 231 277 333
#     4   9  20  38  56  79 112 148 190 227 275 332
#     4  10  21  38  57  84 115 146 187 234 279 330
#     4   9  20  37  56  79 112 149 184 234 276 330
#     4  10  19  36  57  81 113 145 183 232 283 331
#
# _framework density 19.811216000000002
#
# number of rings (size 3 to 8) (size 9 to 14) (size 15 to 20)
#    0.000    2.333    1.667    0.000    2.333    2.667 
#    3.000    1.667    0.000    0.000    0.000    0.000 
#    0.000    0.000    0.000    0.000    0.000    0.000 
#
# Total GULP energy -148725.212682 kJ/mol
# GULP energy per Si atom -12393.767724 kJ/mol
# Density = 1.976613 g / cm^3
# Si number density = 19.811216 Si / 1000 Ang^3
#
#
#
# Elastic Constant Matrix: (Units=GPa)
#
#
# Indices 1 2 3 4 5 6 
#
# 1 20.2515 27.3831 20.7602 -2.0582 15.3491 7.0717
# 2 27.3831 128.7127 78.6385 -9.6703 19.4906 8.2734
# 3 20.7602 78.6385 160.6404 0.4131 18.4032 11.9193
# 4 -2.0582 -9.6703 0.4131 41.7250 8.0743 6.2930
# 5 15.3491 19.4906 18.4032 8.0743 33.6959 -3.6858
# 6 7.0717 8.2734 11.9193 6.2930 -3.6858 21.1965
#
#
#
# Elastic Compliance Matrix: (Units=1/GPa)
#
#
# Indices 1 2 3 4 5 6 
#
# 1 0.152347 -0.015346 0.001393 0.028704 -0.075518 -0.067274
# 2 -0.015346 0.013977 -0.005213 0.001886 0.001553 0.002306
# 3 0.001393 -0.005213 0.009268 0.000009 -0.003141 -0.004190
# 4 0.028704 0.001886 0.000009 0.034444 -0.025150 -0.024917
# 5 -0.075518 0.001553 -0.003141 -0.025150 0.076067 0.047049
# 6 -0.067274 0.002306 -0.004190 -0.024917 0.047049 0.086657
#
#
# Mechanical properties :
#
#
# Convention : Reuss Voigt Hill
#
# Bulk Modulus (GPa) = 7.28541 62.57422 34.92982
# Shear Modulus (GPa) = 10.94462 31.51167 21.22815
#
# Velocity S-wave (km/s) = 2.35297 3.99256 3.27696
# Velocity P-wave (km/s) = 3.32676 7.27378 5.65576
#
# Compressibility (1/GPa) = 0.13726054
#
# Stress axis : x y z
#
# Youngs Moduli (GPa) = 6.56396 71.54487 107.90165
#
# Poissons Ratio (x) = 1.09793 -0.15034
# Poissons Ratio (y) = 0.10073 0.56248
# Poissons Ratio (z) = -0.00915 0.37296
#
# Static dielectric constant tensor:
#      x y z
#    x 3.567860 0.385030 0.287810 
#    y 0.385030 4.156940 0.282260 
#    z 0.287810 0.282260 3.847970 
# 
# 
# High freq. dielectric constant tensor:
#      x y z
#    x 1.747260 0.005670 0.010490 
#    y 0.005670 1.784010 0.004990 
#    z 0.010490 0.004990 1.778690 
# 
# From -- ./inp_files/161955.got.cif
#   From: 2010.06.25/outbox.cif.g09.slc.cpg/sg2_81_cif.got.tgz:161955.got - 2010.06.27 13:26:56.
