data_PCOD8043252
_publ_section_title
;
Structure prediction by ZEFSAII (Michael W. Deem and Ramdas Pophale) SiO2 
 PCOD8043252
Probable space group: P -1
;
_chemical_formula_sum "Si O2"
_cell_formula_units_Z 14
_cell_length_a 18.250109
_cell_length_b 5.530889
_cell_length_c 7.426517
_cell_angle_alpha 123.125272
_cell_angle_beta 123.793234
_cell_angle_gamma 61.176116
_cell_volume 504.344522
_symmetry_space_group_name_H-M "P -1"
_symmetry_group_IT_number 2
_symmetry_cell_setting 'triclinic'
loop_
_space_group_symop_operation_xyz
x,y,z
-x,-y,-z
loop_
_atom_site_type_symbol
_atom_site_label
_atom_site_fract_x
_atom_site_fract_y
_atom_site_fract_z
Si Si1 0.334969 0.105948 0.870453
Si Si2 0.997198 0.362835 0.679204
Si Si3 0.685692 0.766738 0.639791
Si Si4 0.394841 0.551716 0.920250
Si Si5 0.127332 0.590024 0.152450
Si Si6 0.394696 0.659769 0.438704
Si Si7 0.863447 0.837825 0.466140
O O1 0.381018 0.389923 0.027038
O O2 0.226558 0.230703 0.765946
O O3 0.354180 0.914822 0.007275
O O4 0.378552 0.863522 0.678589
O O5 0.064173 0.077467 0.548773
O O6 0.961700 0.310332 0.802439
O O7 0.915861 0.540858 0.517041
O O8 0.080524 0.535719 0.880264
O O9 0.658648 0.601791 0.359720
O O10 0.795820 0.694011 0.779212
O O11 0.654639 0.613899 0.715633
O O12 0.640992 0.123630 0.695520
O O13 0.500000 0.500000 0.000000
O O14 0.168804 0.881009 0.326059
O O15 0.500000 0.500000 0.500000
#
# Coordination Sequence:
#
# PCOD8043252 Si02
#       7
#     2   2   2   2   2   2   2
#     4  10  21  37  63  88 124 173 208 274 331 390
#     4  10  24  38  66 102 124 180 222 274 332 414
#     4  10  21  37  63  88 124 173 208 274 331 390
#     4  10  19  36  60  88 118 164 219 263 330 390
#     4  11  21  42  66  93 138 169 226 271 343 394
#     4  10  19  36  60  88 118 164 219 263 330 390
#     4  11  21  42  66  93 138 169 226 271 343 394
#
# _framework density 27.758804000000001
#
# number of rings (size 3 to 8) (size 9 to 14) (size 15 to 20)
#    0.000    1.714    2.857    3.429    0.000    0.000 
#    0.000    8.571    0.000    0.000    0.000    0.000 
#    0.000    0.000    0.000    0.000    0.000    0.000 
#
# Total GULP energy -173482.590201 kJ/mol
# GULP energy per Si atom -12391.613586 kJ/mol
# Density = 2.769562 g / cm^3
# Si number density = 27.758804 Si / 1000 Ang^3
#
#
#
# Elastic Constant Matrix: (Units=GPa)
#
#
# Indices 1 2 3 4 5 6 
#
# 1 126.5582 59.5446 12.2056 -13.1889 6.6489 1.7427
# 2 59.5446 223.3289 51.4739 2.3687 11.7309 4.9859
# 3 12.2056 51.4739 74.9517 -19.1732 21.9348 1.5485
# 4 -13.1889 2.3687 -19.1732 40.8669 5.8168 6.1927
# 5 6.6489 11.7309 21.9348 5.8168 37.7321 -17.6263
# 6 1.7427 4.9859 1.5485 6.1927 -17.6263 55.4274
#
#
#
# Elastic Compliance Matrix: (Units=1/GPa)
#
#
# Indices 1 2 3 4 5 6 
#
# 1 0.010038 -0.003289 0.003749 0.006271 -0.005024 -0.002423
# 2 -0.003289 0.006690 -0.006569 -0.005304 0.003836 0.001498
# 3 0.003749 -0.006569 0.029624 0.020412 -0.023745 -0.010186
# 4 0.006271 -0.005304 0.020412 0.041612 -0.023542 -0.012426
# 5 -0.005024 0.003836 -0.023745 -0.023542 0.052945 0.019943
# 6 -0.002423 0.001498 -0.010186 -0.012426 0.019943 0.025998
#
#
# Mechanical properties :
#
#
# Convention : Reuss Voigt Hill
#
# Bulk Modulus (GPa) = 29.29692 74.58745 51.94218
# Shear Modulus (GPa) = 26.24629 46.91293 36.57961
#
# Velocity S-wave (km/s) = 3.07825 4.11545 3.63404
# Velocity P-wave (km/s) = 4.81780 7.03638 6.03000
#
# Compressibility (1/GPa) = 0.03413328
#
# Stress axis : x y z
#
# Youngs Moduli (GPa) = 99.61892 149.47570 33.75649
#
# Poissons Ratio (x) = 0.49162 -0.12654
# Poissons Ratio (y) = 0.32764 0.22175
# Poissons Ratio (z) = -0.37344 0.98193
#
# Static dielectric constant tensor:
#      x y z
#    x 5.522870 0.363740 -0.228590 
#    y 0.363740 5.647670 0.317250 
#    z -0.228590 0.317250 5.504380 
# 
# 
# High freq. dielectric constant tensor:
#      x y z
#    x 2.137670 -0.007330 -0.015540 
#    y -0.007330 2.132770 0.017580 
#    z -0.015540 0.017580 2.151620 
# 
# From -- ./inp_files/98811.got.cif
#   From: 2010.06.25/outbox.cif.g09.slc.cpg/sg2_50_cif.got.tgz:98811.got - 2010.06.27 13:26:56.
