data_PCOD8043333
_publ_section_title
;
Structure prediction by ZEFSAII (Michael W. Deem and Ramdas Pophale) SiO2 
 PCOD8043333
Probable space group: P -1
;
_chemical_formula_sum "Si O2"
_cell_formula_units_Z 14
_cell_length_a 11.625739
_cell_length_b 10.414792
_cell_length_c 14.933066
_cell_angle_alpha 138.085641
_cell_angle_beta 29.437884
_cell_angle_gamma 132.713399
_cell_volume 591.100805
_symmetry_space_group_name_H-M "P -1"
_symmetry_group_IT_number 2
_symmetry_cell_setting 'triclinic'
loop_
_space_group_symop_operation_xyz
x,y,z
-x,-y,-z
loop_
_atom_site_type_symbol
_atom_site_label
_atom_site_fract_x
_atom_site_fract_y
_atom_site_fract_z
Si Si1 0.071354 0.258926 0.234229
Si Si2 0.503582 0.960199 0.204300
Si Si3 0.179401 0.773008 0.190000
Si Si4 0.121794 0.512495 0.650829
Si Si5 0.681592 0.677638 0.424350
Si Si6 0.687483 0.327694 0.662715
Si Si7 0.530261 0.488337 0.248256
O O1 0.217766 0.466929 0.253623
O O2 0.934230 0.277484 0.240375
O O3 0.890579 0.220844 0.418900
O O4 0.239272 0.086457 0.028375
O O5 0.324045 0.948213 0.234451
O O6 0.424663 0.812085 0.258719
O O7 0.518766 0.179810 0.343053
O O8 0.120403 0.609174 0.222112
O O9 0.929231 0.815967 0.339379
O O10 0.339199 0.696412 0.963420
O O11 0.307397 0.505847 0.606841
O O12 0.262819 0.416720 0.423765
O O13 0.670388 0.604171 0.292767
O O14 0.481660 0.366642 0.752048
#
# Coordination Sequence:
#
# PCOD8043333 Si02
#       7
#     2   2   2   2   2   2   2
#     4  10  19  36  61  88 108 147 200 229 275 337
#     4  12  21  39  58  89 119 146 179 248 292 321
#     4  10  21  36  61  84 108 154 194 226 277 338
#     4   9  21  38  61  85 108 152 199 233 264 347
#     4  10  24  39  56  86 123 145 187 236 290 333
#     4  10  20  34  62  86 112 148 194 232 273 345
#     4  11  20  40  61  83 112 155 194 231 272 344
#
# _framework density 23.684623999999999
#
# number of rings (size 3 to 8) (size 9 to 14) (size 15 to 20)
#    0.857    0.857    2.857    2.571    0.000    0.571 
#    2.571    3.571    0.000    0.000    0.000    0.000 
#    0.000    0.000    0.000    0.000    0.000    0.000 
#
# Total GULP energy -173439.182276 kJ/mol
# GULP energy per Si atom -12388.513020 kJ/mol
# Density = 2.363072 g / cm^3
# Si number density = 23.684624 Si / 1000 Ang^3
#
#
#
# Elastic Constant Matrix: (Units=GPa)
#
#
# Indices 1 2 3 4 5 6 
#
# 1 139.4074 8.4057 21.3813 16.1061 1.8932 4.3789
# 2 8.4057 26.1005 15.2829 9.7040 3.7338 -1.2029
# 3 21.3813 15.2829 127.3662 3.2834 3.0798 -0.9427
# 4 16.1061 9.7040 3.2834 25.4036 1.9039 0.7790
# 5 1.8932 3.7338 3.0798 1.9039 30.9047 2.7162
# 6 4.3789 -1.2029 -0.9427 0.7790 2.7162 10.0497
#
#
#
# Elastic Compliance Matrix: (Units=1/GPa)
#
#
# Indices 1 2 3 4 5 6 
#
# 1 0.008027 -0.000302 -0.001220 -0.004733 0.000252 -0.003349
# 2 -0.000302 0.049179 -0.005209 -0.017798 -0.005035 0.008270
# 3 -0.001220 -0.005209 0.008651 0.001648 -0.000319 0.000678
# 4 -0.004733 -0.017798 0.001648 0.049093 -0.000432 -0.003603
# 5 0.000252 -0.005035 -0.000319 -0.000432 0.033876 -0.009865
# 6 -0.003349 0.008270 0.000678 -0.003603 -0.009865 0.104964
#
#
# Mechanical properties :
#
#
# Convention : Reuss Voigt Hill
#
# Bulk Modulus (GPa) = 19.08524 42.55711 30.82117
# Shear Modulus (GPa) = 17.56130 29.79188 23.67659
#
# Velocity S-wave (km/s) = 2.72594 3.55048 3.16517
# Velocity P-wave (km/s) = 4.24066 5.90043 5.13801
#
# Compressibility (1/GPa) = 0.05239652
#
# Stress axis : x y z
#
# Youngs Moduli (GPa) = 124.57795 20.33389 115.58727
#
# Poissons Ratio (x) = 0.00613 0.14104
# Poissons Ratio (y) = 0.03757 0.60206
# Poissons Ratio (z) = 0.15201 0.10591
#
# Static dielectric constant tensor:
#      x y z
#    x 4.645570 -0.027480 -0.149780 
#    y -0.027480 3.618320 -0.238360 
#    z -0.149780 -0.238360 4.295910 
# 
# 
# High freq. dielectric constant tensor:
#      x y z
#    x 1.960340 -0.002240 -0.006150 
#    y -0.002240 1.887320 -0.021010 
#    z -0.006150 -0.021010 1.945390 
# 
# From -- ./inp_files/273893.got.cif
#   From: 2010.06.25/outbox.cif.g09.slc.cpg/sg2_137_cif.got.tgz:273893.got - 2010.06.27 13:26:56.
