data_PCOD8043366
_publ_section_title
;
Structure prediction by ZEFSAII (Michael W. Deem and Ramdas Pophale) SiO2 
 PCOD8043366
Probable space group: P -1
;
_chemical_formula_sum "Si O2"
_cell_formula_units_Z 16
_cell_length_a 9.975909
_cell_length_b 19.960033
_cell_length_c 11.797942
_cell_angle_alpha 48.289693
_cell_angle_beta 104.804266
_cell_angle_gamma 145.229295
_cell_volume 729.939192
_symmetry_space_group_name_H-M "P -1"
_symmetry_group_IT_number 2
_symmetry_cell_setting 'triclinic'
loop_
_space_group_symop_operation_xyz
x,y,z
-x,-y,-z
loop_
_atom_site_type_symbol
_atom_site_label
_atom_site_fract_x
_atom_site_fract_y
_atom_site_fract_z
Si Si1 0.566216 0.902748 0.584999
Si Si2 0.302548 0.959989 0.935923
Si Si3 0.947848 0.330958 0.947754
Si Si4 0.698794 0.467448 0.742273
Si Si5 0.102606 0.162881 0.837513
Si Si6 0.656640 0.917251 0.829978
Si Si7 0.281790 0.697747 0.533370
Si Si8 0.988832 0.669727 0.799904
O O1 0.722927 0.942823 0.681023
O O2 0.540177 0.834324 0.538010
O O3 0.195486 0.705958 0.759636
O O4 0.775431 0.111398 0.370120
O O5 0.535214 0.169625 0.691116
O O6 0.074049 0.775258 0.004632
O O7 0.088336 0.892890 0.047749
O O8 0.500000 0.000000 0.000000
O O9 0.090307 0.491444 0.715037
O O10 0.588913 0.144989 0.125642
O O11 0.167317 0.446553 0.979897
O O12 0.485034 0.398748 0.681918
O O13 0.042229 0.641883 0.567191
O O14 0.737016 0.542961 0.786183
O O15 0.491770 0.259015 0.955652
O O16 0.997318 0.138546 0.717511
O O17 0.000000 0.000000 0.000000
#
# Coordination Sequence:
#
# PCOD8043366 Si02
#       8
#     2   2   2   2   2   2   2   2
#     4   9  16  29  58  89 120 151 204 259 304 347
#     4  12  24  41  66  91 126 164 207 256 306 362
#     4  10  19  36  61  92 121 157 211 257 301 358
#     4   9  19  35  59  91 121 162 205 248 308 370
#     4  10  22  42  62  85 130 172 198 251 312 371
#     4   9  17  33  57  85 119 164 203 250 301 358
#     4  10  21  38  65  96 120 157 209 261 306 358
#     4   9  16  29  56  89 122 156 199 257 303 360
#
# _framework density 21.919635
#
# number of rings (size 3 to 8) (size 9 to 14) (size 15 to 20)
#    0.000    2.250    2.500    0.750    1.750    3.500 
#    0.000    3.125    2.750    3.750    0.000    0.000 
#    0.000    0.000    0.000    0.000    0.000    0.000 
#
# Total GULP energy -198228.355403 kJ/mol
# GULP energy per Si atom -12389.272213 kJ/mol
# Density = 2.186975 g / cm^3
# Si number density = 21.919635 Si / 1000 Ang^3
#
#
#
# Elastic Constant Matrix: (Units=GPa)
#
#
# Indices 1 2 3 4 5 6 
#
# 1 59.9910 22.6786 1.2551 -3.2558 -5.2579 -6.7733
# 2 22.6786 152.8311 13.1549 5.7221 -10.6404 15.4863
# 3 1.2551 13.1549 60.7652 8.1420 2.1191 6.2007
# 4 -3.2558 5.7221 8.1420 29.3185 -2.3083 5.3252
# 5 -5.2579 -10.6404 2.1191 -2.3083 15.5941 -0.5347
# 6 -6.7733 15.4863 6.2007 5.3252 -0.5347 26.0827
#
#
#
# Elastic Compliance Matrix: (Units=1/GPa)
#
#
# Indices 1 2 3 4 5 6 
#
# 1 0.019210 -0.003196 -0.000856 0.002159 0.004964 0.006751
# 2 -0.003196 0.007952 -0.001245 -0.000295 0.004299 -0.005107
# 3 -0.000856 -0.001245 0.017806 -0.004619 -0.004340 -0.002862
# 4 0.002159 -0.000295 -0.004619 0.037221 0.006471 -0.005632
# 5 0.004964 0.004299 -0.004340 0.006471 0.070277 -0.000112
# 6 0.006751 -0.005107 -0.002862 -0.005632 -0.000112 0.044953
#
#
# Mechanical properties :
#
#
# Convention : Reuss Voigt Hill
#
# Bulk Modulus (GPa) = 29.09153 38.64051 33.86602
# Shear Modulus (GPa) = 22.78193 29.96563 26.37378
#
# Velocity S-wave (km/s) = 3.22738 3.70140 3.47249
# Velocity P-wave (km/s) = 5.21427 5.99447 5.61793
#
# Compressibility (1/GPa) = 0.03437426
#
# Stress axis : x y z
#
# Youngs Moduli (GPa) = 52.05694 125.74712 56.16007
#
# Poissons Ratio (x) = 0.40191 0.04808
# Poissons Ratio (y) = 0.16638 0.06991
# Poissons Ratio (z) = 0.04457 0.15653
#
# Static dielectric constant tensor:
#      x y z
#    x 4.473690 -0.064020 0.023170 
#    y -0.064020 4.845780 0.137890 
#    z 0.023170 0.137890 3.676650 
# 
# 
# High freq. dielectric constant tensor:
#      x y z
#    x 1.808670 -0.009730 0.027630 
#    y -0.009730 1.889620 0.008930 
#    z 0.027630 0.008930 1.841700 
# 
# From -- ./inp_files/403013.got.cif
#   From: 2010.06.25/outbox.cif.g09.slc.cpg/sg2_202_cif.got.tgz:403013.got - 2010.06.27 13:26:56.
