data_PCOD8043147
_publ_section_title
;
Structure prediction by ZEFSAII (Michael W. Deem and Ramdas Pophale) SiO2 
 PCOD8043147
Probable space group: P -1
;
_chemical_formula_sum "Si O2"
_cell_formula_units_Z 16
_cell_length_a 12.922286
_cell_length_b 15.189974
_cell_length_c 14.216793
_cell_angle_alpha 142.324875
_cell_angle_beta 48.970969
_cell_angle_gamma 152.662889
_cell_volume 772.344180
_symmetry_space_group_name_H-M "P -1"
_symmetry_group_IT_number 2
_symmetry_cell_setting 'triclinic'
loop_
_space_group_symop_operation_xyz
x,y,z
-x,-y,-z
loop_
_atom_site_type_symbol
_atom_site_label
_atom_site_fract_x
_atom_site_fract_y
_atom_site_fract_z
Si Si1 0.147725 0.244019 0.445625
Si Si2 0.447825 0.785874 0.167342
Si Si3 0.355635 0.265052 0.509844
Si Si4 0.948660 0.193644 0.187146
Si Si5 0.742950 0.081929 0.612056
Si Si6 0.426283 0.696729 0.318558
Si Si7 0.449330 0.487636 0.827005
Si Si8 0.955736 0.956769 0.852707
O O1 0.181902 0.173984 0.457390
O O2 0.384537 0.499937 0.479765
O O3 0.011220 0.033263 0.270918
O O4 0.995901 0.255453 0.570846
O O5 0.465667 0.793646 0.275146
O O6 0.695855 0.046159 0.198367
O O7 0.267180 0.757384 0.219714
O O8 0.355706 0.556974 0.986485
O O9 0.314506 0.062059 0.383451
O O10 0.298022 0.302935 0.673219
O O11 0.154259 0.478016 0.323165
O O12 0.907926 0.052447 0.180796
O O13 0.037052 0.181170 0.030482
O O14 0.553529 0.901331 0.491563
O O15 0.524484 0.615215 0.196875
O O16 0.692333 0.724726 0.838536
#
# Coordination Sequence:
#
# PCOD8043147 Si02
#       8
#     2   2   2   2   2   2   2   2
#     4  10  19  36  59  77 100 132 179 218 255 308
#     4  11  21  33  51  77 112 141 164 210 264 308
#     4   9  20  38  60  76  94 136 179 219 257 301
#     4   9  18  32  50  76 109 136 170 206 250 304
#     4  11  23  34  50  81 111 133 167 217 266 305
#     4  10  20  33  52  77 104 144 180 203 245 307
#     4   8  17  34  54  77 102 133 179 215 249 301
#     4   8  15  30  54  79 100 132 172 219 248 285
#
# _framework density 20.716154
#
# number of rings (size 3 to 8) (size 9 to 14) (size 15 to 20)
#    0.000    2.500    0.000    3.375    0.000    3.500 
#    0.000    0.625    0.000   12.000    0.000    0.000 
#    0.000    0.000    0.000    0.000    0.000    0.000 
#
# Total GULP energy -198336.527523 kJ/mol
# GULP energy per Si atom -12396.032970 kJ/mol
# Density = 2.066900 g / cm^3
# Si number density = 20.716154 Si / 1000 Ang^3
#
#
#
# Elastic Constant Matrix: (Units=GPa)
#
#
# Indices 1 2 3 4 5 6 
#
# 1 110.6689 31.5569 58.4336 -19.3430 -6.3416 -0.4824
# 2 31.5569 52.2561 14.1659 -10.1570 -2.8606 2.5784
# 3 58.4336 14.1659 69.3046 -12.2855 -14.4313 0.6455
# 4 -19.3430 -10.1570 -12.2855 22.4331 1.3814 0.9645
# 5 -6.3416 -2.8606 -14.4313 1.3814 33.0327 -1.4340
# 6 -0.4824 2.5784 0.6455 0.9645 -1.4340 28.4995
#
#
#
# Elastic Compliance Matrix: (Units=1/GPa)
#
#
# Indices 1 2 3 4 5 6 
#
# 1 0.019721 -0.006967 -0.014909 0.005863 -0.003536 0.000926
# 2 -0.006967 0.024113 0.002368 0.006227 0.001416 -0.002493
# 3 -0.014909 0.002368 0.029237 0.003649 0.009931 -0.000753
# 4 0.005863 0.006227 0.003649 0.054497 0.000878 -0.002347
# 5 -0.003536 0.001416 0.009931 0.000878 0.034074 0.001272
# 6 0.000926 -0.002493 -0.000753 -0.002347 0.001272 0.035490
#
#
# Mechanical properties :
#
#
# Convention : Reuss Voigt Hill
#
# Bulk Modulus (GPa) = 29.36525 48.94916 39.15720
# Shear Modulus (GPa) = 20.20202 25.33126 22.76664
#
# Velocity S-wave (km/s) = 3.12618 3.50062 3.31868
# Velocity P-wave (km/s) = 5.21886 6.32605 5.79894
#
# Compressibility (1/GPa) = 0.03405386
#
# Stress axis : x y z
#
# Youngs Moduli (GPa) = 50.70808 41.47154 34.20297
#
# Poissons Ratio (x) = 0.28894 0.50993
# Poissons Ratio (y) = 0.35329 -0.08098
# Poissons Ratio (z) = 0.75600 -0.09819
#
# Static dielectric constant tensor:
#      x y z
#    x 3.704710 0.054480 0.181930 
#    y 0.054480 3.686130 -0.010000 
#    z 0.181930 -0.010000 3.898070 
# 
# 
# High freq. dielectric constant tensor:
#      x y z
#    x 1.788150 0.001190 0.008610 
#    y 0.001190 1.822900 -0.002570 
#    z 0.008610 -0.002570 1.786910 
# 
# From -- ./inp_files/284904.got.cif
#   From: 2010.06.25/outbox.cif.g09.slc.cpg/sg2_143_cif.got.tgz:284904.got - 2010.06.27 13:26:56.
