data_PCOD8043764
_publ_section_title
;
Structure prediction by ZEFSAII (Michael W. Deem and Ramdas Pophale) SiO2 
 PCOD8043764
Probable space group: P -1
;
_chemical_formula_sum "Si O2"
_cell_formula_units_Z 16
_cell_length_a 9.497842
_cell_length_b 15.360107
_cell_length_c 8.951431
_cell_angle_alpha 38.722212
_cell_angle_beta 75.439726
_cell_angle_gamma 84.262633
_cell_volume 780.629005
_symmetry_space_group_name_H-M "P -1"
_symmetry_group_IT_number 2
_symmetry_cell_setting 'triclinic'
loop_
_space_group_symop_operation_xyz
x,y,z
-x,-y,-z
loop_
_atom_site_type_symbol
_atom_site_label
_atom_site_fract_x
_atom_site_fract_y
_atom_site_fract_z
Si Si1 0.653400 0.078897 0.670042
Si Si2 0.118480 0.110701 0.237296
Si Si3 0.137338 0.558030 0.282047
Si Si4 0.671885 0.979359 0.117587
Si Si5 0.837703 0.363358 0.168597
Si Si6 0.151449 0.335108 0.172262
Si Si7 0.918011 0.179298 0.928962
Si Si8 0.199140 0.281200 0.555884
O O1 0.481490 0.034575 0.733353
O O2 0.704498 0.233327 0.379386
O O3 0.742122 0.962661 0.738510
O O4 0.669298 0.084924 0.837687
O O5 0.184690 0.245269 0.140209
O O6 0.000000 0.000000 0.500000
O O7 0.036992 0.160557 0.049238
O O8 0.192028 0.710545 0.138910
O O9 0.244073 0.437795 0.410652
O O10 0.000000 0.500000 0.500000
O O11 0.103943 0.587921 0.077884
O O12 0.700413 0.825504 0.258041
O O13 0.809218 0.036224 0.112520
O O14 0.975769 0.312104 0.281307
O O15 0.790233 0.496943 0.090295
O O16 0.229361 0.283993 0.366479
O O17 0.022627 0.232244 0.690246
#
# Coordination Sequence:
#
# PCOD8043764 Si02
#       8
#     2   2   2   2   2   2   2   2
#     4  11  24  42  59  85 129 164 203 252 305 363
#     4  12  21  36  61  93 121 154 199 255 300 353
#     4   9  19  35  59  93 120 150 195 263 302 351
#     4  11  24  40  60  88 121 170 206 245 305 364
#     4  10  19  37  58  88 123 160 194 247 308 360
#     4  10  20  34  62  91 118 152 202 249 305 353
#     4  11  20  36  61  91 118 152 207 250 296 358
#     4  10  20  37  61  90 119 156 207 250 300 360
#
# _framework density 20.496293000000001
#
# number of rings (size 3 to 8) (size 9 to 14) (size 15 to 20)
#    0.000    1.500    3.750    1.875    0.000    1.000 
#    0.000    9.375    0.000    3.000    0.000    0.000 
#    0.000    0.000    0.000    0.000    0.000    0.000 
#
# Total GULP energy -198244.484973 kJ/mol
# GULP energy per Si atom -12390.280311 kJ/mol
# Density = 2.044964 g / cm^3
# Si number density = 20.496293 Si / 1000 Ang^3
#
#
#
# Elastic Constant Matrix: (Units=GPa)
#
#
# Indices 1 2 3 4 5 6 
#
# 1 77.8947 44.2858 29.5086 -10.7693 -5.7375 -19.8453
# 2 44.2858 130.3991 45.6271 -21.0685 -2.3311 -18.5424
# 3 29.5086 45.6271 96.5561 -8.1044 0.2082 -10.4942
# 4 -10.7693 -21.0685 -8.1044 34.5754 -3.0506 9.9566
# 5 -5.7375 -2.3311 0.2082 -3.0506 21.7047 2.0933
# 6 -19.8453 -18.5424 -10.4942 9.9566 2.0933 22.0408
#
#
#
# Elastic Compliance Matrix: (Units=1/GPa)
#
#
# Indices 1 2 3 4 5 6 
#
# 1 0.019569 -0.003816 -0.002810 -0.000284 0.003509 0.012867
# 2 -0.003816 0.011226 -0.003529 0.004192 0.000591 0.002378
# 3 -0.002810 -0.003529 0.012960 -0.000394 -0.001396 0.000982
# 4 -0.000284 0.004192 -0.000394 0.035851 0.006744 -0.013753
# 5 0.003509 0.000591 -0.001396 0.006744 0.048475 -0.004659
# 6 0.012867 0.002378 0.000982 -0.013753 -0.004659 0.066078
#
#
# Mechanical properties :
#
#
# Convention : Reuss Voigt Hill
#
# Bulk Modulus (GPa) = 42.65657 60.41033 51.53345
# Shear Modulus (GPa) = 22.49364 28.02607 25.25986
#
# Velocity S-wave (km/s) = 3.31637 3.70181 3.51438
# Velocity P-wave (km/s) = 5.95999 6.91440 6.45486
#
# Compressibility (1/GPa) = 0.02344305
#
# Stress axis : x y z
#
# Youngs Moduli (GPa) = 51.10025 89.08094 77.16096
#
# Poissons Ratio (x) = 0.33997 0.21684
# Poissons Ratio (y) = 0.19502 0.27233
# Poissons Ratio (z) = 0.14360 0.31440
#
# Static dielectric constant tensor:
#      x y z
#    x 3.261080 -0.196690 0.203150 
#    y -0.196690 4.062740 -0.200920 
#    z 0.203150 -0.200920 4.001260 
# 
# 
# High freq. dielectric constant tensor:
#      x y z
#    x 1.747990 -0.015790 0.019870 
#    y -0.015790 1.810490 -0.009740 
#    z 0.019870 -0.009740 1.814260 
# 
# From -- ./inp_files/205173.got.cif
#   From: 2010.06.25/outbox.cif.g09.slc.cpg/sg2_103_cif.got.tgz:205173.got - 2010.06.27 13:26:56.
