data_PCOD8043317
_publ_section_title
;
Structure prediction by ZEFSAII (Michael W. Deem and Ramdas Pophale) SiO2 
 PCOD8043317
Probable space group: P -1
;
_chemical_formula_sum "Si O2"
_cell_formula_units_Z 16
_cell_length_a 21.289013
_cell_length_b 9.456954
_cell_length_c 14.402681
_cell_angle_alpha 145.262281
_cell_angle_beta 150.738717
_cell_angle_gamma 32.592423
_cell_volume 720.833560
_symmetry_space_group_name_H-M "P -1"
_symmetry_group_IT_number 2
_symmetry_cell_setting 'triclinic'
loop_
_space_group_symop_operation_xyz
x,y,z
-x,-y,-z
loop_
_atom_site_type_symbol
_atom_site_label
_atom_site_fract_x
_atom_site_fract_y
_atom_site_fract_z
Si Si1 0.675415 0.738868 0.684393
Si Si2 0.176276 0.574886 0.945704
Si Si3 0.960270 0.266842 0.780321
Si Si4 0.666124 0.930898 0.262400
Si Si5 0.797569 0.828158 0.079920
Si Si6 0.052389 0.192706 0.362494
Si Si7 0.391298 0.787796 0.278827
Si Si8 0.437392 0.753494 0.879269
O O1 0.786869 0.419381 0.627724
O O2 0.512281 0.783425 0.503157
O O3 0.695803 0.917412 0.723695
O O4 0.710883 0.829812 0.877514
O O5 0.239461 0.329718 0.820832
O O6 0.171614 0.450798 0.973196
O O7 0.013796 0.786388 0.815213
O O8 0.279721 0.723770 0.160698
O O9 0.050539 0.172120 0.749676
O O10 0.005889 0.988411 0.749591
O O11 0.000000 0.500000 0.000000
O O12 0.771949 0.960396 0.492338
O O13 0.593967 0.194218 0.243504
O O14 0.536498 0.891737 0.121854
O O15 0.707713 0.113778 0.175502
O O16 0.000000 0.500000 0.500000
O O17 0.471502 0.579302 0.182147
#
# Coordination Sequence:
#
# PCOD8043317 Si02
#       8
#     2   2   2   2   2   2   2   2
#     4  10  22  39  57  82 117 163 200 233 298 367
#     4   9  18  34  57  84 114 149 194 246 291 343
#     4  10  21  39  59  80 119 164 192 231 301 366
#     4   8  16  31  55  85 115 147 185 237 299 348
#     4  10  21  37  59  88 119 150 194 251 302 346
#     4  10  19  36  61  86 113 156 204 240 286 355
#     4  10  20  38  61  82 115 159 202 240 291 365
#     4   9  17  34  60  88 115 147 193 250 297 336
#
# _framework density 22.196525000000001
#
# number of rings (size 3 to 8) (size 9 to 14) (size 15 to 20)
#    0.000    2.500    0.000    3.000    0.000    1.000 
#    0.000   19.375    0.000    0.000    0.000    0.000 
#    0.000    0.000    0.000    0.000    0.000    0.000 
#
# Total GULP energy -198249.759128 kJ/mol
# GULP energy per Si atom -12390.609945 kJ/mol
# Density = 2.214600 g / cm^3
# Si number density = 22.196525 Si / 1000 Ang^3
#
#
#
# Elastic Constant Matrix: (Units=GPa)
#
#
# Indices 1 2 3 4 5 6 
#
# 1 37.4137 22.4539 0.2635 -5.6591 1.5764 6.5656
# 2 22.4539 88.7932 34.1475 -10.0163 5.2901 16.5765
# 3 0.2635 34.1475 83.8632 -18.6002 6.4378 19.7755
# 4 -5.6591 -10.0163 -18.6002 43.2783 4.1436 -1.2058
# 5 1.5764 5.2901 6.4378 4.1436 20.2991 2.9205
# 6 6.5656 16.5765 19.7755 -1.2058 2.9205 33.2647
#
#
#
# Elastic Compliance Matrix: (Units=1/GPa)
#
#
# Indices 1 2 3 4 5 6 
#
# 1 0.034092 -0.009301 0.006278 0.005089 -0.002473 -0.005424
# 2 -0.009301 0.016492 -0.005912 0.000111 -0.001328 -0.002747
# 3 0.006278 -0.005912 0.018398 0.007612 -0.005112 -0.008506
# 4 0.005089 0.000111 0.007612 0.027721 -0.007938 -0.003883
# 5 -0.002473 -0.001328 -0.005112 -0.007938 0.053153 -0.000766
# 6 -0.005424 -0.002747 -0.008506 -0.003883 -0.000766 0.037485
#
#
# Mechanical properties :
#
#
# Convention : Reuss Voigt Hill
#
# Bulk Modulus (GPa) = 19.56495 35.97775 27.77135
# Shear Modulus (GPa) = 22.49730 29.58211 26.03970
#
# Velocity S-wave (km/s) = 3.18708 3.65463 3.42883
# Velocity P-wave (km/s) = 4.73042 5.83544 5.31174
#
# Compressibility (1/GPa) = 0.05111180
#
# Stress axis : x y z
#
# Youngs Moduli (GPa) = 29.33231 60.63441 54.35341
#
# Poissons Ratio (x) = 0.56399 -0.34122
# Poissons Ratio (y) = 0.27283 0.32133
# Poissons Ratio (z) = -0.18414 0.35846
#
# Static dielectric constant tensor:
#      x y z
#    x 3.725450 0.014080 0.327610 
#    y 0.014080 4.578630 -0.473880 
#    z 0.327610 -0.473880 4.283810 
# 
# 
# High freq. dielectric constant tensor:
#      x y z
#    x 1.827750 0.004680 0.021030 
#    y 0.004680 1.889580 -0.011920 
#    z 0.021030 -0.011920 1.877990 
# 
# From -- ./inp_files/540590.got.cif
#   From: 2010.06.25/outbox.cif.g09.slc.cpg/sg2_271_cif.got.tgz:540590.got - 2010.06.27 13:26:56.
