data_PCOD8043151
_publ_section_title
;
Structure prediction by ZEFSAII (Michael W. Deem and Ramdas Pophale) SiO2 
 PCOD8043151
Probable space group: P -1
;
_chemical_formula_sum "Si O2"
_cell_formula_units_Z 16
_cell_length_a 22.267779
_cell_length_b 8.432216
_cell_length_c 22.525772
_cell_angle_alpha 38.534559
_cell_angle_beta 19.447510
_cell_angle_gamma 34.870492
_cell_volume 804.287227
_symmetry_space_group_name_H-M "P -1"
_symmetry_group_IT_number 2
_symmetry_cell_setting 'triclinic'
loop_
_space_group_symop_operation_xyz
x,y,z
-x,-y,-z
loop_
_atom_site_type_symbol
_atom_site_label
_atom_site_fract_x
_atom_site_fract_y
_atom_site_fract_z
Si Si1 0.432831 0.168491 0.454117
Si Si2 0.478100 0.714366 0.094751
Si Si3 0.198389 0.724316 0.672423
Si Si4 0.612272 0.270452 0.696898
Si Si5 0.085530 0.631716 0.677543
Si Si6 0.329837 0.968556 0.042885
Si Si7 0.225616 0.863405 0.042776
Si Si8 0.422754 0.198195 0.688066
O O1 0.515507 0.413951 0.300842
O O2 0.192539 0.329109 0.635178
O O3 0.500000 0.000000 0.500000
O O4 0.497477 0.966818 0.398102
O O5 0.357529 0.691138 0.271744
O O6 0.685471 0.445199 0.977451
O O7 0.368046 0.740427 0.126524
O O8 0.500000 0.000000 0.000000
O O9 0.135578 0.597632 0.710864
O O10 0.261243 0.503463 0.732670
O O11 0.386343 0.792002 0.459987
O O12 0.009705 0.999309 0.788093
O O13 0.824747 0.160471 0.498013
O O14 0.511841 0.058153 0.838098
O O15 0.853391 0.750719 0.849004
O O16 0.278888 0.837810 0.070379
O O17 0.323482 0.054742 0.866058
#
# Coordination Sequence:
#
# PCOD8043151 Si02
#       8
#     2   2   2   2   2   2   2   2
#     4  10  19  36  59  79 118 147 182 230 279 333
#     4  10  21  38  59  82 113 149 193 240 281 326
#     4  10  22  35  58  85 117 146 186 233 274 344
#     4   9  19  37  55  82 112 151 180 240 271 331
#     4   9  19  36  55  82 111 147 186 229 277 333
#     4  10  21  36  59  80 113 149 190 232 284 327
#     4  11  21  38  58  84 112 150 188 233 283 337
#     4  11  20  37  58  84 114 153 184 225 287 331
#
# _framework density 19.893391999999999
#
# number of rings (size 3 to 8) (size 9 to 14) (size 15 to 20)
#    0.750    1.250    2.500    1.500    0.000    2.500 
#    0.000    3.125    0.000    9.000    0.000    0.000 
#    0.000    0.000    0.000    0.000    0.000    0.000 
#
# Total GULP energy -198209.012285 kJ/mol
# GULP energy per Si atom -12388.063268 kJ/mol
# Density = 1.984811 g / cm^3
# Si number density = 19.893392 Si / 1000 Ang^3
#
#
#
# Elastic Constant Matrix: (Units=GPa)
#
#
# Indices 1 2 3 4 5 6 
#
# 1 63.1747 14.2293 21.3094 2.4564 6.3979 -16.5793
# 2 14.2293 78.7397 21.9425 5.4274 -1.9952 -11.5389
# 3 21.3094 21.9425 72.0794 6.6074 2.5853 -15.0691
# 4 2.4564 5.4274 6.6074 33.8374 -1.4776 6.3452
# 5 6.3979 -1.9952 2.5853 -1.4776 24.9173 -1.4925
# 6 -16.5793 -11.5389 -15.0691 6.3452 -1.4925 30.8053
#
#
#
# Elastic Compliance Matrix: (Units=1/GPa)
#
#
# Indices 1 2 3 4 5 6 
#
# 1 0.020168 -0.001351 -0.003267 -0.002504 -0.004554 0.009045
# 2 -0.001351 0.014567 -0.003111 -0.002253 0.001928 0.003765
# 3 -0.003267 -0.003111 0.017525 -0.003935 -0.001078 0.006408
# 4 -0.002504 -0.002253 -0.003935 0.032986 0.002180 -0.010805
# 5 -0.004554 0.001928 -0.001078 0.002180 0.041657 -0.000687
# 6 0.009045 0.003765 0.006408 -0.010805 -0.000687 0.044067
#
#
# Mechanical properties :
#
#
# Convention : Reuss Voigt Hill
#
# Bulk Modulus (GPa) = 27.17228 36.55070 31.86149
# Shear Modulus (GPa) = 25.16416 28.34617 26.75517
#
# Velocity S-wave (km/s) = 3.56047 3.77888 3.67130
# Velocity P-wave (km/s) = 5.53093 6.11990 5.83285
#
# Compressibility (1/GPa) = 0.03680222
#
# Stress axis : x y z
#
# Youngs Moduli (GPa) = 49.58375 68.64839 57.06022
#
# Poissons Ratio (x) = 0.09277 0.18642
# Poissons Ratio (y) = 0.06701 0.17749
# Poissons Ratio (z) = 0.16199 0.21353
#
# Static dielectric constant tensor:
#      x y z
#    x 4.193750 -0.230000 0.314510 
#    y -0.230000 3.692530 0.103680 
#    z 0.314510 0.103680 3.673300 
# 
# 
# High freq. dielectric constant tensor:
#      x y z
#    x 1.777070 -0.013300 0.024660 
#    y -0.013300 1.769720 0.011290 
#    z 0.024660 0.011290 1.761750 
# 
# From -- ./inp_files/614029.got.cif
#   From: 2010.06.25/outbox.cif.g09.slc.cpg/sg2_308_cif.got.tgz:614029.got - 2010.06.27 13:26:56.
