data_PCOD8043795
_publ_section_title
;
Structure prediction by ZEFSAII (Michael W. Deem and Ramdas Pophale) SiO2 
 PCOD8043795
Probable space group: P -1
;
_chemical_formula_sum "Si O2"
_cell_formula_units_Z 16
_cell_length_a 14.930821
_cell_length_b 8.529034
_cell_length_c 13.388325
_cell_angle_alpha 98.744478
_cell_angle_beta 37.995231
_cell_angle_gamma 121.670996
_cell_volume 773.799031
_symmetry_space_group_name_H-M "P -1"
_symmetry_group_IT_number 2
_symmetry_cell_setting 'triclinic'
loop_
_space_group_symop_operation_xyz
x,y,z
-x,-y,-z
loop_
_atom_site_type_symbol
_atom_site_label
_atom_site_fract_x
_atom_site_fract_y
_atom_site_fract_z
Si Si1 0.264693 0.253926 0.277204
Si Si2 0.706300 0.417053 0.234116
Si Si3 0.690733 0.637864 0.974718
Si Si4 0.898802 0.186663 0.581606
Si Si5 0.051985 0.565464 0.814677
Si Si6 0.790427 0.814017 0.119674
Si Si7 0.638536 0.959251 0.399382
Si Si8 0.913207 0.493850 0.724589
O O1 0.457634 0.476471 0.171229
O O2 0.092451 0.245311 0.464454
O O3 0.257021 0.069521 0.310840
O O4 0.249472 0.230803 0.167397
O O5 0.807546 0.458872 0.257172
O O6 0.704096 0.597186 0.226072
O O7 0.474814 0.203134 0.421963
O O8 0.837854 0.413302 0.039816
O O9 0.788352 0.798158 0.999196
O O10 0.745656 0.490902 0.910730
O O11 0.823048 0.280464 0.722621
O O12 0.937388 0.289073 0.448874
O O13 0.025310 0.492596 0.717502
O O14 0.144598 0.811912 0.750255
O O15 0.649252 0.852346 0.283616
O O16 0.000000 0.000000 0.000000
O O17 0.500000 0.000000 0.500000
#
# Coordination Sequence:
#
# PCOD8043795 Si02
#       8
#     2   2   2   2   2   2   2   2
#     4   9  20  40  57  87 118 151 199 242 298 353
#     4  10  21  37  59  83 118 162 200 250 292 362
#     4  10  21  37  60  84 121 154 193 250 292 355
#     4   9  20  37  62  84 115 151 195 247 295 365
#     4  10  20  39  59  85 123 158 197 255 301 353
#     4  12  22  39  60  89 123 166 203 247 307 358
#     4  10  22  39  58  84 120 157 203 250 293 358
#     4  10  19  37  59  85 115 153 190 243 306 345
#
# _framework density 20.677205000000001
#
# number of rings (size 3 to 8) (size 9 to 14) (size 15 to 20)
#    0.000    2.000    2.500    0.375    0.000    4.500 
#    0.000    5.000    0.000    0.000    0.000    0.000 
#    0.000    0.000    0.000    0.000    0.000    0.000 
#
# Total GULP energy -198239.002168 kJ/mol
# GULP energy per Si atom -12389.937635 kJ/mol
# Density = 2.063014 g / cm^3
# Si number density = 20.677205 Si / 1000 Ang^3
#
#
#
# Elastic Constant Matrix: (Units=GPa)
#
#
# Indices 1 2 3 4 5 6 
#
# 1 78.3822 12.9765 8.7969 8.8850 17.1149 3.7841
# 2 12.9765 53.1658 27.1246 7.0550 5.0109 -1.8898
# 3 8.7969 27.1246 82.9927 4.2735 -1.3764 5.6943
# 4 8.8850 7.0550 4.2735 37.4578 -8.3318 -0.5678
# 5 17.1149 5.0109 -1.3764 -8.3318 24.5605 0.9578
# 6 3.7841 -1.8898 5.6943 -0.5678 0.9578 35.9045
#
#
#
# Elastic Compliance Matrix: (Units=1/GPa)
#
#
# Indices 1 2 3 4 5 6 
#
# 1 0.016969 -0.001427 -0.001117 -0.006725 -0.013822 -0.001424
# 2 -0.001427 0.024492 -0.007904 -0.004698 -0.006148 0.002783
# 3 -0.001117 -0.007904 0.014958 0.000809 0.003611 -0.002754
# 4 -0.006725 -0.004698 0.000809 0.032830 0.016811 0.000404
# 5 -0.013822 -0.006148 0.003611 0.016811 0.057535 -0.000709
# 6 -0.001424 0.002783 -0.002754 0.000404 -0.000709 0.028610
#
#
# Mechanical properties :
#
#
# Convention : Reuss Voigt Hill
#
# Bulk Modulus (GPa) = 28.15238 34.70409 31.42823
# Shear Modulus (GPa) = 24.02318 30.62739 27.32529
#
# Velocity S-wave (km/s) = 3.41225 3.85283 3.63921
# Velocity P-wave (km/s) = 5.40086 6.05083 5.73506
#
# Compressibility (1/GPa) = 0.03552098
#
# Stress axis : x y z
#
# Youngs Moduli (GPa) = 58.93193 40.82979 66.85236
#
# Poissons Ratio (x) = 0.05827 0.07471
# Poissons Ratio (y) = 0.08410 0.52843
# Poissons Ratio (z) = 0.06585 0.32274
#
# Static dielectric constant tensor:
#      x y z
#    x 3.746100 -0.279530 0.206170 
#    y -0.279530 4.559770 -0.851770 
#    z 0.206170 -0.851770 4.661830 
# 
# 
# High freq. dielectric constant tensor:
#      x y z
#    x 1.799500 -0.019430 0.003490 
#    y -0.019430 1.790800 -0.004120 
#    z 0.003490 -0.004120 1.815360 
# 
# From -- ./inp_files/217878.got.cif
#   From: 2010.06.25/outbox.cif.g09.slc.cpg/sg2_109_cif.got.tgz:217878.got - 2010.06.27 13:26:56.
