data_PCOD8043737
_publ_section_title
;
Structure prediction by ZEFSAII (Michael W. Deem and Ramdas Pophale) SiO2 
 PCOD8043737
Probable space group: P -1
;
_chemical_formula_sum "Si O2"
_cell_formula_units_Z 14
_cell_length_a 8.396203
_cell_length_b 14.075777
_cell_length_c 16.400809
_cell_angle_alpha 154.952545
_cell_angle_beta 59.750993
_cell_angle_gamma 121.461660
_cell_volume 697.406452
_symmetry_space_group_name_H-M "P -1"
_symmetry_group_IT_number 2
_symmetry_cell_setting 'triclinic'
loop_
_space_group_symop_operation_xyz
x,y,z
-x,-y,-z
loop_
_atom_site_type_symbol
_atom_site_label
_atom_site_fract_x
_atom_site_fract_y
_atom_site_fract_z
Si Si1 0.131244 0.173504 0.701315
Si Si2 0.067092 0.526362 0.112298
Si Si3 0.756763 0.456092 0.360234
Si Si4 0.486218 0.173528 0.320582
Si Si5 0.513981 0.738854 0.429029
Si Si6 0.659901 0.300482 0.090110
Si Si7 0.863637 0.296050 0.596769
O O1 0.312028 0.142564 0.578108
O O2 0.962480 0.233234 0.734407
O O3 0.060243 0.937107 0.583108
O O4 0.187818 0.383162 0.914164
O O5 0.169037 0.576250 0.211112
O O6 0.860130 0.374578 0.053648
O O7 0.689731 0.312486 0.347177
O O8 0.671057 0.684844 0.554986
O O9 0.689148 0.293777 0.174398
O O10 0.980969 0.538253 0.367465
O O11 0.487459 0.127837 0.381366
O O12 0.445058 0.937964 0.100634
O O13 0.523993 0.477429 0.240999
O O14 0.326226 0.760504 0.447392
#
# Coordination Sequence:
#
# PCOD8043737 Si02
#       7
#     2   2   2   2   2   2   2
#     4  10  20  36  54  78 106 140 177 214 260 308
#     4   9  20  34  56  81 101 136 181 217 258 306
#     4   9  20  35  58  82  99 135 185 218 257 307
#     4  10  19  37  58  77 105 139 175 221 261 303
#     4  10  23  34  51  82 110 141 174 205 265 326
#     4   9  18  36  55  78 107 136 175 220 258 306
#     4  11  21  36  53  79 113 137 170 219 261 314
#
# _framework density 20.074376000000001
#
# number of rings (size 3 to 8) (size 9 to 14) (size 15 to 20)
#    0.000    2.286    0.000    3.000    0.000    5.714 
#    0.000    0.714    0.000    0.000    0.000    0.000 
#    0.000    0.000    0.000    0.000    0.000    0.000 
#
# Total GULP energy -173598.186166 kJ/mol
# GULP energy per Si atom -12399.870440 kJ/mol
# Density = 2.002869 g / cm^3
# Si number density = 20.074376 Si / 1000 Ang^3
#
#
#
# Elastic Constant Matrix: (Units=GPa)
#
#
# Indices 1 2 3 4 5 6 
#
# 1 46.0376 19.9013 16.6991 4.7835 2.3104 3.7026
# 2 19.9013 88.0541 31.3418 -8.5002 -1.1773 6.2298
# 3 16.6991 31.3418 77.5223 -2.6855 10.4124 5.7288
# 4 4.7835 -8.5002 -2.6855 24.6185 3.1125 0.7016
# 5 2.3104 -1.1773 10.4124 3.1125 13.1332 2.0653
# 6 3.7026 6.2298 5.7288 0.7016 2.0653 15.5681
#
#
#
# Elastic Compliance Matrix: (Units=1/GPa)
#
#
# Indices 1 2 3 4 5 6 
#
# 1 0.026214 -0.005157 -0.003610 -0.007182 -0.000116 -0.002503
# 2 -0.005157 0.015293 -0.005412 0.005047 0.005990 -0.003924
# 3 -0.003610 -0.005412 0.018040 0.002686 -0.014505 -0.001811
# 4 -0.007182 0.005047 0.002686 0.045483 -0.010894 -0.001904
# 5 -0.000116 0.005990 -0.014505 -0.010894 0.092160 -0.008767
# 6 -0.002503 -0.003924 -0.001811 -0.001904 -0.008767 0.068315
#
#
# Mechanical properties :
#
#
# Convention : Reuss Voigt Hill
#
# Bulk Modulus (GPa) = 32.06249 38.61093 35.33671
# Shear Modulus (GPa) = 16.43336 20.24208 18.33772
#
# Velocity S-wave (km/s) = 2.86426 3.17890 3.02568
# Velocity P-wave (km/s) = 5.19088 5.72273 5.46328
#
# Compressibility (1/GPa) = 0.03118910
#
# Stress axis : x y z
#
# Youngs Moduli (GPa) = 38.14816 65.38745 55.43195
#
# Poissons Ratio (x) = 0.33724 0.20010
# Poissons Ratio (y) = 0.19675 0.29999
# Poissons Ratio (z) = 0.13771 0.35386
#
# Static dielectric constant tensor:
#      x y z
#    x 3.200840 -0.045910 0.049300 
#    y -0.045910 3.893210 -0.175970 
#    z 0.049300 -0.175970 3.591110 
# 
# 
# High freq. dielectric constant tensor:
#      x y z
#    x 1.747340 -0.000370 0.011420 
#    y -0.000370 1.793690 -0.009190 
#    z 0.011420 -0.009190 1.786980 
# 
# From -- ./inp_files/89990.got.cif
#   From: 2010.06.25/outbox.cif.g09.slc.cpg/sg2_45_cif.got.tgz:89990.got - 2010.06.27 13:26:56.
