data_PCOD8043864
_publ_section_title
;
Structure prediction by ZEFSAII (Michael W. Deem and Ramdas Pophale) SiO2 
 PCOD8043864
Probable space group: P -1
;
_chemical_formula_sum "Si O2"
_cell_formula_units_Z 16
_cell_length_a 11.866509
_cell_length_b 13.697562
_cell_length_c 11.331335
_cell_angle_alpha 147.272535
_cell_angle_beta 59.934535
_cell_angle_gamma 127.985911
_cell_volume 784.218763
_symmetry_space_group_name_H-M "P -1"
_symmetry_group_IT_number 2
_symmetry_cell_setting 'triclinic'
loop_
_space_group_symop_operation_xyz
x,y,z
-x,-y,-z
loop_
_atom_site_type_symbol
_atom_site_label
_atom_site_fract_x
_atom_site_fract_y
_atom_site_fract_z
Si Si1 0.210567 0.360288 0.234492
Si Si2 0.475440 0.396872 0.721255
Si Si3 0.712852 0.994977 0.195305
Si Si4 0.160276 0.628852 0.351116
Si Si5 0.454544 0.738578 0.224295
Si Si6 0.848750 0.495113 0.346878
Si Si7 0.357007 0.343522 0.480686
Si Si8 0.653110 0.038204 0.010710
O O1 0.376902 0.481614 0.299281
O O2 0.163369 0.434046 0.214536
O O3 0.132482 0.400426 0.428739
O O4 0.193569 0.135171 0.995046
O O5 0.494689 0.242688 0.645569
O O6 0.369297 0.304870 0.574224
O O7 0.428056 0.534034 0.967076
O O8 0.579274 0.920640 0.280604
O O9 0.828808 0.210459 0.390875
O O10 0.637830 0.009800 0.129219
O O11 0.295673 0.734106 0.299448
O O12 0.012823 0.559981 0.285069
O O13 0.766670 0.578429 0.385047
O O14 0.770047 0.257411 0.145000
O O15 0.500000 0.500000 0.500000
O O16 0.298579 0.127121 0.232829
O O17 0.500000 0.000000 0.000000
#
# Coordination Sequence:
#
# PCOD8043864 Si02
#       8
#     2   2   2   2   2   2   2   2
#     4  10  19  37  60  87 125 159 196 260 305 354
#     4   9  18  37  65  89 117 159 210 258 304 349
#     4  11  22  39  67  95 118 165 213 254 307 354
#     4  11  24  39  59  91 134 162 204 251 305 375
#     4   9  20  39  64  92 118 163 212 257 294 359
#     4  12  24  39  59  94 132 164 196 251 321 369
#     4  12  21  40  63  90 127 160 204 260 309 367
#     4  12  24  37  64  98 121 158 206 256 314 368
#
# _framework density 20.402470000000001
#
# number of rings (size 3 to 8) (size 9 to 14) (size 15 to 20)
#    0.000    1.250    5.000    2.250    1.750    1.500 
#    0.000    0.625    0.000    1.500    0.000    0.000 
#    0.000    0.000    0.000    0.000    0.000    0.000 
#
# Total GULP energy -198309.156912 kJ/mol
# GULP energy per Si atom -12394.322307 kJ/mol
# Density = 2.035603 g / cm^3
# Si number density = 20.402470 Si / 1000 Ang^3
#
#
#
# Elastic Constant Matrix: (Units=GPa)
#
#
# Indices 1 2 3 4 5 6 
#
# 1 121.8025 40.2970 63.2461 11.8877 3.0874 16.6296
# 2 40.2970 61.5619 61.0463 4.7260 5.3622 5.8310
# 3 63.2461 61.0463 68.3825 12.6637 -2.8127 -0.5286
# 4 11.8877 4.7260 12.6637 23.1890 -10.4829 0.9140
# 5 3.0874 5.3622 -2.8127 -10.4829 30.7573 -3.0069
# 6 16.6296 5.8310 -0.5286 0.9140 -3.0069 28.3886
#
#
#
# Elastic Compliance Matrix: (Units=1/GPa)
#
#
# Indices 1 2 3 4 5 6 
#
# 1 -0.006698 -0.062007 0.064795 -0.013417 0.014777 0.019863
# 2 -0.062007 -0.145928 0.195051 -0.026303 0.047953 0.075854
# 3 0.064795 0.195051 -0.227706 0.027460 -0.060731 -0.089576
# 4 -0.013417 -0.026303 0.027460 0.052317 0.027744 0.015028
# 5 0.014777 0.047953 -0.060731 0.027744 0.024821 -0.017901
# 6 0.019863 0.075854 -0.089576 0.015028 -0.017901 0.003962
#
#
# Mechanical properties :
#
#
# Convention : Reuss Voigt Hill
#
# Bulk Modulus (GPa) = 65.15459 64.54729 64.85094
# Shear Modulus (GPa) = -7.24853 22.27746 7.51447
#
# Velocity S-wave (km/s) = -1.88692 3.30798 1.92123
# Velocity P-wave (km/s) = 5.22079 6.80411 6.06435
#
# Compressibility (1/GPa) = 0.01534811
#
# Stress axis : x y z
#
# Youngs Moduli (GPa) = -149.30688 -6.85270 -4.39163
#
# Poissons Ratio (x) = -0.42491 0.28456
# Poissons Ratio (y) = -9.25802 0.85659
# Poissons Ratio (z) = 9.67435 1.33663
#
# Static dielectric constant tensor:
#      x y z
#    x 3.724680 -0.106090 -0.219500 
#    y -0.106090 3.514220 0.042950 
#    z -0.219500 0.042950 3.952230 
# 
# 
# High freq. dielectric constant tensor:
#      x y z
#    x 1.794080 -0.005910 -0.014970 
#    y -0.005910 1.771480 0.004300 
#    z -0.014970 0.004300 1.806450 
# 
# From -- ./inp_files/433252.got.cif
#   From: 2010.06.25/outbox.cif.g09.slc.cpg/sg2_217_cif.got.tgz:433252.got - 2010.06.27 13:26:56.
