data_PCOD8043091
_publ_section_title
;
Structure prediction by ZEFSAII (Michael W. Deem and Ramdas Pophale) SiO2 
 PCOD8043091
Probable space group: P -1
;
_chemical_formula_sum "Si O2"
_cell_formula_units_Z 14
_cell_length_a 15.434506
_cell_length_b 6.539026
_cell_length_c 8.871540
_cell_angle_alpha 88.439278
_cell_angle_beta 106.185980
_cell_angle_gamma 121.921677
_cell_volume 721.871715
_symmetry_space_group_name_H-M "P -1"
_symmetry_group_IT_number 2
_symmetry_cell_setting 'triclinic'
loop_
_space_group_symop_operation_xyz
x,y,z
-x,-y,-z
loop_
_atom_site_type_symbol
_atom_site_label
_atom_site_fract_x
_atom_site_fract_y
_atom_site_fract_z
Si Si1 0.586341 0.221745 0.938000
Si Si2 0.855767 0.929011 0.819644
Si Si3 0.504664 0.794174 0.424060
Si Si4 0.730053 0.700240 0.185265
Si Si5 0.904296 0.682983 0.108076
Si Si6 0.325871 0.308913 0.500910
Si Si7 0.772630 0.139787 0.013385
O O1 0.531319 0.248821 0.765340
O O2 0.637567 0.473350 0.049237
O O3 0.674827 0.168924 0.927271
O O4 0.500000 0.000000 0.000000
O O5 0.780254 0.785101 0.646064
O O6 0.869951 0.743173 0.930911
O O7 0.969419 0.143065 0.805561
O O8 0.800694 0.042225 0.883484
O O9 0.425032 0.560370 0.486486
O O10 0.628391 0.866560 0.481314
O O11 0.500000 0.000000 0.500000
O O12 0.843275 0.725070 0.212351
O O13 0.701950 0.652599 0.346419
O O14 0.740540 0.950789 0.138558
O O15 0.874928 0.406313 0.101147
#
# Coordination Sequence:
#
# PCOD8043091 Si02
#       7
#     2   2   2   2   2   2   2
#     4  11  22  37  59  83 111 150 188 225 271 327
#     4  10  20  37  60  83 109 143 186 232 276 326
#     4  11  23  38  56  82 113 147 185 226 273 325
#     4  10  22  37  55  83 114 145 184 227 275 331
#     4   9  20  38  60  83 107 144 188 228 275 331
#     4  11  23  37  55  82 115 146 180 228 278 324
#     4  10  19  36  58  81 109 144 187 228 271 327
#
# _framework density 19.394027999999999
#
# number of rings (size 3 to 8) (size 9 to 14) (size 15 to 20)
#    0.000    1.714    0.000    5.571    0.000    6.286 
#    0.000    0.714    0.000    0.000    0.000    0.000 
#    0.000    0.000    0.000    0.000    0.000    0.000 
#
# Total GULP energy -173617.481424 kJ/mol
# GULP energy per Si atom -12401.248673 kJ/mol
# Density = 1.934989 g / cm^3
# Si number density = 19.394028 Si / 1000 Ang^3
#
#
#
# Elastic Constant Matrix: (Units=GPa)
#
#
# Indices 1 2 3 4 5 6 
#
# 1 79.7653 38.1039 58.8274 4.0993 0.2299 16.9425
# 2 38.1039 114.6868 32.8950 2.2832 -5.8083 5.3942
# 3 58.8274 32.8950 119.3041 1.7098 -9.6103 6.7561
# 4 4.0993 2.2832 1.7098 27.4208 6.8488 -3.4448
# 5 0.2299 -5.8083 -9.6103 6.8488 30.8775 -0.4120
# 6 16.9425 5.3942 6.7561 -3.4448 -0.4120 36.6430
#
#
#
# Elastic Compliance Matrix: (Units=1/GPa)
#
#
# Indices 1 2 3 4 5 6 
#
# 1 0.024821 -0.004908 -0.010646 -0.002802 -0.003921 -0.009098
# 2 -0.004908 0.010530 -0.000355 -0.000534 0.002036 0.000757
# 3 -0.010646 -0.000355 0.013945 -0.000038 0.004394 0.002449
# 4 -0.002802 -0.000534 -0.000038 0.039775 -0.008847 0.005021
# 5 -0.003921 0.002036 0.004394 -0.008847 0.036132 0.000278
# 6 -0.009098 0.000757 0.002449 0.005021 0.000278 0.031409
#
#
# Mechanical properties :
#
#
# Convention : Reuss Voigt Hill
#
# Bulk Modulus (GPa) = 57.21331 63.71209 60.46270
# Shear Modulus (GPa) = 25.73952 31.25026 28.49489
#
# Velocity S-wave (km/s) = 3.64701 4.01850 3.83725
# Velocity P-wave (km/s) = 6.87741 7.37928 7.13276
#
# Compressibility (1/GPa) = 0.01747845
#
# Stress axis : x y z
#
# Youngs Moduli (GPa) = 40.28923 94.96850 71.71074
#
# Poissons Ratio (x) = 0.46609 0.76343
# Poissons Ratio (y) = 0.19773 0.02543
# Poissons Ratio (z) = 0.42892 0.03368
#
# Static dielectric constant tensor:
#      x y z
#    x 3.903650 -0.004920 0.094260 
#    y -0.004920 3.768010 -0.090640 
#    z 0.094260 -0.090640 3.397130 
# 
# 
# High freq. dielectric constant tensor:
#      x y z
#    x 1.771330 0.003160 -0.004660 
#    y 0.003160 1.767750 -0.003590 
#    z -0.004660 -0.003590 1.737580 
# 
# From -- ./inp_files/27099.got.cif
#   From: 2010.06.25/outbox.cif.g09.slc.cpg/sg2_14_cif.got.tgz:27099.got - 2010.06.27 13:26:56.
