data_PCOD8043086
_publ_section_title
;
Structure prediction by ZEFSAII (Michael W. Deem and Ramdas Pophale) SiO2 
 PCOD8043086
Probable space group: P -1
;
_chemical_formula_sum "Si O2"
_cell_formula_units_Z 16
_cell_length_a 8.969005
_cell_length_b 20.071733
_cell_length_c 16.594285
_cell_angle_alpha 160.190040
_cell_angle_beta 137.080656
_cell_angle_gamma 43.273159
_cell_volume 679.450345
_symmetry_space_group_name_H-M "P -1"
_symmetry_group_IT_number 2
_symmetry_cell_setting 'triclinic'
loop_
_space_group_symop_operation_xyz
x,y,z
-x,-y,-z
loop_
_atom_site_type_symbol
_atom_site_label
_atom_site_fract_x
_atom_site_fract_y
_atom_site_fract_z
Si Si1 0.757139 0.260547 0.809097
Si Si2 0.631035 0.315049 0.409297
Si Si3 0.717243 0.500269 0.327571
Si Si4 0.436546 0.356677 0.925465
Si Si5 0.784419 0.697440 0.973048
Si Si6 0.364390 0.870102 0.640598
Si Si7 0.914575 0.822586 0.336585
Si Si8 0.821112 0.452761 0.493566
O O1 0.620843 0.420452 0.877687
O O2 0.981588 0.324527 0.008364
O O3 0.829931 0.058330 0.555677
O O4 0.602306 0.219207 0.774314
O O5 0.684407 0.130796 0.282521
O O6 0.784952 0.282052 0.351794
O O7 0.364405 0.359133 0.334116
O O8 0.663437 0.512155 0.698082
O O9 0.556719 0.366464 0.070218
O O10 0.598572 0.729632 0.554564
O O11 0.780914 0.394267 0.318321
O O12 0.929579 0.500376 0.352983
O O13 0.220924 0.253785 0.730465
O O14 0.871255 0.694517 0.096337
O O15 0.621344 0.903445 0.120476
O O16 0.171188 0.783104 0.418217
#
# Coordination Sequence:
#
# PCOD8043086 Si02
#       8
#     2   2   2   2   2   2   2   2
#     4  10  22  36  53  85 120 142 176 222 265 323
#     4  10  20  38  60  81 106 143 186 226 275 324
#     4  10  19  36  58  80 109 145 183 227 278 318
#     4  11  21  35  58  82 110 151 182 215 271 328
#     4  11  21  36  58  83 112 146 180 219 270 329
#     4  10  21  36  56  82 113 146 178 220 271 325
#     4  11  21  35  55  84 116 145 180 218 261 328
#     4   9  20  37  58  81 107 139 185 240 274 310
#
# _framework density 23.548448
#
# number of rings (size 3 to 8) (size 9 to 14) (size 15 to 20)
#    0.000    1.750    0.000    6.375    0.000    2.500 
#    0.000    8.750    0.000    3.000    0.000    0.000 
#    0.000    0.000    0.000    0.000    0.000    0.000 
#
# Total GULP energy -198338.484611 kJ/mol
# GULP energy per Si atom -12396.155288 kJ/mol
# Density = 2.349485 g / cm^3
# Si number density = 23.548448 Si / 1000 Ang^3
#
#
#
# Elastic Constant Matrix: (Units=GPa)
#
#
# Indices 1 2 3 4 5 6 
#
# 1 116.2459 22.0461 -5.8849 3.6289 6.3084 -15.4788
# 2 22.0461 77.1942 9.2235 -0.4722 -4.6831 1.2936
# 3 -5.8849 9.2235 34.8862 0.6040 -0.4642 -16.5697
# 4 3.6289 -0.4722 0.6040 12.2519 -1.0545 6.2865
# 5 6.3084 -4.6831 -0.4642 -1.0545 28.9701 -4.1998
# 6 -15.4788 1.2936 -16.5697 6.2865 -4.1998 39.4949
#
#
#
# Elastic Compliance Matrix: (Units=1/GPa)
#
#
# Indices 1 2 3 4 5 6 
#
# 1 0.011398 -0.004476 0.007452 -0.008661 -0.002112 0.008894
# 2 -0.004476 0.015469 -0.007842 0.005706 0.002662 -0.006176
# 3 0.007452 -0.007842 0.043887 -0.017127 0.000726 0.024393
# 4 -0.008661 0.005706 -0.017127 0.098927 0.002327 -0.026266
# 5 -0.002112 0.002662 0.000726 0.002327 0.035916 0.002838
# 6 0.008894 -0.006176 0.024393 -0.026266 0.002838 0.043724
#
#
# Mechanical properties :
#
#
# Convention : Reuss Voigt Hill
#
# Bulk Modulus (GPa) = 16.38693 31.01060 23.69877
# Shear Modulus (GPa) = 17.89592 29.67282 23.78437
#
# Velocity S-wave (km/s) = 2.75973 3.55361 3.18153
# Velocity P-wave (km/s) = 4.13869 5.48041 4.85611
#
# Compressibility (1/GPa) = 0.06102423
#
# Stress axis : x y z
#
# Youngs Moduli (GPa) = 87.73581 64.64364 22.78575
#
# Poissons Ratio (x) = 0.28933 -0.16981
# Poissons Ratio (y) = 0.39268 0.17868
# Poissons Ratio (z) = -0.65383 0.50691
#
# Static dielectric constant tensor:
#      x y z
#    x 4.692540 -0.030400 0.144390 
#    y -0.030400 4.382980 -0.163750 
#    z 0.144390 -0.163750 3.726030 
# 
# 
# High freq. dielectric constant tensor:
#      x y z
#    x 1.954950 0.007070 0.008670 
#    y 0.007070 1.935010 -0.014410 
#    z 0.008670 -0.014410 1.890220 
# 
# From -- ./inp_files/544296.got.cif
#   From: 2010.06.25/outbox.cif.g09.slc.cpg/sg2_273_cif.got.tgz:544296.got - 2010.06.27 13:26:56.
