data_PCOD8043929
_publ_section_title
;
Structure prediction by ZEFSAII (Michael W. Deem and Ramdas Pophale) SiO2 
 PCOD8043929
Probable space group: P -1
;
_chemical_formula_sum "Si O2"
_cell_formula_units_Z 12
_cell_length_a 9.362550
_cell_length_b 11.253255
_cell_length_c 7.940741
_cell_angle_alpha 103.224665
_cell_angle_beta 107.366522
_cell_angle_gamma 127.457218
_cell_volume 532.852635
_symmetry_space_group_name_H-M "P -1"
_symmetry_group_IT_number 2
_symmetry_cell_setting 'triclinic'
loop_
_space_group_symop_operation_xyz
x,y,z
-x,-y,-z
loop_
_atom_site_type_symbol
_atom_site_label
_atom_site_fract_x
_atom_site_fract_y
_atom_site_fract_z
Si Si1 0.085332 0.841506 0.436386
Si Si2 0.083352 0.566568 0.363392
Si Si3 0.492356 0.807863 0.400449
Si Si4 0.668938 0.949451 0.071145
Si Si5 0.640755 0.699726 0.159548
Si Si6 0.745447 0.203539 0.969395
O O1 0.017246 0.663195 0.311920
O O2 0.196280 0.913323 0.681030
O O3 0.874232 0.800828 0.346537
O O4 0.264493 0.996925 0.413171
O O5 0.348069 0.700621 0.484049
O O6 0.000000 0.500000 0.500000
O O7 0.977083 0.407410 0.144384
O O8 0.511177 0.698129 0.256325
O O9 0.351607 0.828708 0.259329
O O10 0.681440 0.809067 0.042976
O O11 0.414715 0.834954 0.957436
O O12 0.764937 0.068298 0.972526
O O13 0.500000 0.500000 0.000000
#
# Coordination Sequence:
#
# PCOD8043929 Si02
#       6
#     2   2   2   2   2   2
#     4  10  19  37  61  87 121 154 195 243 305 355
#     4  12  22  36  60  93 120 155 202 250 290 346
#     4  10  22  38  61  89 121 159 199 241 296 356
#     4   9  17  33  57  86 116 155 192 240 295 348
#     4  10  20  37  63  88 120 160 196 243 303 357
#     4   9  18  34  56  85 120 150 195 242 292 343
#
# _framework density 22.520298
#
# number of rings (size 3 to 8) (size 9 to 14) (size 15 to 20)
#    0.000    2.333    1.667    5.000    0.000    0.000 
#    0.000    0.833    0.000    2.000    0.000    1.167 
#    0.000    0.000    0.000    0.000    0.000    0.000 
#
# Total GULP energy -148681.569782 kJ/mol
# GULP energy per Si atom -12390.130815 kJ/mol
# Density = 2.246904 g / cm^3
# Si number density = 22.520298 Si / 1000 Ang^3
#
#
#
# Elastic Constant Matrix: (Units=GPa)
#
#
# Indices 1 2 3 4 5 6 
#
# 1 108.8172 67.7523 20.9885 -3.9297 9.1316 -5.4863
# 2 67.7523 142.8117 37.8544 18.5957 -4.1852 -4.2287
# 3 20.9885 37.8544 40.0745 11.3388 12.8157 2.6115
# 4 -3.9297 18.5957 11.3388 28.7275 -0.6539 -10.5835
# 5 9.1316 -4.1852 12.8157 -0.6539 30.8749 9.1805
# 6 -5.4863 -4.2287 2.6115 -10.5835 9.1805 48.4905
#
#
#
# Elastic Compliance Matrix: (Units=1/GPa)
#
#
# Indices 1 2 3 4 5 6 
#
# 1 0.015828 -0.008499 -0.001216 0.009635 -0.006444 0.004438
# 2 -0.008499 0.014979 -0.010459 -0.007439 0.009474 -0.002509
# 3 -0.001216 -0.010459 0.045455 -0.012738 -0.019422 -0.002601
# 4 0.009635 -0.007439 -0.012738 0.050503 -0.001181 0.012374
# 5 -0.006444 0.009474 -0.019422 -0.001181 0.045939 -0.007812
# 6 0.004438 -0.002509 -0.002601 0.012374 -0.007812 0.025226
#
#
# Mechanical properties :
#
#
# Convention : Reuss Voigt Hill
#
# Bulk Modulus (GPa) = 27.84500 60.54375 44.19438
# Shear Modulus (GPa) = 19.98015 32.62579 26.30297
#
# Velocity S-wave (km/s) = 2.98183 3.81035 3.42126
# Velocity P-wave (km/s) = 4.92406 6.80447 5.93915
#
# Compressibility (1/GPa) = 0.03591309
#
# Stress axis : x y z
#
# Youngs Moduli (GPa) = 63.17720 66.76212 21.99988
#
# Poissons Ratio (x) = 0.56741 0.02676
# Poissons Ratio (y) = 0.53694 0.23010
# Poissons Ratio (z) = 0.07685 0.69826
#
# Static dielectric constant tensor:
#      x y z
#    x 3.994490 -0.061920 0.193480 
#    y -0.061920 4.570700 0.279610 
#    z 0.193480 0.279610 3.739570 
# 
# 
# High freq. dielectric constant tensor:
#      x y z
#    x 1.865290 -0.007570 0.006370 
#    y -0.007570 1.898860 0.024400 
#    z 0.006370 0.024400 1.870900 
# 
# From -- ./inp_files/168070.got.cif
#   From: 2010.06.25/outbox.cif.g09.slc.cpg/sg2_85_cif.got.tgz:168070.got - 2010.06.27 13:26:56.
