data_PCOD8043695
_publ_section_title
;
Structure prediction by ZEFSAII (Michael W. Deem and Ramdas Pophale) SiO2 
 PCOD8043695
Probable space group: P -1
;
_chemical_formula_sum "Si O2"
_cell_formula_units_Z 14
_cell_length_a 8.925085
_cell_length_b 16.192477
_cell_length_c 11.315519
_cell_angle_alpha 131.322715
_cell_angle_beta 38.019532
_cell_angle_gamma 134.109730
_cell_volume 699.643378
_symmetry_space_group_name_H-M "P -1"
_symmetry_group_IT_number 2
_symmetry_cell_setting 'triclinic'
loop_
_space_group_symop_operation_xyz
x,y,z
-x,-y,-z
loop_
_atom_site_type_symbol
_atom_site_label
_atom_site_fract_x
_atom_site_fract_y
_atom_site_fract_z
Si Si1 0.881835 0.405194 0.084505
Si Si2 0.008914 0.122696 0.560787
Si Si3 0.336909 0.330062 0.727638
Si Si4 0.702206 0.298881 0.657605
Si Si5 0.767243 0.522746 0.487958
Si Si6 0.868921 0.784866 0.677325
Si Si7 0.573191 0.214157 0.915938
O O1 0.735141 0.453227 0.318634
O O2 0.123757 0.375636 0.960738
O O3 0.000000 0.500000 0.000000
O O4 0.676097 0.289164 0.042010
O O5 0.197949 0.230468 0.623425
O O6 0.127791 0.141837 0.373829
O O7 0.710210 0.118478 0.736145
O O8 0.000000 0.000000 0.500000
O O9 0.449426 0.273400 0.709211
O O10 0.576111 0.438460 0.623812
O O11 0.626029 0.290989 0.836152
O O12 0.923111 0.431708 0.622785
O O13 0.833885 0.201280 0.456727
O O14 0.704166 0.642013 0.622685
O O15 0.741167 0.838439 0.911617
#
# Coordination Sequence:
#
# PCOD8043695 Si02
#       7
#     2   2   2   2   2   2   2
#     4  11  19  32  50  79 109 147 185 212 261 317
#     4  10  22  40  59  81 104 139 190 232 269 316
#     4  11  22  35  56  81 113 145 180 225 270 321
#     4   9  21  35  51  84 115 146 174 216 274 328
#     4  10  20  33  55  82 114 144 178 214 268 325
#     4   9  20  37  57  79 112 144 179 223 270 321
#     4  10  19  37  56  79 112 145 179 225 269 322
#
# _framework density 20.010196000000001
#
# number of rings (size 3 to 8) (size 9 to 14) (size 15 to 20)
#    0.857    1.143    1.429    3.000    0.000    4.000 
#    0.000    2.857    0.000    1.714    0.000    0.000 
#    0.000    0.000    0.000    0.000    0.000    0.000 
#
# Total GULP energy -173444.304158 kJ/mol
# GULP energy per Si atom -12388.878868 kJ/mol
# Density = 1.996465 g / cm^3
# Si number density = 20.010196 Si / 1000 Ang^3
#
#
#
# Elastic Constant Matrix: (Units=GPa)
#
#
# Indices 1 2 3 4 5 6 
#
# 1 90.9247 16.7435 31.8609 -8.3215 -20.3100 -22.4787
# 2 16.7435 69.7373 28.0477 1.3993 -8.5144 -27.8858
# 3 31.8609 28.0477 125.7963 -17.9298 -10.7849 -18.7768
# 4 -8.3215 1.3993 -17.9298 18.8395 -4.7444 -1.8886
# 5 -20.3100 -8.5144 -10.7849 -4.7444 20.6152 2.8669
# 6 -22.4787 -27.8858 -18.7768 -1.8886 2.8669 24.2331
#
#
#
# Elastic Compliance Matrix: (Units=1/GPa)
#
#
# Indices 1 2 3 4 5 6 
#
# 1 0.027622 0.011469 0.003065 0.026830 0.034272 0.039231
# 2 0.011469 0.032501 0.000628 0.013402 0.021597 0.047014
# 3 0.003065 0.000628 0.012555 0.017621 0.012061 0.013240
# 4 0.026830 0.013402 0.017621 0.100495 0.056653 0.055092
# 5 0.034272 0.021597 0.012061 0.056653 0.102435 0.058286
# 6 0.039231 0.047014 0.013240 0.055092 0.058286 0.139415
#
#
# Mechanical properties :
#
#
# Convention : Reuss Voigt Hill
#
# Bulk Modulus (GPa) = 9.70861 48.86251 29.28556
# Shear Modulus (GPa) = 11.93224 26.72464 19.32844
#
# Velocity S-wave (km/s) = 2.44459 3.65848 3.11131
# Velocity P-wave (km/s) = 3.58195 6.50521 5.25111
#
# Compressibility (1/GPa) = 0.10300141
#
# Stress axis : x y z
#
# Youngs Moduli (GPa) = 36.20318 30.76837 79.65071
#
# Poissons Ratio (x) = -0.35287 -0.24414
# Poissons Ratio (y) = -0.41520 -0.05003
# Poissons Ratio (z) = -0.11097 -0.01933
#
# Static dielectric constant tensor:
#      x y z
#    x 4.021680 0.158150 0.181590 
#    y 0.158150 3.319390 0.105770 
#    z 0.181590 0.105770 4.273980 
# 
# 
# High freq. dielectric constant tensor:
#      x y z
#    x 1.769790 -0.011950 -0.015660 
#    y -0.011950 1.739270 -0.016040 
#    z -0.015660 -0.016040 1.794000 
# 
# From -- ./inp_files/399528.got.cif
#   From: 2010.06.25/outbox.cif.g09.slc.cpg/sg2_200_cif.got.tgz:399528.got - 2010.06.27 13:26:56.
