data_PCOD8043326
_publ_section_title
;
Structure prediction by ZEFSAII (Michael W. Deem and Ramdas Pophale) SiO2 
 PCOD8043326
Probable space group: P -1
;
_chemical_formula_sum "Si O2"
_cell_formula_units_Z 16
_cell_length_a 8.457908
_cell_length_b 19.664894
_cell_length_c 15.830031
_cell_angle_alpha 163.587293
_cell_angle_beta 84.474629
_cell_angle_gamma 95.246286
_cell_volume 740.479725
_symmetry_space_group_name_H-M "P -1"
_symmetry_group_IT_number 2
_symmetry_cell_setting 'triclinic'
loop_
_space_group_symop_operation_xyz
x,y,z
-x,-y,-z
loop_
_atom_site_type_symbol
_atom_site_label
_atom_site_fract_x
_atom_site_fract_y
_atom_site_fract_z
Si Si1 0.346318 0.142877 0.819922
Si Si2 0.320780 0.588438 0.609196
Si Si3 0.295090 0.398311 0.966705
Si Si4 0.220878 0.616286 0.465537
Si Si5 0.099960 0.246704 0.308361
Si Si6 0.584156 0.762652 0.398996
Si Si7 0.126094 0.812692 0.538338
Si Si8 0.774299 0.922227 0.732985
O O1 0.517137 0.026143 0.691642
O O2 0.205387 0.979253 0.664352
O O3 0.323308 0.167120 0.749235
O O4 0.330160 0.396023 0.169382
O O5 0.500000 0.500000 0.500000
O O6 0.292108 0.704116 0.655645
O O7 0.199330 0.364062 0.365549
O O8 0.286389 0.801841 0.931589
O O9 0.443642 0.573243 0.182745
O O10 0.135874 0.539608 0.174143
O O11 0.285211 0.314596 0.770258
O O12 0.220512 0.817394 0.629992
O O13 0.032949 0.558439 0.421916
O O14 0.227780 0.200217 0.320532
O O15 0.000000 0.000000 0.000000
O O16 0.661553 0.770281 0.496300
O O17 0.950329 0.911265 0.674003
#
# Coordination Sequence:
#
# PCOD8043326 Si02
#       8
#     2   2   2   2   2   2   2   2
#     4  10  19  36  61  87 118 155 206 241 303 364
#     4  12  26  40  61  94 125 162 209 260 305 361
#     4   9  20  40  62  90 117 163 203 243 312 375
#     4  10  21  37  62  85 119 164 208 241 299 374
#     4  11  24  43  65  86 122 173 210 249 305 367
#     4  10  21  38  62  88 126 157 198 255 310 362
#     4   9  21  37  61  89 113 161 202 251 294 366
#     4  11  24  41  60  89 125 158 206 255 304 351
#
# _framework density 21.607614999999999
#
# number of rings (size 3 to 8) (size 9 to 14) (size 15 to 20)
#    0.000    1.750    1.250    2.250    3.500    5.000 
#    2.250    0.625    0.000    0.000    0.000    0.000 
#    0.000    0.000    0.000    0.000    0.000    0.000 
#
# Total GULP energy -198273.676689 kJ/mol
# GULP energy per Si atom -12392.104793 kJ/mol
# Density = 2.155844 g / cm^3
# Si number density = 21.607615 Si / 1000 Ang^3
#
#
#
# Elastic Constant Matrix: (Units=GPa)
#
#
# Indices 1 2 3 4 5 6 
#
# 1 86.1643 37.0481 45.7767 -6.0760 -26.6048 -4.8913
# 2 37.0481 94.2480 42.4258 0.3158 -3.5170 -2.4220
# 3 45.7767 42.4258 84.8275 -12.2085 -15.7072 -4.5328
# 4 -6.0760 0.3158 -12.2085 30.1659 2.9139 -0.7133
# 5 -26.6048 -3.5170 -15.7072 2.9139 37.5575 -3.7769
# 6 -4.8913 -2.4220 -4.5328 -0.7133 -3.7769 34.8246
#
#
#
# Elastic Compliance Matrix: (Units=1/GPa)
#
#
# Indices 1 2 3 4 5 6 
#
# 1 0.021048 -0.004838 -0.006463 0.000586 0.012019 0.003094
# 2 -0.004838 0.015186 -0.006345 -0.003290 -0.004505 -0.001005
# 3 -0.006463 -0.006345 0.020025 0.006633 0.002859 0.001703
# 4 0.000586 -0.003290 0.006633 0.035999 0.000237 0.001480
# 5 0.012019 -0.004505 0.002859 0.000237 0.036469 0.005707
# 6 0.003094 -0.001005 0.001703 0.001480 0.005707 0.029951
#
#
# Mechanical properties :
#
#
# Convention : Reuss Voigt Hill
#
# Bulk Modulus (GPa) = 47.69893 57.30456 52.50175
# Shear Modulus (GPa) = 24.88049 29.84222 27.36135
#
# Velocity S-wave (km/s) = 3.39701 3.72034 3.56235
# Velocity P-wave (km/s) = 6.12448 6.71064 6.42425
#
# Compressibility (1/GPa) = 0.02096483
#
# Stress axis : x y z
#
# Youngs Moduli (GPa) = 47.51039 65.85149 49.93718
#
# Poissons Ratio (x) = 0.31861 0.32276
# Poissons Ratio (y) = 0.22987 0.31687
# Poissons Ratio (z) = 0.30707 0.41786
#
# Static dielectric constant tensor:
#      x y z
#    x 3.837500 0.066840 -0.589600 
#    y 0.066840 4.233450 -0.005680 
#    z -0.589600 -0.005680 4.055430 
# 
# 
# High freq. dielectric constant tensor:
#      x y z
#    x 1.829940 0.007200 -0.041660 
#    y 0.007200 1.862770 -0.000970 
#    z -0.041660 -0.000970 1.837290 
# 
# From -- ./inp_files/137371.got.cif
#   From: 2010.06.25/outbox.cif.g09.slc.cpg/sg2_69_cif.got.tgz:137371.got - 2010.06.27 13:26:56.
