data_PCOD8043249
_publ_section_title
;
Structure prediction by ZEFSAII (Michael W. Deem and Ramdas Pophale) SiO2 
 PCOD8043249
Probable space group: P -1
;
_chemical_formula_sum "Si O2"
_cell_formula_units_Z 14
_cell_length_a 21.964158
_cell_length_b 9.443270
_cell_length_c 6.605591
_cell_angle_alpha 114.644437
_cell_angle_beta 142.972586
_cell_angle_gamma 53.845278
_cell_volume 662.055109
_symmetry_space_group_name_H-M "P -1"
_symmetry_group_IT_number 2
_symmetry_cell_setting 'triclinic'
loop_
_space_group_symop_operation_xyz
x,y,z
-x,-y,-z
loop_
_atom_site_type_symbol
_atom_site_label
_atom_site_fract_x
_atom_site_fract_y
_atom_site_fract_z
Si Si1 0.307104 0.917955 0.703972
Si Si2 0.566288 0.719732 0.130339
Si Si3 0.061736 0.521932 0.871369
Si Si4 0.736024 0.396148 0.639170
Si Si5 0.850554 0.714246 0.689363
Si Si6 0.372399 0.097740 0.293020
Si Si7 0.305482 0.399452 0.987793
O O1 0.243983 0.799019 0.476335
O O2 0.239049 0.083757 0.473524
O O3 0.432952 0.807216 0.877248
O O4 0.312468 0.980438 0.989332
O O5 0.630369 0.533013 0.303931
O O6 0.622336 0.848819 0.425406
O O7 0.583007 0.687355 0.913543
O O8 0.000000 0.500000 0.500000
O O9 0.969108 0.663999 0.861593
O O10 0.146702 0.599621 0.089695
O O11 0.126788 0.327286 0.034849
O O12 0.707819 0.426605 0.826261
O O13 0.803941 0.575904 0.416979
O O14 0.500000 0.000000 0.500000
O O15 0.309036 0.280727 0.116207
#
# Coordination Sequence:
#
# PCOD8043249 Si02
#       7
#     2   2   2   2   2   2   2
#     4  10  22  39  61  98 130 152 202 260 307 356
#     4  10  20  39  63  88 129 171 196 241 301 380
#     4  11  22  42  68  84 114 166 211 255 304 365
#     4  11  22  39  62  93 129 161 200 253 308 362
#     4  10  22  40  65  89 114 158 218 251 299 368
#     4   8  18  34  55  84 117 159 203 240 284 356
#     4  10  19  36  60  87 119 164 209 231 297 372
#
# _framework density 21.146277000000001
#
# number of rings (size 3 to 8) (size 9 to 14) (size 15 to 20)
#    0.000    2.000    2.857    0.429    0.000    6.286 
#    0.000    6.429    0.000    0.000    0.000    0.000 
#    0.000    0.000    0.000    0.000    0.000    0.000 
#
# Total GULP energy -173439.565192 kJ/mol
# GULP energy per Si atom -12388.540371 kJ/mol
# Density = 2.109815 g / cm^3
# Si number density = 21.146277 Si / 1000 Ang^3
#
#
#
# Elastic Constant Matrix: (Units=GPa)
#
#
# Indices 1 2 3 4 5 6 
#
# 1 80.4072 17.8435 34.0042 16.1287 -3.0388 5.6166
# 2 17.8435 98.1066 54.9813 18.2743 3.2727 13.3285
# 3 34.0042 54.9813 107.7317 8.1638 2.5856 12.6701
# 4 16.1287 18.2743 8.1638 41.1208 -10.9364 1.9132
# 5 -3.0388 3.2727 2.5856 -10.9364 33.6394 3.8383
# 6 5.6166 13.3285 12.6701 1.9132 3.8383 15.8830
#
#
#
# Elastic Compliance Matrix: (Units=1/GPa)
#
#
# Indices 1 2 3 4 5 6 
#
# 1 0.015468 0.001194 -0.004845 -0.005523 0.000082 -0.001962
# 2 0.001194 0.016328 -0.007345 -0.006543 -0.002252 -0.006933
# 3 -0.004845 -0.007345 0.014875 0.002539 0.000462 -0.004407
# 4 -0.005523 -0.006543 0.002539 0.031682 0.010345 -0.000898
# 5 0.000082 -0.002252 0.000462 0.010345 0.034196 -0.008017
# 6 -0.001962 -0.006933 -0.004407 -0.000898 -0.008017 0.075033
#
#
# Mechanical properties :
#
#
# Convention : Reuss Voigt Hill
#
# Bulk Modulus (GPa) = 40.51748 55.54482 48.03115
# Shear Modulus (GPa) = 22.95711 30.08975 26.52343
#
# Velocity S-wave (km/s) = 3.29847 3.77627 3.54543
# Velocity P-wave (km/s) = 5.80592 6.73332 6.28674
#
# Compressibility (1/GPa) = 0.02468071
#
# Stress axis : x y z
#
# Youngs Moduli (GPa) = 64.64768 61.24610 67.22881
#
# Poissons Ratio (x) = -0.07314 0.32570
# Poissons Ratio (y) = -0.07721 0.49377
# Poissons Ratio (z) = 0.31319 0.44983
#
# Static dielectric constant tensor:
#      x y z
#    x 3.815650 -0.314000 -0.194790 
#    y -0.314000 3.806280 0.120600 
#    z -0.194790 0.120600 4.268850 
# 
# 
# High freq. dielectric constant tensor:
#      x y z
#    x 1.819980 -0.022840 -0.006920 
#    y -0.022840 1.803570 -0.007410 
#    z -0.006920 -0.007410 1.841040 
# 
# From -- ./inp_files/93041.got.cif
#   From: 2010.06.25/outbox.cif.g09.slc.cpg/sg2_47_cif.got.tgz:93041.got - 2010.06.27 13:26:56.
