data_PCOD8043477
_publ_section_title
;
Structure prediction by ZEFSAII (Michael W. Deem and Ramdas Pophale) SiO2 
 PCOD8043477
Probable space group: P -1
;
_chemical_formula_sum "Si O2"
_cell_formula_units_Z 14
_cell_length_a 9.371994
_cell_length_b 10.044339
_cell_length_c 25.161915
_cell_angle_alpha 45.701889
_cell_angle_beta 38.273470
_cell_angle_gamma 30.701611
_cell_volume 747.039456
_symmetry_space_group_name_H-M "P -1"
_symmetry_group_IT_number 2
_symmetry_cell_setting 'triclinic'
loop_
_space_group_symop_operation_xyz
x,y,z
-x,-y,-z
loop_
_atom_site_type_symbol
_atom_site_label
_atom_site_fract_x
_atom_site_fract_y
_atom_site_fract_z
Si Si1 0.296194 0.463027 0.538287
Si Si2 0.660334 0.004173 0.719383
Si Si3 0.599819 0.953293 0.865289
Si Si4 0.408356 0.562999 0.641691
Si Si5 0.246718 0.751025 0.750604
Si Si6 0.080431 0.479747 0.921151
Si Si7 0.441367 0.066189 0.346211
O O1 0.500000 0.500000 0.500000
O O2 0.348195 0.462163 0.460385
O O3 0.922016 0.699244 0.593996
O O4 0.410538 0.194305 0.595142
O O5 0.547137 0.946942 0.819662
O O6 0.534734 0.969013 0.714138
O O7 0.046680 0.803292 0.658995
O O8 0.486862 0.301076 0.690149
O O9 0.862857 0.973820 0.786142
O O10 0.749609 0.687410 0.925249
O O11 0.268418 0.193033 0.924739
O O12 0.453047 0.613663 0.674256
O O13 0.302100 0.538396 0.831383
O O14 0.342200 0.880088 0.717804
O O15 0.000000 0.500000 0.000000
#
# Coordination Sequence:
#
# PCOD8043477 Si02
#       7
#     2   2   2   2   2   2   2
#     4  12  23  37  54  82 110 155 199 234 268 322
#     4  11  18  36  57  79 104 157 184 227 266 336
#     4   9  19  35  58  82 111 141 185 216 274 344
#     4  11  21  37  57  73 116 150 195 227 270 333
#     4   9  24  36  57  87 113 143 184 235 286 325
#     4  10  19  36  63  87 108 141 181 224 272 345
#     4  12  24  35  59  81 115 146 194 240 277 311
#
# _framework density 18.740642000000001
#
# number of rings (size 3 to 8) (size 9 to 14) (size 15 to 20)
#    0.857    0.571    4.286    1.714    2.000    1.143 
#    0.000    0.000    0.000    1.714    0.000    0.000 
#    0.000    0.000    0.000    0.000    0.000    0.000 
#
# Total GULP energy -173542.265006 kJ/mol
# GULP energy per Si atom -12395.876072 kJ/mol
# Density = 1.869799 g / cm^3
# Si number density = 18.740642 Si / 1000 Ang^3
#
#
#
# Elastic Constant Matrix: (Units=GPa)
#
#
# Indices 1 2 3 4 5 6 
#
# 1 90.3121 26.3075 39.5661 -0.3065 22.6549 18.0549
# 2 26.3075 128.9658 31.4518 4.4182 17.9091 0.4187
# 3 39.5661 31.4518 103.8200 6.4141 47.3895 6.4481
# 4 -0.3065 4.4182 6.4141 28.4593 8.6191 6.9546
# 5 22.6549 17.9091 47.3895 8.6191 40.0118 3.9010
# 6 18.0549 0.4187 6.4481 6.9546 3.9010 22.8596
#
#
#
# Elastic Compliance Matrix: (Units=1/GPa)
#
#
# Indices 1 2 3 4 5 6 
#
# 1 0.017042 -0.002194 -0.003080 0.006041 -0.005001 -0.013535
# 2 -0.002194 0.008723 -0.001498 -0.001415 -0.000833 0.002568
# 3 -0.003080 -0.001498 0.022347 0.002728 -0.024594 -0.000476
# 4 0.006041 -0.001415 0.002728 0.042919 -0.013680 -0.016237
# 5 -0.005001 -0.000833 -0.024594 -0.013680 0.059799 0.004860
# 6 -0.013535 0.002568 -0.000476 -0.016237 0.004860 0.058634
#
#
# Mechanical properties :
#
#
# Convention : Reuss Voigt Hill
#
# Bulk Modulus (GPa) = 28.92853 57.52765 43.22809
# Shear Modulus (GPa) = 21.31927 33.31765 27.31846
#
# Velocity S-wave (km/s) = 3.37648 4.22100 3.82214
# Velocity P-wave (km/s) = 5.53811 7.38371 6.52648
#
# Compressibility (1/GPa) = 0.03456795
#
# Stress axis : x y z
#
# Youngs Moduli (GPa) = 58.67831 114.64304 44.74887
#
# Poissons Ratio (x) = 0.25150 0.13782
# Poissons Ratio (y) = 0.12873 0.06704
# Poissons Ratio (z) = 0.18072 0.17176
#
# Static dielectric constant tensor:
#      x y z
#    x 3.361550 -0.047860 0.501520 
#    y -0.047860 3.616740 -0.028180 
#    z 0.501520 -0.028180 3.693370 
# 
# 
# High freq. dielectric constant tensor:
#      x y z
#    x 1.698920 -0.001270 0.037790 
#    y -0.001270 1.747670 0.003160 
#    z 0.037790 0.003160 1.717210 
# 
# From -- ./inp_files/104059.got.cif
#   From: 2010.06.25/outbox.cif.g09.slc.cpg/sg2_53_cif.got.tgz:104059.got - 2010.06.27 13:26:56.
