data_PCOD8043644
_publ_section_title
;
Structure prediction by ZEFSAII (Michael W. Deem and Ramdas Pophale) SiO2 
 PCOD8043644
Probable space group: P -1
;
_chemical_formula_sum "Si O2"
_cell_formula_units_Z 16
_cell_length_a 8.695038
_cell_length_b 13.897769
_cell_length_c 19.682949
_cell_angle_alpha 157.835791
_cell_angle_beta 89.507186
_cell_angle_gamma 78.703837
_cell_volume 755.018518
_symmetry_space_group_name_H-M "P -1"
_symmetry_group_IT_number 2
_symmetry_cell_setting 'triclinic'
loop_
_space_group_symop_operation_xyz
x,y,z
-x,-y,-z
loop_
_atom_site_type_symbol
_atom_site_label
_atom_site_fract_x
_atom_site_fract_y
_atom_site_fract_z
Si Si1 0.529661 0.265451 0.661740
Si Si2 0.326398 0.573967 0.351097
Si Si3 0.850038 0.215703 0.698143
Si Si4 0.129291 0.800680 0.026044
Si Si5 0.015724 0.081172 0.350769
Si Si6 0.837945 0.676918 0.915913
Si Si7 0.023515 0.664665 0.724890
Si Si8 0.708152 0.155516 0.137588
O O1 0.629073 0.217140 0.557381
O O2 0.658571 0.245160 0.708289
O O3 0.500000 0.000000 0.500000
O O4 0.344651 0.596429 0.878613
O O5 0.204709 0.752987 0.534355
O O6 0.201626 0.495579 0.255673
O O7 0.516428 0.284255 0.186117
O O8 0.813461 0.553761 0.907599
O O9 0.000000 0.000000 0.500000
O O10 0.904635 0.104760 0.701638
O O11 0.088069 0.842474 0.133612
O O12 0.048006 0.132190 0.210299
O O13 0.041157 0.621716 0.877267
O O14 0.068724 0.327022 0.495306
O O15 0.698411 0.040004 0.138703
O O16 0.217695 0.620811 0.717492
O O17 0.865574 0.840141 0.896044
#
# Coordination Sequence:
#
# PCOD8043644 Si02
#       8
#     2   2   2   2   2   2   2   2
#     4  11  24  40  68  91 124 167 214 263 304 386
#     4  11  22  38  67  95 119 168 216 260 310 371
#     4  11  21  40  63  93 122 162 214 258 316 366
#     4  11  25  43  62  95 132 167 209 258 328 366
#     4  12  25  40  64  95 134 169 200 266 322 375
#     4  10  21  39  62  90 127 165 209 270 298 374
#     4  10  21  39  65  93 134 163 209 264 312 368
#     4  10  19  36  67  98 116 165 226 258 297 370
#
# _framework density 21.191531999999999
#
# number of rings (size 3 to 8) (size 9 to 14) (size 15 to 20)
#    0.000    1.250    5.000    1.500    1.750    1.000 
#    0.000    5.000    0.000    0.000    0.000    0.000 
#    0.000    0.000    0.000    0.000    0.000    0.000 
#
# Total GULP energy -198217.872826 kJ/mol
# GULP energy per Si atom -12388.617052 kJ/mol
# Density = 2.114330 g / cm^3
# Si number density = 21.191532 Si / 1000 Ang^3
#
#
#
# Elastic Constant Matrix: (Units=GPa)
#
#
# Indices 1 2 3 4 5 6 
#
# 1 125.2123 52.3793 39.0210 8.9413 3.1448 -1.8719
# 2 52.3793 133.0056 31.9028 21.4574 7.1677 6.1972
# 3 39.0210 31.9028 46.5868 5.7953 6.0189 6.3357
# 4 8.9413 21.4574 5.7953 34.5009 10.7104 2.8962
# 5 3.1448 7.1677 6.0189 10.7104 21.8372 13.0076
# 6 -1.8719 6.1972 6.3357 2.8962 13.0076 41.2779
#
#
#
# Elastic Compliance Matrix: (Units=1/GPa)
#
#
# Indices 1 2 3 4 5 6 
#
# 1 0.011743 -0.002716 -0.008277 -0.000247 0.000340 0.002121
# 2 -0.002716 0.010459 -0.004246 -0.005450 0.001470 -0.001123
# 3 -0.008277 -0.004246 0.032237 0.001184 -0.004973 -0.003202
# 4 -0.000247 -0.005450 0.001184 0.037974 -0.019589 0.004134
# 5 0.000340 0.001470 -0.004973 -0.019589 0.067819 -0.019439
# 6 0.002121 -0.001123 -0.003202 0.004134 -0.019439 0.030818
#
#
# Mechanical properties :
#
#
# Convention : Reuss Voigt Hill
#
# Bulk Modulus (GPa) = 41.73854 61.26788 51.50321
# Shear Modulus (GPa) = 21.78485 31.62328 26.70407
#
# Velocity S-wave (km/s) = 3.20972 3.86717 3.55368
# Velocity P-wave (km/s) = 5.78576 6.99387 6.41830
#
# Compressibility (1/GPa) = 0.02395867
#
# Stress axis : x y z
#
# Youngs Moduli (GPa) = 85.15577 95.61060 31.02014
#
# Poissons Ratio (x) = 0.25972 0.25677
# Poissons Ratio (y) = 0.23132 0.13173
# Poissons Ratio (z) = 0.70487 0.40601
#
# Static dielectric constant tensor:
#      x y z
#    x 4.158490 0.151150 0.042410 
#    y 0.151150 4.309970 0.381050 
#    z 0.042410 0.381050 3.451860 
# 
# 
# High freq. dielectric constant tensor:
#      x y z
#    x 1.846360 0.004020 0.010530 
#    y 0.004020 1.847780 0.036540 
#    z 0.010530 0.036540 1.779990 
# 
# From -- ./inp_files/590537.got.cif
#   From: 2010.06.25/outbox.cif.g09.slc.cpg/sg2_296_cif.got.tgz:590537.got - 2010.06.27 13:26:56.
