data_PCOD8043928
_publ_section_title
;
Structure prediction by ZEFSAII (Michael W. Deem and Ramdas Pophale) SiO2 
 PCOD8043928
Probable space group: P -1
;
_chemical_formula_sum "Si O2"
_cell_formula_units_Z 16
_cell_length_a 16.480560
_cell_length_b 5.305509
_cell_length_c 11.605108
_cell_angle_alpha 76.790271
_cell_angle_beta 56.727318
_cell_angle_gamma 61.144850
_cell_volume 742.136244
_symmetry_space_group_name_H-M "P -1"
_symmetry_group_IT_number 2
_symmetry_cell_setting 'triclinic'
loop_
_space_group_symop_operation_xyz
x,y,z
-x,-y,-z
loop_
_atom_site_type_symbol
_atom_site_label
_atom_site_fract_x
_atom_site_fract_y
_atom_site_fract_z
Si Si1 0.101186 0.185722 0.325881
Si Si2 0.477366 0.595413 0.377306
Si Si3 0.122043 0.877354 0.878932
Si Si4 0.137701 0.571976 0.444196
Si Si5 0.743412 0.893693 0.982560
Si Si6 0.348018 0.247181 0.461670
Si Si7 0.680104 0.440765 0.078257
Si Si8 0.787992 0.702076 0.232000
O O1 0.145532 0.353092 0.359586
O O2 0.972014 0.337794 0.407275
O O3 0.146059 0.852155 0.360162
O O4 0.144773 0.201139 0.162936
O O5 0.500000 0.500000 0.500000
O O6 0.412942 0.439060 0.382196
O O7 0.591262 0.494287 0.237675
O O8 0.413130 0.940067 0.382150
O O9 0.200540 0.728569 0.941059
O O10 0.143520 0.645022 0.784059
O O11 0.143596 0.139967 0.783966
O O12 0.000000 0.000000 0.000000
O O13 0.233480 0.412289 0.473889
O O14 0.673080 0.739402 0.999723
O O15 0.760565 0.803235 0.111955
O O16 0.673065 0.241683 0.999751
O O17 0.323028 0.205929 0.619303
#
# Coordination Sequence:
#
# PCOD8043928 Si02
#       8
#     2   2   2   2   2   2   2   2
#     4  10  21  41  67  90 125 161 204 253 311 369
#     4  12  23  40  61  88 126 172 207 251 308 363
#     4  10  20  34  51  77 119 155 184 233 292 361
#     4  10  23  41  63  95 121 162 210 252 302 370
#     4  10  19  37  61  87 117 156 192 246 304 364
#     4  12  24  40  65  90 127 164 209 261 303 363
#     4  10  21  35  55  85 115 150 203 239 295 365
#     4  10  21  36  54  90 122 152 197 241 301 367
#
# _framework density 21.559383
#
# number of rings (size 3 to 8) (size 9 to 14) (size 15 to 20)
#    0.000    1.500    0.000    6.750    0.000    4.000 
#    0.000    2.500    0.000   15.000    0.000    0.000 
#    0.000    0.000    0.000    0.000    0.000    0.000 
#
# Total GULP energy -198351.798427 kJ/mol
# GULP energy per Si atom -12396.987402 kJ/mol
# Density = 2.151031 g / cm^3
# Si number density = 21.559383 Si / 1000 Ang^3
#
#
#
# Elastic Constant Matrix: (Units=GPa)
#
#
# Indices 1 2 3 4 5 6 
#
# 1 67.7670 72.2736 20.9068 5.9909 -2.1734 22.3456
# 2 72.2736 130.6125 31.1657 4.2889 -7.8005 59.5824
# 3 20.9068 31.1657 124.3155 9.6112 -13.0025 13.3061
# 4 5.9909 4.2889 9.6112 18.5486 -2.5342 5.2970
# 5 -2.1734 -7.8005 -13.0025 -2.5342 21.6170 -4.5481
# 6 22.3456 59.5824 13.3061 5.2970 -4.5481 57.2554
#
#
#
# Elastic Compliance Matrix: (Units=1/GPa)
#
#
# Indices 1 2 3 4 5 6 
#
# 1 0.044578 -0.032085 -0.000902 -0.012085 -0.005503 0.016881
# 2 -0.032085 0.038318 -0.001562 0.010893 0.005133 -0.027590
# 3 -0.000902 -0.001562 0.009299 -0.003685 0.004617 0.000524
# 4 -0.012085 0.010893 -0.003685 0.061075 0.005347 -0.010988
# 5 -0.005503 0.005133 0.004617 0.005347 0.050810 -0.000726
# 6 0.016881 -0.027590 0.000524 -0.010988 -0.000726 0.040426
#
#
# Mechanical properties :
#
#
# Convention : Reuss Voigt Hill
#
# Bulk Modulus (GPa) = 43.29420 63.48749 53.39085
# Shear Modulus (GPa) = 15.56166 32.70746 24.13456
#
# Velocity S-wave (km/s) = 2.68956 3.89921 3.34944
# Velocity P-wave (km/s) = 5.45618 7.05574 6.30687
#
# Compressibility (1/GPa) = 0.02309778
#
# Stress axis : x y z
#
# Youngs Moduli (GPa) = 22.43242 26.09763 107.53767
#
# Poissons Ratio (x) = 0.83733 0.09695
# Poissons Ratio (y) = 0.71974 0.16803
# Poissons Ratio (z) = 0.02022 0.04078
#
# Static dielectric constant tensor:
#      x y z
#    x 4.636320 1.784410 -0.194120 
#    y 1.784410 5.903180 0.148600 
#    z -0.194120 0.148600 3.855800 
# 
# 
# High freq. dielectric constant tensor:
#      x y z
#    x 1.827140 0.046200 -0.020140 
#    y 0.046200 1.860260 0.014420 
#    z -0.020140 0.014420 1.847300 
# 
# From -- ./inp_files/118769.got.cif
#   From: 2010.06.25/outbox.cif.g09.slc.cpg/sg2_60_cif.got.tgz:118769.got - 2010.06.27 13:26:56.
