data_PCOD8043871
_publ_section_title
;
Structure prediction by ZEFSAII (Michael W. Deem and Ramdas Pophale) SiO2 
 PCOD8043871
Probable space group: P -1
;
_chemical_formula_sum "Si O2"
_cell_formula_units_Z 16
_cell_length_a 5.391612
_cell_length_b 11.387867
_cell_length_c 15.840841
_cell_angle_alpha 67.473659
_cell_angle_beta 128.466365
_cell_angle_gamma 81.099757
_cell_volume 590.494011
_symmetry_space_group_name_H-M "P -1"
_symmetry_group_IT_number 2
_symmetry_cell_setting 'triclinic'
loop_
_space_group_symop_operation_xyz
x,y,z
-x,-y,-z
loop_
_atom_site_type_symbol
_atom_site_label
_atom_site_fract_x
_atom_site_fract_y
_atom_site_fract_z
Si Si1 0.002893 0.727269 0.857299
Si Si2 0.927134 0.212231 0.323055
Si Si3 0.679061 0.019892 0.268180
Si Si4 0.329921 0.214959 0.566024
Si Si5 0.618392 0.790053 0.003364
Si Si6 0.716032 0.478310 0.878146
Si Si7 0.119387 0.730754 0.270165
Si Si8 0.799890 0.558880 0.331220
O O1 0.058266 0.691812 0.778974
O O2 0.251244 0.785089 0.936778
O O3 0.586445 0.869408 0.743885
O O4 0.126141 0.571603 0.977819
O O5 0.006437 0.055248 0.341982
O O6 0.494229 0.337498 0.231871
O O7 0.247787 0.165989 0.472894
O O8 0.467562 0.076508 0.117862
O O9 0.776018 0.854067 0.358632
O O10 0.776583 0.166676 0.676832
O O11 0.068077 0.394263 0.474091
O O12 0.947580 0.622679 0.087896
O O13 0.741963 0.829909 0.106648
O O14 0.383823 0.448733 0.793517
O O15 0.477464 0.655083 0.304683
O O16 0.066075 0.621023 0.348982
#
# Coordination Sequence:
#
# PCOD8043871 Si02
#       8
#     2   2   2   2   2   2   2   2
#     4  10  19  37  60  88 127 161 215 268 318 374
#     4  10  22  39  58  91 123 169 217 264 317 385
#     4  10  23  42  59  89 130 171 217 259 319 388
#     4  11  24  43  62  91 129 174 211 260 326 394
#     4   9  20  38  66  91 128 159 211 272 326 381
#     4   9  18  35  64  94 123 161 208 273 332 370
#     4  11  22  45  71 101 128 163 216 278 327 381
#     4  10  22  43  69 102 129 163 214 274 329 384
#
# _framework density 27.095959000000001
#
# number of rings (size 3 to 8) (size 9 to 14) (size 15 to 20)
#    0.000    2.000    1.250    1.500    0.000    6.500 
#   18.000    0.625    0.000    0.000    0.000    0.000 
#    0.000    0.000    0.000    0.000    0.000    0.000 
#
# Total GULP energy -198285.404083 kJ/mol
# GULP energy per Si atom -12392.837755 kJ/mol
# Density = 2.703429 g / cm^3
# Si number density = 27.095959 Si / 1000 Ang^3
#
#
#
# Elastic Constant Matrix: (Units=GPa)
#
#
# Indices 1 2 3 4 5 6 
#
# 1 71.3113 15.0457 22.0861 -14.7011 -28.0158 28.3276
# 2 15.0457 112.4273 57.6864 19.5123 -21.7771 32.4374
# 3 22.0861 57.6864 141.5889 11.6125 -27.5393 18.4706
# 4 -14.7011 19.5123 11.6125 43.8734 13.1883 -4.3646
# 5 -28.0158 -21.7771 -27.5393 13.1883 33.9241 -5.8418
# 6 28.3276 32.4374 18.4706 -4.3646 -5.8418 32.8271
#
#
#
# Elastic Compliance Matrix: (Units=1/GPa)
#
#
# Indices 1 2 3 4 5 6 
#
# 1 0.049259 0.021775 0.002559 -0.015496 0.052749 -0.058137
# 2 0.021775 0.030227 -0.000874 -0.021580 0.037425 -0.044376
# 3 0.002559 -0.000874 0.010394 -0.005426 0.011077 -0.005944
# 4 -0.015496 -0.021580 -0.005426 0.044949 -0.042296 0.036198
# 5 0.052749 0.037425 0.011077 -0.042296 0.109609 -0.074849
# 6 -0.058137 -0.044376 -0.005944 0.036198 -0.074849 0.119318
#
#
# Mechanical properties :
#
#
# Convention : Reuss Voigt Hill
#
# Bulk Modulus (GPa) = 7.30986 57.21821 32.26403
# Shear Modulus (GPa) = 13.79559 37.49221 25.64390
#
# Velocity S-wave (km/s) = 2.25886 3.72382 3.07972
# Velocity P-wave (km/s) = 3.08332 6.29697 4.95776
#
# Compressibility (1/GPa) = 0.13680160
#
# Stress axis : x y z
#
# Youngs Moduli (GPa) = 20.30079 33.08351 96.20717
#
# Poissons Ratio (x) = -0.72040 -0.24622
# Poissons Ratio (y) = -0.44205 0.08405
# Poissons Ratio (z) = -0.05196 0.02890
#
# Static dielectric constant tensor:
#      x y z
#    x 4.891750 0.355240 0.185200 
#    y 0.355240 5.193320 0.523950 
#    z 0.185200 0.523950 5.208200 
# 
# 
# High freq. dielectric constant tensor:
#      x y z
#    x 2.086870 0.011930 0.005590 
#    y 0.011930 2.094960 0.019420 
#    z 0.005590 0.019420 2.100280 
# 
# From -- ./inp_files/367922.got.cif
#   From: 2010.06.25/outbox.cif.g09.slc.cpg/sg2_184_cif.got.tgz:367922.got - 2010.06.27 13:26:56.
