data_PCOD8043706
_publ_section_title
;
Structure prediction by ZEFSAII (Michael W. Deem and Ramdas Pophale) SiO2 
 PCOD8043706
Probable space group: P -1
;
_chemical_formula_sum "Si O2"
_cell_formula_units_Z 14
_cell_length_a 17.380221
_cell_length_b 11.551945
_cell_length_c 9.323500
_cell_angle_alpha 99.769398
_cell_angle_beta 132.638405
_cell_angle_gamma 43.522372
_cell_volume 732.890953
_symmetry_space_group_name_H-M "P -1"
_symmetry_group_IT_number 2
_symmetry_cell_setting 'triclinic'
loop_
_space_group_symop_operation_xyz
x,y,z
-x,-y,-z
loop_
_atom_site_type_symbol
_atom_site_label
_atom_site_fract_x
_atom_site_fract_y
_atom_site_fract_z
Si Si1 0.661818 0.217427 0.013902
Si Si2 0.414318 0.270629 0.231858
Si Si3 0.353950 0.369556 0.491662
Si Si4 0.383165 0.470554 0.975902
Si Si5 0.255540 0.201827 0.353785
Si Si6 0.874451 0.646194 0.091610
Si Si7 0.955897 0.281382 0.600218
O O1 0.551373 0.245895 0.761103
O O2 0.564892 0.286603 0.060388
O O3 0.649222 0.364861 0.985377
O O4 0.887296 0.970440 0.250499
O O5 0.322976 0.412747 0.291148
O O6 0.624610 0.019580 0.479123
O O7 0.437542 0.348628 0.160638
O O8 0.277538 0.294137 0.006317
O O9 0.371382 0.215143 0.520849
O O10 0.166689 0.602953 0.382189
O O11 0.188213 0.602491 0.689259
O O12 0.057699 0.392184 0.232023
O O13 0.216823 0.214809 0.140107
O O14 0.934438 0.697951 0.279902
#
# Coordination Sequence:
#
# PCOD8043706 Si02
#       7
#     2   2   2   2   2   2   2
#     4  10  20  41  57  69 102 147 181 216 258 306
#     4  11  20  34  53  84 113 131 168 224 263 303
#     4   9  19  34  58  82 101 135 180 211 257 319
#     4  10  24  36  53  79 104 139 183 215 258 315
#     4   9  17  32  54  81 110 139 165 208 264 316
#     4   9  18  32  54  80 107 139 174 204 257 322
#     4  10  19  37  57  75 102 144 178 210 258 316
#
# _framework density 19.102433000000001
#
# number of rings (size 3 to 8) (size 9 to 14) (size 15 to 20)
#    0.000    2.286    0.000    4.714    0.000    2.286 
#    0.000   10.714    0.000    0.000    0.000    0.000 
#    0.000    0.000    0.000    0.000    0.000    0.000 
#
# Total GULP energy -173624.674569 kJ/mol
# GULP energy per Si atom -12401.762469 kJ/mol
# Density = 1.905895 g / cm^3
# Si number density = 19.102433 Si / 1000 Ang^3
#
#
#
# Elastic Constant Matrix: (Units=GPa)
#
#
# Indices 1 2 3 4 5 6 
#
# 1 90.5225 32.8811 44.8459 -10.5366 -21.7247 5.3663
# 2 32.8811 87.3281 52.2328 -12.6071 -8.3253 2.3194
# 3 44.8459 52.2328 102.6116 -11.6639 -3.6954 4.4736
# 4 -10.5366 -12.6071 -11.6639 33.3025 0.7171 4.7741
# 5 -21.7247 -8.3253 -3.6954 0.7171 19.9511 -3.6299
# 6 5.3663 2.3194 4.4736 4.7741 -3.6299 12.9915
#
#
#
# Elastic Compliance Matrix: (Units=1/GPa)
#
#
# Indices 1 2 3 4 5 6 
#
# 1 0.020187 -0.000866 -0.007232 0.003289 0.019919 -0.001336
# 2 -0.000866 0.017491 -0.007963 0.003450 0.004765 0.000040
# 3 -0.007232 -0.007963 0.017003 0.001487 -0.008918 -0.004484
# 4 0.003289 0.003450 0.001487 0.035016 0.001311 -0.014988
# 5 0.019919 0.004765 -0.008918 0.001311 0.074720 0.014388
# 6 -0.001336 0.000040 -0.004484 -0.014988 0.014388 0.088590
#
#
# Mechanical properties :
#
#
# Convention : Reuss Voigt Hill
#
# Bulk Modulus (GPa) = 44.32880 60.04244 52.18562
# Shear Modulus (GPa) = 17.08527 23.28252 20.18389
#
# Velocity S-wave (km/s) = 2.99390 3.49495 3.25409
# Velocity P-wave (km/s) = 5.93359 6.91277 6.44181
#
# Compressibility (1/GPa) = 0.02255870
#
# Stress axis : x y z
#
# Youngs Moduli (GPa) = 49.53680 57.17135 58.81188
#
# Poissons Ratio (x) = 0.04949 0.42536
# Poissons Ratio (y) = 0.04289 0.46834
# Poissons Ratio (z) = 0.35827 0.45527
#
# Static dielectric constant tensor:
#      x y z
#    x 3.228810 -0.023520 0.292780 
#    y -0.023520 3.576840 0.066210 
#    z 0.292780 0.066210 3.500540 
# 
# 
# High freq. dielectric constant tensor:
#      x y z
#    x 1.713570 -0.000800 0.025170 
#    y -0.000800 1.748760 -0.001020 
#    z 0.025170 -0.001020 1.745740 
# 
# From -- ./inp_files/204585.got.cif
#   From: 2010.06.25/outbox.cif.g09.slc.cpg/sg2_103_cif.got.tgz:204585.got - 2010.06.27 13:26:56.
