data_PCOD8043416
_publ_section_title
;
Structure prediction by ZEFSAII (Michael W. Deem and Ramdas Pophale) SiO2 
 PCOD8043416
Probable space group: P -1
;
_chemical_formula_sum "Si O2"
_cell_formula_units_Z 16
_cell_length_a 8.620051
_cell_length_b 11.196333
_cell_length_c 20.292255
_cell_angle_alpha 147.926347
_cell_angle_beta 140.336142
_cell_angle_gamma 51.596452
_cell_volume 660.988126
_symmetry_space_group_name_H-M "P -1"
_symmetry_group_IT_number 2
_symmetry_cell_setting 'triclinic'
loop_
_space_group_symop_operation_xyz
x,y,z
-x,-y,-z
loop_
_atom_site_type_symbol
_atom_site_label
_atom_site_fract_x
_atom_site_fract_y
_atom_site_fract_z
Si Si1 0.545226 0.711247 0.183970
Si Si2 0.174972 0.684989 0.944033
Si Si3 0.833868 0.811597 0.099892
Si Si4 0.219890 0.334506 0.547063
Si Si5 0.338439 0.672169 0.230036
Si Si6 0.261648 0.935545 0.692712
Si Si7 0.739506 0.786686 0.777776
Si Si8 0.978618 0.753698 0.698993
O O1 0.692825 0.491373 0.140219
O O2 0.480957 0.803055 0.277120
O O3 0.702035 0.907633 0.286951
O O4 0.275538 0.637591 0.028298
O O5 0.881768 0.650180 0.816357
O O6 0.244964 0.947447 0.073665
O O7 0.079077 0.765282 0.199000
O O8 0.667386 0.911527 0.148134
O O9 0.695130 0.593986 0.920437
O O10 0.897342 0.990778 0.145920
O O11 0.491707 0.275781 0.626612
O O12 0.205183 0.303986 0.449393
O O13 0.013113 0.175133 0.443633
O O14 0.191088 0.587288 0.681606
O O15 0.444579 0.731214 0.655130
O O16 0.845588 0.731373 0.715175
#
# Coordination Sequence:
#
# PCOD8043416 Si02
#       8
#     2   2   2   2   2   2   2   2
#     4  10  19  37  61  90 127 155 192 250 301 354
#     4   9  18  32  59  93 122 150 192 249 303 343
#     4  10  22  40  63  92 118 153 202 254 298 352
#     4  10  24  44  60  85 123 163 200 247 296 353
#     4  11  22  40  65  89 120 157 201 247 300 356
#     4  10  22  39  60  89 126 157 197 247 297 356
#     4  10  19  36  62  89 122 159 196 245 302 357
#     4  10  22  42  62  85 122 160 200 242 297 355
#
# _framework density 24.206182999999999
#
# number of rings (size 3 to 8) (size 9 to 14) (size 15 to 20)
#    0.000    2.000    0.000    4.500    0.000    5.500 
#    0.000   21.250    0.000    0.000    0.000    0.000 
#    0.000    0.000    0.000    0.000    0.000    0.000 
#
# Total GULP energy -198229.395620 kJ/mol
# GULP energy per Si atom -12389.337226 kJ/mol
# Density = 2.415109 g / cm^3
# Si number density = 24.206183 Si / 1000 Ang^3
#
#
#
# Elastic Constant Matrix: (Units=GPa)
#
#
# Indices 1 2 3 4 5 6 
#
# 1 55.1362 28.7021 20.9551 -9.6338 -7.5445 -8.8018
# 2 28.7021 117.4109 42.3860 -14.7379 -4.3189 -18.2621
# 3 20.9551 42.3860 54.2385 -7.2749 13.2732 -2.5376
# 4 -9.6338 -14.7379 -7.2749 39.8465 -1.9066 2.3295
# 5 -7.5445 -4.3189 13.2732 -1.9066 23.4127 1.9855
# 6 -8.8018 -18.2621 -2.5376 2.3295 1.9855 28.4334
#
#
#
# Elastic Compliance Matrix: (Units=1/GPa)
#
#
# Indices 1 2 3 4 5 6 
#
# 1 0.027322 0.000609 -0.014250 0.004685 0.016867 0.006016
# 2 0.000609 0.015519 -0.014162 0.003353 0.010694 0.007871
# 3 -0.014250 -0.014162 0.041837 -0.002065 -0.030457 -0.007477
# 4 0.004685 0.003353 -0.002065 0.027306 0.005455 0.000802
# 5 0.016867 0.010694 -0.030457 0.005455 0.067473 0.004213
# 6 0.006016 0.007871 -0.007477 0.000802 0.004213 0.041060
#
#
# Mechanical properties :
#
#
# Convention : Reuss Voigt Hill
#
# Bulk Modulus (GPa) = 34.39700 45.65244 40.02472
# Shear Modulus (GPa) = 17.49383 27.32134 22.40759
#
# Velocity S-wave (km/s) = 2.69123 3.36325 3.04583
# Velocity P-wave (km/s) = 4.88854 5.82947 5.37961
#
# Compressibility (1/GPa) = 0.02907230
#
# Stress axis : x y z
#
# Youngs Moduli (GPa) = 36.59992 64.43582 23.90252
#
# Poissons Ratio (x) = -0.03926 0.34061
# Poissons Ratio (y) = -0.02230 0.33851
# Poissons Ratio (z) = 0.52155 0.91256
#
# Static dielectric constant tensor:
#      x y z
#    x 4.290230 -0.429460 0.013050 
#    y -0.429460 4.812560 -0.011300 
#    z 0.013050 -0.011300 4.239750 
# 
# 
# High freq. dielectric constant tensor:
#      x y z
#    x 1.950790 -0.016570 -0.008020 
#    y -0.016570 1.969580 0.006370 
#    z -0.008020 0.006370 1.939510 
# 
# From -- ./inp_files/589753.got.cif
#   From: 2010.06.25/outbox.cif.g09.slc.cpg/sg2_295_cif.got.tgz:589753.got - 2010.06.27 13:26:56.
