data_PCOD8043353
_publ_section_title
;
Structure prediction by ZEFSAII (Michael W. Deem and Ramdas Pophale) SiO2 
 PCOD8043353
Probable space group: P -1
;
_chemical_formula_sum "Si O2"
_cell_formula_units_Z 16
_cell_length_a 16.432544
_cell_length_b 12.301206
_cell_length_c 9.346649
_cell_angle_alpha 113.957305
_cell_angle_beta 134.651284
_cell_angle_gamma 34.737575
_cell_volume 693.975721
_symmetry_space_group_name_H-M "P -1"
_symmetry_group_IT_number 2
_symmetry_cell_setting 'triclinic'
loop_
_space_group_symop_operation_xyz
x,y,z
-x,-y,-z
loop_
_atom_site_type_symbol
_atom_site_label
_atom_site_fract_x
_atom_site_fract_y
_atom_site_fract_z
Si Si1 0.944085 0.203427 0.804169
Si Si2 0.067302 0.664956 0.849289
Si Si3 0.025380 0.368083 0.852756
Si Si4 0.193602 0.749460 0.854177
Si Si5 0.635182 0.926149 0.428103
Si Si6 0.603411 0.476107 0.304402
Si Si7 0.808662 0.678158 0.249349
Si Si8 0.422521 0.246259 0.553833
O O1 0.730630 0.360733 0.545982
O O2 0.081148 0.195437 0.906778
O O3 0.878257 0.297709 0.931742
O O4 0.077622 0.971792 0.851494
O O5 0.052874 0.762448 0.744637
O O6 0.242257 0.414689 0.906765
O O7 0.859625 0.768605 0.676560
O O8 0.171802 0.267093 0.846002
O O9 0.812479 0.526109 0.603065
O O10 0.000000 0.500000 0.000000
O O11 0.234645 0.694890 0.708971
O O12 0.408874 0.556147 0.102330
O O13 0.635283 0.897783 0.242817
O O14 0.529724 0.901591 0.358203
O O15 0.490451 0.157364 0.426014
O O16 0.489374 0.702094 0.262048
O O17 0.000000 0.500000 0.500000
#
# Coordination Sequence:
#
# PCOD8043353 Si02
#       8
#     2   2   2   2   2   2   2   2
#     4  11  23  39  66  96 125 171 216 263 321 387
#     4  11  21  38  65  92 128 169 211 263 321 386
#     4  11  20  38  63  90 129 167 208 265 328 385
#     4  11  24  43  65  93 127 172 221 263 316 386
#     4  10  20  34  62  98 122 162 215 260 318 385
#     4  10  24  42  65  93 125 173 217 266 324 375
#     4  10  19  36  62  97 122 164 216 258 317 390
#     4  10  19  36  61  89 126 163 204 267 318 374
#
# _framework density 23.055562999999999
#
# number of rings (size 3 to 8) (size 9 to 14) (size 15 to 20)
#    0.000    1.500    3.750    2.250    5.250    1.500 
#    0.000    1.875    5.500    0.000    0.000    0.000 
#    0.000    0.000    0.000    0.000    0.000    0.000 
#
# Total GULP energy -198210.533459 kJ/mol
# GULP energy per Si atom -12388.158341 kJ/mol
# Density = 2.300309 g / cm^3
# Si number density = 23.055563 Si / 1000 Ang^3
#
#
#
# Elastic Constant Matrix: (Units=GPa)
#
#
# Indices 1 2 3 4 5 6 
#
# 1 94.9777 37.2965 -1.9013 10.3867 -7.1594 -1.4279
# 2 37.2965 125.7255 16.8877 41.4646 -5.5430 -11.8677
# 3 -1.9013 16.8877 48.5328 13.6701 -5.0788 -8.1971
# 4 10.3867 41.4646 13.6701 33.8708 -7.8591 -8.8576
# 5 -7.1594 -5.5430 -5.0788 -7.8591 27.6123 9.6971
# 6 -1.4279 -11.8677 -8.1971 -8.8576 9.6971 36.1103
#
#
#
# Elastic Compliance Matrix: (Units=1/GPa)
#
#
# Indices 1 2 3 4 5 6 
#
# 1 0.012344 -0.004252 0.001794 0.001194 0.003412 -0.001126
# 2 -0.004252 0.014949 -0.000671 -0.017210 -0.003593 0.001336
# 3 0.001794 -0.000671 0.023872 -0.008299 0.001351 0.002871
# 4 0.001194 -0.017210 -0.008299 0.056921 0.010221 0.003725
# 5 0.003412 -0.003593 0.001351 0.010221 0.042968 -0.009771
# 6 -0.001126 0.001336 0.002871 0.003725 -0.009771 0.032277
#
#
# Mechanical properties :
#
#
# Convention : Reuss Voigt Hill
#
# Bulk Modulus (GPa) = 22.26847 41.53353 31.90100
# Shear Modulus (GPa) = 24.44270 33.98222 29.21246
#
# Velocity S-wave (km/s) = 3.25955 3.84334 3.56342
# Velocity P-wave (km/s) = 4.88322 6.14399 5.54953
#
# Compressibility (1/GPa) = 0.04490654
#
# Stress axis : x y z
#
# Youngs Moduli (GPa) = 81.00898 66.89390 41.88955
#
# Poissons Ratio (x) = 0.28446 -0.07515
# Poissons Ratio (y) = 0.34448 0.02812
# Poissons Ratio (z) = -0.14533 0.04490
#
# Static dielectric constant tensor:
#      x y z
#    x 4.565630 0.080740 0.190820 
#    y 0.080740 4.561380 0.524760 
#    z 0.190820 0.524760 4.079980 
# 
# 
# High freq. dielectric constant tensor:
#      x y z
#    x 1.900130 -0.005550 0.000910 
#    y -0.005550 1.918700 0.031530 
#    z 0.000910 0.031530 1.898970 
# 
# From -- ./inp_files/308178.got.cif
#   From: 2010.06.25/outbox.cif.g09.slc.cpg/sg2_155_cif.got.tgz:308178.got - 2010.06.27 13:26:56.
