data_PCOD8043129
_publ_section_title
;
Structure prediction by ZEFSAII (Michael W. Deem and Ramdas Pophale) SiO2 
 PCOD8043129
Probable space group: P -1
;
_chemical_formula_sum "Si O2"
_cell_formula_units_Z 16
_cell_length_a 12.673869
_cell_length_b 11.920340
_cell_length_c 9.254300
_cell_angle_alpha 127.870619
_cell_angle_beta 103.285547
_cell_angle_gamma 50.200731
_cell_volume 816.685113
_symmetry_space_group_name_H-M "P -1"
_symmetry_group_IT_number 2
_symmetry_cell_setting 'triclinic'
loop_
_space_group_symop_operation_xyz
x,y,z
-x,-y,-z
loop_
_atom_site_type_symbol
_atom_site_label
_atom_site_fract_x
_atom_site_fract_y
_atom_site_fract_z
Si Si1 0.875551 0.041179 0.088898
Si Si2 0.973218 0.652991 0.407119
Si Si3 0.890483 0.171852 0.499822
Si Si4 0.844820 0.758253 0.766855
Si Si5 0.554972 0.040045 0.766473
Si Si6 0.384976 0.694314 0.973638
Si Si7 0.650978 0.282808 0.700748
Si Si8 0.319575 0.066361 0.591961
O O1 0.879507 0.085625 0.288193
O O2 0.726285 0.221556 0.122342
O O3 0.880472 0.867168 0.955446
O O4 0.000000 0.000000 0.000000
O O5 0.064549 0.709789 0.435066
O O6 0.082442 0.428911 0.267603
O O7 0.910072 0.728601 0.605928
O O8 0.845908 0.742013 0.319788
O O9 0.741822 0.309639 0.649011
O O10 0.000000 0.000000 0.500000
O O11 0.673422 0.879482 0.790676
O O12 0.403539 0.084343 0.757873
O O13 0.613606 0.961956 0.564429
O O14 0.528819 0.229561 0.937885
O O15 0.487974 0.473538 0.804314
O O16 0.297339 0.757023 0.147146
O O17 0.666346 0.111808 0.504953
#
# Coordination Sequence:
#
# PCOD8043129 Si02
#       8
#     2   2   2   2   2   2   2   2
#     4  11  21  39  62  88 118 157 202 245 298 358
#     4  10  19  36  58  88 120 152 202 246 298 352
#     4  12  23  38  60  86 124 163 194 251 307 351
#     4   9  19  37  59  88 116 153 201 251 289 359
#     4   8  16  32  57  79 111 149 193 243 290 341
#     4   9  20  39  60  88 117 151 204 247 292 363
#     4  10  20  37  60  87 120 154 198 248 301 350
#     4   9  16  32  53  84 115 150 192 239 291 349
#
# _framework density 19.591394000000001
#
# number of rings (size 3 to 8) (size 9 to 14) (size 15 to 20)
#    0.000    2.250    2.500    1.500    0.000    1.500 
#   11.250    1.875    0.000    3.000    0.000    0.000 
#    0.000    0.000    0.000    0.000    0.000    0.000 
#
# Total GULP energy -198328.097047 kJ/mol
# GULP energy per Si atom -12395.506065 kJ/mol
# Density = 1.954680 g / cm^3
# Si number density = 19.591394 Si / 1000 Ang^3
#
#
#
# Elastic Constant Matrix: (Units=GPa)
#
#
# Indices 1 2 3 4 5 6 
#
# 1 109.8631 63.0077 50.4551 -4.3781 22.7584 -1.7609
# 2 63.0077 148.2143 62.2797 10.2981 27.1180 0.2781
# 3 50.4551 62.2797 70.1861 -11.5691 9.3422 -5.4652
# 4 -4.3781 10.2981 -11.5691 25.9146 -1.3823 6.7145
# 5 22.7584 27.1180 9.3422 -1.3823 26.9578 -5.0146
# 6 -1.7609 0.2781 -5.4652 6.7145 -5.0146 26.1523
#
#
#
# Elastic Compliance Matrix: (Units=1/GPa)
#
#
# Indices 1 2 3 4 5 6 
#
# 1 0.016076 -0.000701 -0.010034 -0.001350 -0.009935 -0.002565
# 2 -0.000701 0.016347 -0.014788 -0.013285 -0.011812 -0.002165
# 3 -0.010034 -0.014788 0.036561 0.020036 0.012519 0.004378
# 4 -0.001350 -0.013285 0.020036 0.055190 0.008859 -0.008234
# 5 -0.009935 -0.011812 0.012519 0.008859 0.055420 0.010425
# 6 -0.002565 -0.002165 0.004378 -0.008234 0.010425 0.043116
#
#
# Mechanical properties :
#
#
# Convention : Reuss Voigt Hill
#
# Bulk Modulus (GPa) = 55.75094 75.52765 65.63929
# Shear Modulus (GPa) = 17.87405 25.97301 21.92353
#
# Velocity S-wave (km/s) = 3.02378 3.64502 3.34883
# Velocity P-wave (km/s) = 6.38041 7.50666 6.96633
#
# Compressibility (1/GPa) = 0.01793692
#
# Stress axis : x y z
#
# Youngs Moduli (GPa) = 62.20516 61.17218 27.35185
#
# Poissons Ratio (x) = 0.04289 0.27445
# Poissons Ratio (y) = 0.04362 0.40448
# Poissons Ratio (z) = 0.62418 0.90461
#
# Static dielectric constant tensor:
#      x y z
#    x 3.647230 -0.110290 0.169470 
#    y -0.110290 3.747890 -0.064370 
#    z 0.169470 -0.064370 3.396900 
# 
# 
# High freq. dielectric constant tensor:
#      x y z
#    x 1.755400 -0.005940 0.013490 
#    y -0.005940 1.771100 0.003030 
#    z 0.013490 0.003030 1.742500 
# 
# From -- ./inp_files/263517.got.cif
#   From: 2010.06.25/outbox.cif.g09.slc.cpg/sg2_132_cif.got.tgz:263517.got - 2010.06.27 13:26:56.
