data_PCOD8043433
_publ_section_title
;
Structure prediction by ZEFSAII (Michael W. Deem and Ramdas Pophale) SiO2 
 PCOD8043433
Probable space group: P -1
;
_chemical_formula_sum "Si O2"
_cell_formula_units_Z 16
_cell_length_a 9.333277
_cell_length_b 8.936820
_cell_length_c 13.582007
_cell_angle_alpha 67.220531
_cell_angle_beta 58.552156
_cell_angle_gamma 100.831917
_cell_volume 773.887365
_symmetry_space_group_name_H-M "P -1"
_symmetry_group_IT_number 2
_symmetry_cell_setting 'triclinic'
loop_
_space_group_symop_operation_xyz
x,y,z
-x,-y,-z
loop_
_atom_site_type_symbol
_atom_site_label
_atom_site_fract_x
_atom_site_fract_y
_atom_site_fract_z
Si Si1 0.045835 0.903370 0.384271
Si Si2 0.204498 0.651448 0.456022
Si Si3 0.021047 0.278991 0.741166
Si Si4 0.436997 0.615514 0.213525
Si Si5 0.328219 0.201708 0.350631
Si Si6 0.203977 0.121137 0.846950
Si Si7 0.553679 0.032791 0.255616
Si Si8 0.382371 0.825896 0.017810
O O1 0.055040 0.728031 0.474797
O O2 0.068893 0.890966 0.262437
O O3 0.833682 0.878016 0.485829
O O4 0.213832 0.100890 0.315950
O O5 0.117963 0.481685 0.605815
O O6 0.251923 0.590685 0.348765
O O7 0.401107 0.816765 0.385913
O O8 0.192078 0.269947 0.741355
O O9 0.847007 0.245189 0.884421
O O10 0.439212 0.423803 0.251679
O O11 0.633102 0.773463 0.155056
O O12 0.417568 0.666740 0.094698
O O13 0.499762 0.150081 0.322539
O O14 0.245964 0.971542 0.809438
O O15 0.000000 0.000000 0.000000
O O16 0.533768 0.115222 0.136460
O O17 0.500000 0.000000 0.000000
#
# Coordination Sequence:
#
# PCOD8043433 Si02
#       8
#     2   2   2   2   2   2   2   2
#     4  10  19  36  62  92 125 155 195 253 307 350
#     4  10  19  36  62  92 113 152 208 256 286 336
#     4  12  21  35  68  94 113 153 215 253 294 352
#     4  11  21  37  64  91 122 155 202 255 296 356
#     4  10  21  37  58  88 131 157 192 247 309 360
#     4  11  23  41  62  87 121 160 204 249 303 357
#     4  10  22  39  59  85 126 164 191 249 306 357
#     4  12  19  36  63  91 116 154 206 252 297 344
#
# _framework density 20.674845000000001
#
# number of rings (size 3 to 8) (size 9 to 14) (size 15 to 20)
#    0.000    1.250    6.250    1.875    0.000    2.500 
#    0.000    1.250    8.250    0.000    0.000    0.000 
#    0.000    0.000    0.000    0.000    0.000    0.000 
#
# Total GULP energy -198221.660744 kJ/mol
# GULP energy per Si atom -12388.853796 kJ/mol
# Density = 2.062779 g / cm^3
# Si number density = 20.674845 Si / 1000 Ang^3
#
#
#
# Elastic Constant Matrix: (Units=GPa)
#
#
# Indices 1 2 3 4 5 6 
#
# 1 72.1563 24.1991 8.3518 6.6855 -4.9202 -26.8955
# 2 24.1991 109.6057 24.6526 -5.2446 -14.7162 -26.3518
# 3 8.3518 24.6526 69.1804 -3.6443 -15.2034 -10.2575
# 4 6.6855 -5.2446 -3.6443 24.0921 -6.7236 -3.3037
# 5 -4.9202 -14.7162 -15.2034 -6.7236 32.7319 6.7384
# 6 -26.8955 -26.3518 -10.2575 -3.3037 6.7384 32.3170
#
#
#
# Elastic Compliance Matrix: (Units=1/GPa)
#
#
# Indices 1 2 3 4 5 6 
#
# 1 0.020496 -0.001027 -0.000328 -0.004237 -0.001706 0.016038
# 2 -0.001027 0.012594 -0.001998 0.004963 0.003853 0.008485
# 3 -0.000328 -0.001998 0.017518 0.004790 0.007648 0.002553
# 4 -0.004237 0.004963 0.004790 0.048690 0.012931 0.004322
# 5 -0.001706 0.003853 0.007648 0.012931 0.038774 -0.002613
# 6 0.016038 0.008485 0.002553 0.004322 -0.002613 0.053007
#
#
# Mechanical properties :
#
#
# Convention : Reuss Voigt Hill
#
# Bulk Modulus (GPa) = 22.77823 40.59435 31.68629
# Shear Modulus (GPa) = 23.53841 30.74413 27.14127
#
# Velocity S-wave (km/s) = 3.37783 3.86039 3.62714
# Velocity P-wave (km/s) = 5.12390 6.28867 5.73593
#
# Compressibility (1/GPa) = 0.04390157
#
# Stress axis : x y z
#
# Youngs Moduli (GPa) = 48.79118 79.39976 57.08371
#
# Poissons Ratio (x) = 0.08155 0.01875
# Poissons Ratio (y) = 0.05011 0.11404
# Poissons Ratio (z) = 0.01602 0.15863
#
# Static dielectric constant tensor:
#      x y z
#    x 4.761540 -0.679540 1.206460 
#    y -0.679540 4.000260 -0.433990 
#    z 1.206460 -0.433990 6.152580 
# 
# 
# High freq. dielectric constant tensor:
#      x y z
#    x 1.789690 -0.028710 -0.021350 
#    y -0.028710 1.797440 -0.004690 
#    z -0.021350 -0.004690 1.812450 
# 
# From -- ./inp_files/396444.got.cif
#   From: 2010.06.25/outbox.cif.g09.slc.cpg/sg2_199_cif.got.tgz:396444.got - 2010.06.27 13:26:56.
