data_PCOD8043395
_publ_section_title
;
Structure prediction by ZEFSAII (Michael W. Deem and Ramdas Pophale) SiO2 
 PCOD8043395
Probable space group: P -1
;
_chemical_formula_sum "Si O2"
_cell_formula_units_Z 14
_cell_length_a 14.734717
_cell_length_b 9.536429
_cell_length_c 21.358258
_cell_angle_alpha 50.018550
_cell_angle_beta 20.933118
_cell_angle_gamma 61.431915
_cell_volume 735.633674
_symmetry_space_group_name_H-M "P -1"
_symmetry_group_IT_number 2
_symmetry_cell_setting 'triclinic'
loop_
_space_group_symop_operation_xyz
x,y,z
-x,-y,-z
loop_
_atom_site_type_symbol
_atom_site_label
_atom_site_fract_x
_atom_site_fract_y
_atom_site_fract_z
Si Si1 0.515074 0.056404 0.237396
Si Si2 0.870637 0.673076 0.203526
Si Si3 0.825218 0.059681 0.290800
Si Si4 0.827707 0.662063 0.372363
Si Si5 0.086877 0.725172 0.698131
Si Si6 0.341278 0.570291 0.032088
Si Si7 0.685577 0.744898 0.172448
O O1 0.434949 0.214422 0.204651
O O2 0.584849 0.922263 0.179056
O O3 0.270665 0.916654 0.481204
O O4 0.792300 0.196792 0.059142
O O5 0.769292 0.718627 0.323059
O O6 0.723923 0.736587 0.224794
O O7 0.774393 0.429309 0.334882
O O8 0.943162 0.189383 0.240283
O O9 0.500000 0.000000 0.500000
O O10 0.873897 0.858286 0.327447
O O11 0.026293 0.203627 0.065100
O O12 0.558786 0.471808 0.630243
O O13 0.091940 0.606990 0.216087
O O14 0.788497 0.601266 0.889536
O O15 0.500000 0.500000 0.000000
#
# Coordination Sequence:
#
# PCOD8043395 Si02
#       7
#     2   2   2   2   2   2   2
#     4  10  19  36  62  85 112 155 198 247 289 353
#     4  10  20  32  58  85 117 159 204 233 273 356
#     4  12  25  36  55  91 134 164 185 232 295 358
#     4  10  22  37  57  87 119 154 203 248 283 357
#     4  10  22  39  56  91 122 151 201 247 288 351
#     4  10  22  43  67  89 107 147 212 265 294 340
#     4  12  20  35  60  84 123 167 196 230 293 348
#
# _framework density 19.031212
#
# number of rings (size 3 to 8) (size 9 to 14) (size 15 to 20)
#    0.000    1.714    5.714    2.571    2.000    5.143 
#    0.000    0.714    0.000    1.714    0.000    0.000 
#    0.000    0.000    0.000    0.000    0.000    0.000 
#
# Total GULP energy -173510.276304 kJ/mol
# GULP energy per Si atom -12393.591165 kJ/mol
# Density = 1.898790 g / cm^3
# Si number density = 19.031212 Si / 1000 Ang^3
#
#
#
# Elastic Constant Matrix: (Units=GPa)
#
#
# Indices 1 2 3 4 5 6 
#
# 1 84.0953 43.0501 29.1827 -5.8625 1.4345 -2.7261
# 2 43.0501 96.7053 28.3432 -16.9629 3.2516 7.9814
# 3 29.1827 28.3432 102.2108 -15.4646 22.3057 -5.5756
# 4 -5.8625 -16.9629 -15.4646 33.5097 -3.5221 6.8281
# 5 1.4345 3.2516 22.3057 -3.5221 26.5812 -3.1156
# 6 -2.7261 7.9814 -5.5756 6.8281 -3.1156 31.9736
#
#
#
# Elastic Compliance Matrix: (Units=1/GPa)
#
#
# Indices 1 2 3 4 5 6 
#
# 1 0.016755 -0.007271 -0.003685 -0.002838 0.003113 0.003510
# 2 -0.007271 0.015851 -0.001554 0.007340 -0.000022 -0.006417
# 3 -0.003685 -0.001554 0.014292 0.003871 -0.011013 0.000666
# 4 -0.002838 0.007340 0.003871 0.036712 -0.000214 -0.009260
# 5 0.003113 -0.000022 -0.011013 -0.000214 0.047018 0.002978
# 6 0.003510 -0.006417 0.000666 -0.009260 0.002978 0.035561
#
#
# Mechanical properties :
#
#
# Convention : Reuss Voigt Hill
#
# Bulk Modulus (GPa) = 45.70763 53.79593 49.75178
# Shear Modulus (GPa) = 25.18873 30.57526 27.88199
#
# Velocity S-wave (km/s) = 3.64201 4.01257 3.83177
# Velocity P-wave (km/s) = 6.46181 7.05664 6.76577
#
# Compressibility (1/GPa) = 0.02187819
#
# Stress axis : x y z
#
# Youngs Moduli (GPa) = 59.68373 63.08789 69.96799
#
# Poissons Ratio (x) = 0.45871 0.25781
# Poissons Ratio (y) = 0.43396 0.10875
# Poissons Ratio (z) = 0.21992 0.09805
#
# Static dielectric constant tensor:
#      x y z
#    x 3.204670 0.018180 0.167420 
#    y 0.018180 3.651660 -0.363670 
#    z 0.167420 -0.363670 3.584410 
# 
# 
# High freq. dielectric constant tensor:
#      x y z
#    x 1.700290 0.000090 0.016110 
#    y 0.000090 1.743400 -0.030660 
#    z 0.016110 -0.030660 1.745670 
# 
# From -- ./inp_files/296692.got.cif
#   From: 2010.06.25/outbox.cif.g09.slc.cpg/sg2_149_cif.got.tgz:296692.got - 2010.06.27 13:26:56.
