data_PCOD8043148
_publ_section_title
;
Structure prediction by ZEFSAII (Michael W. Deem and Ramdas Pophale) SiO2 
 PCOD8043148
Probable space group: P -1
;
_chemical_formula_sum "Si O2"
_cell_formula_units_Z 12
_cell_length_a 7.968583
_cell_length_b 14.077966
_cell_length_c 21.366048
_cell_angle_alpha 29.027094
_cell_angle_beta 138.238692
_cell_angle_gamma 148.109867
_cell_volume 614.355942
_symmetry_space_group_name_H-M "P -1"
_symmetry_group_IT_number 2
_symmetry_cell_setting 'triclinic'
loop_
_space_group_symop_operation_xyz
x,y,z
-x,-y,-z
loop_
_atom_site_type_symbol
_atom_site_label
_atom_site_fract_x
_atom_site_fract_y
_atom_site_fract_z
Si Si1 0.124752 0.978171 0.365045
Si Si2 0.140921 0.627398 0.131589
Si Si3 0.732349 0.372587 0.368409
Si Si4 0.730037 0.021803 0.134959
Si Si5 0.103025 0.826452 0.126506
Si Si6 0.882382 0.826467 0.626508
O O1 0.506437 0.196185 0.348886
O O2 0.960905 0.003931 0.365244
O O3 0.984954 0.999976 0.250007
O O4 0.060366 0.714387 0.500232
O O5 0.964406 0.656058 0.123200
O O6 0.007547 0.345842 0.249796
O O7 0.522318 0.803797 0.151115
O O8 0.083710 0.714402 0.000222
O O9 0.503412 0.343924 0.376802
O O10 0.970803 0.654143 0.250198
O O11 0.488119 0.996056 0.134753
O O12 0.000000 0.000000 0.000000
O O13 0.000000 0.000000 0.500000
#
# Coordination Sequence:
#
# PCOD8043148 Si02
#       6
#     2   2   2   2   2   2
#     4   9  20  37  59  81 113 146 186 220 276 331
#     4   9  20  35  59  79 113 144 183 227 272 325
#     4   9  20  35  59  79 113 144 183 227 272 325
#     4   9  20  37  59  81 113 146 186 220 276 331
#     4  10  19  36  59  78 114 147 181 225 282 320
#     4  10  19  36  59  78 114 147 181 225 282 320
#
# _framework density 19.53265
#
# number of rings (size 3 to 8) (size 9 to 14) (size 15 to 20)
#    2.000    0.667    0.000    2.000    0.000    1.333 
#    0.000    3.333    0.000    0.000    0.000    0.000 
#    0.000    0.000    0.000    0.000    0.000    0.000 
#
# Total GULP energy -148661.497499 kJ/mol
# GULP energy per Si atom -12388.458125 kJ/mol
# Density = 1.948819 g / cm^3
# Si number density = 19.532650 Si / 1000 Ang^3
#
#
#
# Elastic Constant Matrix: (Units=GPa)
#
#
# Indices 1 2 3 4 5 6 
#
# 1 97.2189 9.8933 59.5764 -15.6796 2.8357 6.2146
# 2 9.8933 18.9175 40.7954 3.0364 -3.4704 4.1101
# 3 59.5764 40.7954 205.4223 -9.2354 -0.6686 1.9791
# 4 -15.6796 3.0364 -9.2354 40.2209 -0.2934 -3.9240
# 5 2.8357 -3.4704 -0.6686 -0.2934 41.7980 -8.8048
# 6 6.2146 4.1101 1.9791 -3.9240 -8.8048 22.4034
#
#
#
# Elastic Compliance Matrix: (Units=1/GPa)
#
#
# Indices 1 2 3 4 5 6 
#
# 1 0.013487 0.001418 -0.003990 0.003872 -0.001592 -0.003596
# 2 0.001418 0.107040 -0.022121 -0.014419 0.004357 -0.018890
# 3 -0.003990 -0.022121 0.010506 0.002973 -0.000409 0.004597
# 4 0.003872 -0.014419 0.002973 0.028769 0.000138 0.006402
# 5 -0.001592 0.004357 -0.000409 0.000138 0.026522 0.010126
# 6 -0.003596 -0.018890 0.004597 0.006402 0.010126 0.053794
#
#
# Mechanical properties :
#
#
# Convention : Reuss Voigt Hill
#
# Bulk Modulus (GPa) = 12.24754 60.23209 36.23982
# Shear Modulus (GPa) = 15.78683 34.97069 25.37876
#
# Velocity S-wave (km/s) = 2.84602 4.23587 3.60849
# Velocity P-wave (km/s) = 4.13324 7.40453 5.99628
#
# Compressibility (1/GPa) = 0.08164902
#
# Stress axis : x y z
#
# Youngs Moduli (GPa) = 74.14274 9.34228 95.18236
#
# Poissons Ratio (x) = -0.01325 0.37975
# Poissons Ratio (y) = -0.10513 2.10550
# Poissons Ratio (z) = 0.29581 0.20666
#
# Static dielectric constant tensor:
#      x y z
#    x 3.384730 0.046050 0.013370 
#    y 0.046050 3.034760 -0.134570 
#    z 0.013370 -0.134570 3.481750 
# 
# 
# High freq. dielectric constant tensor:
#      x y z
#    x 1.750120 0.005700 0.001530 
#    y 0.005700 1.707040 -0.017580 
#    z 0.001530 -0.017580 1.770620 
# 
# From -- ./inp_files/608444.got.cif
#   From: 2010.06.25/outbox.cif.g09.slc.cpg/sg2_305_cif.got.tgz:608444.got - 2010.06.27 13:26:56.
