data_PCOD8043808
_publ_section_title
;
Structure prediction by ZEFSAII (Michael W. Deem and Ramdas Pophale) SiO2 
 PCOD8043808
Probable space group: P -1
;
_chemical_formula_sum "Si O2"
_cell_formula_units_Z 14
_cell_length_a 20.052398
_cell_length_b 9.674813
_cell_length_c 8.948197
_cell_angle_alpha 46.097035
_cell_angle_beta 152.266261
_cell_angle_gamma 128.367179
_cell_volume 581.952038
_symmetry_space_group_name_H-M "P -1"
_symmetry_group_IT_number 2
_symmetry_cell_setting 'triclinic'
loop_
_space_group_symop_operation_xyz
x,y,z
-x,-y,-z
loop_
_atom_site_type_symbol
_atom_site_label
_atom_site_fract_x
_atom_site_fract_y
_atom_site_fract_z
Si Si1 0.234191 0.578146 0.397870
Si Si2 0.582629 0.615510 0.346305
Si Si3 0.737017 0.064427 0.629244
Si Si4 0.058328 0.282101 0.413169
Si Si5 0.651862 0.040561 0.149236
Si Si6 0.040143 0.981647 0.352819
Si Si7 0.409796 0.305965 0.368086
O O1 0.333297 0.500824 0.522848
O O2 0.310781 0.764232 0.484917
O O3 0.196413 0.425281 0.569439
O O4 0.085812 0.618170 0.995399
O O5 0.578076 0.834783 0.113617
O O6 0.432361 0.490970 0.164169
O O7 0.651346 0.623537 0.644446
O O8 0.641664 0.071294 0.285011
O O9 0.697761 0.859266 0.786682
O O10 0.909680 0.083094 0.928564
O O11 0.030881 0.216444 0.578204
O O12 0.093175 0.104371 0.507802
O O13 0.821720 0.051759 0.447894
O O14 0.567444 0.209456 0.774751
#
# Coordination Sequence:
#
# PCOD8043808 Si02
#       7
#     2   2   2   2   2   2   2
#     4  10  19  37  59  88 120 154 197 245 296 351
#     4  10  20  39  65  82 113 167 198 235 293 361
#     4  10  22  38  58  90 126 146 194 259 288 342
#     4   9  19  35  58  88 121 154 193 241 302 361
#     4  11  21  42  63  86 120 164 195 241 298 357
#     4  10  19  37  63  88 116 155 198 244 298 348
#     4  10  23  42  62  86 121 160 202 238 294 361
#
# _framework density 24.056965999999999
#
# number of rings (size 3 to 8) (size 9 to 14) (size 15 to 20)
#    0.000    2.000    1.429    3.000    0.000    0.571 
#   10.286    3.571    0.000    0.000    0.000    0.000 
#    0.000    0.000    0.000    0.000    0.000    0.000 
#
# Total GULP energy -173437.788420 kJ/mol
# GULP energy per Si atom -12388.413459 kJ/mol
# Density = 2.400221 g / cm^3
# Si number density = 24.056966 Si / 1000 Ang^3
#
#
#
# Elastic Constant Matrix: (Units=GPa)
#
#
# Indices 1 2 3 4 5 6 
#
# 1 118.3175 62.2263 9.0285 -1.4130 24.6016 -3.0189
# 2 62.2263 172.2159 20.7237 15.6950 3.6171 1.6906
# 3 9.0285 20.7237 40.7690 4.3184 12.9932 -2.4496
# 4 -1.4130 15.6950 4.3184 26.0269 1.8263 -1.2394
# 5 24.6016 3.6171 12.9932 1.8263 23.1039 -10.6396
# 6 -3.0189 1.6906 -2.4496 -1.2394 -10.6396 44.5884
#
#
#
# Elastic Compliance Matrix: (Units=1/GPa)
#
#
# Indices 1 2 3 4 5 6 
#
# 1 0.015617 -0.006310 0.005611 0.005020 -0.020661 -0.003186
# 2 -0.006310 0.009046 -0.005524 -0.005487 0.009301 0.000993
# 3 0.005611 -0.005524 0.034212 -0.000391 -0.026049 -0.003758
# 4 0.005020 -0.005487 -0.000391 0.042602 -0.007692 -0.000125
# 5 -0.020661 0.009301 -0.026049 -0.007692 0.087090 0.017385
# 6 -0.003186 0.000993 -0.003758 -0.000125 0.017385 0.026113
#
#
# Mechanical properties :
#
#
# Convention : Reuss Voigt Hill
#
# Bulk Modulus (GPa) = 21.53923 57.25105 39.39514
# Shear Modulus (GPa) = 20.60974 34.69875 27.65424
#
# Velocity S-wave (km/s) = 2.93013 3.80196 3.39415
# Velocity P-wave (km/s) = 4.51889 6.56681 5.63664
#
# Compressibility (1/GPa) = 0.04642691
#
# Stress axis : x y z
#
# Youngs Moduli (GPa) = 64.03220 110.54000 29.22977
#
# Poissons Ratio (x) = 0.69755 -0.16400
# Poissons Ratio (y) = 0.40407 0.16148
# Poissons Ratio (z) = -0.35926 0.61068
#
# Static dielectric constant tensor:
#      x y z
#    x 4.315160 0.301660 0.049020 
#    y 0.301660 4.822660 -0.157660 
#    z 0.049020 -0.157660 3.974640 
# 
# 
# High freq. dielectric constant tensor:
#      x y z
#    x 1.943020 0.012150 0.013270 
#    y 0.012150 1.971460 -0.002730 
#    z 0.013270 -0.002730 1.935270 
# 
# From -- ./inp_files/233286.got.cif
#   From: 2010.06.25/outbox.cif.g09.slc.cpg/sg2_117_cif.got.tgz:233286.got - 2010.06.27 13:26:56.
