data_PCOD8043381
_publ_section_title
;
Structure prediction by ZEFSAII (Michael W. Deem and Ramdas Pophale) SiO2 
 PCOD8043381
Probable space group: P -1
;
_chemical_formula_sum "Si O2"
_cell_formula_units_Z 16
_cell_length_a 10.760401
_cell_length_b 10.525974
_cell_length_c 13.700186
_cell_angle_alpha 136.767414
_cell_angle_beta 134.591073
_cell_angle_gamma 65.643145
_cell_volume 741.135752
_symmetry_space_group_name_H-M "P -1"
_symmetry_group_IT_number 2
_symmetry_cell_setting 'triclinic'
loop_
_space_group_symop_operation_xyz
x,y,z
-x,-y,-z
loop_
_atom_site_type_symbol
_atom_site_label
_atom_site_fract_x
_atom_site_fract_y
_atom_site_fract_z
Si Si1 0.532506 0.300175 0.646659
Si Si2 0.521123 0.303117 0.176687
Si Si3 0.209451 0.094807 0.007559
Si Si4 0.913124 0.294318 0.375830
Si Si5 0.517093 0.708387 0.081949
Si Si6 0.777884 0.843314 0.447769
Si Si7 0.130928 0.826987 0.187084
Si Si8 0.668213 0.984812 0.767598
O O1 0.522665 0.498045 0.701822
O O2 0.386271 0.254229 0.626327
O O3 0.732782 0.317265 0.813135
O O4 0.499569 0.141189 0.453895
O O5 0.386955 0.133538 0.060842
O O6 0.720696 0.296785 0.317242
O O7 0.497790 0.288483 0.039766
O O8 0.266443 0.129323 0.170983
O O9 0.082189 0.243607 0.988220
O O10 0.109355 0.875752 0.811860
O O11 0.000000 0.500000 0.500000
O O12 0.054510 0.259333 0.514981
O O13 0.709498 0.826953 0.289410
O O14 0.370200 0.816535 0.104278
O O15 0.500000 0.500000 0.000000
O O16 0.844388 0.061003 0.634603
O O17 0.175813 0.969942 0.200223
#
# Coordination Sequence:
#
# PCOD8043381 Si02
#       8
#     2   2   2   2   2   2   2   2
#     4  11  20  40  65  91 124 169 206 265 317 364
#     4  12  25  42  64  93 138 164 206 267 326 374
#     4  11  26  41  62  97 132 170 205 264 326 372
#     4  11  21  40  64  90 125 168 210 256 310 380
#     4  12  20  37  65  97 123 165 216 261 313 373
#     4  10  19  36  61  96 118 156 214 265 301 362
#     4  10  20  40  64  92 123 165 216 258 309 375
#     4  11  21  39  67  91 128 165 219 261 310 379
#
# _framework density 21.588488000000002
#
# number of rings (size 3 to 8) (size 9 to 14) (size 15 to 20)
#    0.000    1.000    6.250    1.500    0.000    1.000 
#    0.000    3.750    0.000    0.000    0.000    0.000 
#    0.000    0.000    0.000    0.000    0.000    0.000 
#
# Total GULP energy -198237.600321 kJ/mol
# GULP energy per Si atom -12389.850020 kJ/mol
# Density = 2.153935 g / cm^3
# Si number density = 21.588488 Si / 1000 Ang^3
#
#
#
# Elastic Constant Matrix: (Units=GPa)
#
#
# Indices 1 2 3 4 5 6 
#
# 1 69.2079 28.7921 38.2555 -11.9511 11.2906 -19.1327
# 2 28.7921 82.2547 26.5186 -20.2039 11.7912 -32.6978
# 3 38.2555 26.5186 71.6366 -17.6593 4.1902 -7.1332
# 4 -11.9511 -20.2039 -17.6593 44.7921 -13.1208 10.8313
# 5 11.2906 11.7912 4.1902 -13.1208 33.8078 -11.0826
# 6 -19.1327 -32.6978 -7.1332 10.8313 -11.0826 36.1476
#
#
#
# Elastic Compliance Matrix: (Units=1/GPa)
#
#
# Indices 1 2 3 4 5 6 
#
# 1 0.024268 -0.001002 -0.011967 -0.002069 -0.004149 0.008925
# 2 -0.001002 0.021778 -0.004958 0.003542 0.000382 0.017246
# 3 -0.011967 -0.004958 0.022814 0.006177 0.002910 -0.007276
# 4 -0.002069 0.003542 0.006177 0.029110 0.009137 -0.002593
# 5 -0.004149 0.000382 0.002910 0.009137 0.036355 0.007132
# 6 0.008925 0.017246 -0.007276 -0.002593 0.007132 0.049516
#
#
# Mechanical properties :
#
#
# Convention : Reuss Voigt Hill
#
# Bulk Modulus (GPa) = 30.29953 45.58129 37.94041
# Shear Modulus (GPa) = 21.67340 31.58501 26.62920
#
# Velocity S-wave (km/s) = 3.17193 3.82913 3.51592
# Velocity P-wave (km/s) = 5.24217 6.38038 5.83907
#
# Compressibility (1/GPa) = 0.03300382
#
# Stress axis : x y z
#
# Youngs Moduli (GPa) = 41.20626 45.91843 43.83355
#
# Poissons Ratio (x) = 0.04601 0.52457
# Poissons Ratio (y) = 0.04129 0.21735
# Poissons Ratio (z) = 0.49313 0.22768
#
# Static dielectric constant tensor:
#      x y z
#    x 3.677890 -0.352340 0.002290 
#    y -0.352340 4.105930 -0.260620 
#    z 0.002290 -0.260620 4.212320 
# 
# 
# High freq. dielectric constant tensor:
#      x y z
#    x 1.816890 -0.031920 -0.002010 
#    y -0.031920 1.851490 -0.019880 
#    z -0.002010 -0.019880 1.847200 
# 
# From -- ./inp_files/519928.got.cif
#   From: 2010.06.25/outbox.cif.g09.slc.cpg/sg2_260_cif.got.tgz:519928.got - 2010.06.27 13:26:56.
