data_PCOD8043587
_publ_section_title
;
Structure prediction by ZEFSAII (Michael W. Deem and Ramdas Pophale) SiO2 
 PCOD8043587
Probable space group: P -1
;
_chemical_formula_sum "Si O2"
_cell_formula_units_Z 16
_cell_length_a 11.827812
_cell_length_b 8.811422
_cell_length_c 11.246607
_cell_angle_alpha 67.236595
_cell_angle_beta 49.707139
_cell_angle_gamma 77.517491
_cell_volume 823.428699
_symmetry_space_group_name_H-M "P -1"
_symmetry_group_IT_number 2
_symmetry_cell_setting 'triclinic'
loop_
_space_group_symop_operation_xyz
x,y,z
-x,-y,-z
loop_
_atom_site_type_symbol
_atom_site_label
_atom_site_fract_x
_atom_site_fract_y
_atom_site_fract_z
Si Si1 0.379824 0.625791 0.509464
Si Si2 0.145492 0.901426 0.955908
Si Si3 0.898013 0.345115 0.749535
Si Si4 0.470893 0.024172 0.651573
Si Si5 0.162478 0.575126 0.885239
Si Si6 0.799508 0.503921 0.545992
Si Si7 0.402623 0.288573 0.228334
Si Si8 0.327306 0.459225 0.011190
O O1 0.500000 0.500000 0.500000
O O2 0.461635 0.803398 0.401121
O O3 0.240432 0.616687 0.695451
O O4 0.322239 0.583340 0.429908
O O5 0.154479 0.742752 0.913976
O O6 0.294598 0.015383 0.801039
O O7 0.133835 0.838342 0.120079
O O8 0.000000 0.000000 0.000000
O O9 0.862919 0.357109 0.628965
O O10 0.793039 0.470607 0.842660
O O11 0.066466 0.407419 0.645999
O O12 0.500000 0.000000 0.500000
O O13 0.557639 0.893422 0.708706
O O14 0.254551 0.437336 0.936376
O O15 0.000000 0.500000 0.000000
O O16 0.736404 0.653710 0.619298
O O17 0.376587 0.296518 0.098954
O O18 0.535791 0.413080 0.137976
#
# Coordination Sequence:
#
# PCOD8043587 Si02
#       8
#     2   2   2   2   2   2   2   2
#     4  12  25  38  60  92 125 159 200 249 308 358
#     4  11  24  41  62  88 120 162 205 248 301 362
#     4   9  19  38  62  86 117 158 205 241 296 359
#     4  12  23  41  60  90 126 159 201 254 305 362
#     4  11  22  40  62  88 123 157 202 250 295 363
#     4  10  21  37  63  90 119 158 201 248 294 365
#     4  10  19  36  65  86 115 156 199 248 298 359
#     4   9  17  36  60  88 113 154 204 240 295 355
#
# _framework density 19.430948000000001
#
# number of rings (size 3 to 8) (size 9 to 14) (size 15 to 20)
#    0.000    1.500    3.750    3.000    5.250    0.000 
#    0.000    1.875    0.000    8.250    0.000    0.000 
#    0.000    0.000    0.000    0.000    0.000    0.000 
#
# Total GULP energy -198307.684358 kJ/mol
# GULP energy per Si atom -12394.230272 kJ/mol
# Density = 1.938672 g / cm^3
# Si number density = 19.430948 Si / 1000 Ang^3
#
#
#
# Elastic Constant Matrix: (Units=GPa)
#
#
# Indices 1 2 3 4 5 6 
#
# 1 123.1974 35.4752 46.2239 -21.9151 3.4386 -12.1755
# 2 35.4752 77.7367 35.8412 -15.7623 -0.8555 -13.0716
# 3 46.2239 35.8412 132.0065 -15.7625 -13.6845 -9.7434
# 4 -21.9151 -15.7623 -15.7625 27.8367 -7.3483 1.3673
# 5 3.4386 -0.8555 -13.6845 -7.3483 47.3914 -4.2832
# 6 -12.1755 -13.0716 -9.7434 1.3673 -4.2832 35.2066
#
#
#
# Elastic Compliance Matrix: (Units=1/GPa)
#
#
# Indices 1 2 3 4 5 6 
#
# 1 0.010923 -0.002410 -0.002402 0.005653 -0.000478 0.001940
# 2 -0.002410 0.017294 -0.002603 0.006497 0.001173 0.004758
# 3 -0.002402 -0.002603 0.009971 0.003172 0.003614 0.001279
# 4 0.005653 0.006497 0.003172 0.047862 0.008443 0.004414
# 5 -0.000478 0.001173 0.003614 0.008443 0.023857 0.003845
# 6 0.001940 0.004758 0.001279 0.004414 0.003845 0.031491
#
#
# Mechanical properties :
#
#
# Convention : Reuss Voigt Hill
#
# Bulk Modulus (GPa) = 42.81111 63.11344 52.96227
# Shear Modulus (GPa) = 30.48516 36.44698 33.46607
#
# Velocity S-wave (km/s) = 3.96523 4.33565 4.15457
# Velocity P-wave (km/s) = 6.56082 7.59047 7.09435
#
# Compressibility (1/GPa) = 0.02335842
#
# Stress axis : x y z
#
# Youngs Moduli (GPa) = 91.55083 57.82271 100.29093
#
# Poissons Ratio (x) = 0.13935 0.24087
# Poissons Ratio (y) = 0.22064 0.26107
# Poissons Ratio (z) = 0.21988 0.15052
#
# Static dielectric constant tensor:
#      x y z
#    x 3.706670 -0.260620 0.128840 
#    y -0.260620 3.171630 -0.013940 
#    z 0.128840 -0.013940 3.998730 
# 
# 
# High freq. dielectric constant tensor:
#      x y z
#    x 1.771880 -0.023810 0.000180 
#    y -0.023810 1.715250 0.007460 
#    z 0.000180 0.007460 1.782480 
# 
# From -- ./inp_files/181675.got.cif
#   From: 2010.06.25/outbox.cif.g09.slc.cpg/sg2_91_cif.got.tgz:181675.got - 2010.06.27 13:26:56.
