data_PCOD8043192
_publ_section_title
;
Structure prediction by ZEFSAII (Michael W. Deem and Ramdas Pophale) SiO2 
 PCOD8043192
Probable space group: P -1
;
_chemical_formula_sum "Si O2"
_cell_formula_units_Z 14
_cell_length_a 20.800679
_cell_length_b 12.955452
_cell_length_c 21.136866
_cell_angle_alpha 160.805578
_cell_angle_beta 20.993353
_cell_angle_gamma 150.260151
_cell_volume 666.536357
_symmetry_space_group_name_H-M "P -1"
_symmetry_group_IT_number 2
_symmetry_cell_setting 'triclinic'
loop_
_space_group_symop_operation_xyz
x,y,z
-x,-y,-z
loop_
_atom_site_type_symbol
_atom_site_label
_atom_site_fract_x
_atom_site_fract_y
_atom_site_fract_z
Si Si1 0.334344 0.063175 0.599651
Si Si2 0.677229 0.659855 0.100416
Si Si3 0.760337 0.578755 0.729113
Si Si4 0.123736 0.609743 0.355321
Si Si5 0.502963 0.058683 0.902375
Si Si6 0.223958 0.620750 0.932022
Si Si7 0.815735 0.737651 0.361749
O O1 0.242962 0.195177 0.826030
O O2 0.325621 0.337898 0.715129
O O3 0.540530 0.924238 0.343952
O O4 0.225740 0.790841 0.514760
O O5 0.839951 0.559662 0.843957
O O6 0.580431 0.354233 0.037026
O O7 0.791183 0.616860 0.797645
O O8 0.912954 0.707724 0.619690
O O9 0.572535 0.783170 0.003261
O O10 0.211044 0.936383 0.464224
O O11 0.340730 0.916791 0.006755
O O12 0.661057 0.772130 0.577916
O O13 0.219788 0.544014 0.816060
O O14 0.013425 0.691509 0.187181
#
# Coordination Sequence:
#
# PCOD8043192 Si02
#       7
#     2   2   2   2   2   2   2
#     4  10  21  39  57  85 114 157 184 241 288 332
#     4   9  22  39  59  82 117 147 202 232 277 347
#     4  10  20  35  63  83 114 152 192 237 294 325
#     4  10  19  36  59  89 112 148 199 239 274 352
#     4  10  21  37  59  83 115 153 191 234 287 340
#     4  11  21  37  58  84 122 150 183 242 288 336
#     4  10  21  35  56  90 118 146 190 241 279 352
#
# _framework density 21.004106
#
# number of rings (size 3 to 8) (size 9 to 14) (size 15 to 20)
#    0.000    2.000    2.857    0.429    2.000    2.857 
#    2.571    2.857    0.000    0.000    0.000    0.000 
#    0.000    0.000    0.000    0.000    0.000    0.000 
#
# Total GULP energy -173516.378820 kJ/mol
# GULP energy per Si atom -12394.027059 kJ/mol
# Density = 2.095630 g / cm^3
# Si number density = 21.004106 Si / 1000 Ang^3
#
#
#
# Elastic Constant Matrix: (Units=GPa)
#
#
# Indices 1 2 3 4 5 6 
#
# 1 57.1704 19.1349 21.2404 -3.6754 9.8592 0.5816
# 2 19.1349 75.9016 17.1729 -1.9655 0.4901 0.1623
# 3 21.2404 17.1729 84.8386 -2.3553 2.5375 3.7830
# 4 -3.6754 -1.9655 -2.3553 22.3608 -1.7251 -3.0845
# 5 9.8592 0.4901 2.5375 -1.7251 29.5941 -1.0101
# 6 0.5816 0.1623 3.7830 -3.0845 -1.0101 14.0007
#
#
#
# Elastic Compliance Matrix: (Units=1/GPa)
#
#
# Indices 1 2 3 4 5 6 
#
# 1 0.021885 -0.004435 -0.004332 0.002280 -0.006702 0.000332
# 2 -0.004435 0.014735 -0.001934 0.000581 0.001460 0.000769
# 3 -0.004332 -0.001934 0.013410 0.000080 0.000214 -0.003388
# 4 0.002280 0.000581 0.000080 0.046760 0.002303 0.010345
# 5 -0.006702 0.001460 0.000214 0.002303 0.036228 0.003325
# 6 0.000332 0.000769 -0.003388 0.010345 0.003325 0.074837
#
#
# Mechanical properties :
#
#
# Convention : Reuss Voigt Hill
#
# Bulk Modulus (GPa) = 34.93320 37.00078 35.96699
# Shear Modulus (GPa) = 20.93803 23.88193 22.40998
#
# Velocity S-wave (km/s) = 3.16072 3.37562 3.26994
# Velocity P-wave (km/s) = 5.47613 5.73126 5.60514
#
# Compressibility (1/GPa) = 0.02862606
#
# Stress axis : x y z
#
# Youngs Moduli (GPa) = 45.69425 67.86720 74.57079
#
# Poissons Ratio (x) = 0.30101 0.32307
# Poissons Ratio (y) = 0.20267 0.14422
# Poissons Ratio (z) = 0.19796 0.13125
#
# Static dielectric constant tensor:
#      x y z
#    x 3.502980 0.159670 0.016560 
#    y 0.159670 3.716200 0.020700 
#    z 0.016560 0.020700 3.866180 
# 
# 
# High freq. dielectric constant tensor:
#      x y z
#    x 1.793190 0.008390 -0.006770 
#    y 0.008390 1.814080 0.006490 
#    z -0.006770 0.006490 1.826700 
# 
# From -- ./inp_files/180434.got.cif
#   From: 2010.06.25/outbox.cif.g09.slc.cpg/sg2_91_cif.got.tgz:180434.got - 2010.06.27 13:26:56.
