data_PCOD8043295
_publ_section_title
;
Structure prediction by ZEFSAII (Michael W. Deem and Ramdas Pophale) SiO2 
 PCOD8043295
Probable space group: P -1
;
_chemical_formula_sum "Si O2"
_cell_formula_units_Z 12
_cell_length_a 4.966539
_cell_length_b 12.257414
_cell_length_c 9.066691
_cell_angle_alpha 77.095139
_cell_angle_beta 109.758196
_cell_angle_gamma 106.608961
_cell_volume 492.847523
_symmetry_space_group_name_H-M "P -1"
_symmetry_group_IT_number 2
_symmetry_cell_setting 'triclinic'
loop_
_space_group_symop_operation_xyz
x,y,z
-x,-y,-z
loop_
_atom_site_type_symbol
_atom_site_label
_atom_site_fract_x
_atom_site_fract_y
_atom_site_fract_z
Si Si1 0.900859 0.210387 0.625675
Si Si2 0.295397 0.473001 0.161148
Si Si3 0.118415 0.584989 0.627323
Si Si4 0.680428 0.911252 0.947263
Si Si5 0.380787 0.083214 0.737734
Si Si6 0.745042 0.675105 0.066786
O O1 0.048957 0.101051 0.653579
O O2 0.040800 0.287366 0.767118
O O3 0.920531 0.287978 0.460348
O O4 0.564238 0.162771 0.622608
O O5 0.541600 0.408972 0.283448
O O6 0.438897 0.604526 0.102348
O O7 0.056850 0.466271 0.245147
O O8 0.138822 0.406627 0.005600
O O9 0.000000 0.500000 0.500000
O O10 0.456554 0.956599 0.779976
O O11 0.519110 0.882964 0.085235
O O12 0.711094 0.787334 0.933148
O O13 0.000000 0.000000 0.000000
#
# Coordination Sequence:
#
# PCOD8043295 Si02
#       6
#     2   2   2   2   2   2
#     4  11  22  38  66  91 124 164 211 259 306 376
#     4  11  26  43  61  99 133 164 205 262 328 371
#     4  12  25  43  65  91 128 175 215 251 311 390
#     4  10  19  36  60  97 125 159 208 265 312 362
#     4  10  20  35  58  97 119 155 211 264 304 356
#     4  10  23  41  66  97 130 165 204 272 317 369
#
# _framework density 24.348303999999999
#
# number of rings (size 3 to 8) (size 9 to 14) (size 15 to 20)
#    0.000    1.333    5.000    1.500    4.667    5.333 
#    0.000    0.000    0.000    6.000    0.000    0.000 
#    0.000    0.000    0.000    0.000    0.000    0.000 
#
# Total GULP energy -148672.472002 kJ/mol
# GULP energy per Si atom -12389.372667 kJ/mol
# Density = 2.429289 g / cm^3
# Si number density = 24.348304 Si / 1000 Ang^3
#
#
#
# Elastic Constant Matrix: (Units=GPa)
#
#
# Indices 1 2 3 4 5 6 
#
# 1 88.9209 0.1179 31.0220 -9.6316 -3.8641 -1.7321
# 2 0.1179 101.7157 28.6751 -34.2609 -4.4462 -9.3308
# 3 31.0220 28.6751 86.6632 -25.2927 -5.3157 -1.4450
# 4 -9.6316 -34.2609 -25.2927 38.0632 -3.8230 -0.5997
# 5 -3.8641 -4.4462 -5.3157 -3.8230 46.3503 -10.6268
# 6 -1.7321 -9.3308 -1.4450 -0.5997 -10.6268 17.0857
#
#
#
# Elastic Compliance Matrix: (Units=1/GPa)
#
#
# Indices 1 2 3 4 5 6 
#
# 1 0.013339 0.002740 -0.004613 0.003034 0.001964 0.003787
# 2 0.002740 0.017203 -0.001346 0.016134 0.006271 0.014025
# 3 -0.004613 -0.001346 0.016399 0.008811 0.002574 0.002095
# 4 0.003034 0.016134 0.008811 0.048820 0.011071 0.018463
# 5 0.001964 0.006271 0.002574 0.011071 0.028596 0.022016
# 6 0.003787 0.014025 0.002095 0.018463 0.022016 0.081090
#
#
# Mechanical properties :
#
#
# Convention : Reuss Voigt Hill
#
# Bulk Modulus (GPa) = 24.68838 44.10331 34.39585
# Shear Modulus (GPa) = 22.18425 34.79881 28.49153
#
# Velocity S-wave (km/s) = 3.02175 3.78459 3.42448
# Velocity P-wave (km/s) = 4.72613 6.10330 5.45833
#
# Compressibility (1/GPa) = 0.04050488
#
# Stress axis : x y z
#
# Youngs Moduli (GPa) = 74.96711 58.13073 60.97773
#
# Poissons Ratio (x) = -0.15927 0.28126
# Poissons Ratio (y) = -0.20540 0.08205
# Poissons Ratio (z) = 0.34579 0.07822
#
# Static dielectric constant tensor:
#      x y z
#    x 4.506500 -0.533540 -0.237420 
#    y -0.533540 5.136380 0.019840 
#    z -0.237420 0.019840 5.423810 
# 
# 
# High freq. dielectric constant tensor:
#      x y z
#    x 1.973360 -0.018400 -0.004380 
#    y -0.018400 1.955690 -0.041920 
#    z -0.004380 -0.041920 1.955670 
# 
# From -- ./inp_files/130795.got.cif
#   From: 2010.06.25/outbox.cif.g09.slc.cpg/sg2_66_cif.got.tgz:130795.got - 2010.06.27 13:26:56.
