data_PCOD8043992
_publ_section_title
;
Structure prediction by ZEFSAII (Michael W. Deem and Ramdas Pophale) SiO2 
 PCOD8043992
Probable space group: P -1
;
_chemical_formula_sum "Si O2"
_cell_formula_units_Z 16
_cell_length_a 9.784457
_cell_length_b 12.721553
_cell_length_c 9.512796
_cell_angle_alpha 73.227426
_cell_angle_beta 116.576771
_cell_angle_gamma 130.426910
_cell_volume 806.125306
_symmetry_space_group_name_H-M "P -1"
_symmetry_group_IT_number 2
_symmetry_cell_setting 'triclinic'
loop_
_space_group_symop_operation_xyz
x,y,z
-x,-y,-z
loop_
_atom_site_type_symbol
_atom_site_label
_atom_site_fract_x
_atom_site_fract_y
_atom_site_fract_z
Si Si1 0.719957 0.863900 0.821448
Si Si2 0.297059 0.396157 0.084182
Si Si3 0.999389 0.611225 0.865323
Si Si4 0.984690 0.605775 0.531675
Si Si5 0.689777 0.075096 0.146004
Si Si6 0.723718 0.639205 0.222446
Si Si7 0.390692 0.885441 0.610794
Si Si8 0.123908 0.058088 0.830948
O O1 0.661309 0.713075 0.837084
O O2 0.519115 0.834978 0.715546
O O3 0.800532 0.934707 0.981841
O O4 0.891485 0.966421 0.751708
O O5 0.494061 0.547314 0.139992
O O6 0.156692 0.375634 0.147666
O O7 0.203905 0.371030 0.894732
O O8 0.198459 0.764172 0.904678
O O9 0.955066 0.568774 0.697728
O O10 0.000000 0.500000 0.000000
O O11 0.798756 0.589938 0.395494
O O12 0.000000 0.500000 0.500000
O O13 0.175340 0.756737 0.520139
O O14 0.625795 0.044292 0.289386
O O15 0.810727 0.016440 0.203887
O O16 0.500000 0.000000 0.000000
O O17 0.792533 0.790147 0.241691
O O18 0.500000 0.000000 0.500000
#
# Coordination Sequence:
#
# PCOD8043992 Si02
#       8
#     2   2   2   2   2   2   2   2
#     4  10  19  37  62  87 125 162 204 254 314 375
#     4  10  21  40  63  91 121 163 213 260 314 375
#     4  11  25  41  64  93 126 170 217 260 314 376
#     4  11  24  44  62  91 130 167 212 265 315 378
#     4  11  23  41  64  94 131 160 215 264 311 374
#     4  10  22  38  65  90 124 165 207 261 320 377
#     4  11  24  41  63  93 127 169 208 256 324 380
#     4  10  20  37  63  94 121 160 207 262 314 375
#
# _framework density 19.848030999999999
#
# number of rings (size 3 to 8) (size 9 to 14) (size 15 to 20)
#    0.000    1.500    2.500    2.250    1.750    4.500 
#    2.250    1.875    0.000    0.000    0.000    0.000 
#    0.000    0.000    0.000    0.000    0.000    0.000 
#
# Total GULP energy -198369.162125 kJ/mol
# GULP energy per Si atom -12398.072633 kJ/mol
# Density = 1.980286 g / cm^3
# Si number density = 19.848031 Si / 1000 Ang^3
#
#
#
# Elastic Constant Matrix: (Units=GPa)
#
#
# Indices 1 2 3 4 5 6 
#
# 1 122.1347 31.0664 46.8985 -0.8200 -19.3173 -14.9543
# 2 31.0664 95.0621 50.7394 -3.9860 -19.7077 -5.1637
# 3 46.8985 50.7394 104.9588 -8.2822 -8.6050 -11.4557
# 4 -0.8200 -3.9860 -8.2822 30.7736 2.1708 -0.1712
# 5 -19.3173 -19.7077 -8.6050 2.1708 35.9227 -1.2220
# 6 -14.9543 -5.1637 -11.4557 -0.1712 -1.2220 33.4721
#
#
#
# Elastic Compliance Matrix: (Units=1/GPa)
#
#
# Indices 1 2 3 4 5 6 
#
# 1 0.011063 -0.000226 -0.004113 -0.001176 0.005036 0.003678
# 2 -0.000226 0.015717 -0.006938 -0.000321 0.006865 0.000198
# 3 -0.004113 -0.006938 0.014999 0.003220 -0.002546 0.002149
# 4 -0.001176 -0.000321 0.003220 0.033436 -0.002036 0.000624
# 5 0.005036 0.006865 -0.002546 -0.002036 0.033950 0.003667
# 6 0.003678 0.000198 0.002149 0.000624 0.003667 0.032422
#
#
# Mechanical properties :
#
#
# Convention : Reuss Voigt Hill
#
# Bulk Modulus (GPa) = 52.01094 64.39601 58.20348
# Shear Modulus (GPa) = 29.31702 32.93044 31.12373
#
# Velocity S-wave (km/s) = 3.84744 4.07766 3.96422
# Velocity P-wave (km/s) = 6.78222 7.39491 7.09518
#
# Compressibility (1/GPa) = 0.01922672
#
# Stress axis : x y z
#
# Youngs Moduli (GPa) = 90.38802 63.62587 66.67105
#
# Poissons Ratio (x) = 0.01436 0.27420
# Poissons Ratio (y) = 0.02040 0.46255
# Poissons Ratio (z) = 0.37174 0.44142
#
# Static dielectric constant tensor:
#      x y z
#    x 3.887800 0.009250 -0.014300 
#    y 0.009250 3.705230 0.034060 
#    z -0.014300 0.034060 3.597920 
# 
# 
# High freq. dielectric constant tensor:
#      x y z
#    x 1.784770 -0.000060 0.001370 
#    y -0.000060 1.788840 0.002630 
#    z 0.001370 0.002630 1.759490 
# 
# From -- ./inp_files/186162.got.cif
#   From: 2010.06.25/outbox.cif.g09.slc.cpg/sg2_94_cif.got.tgz:186162.got - 2010.06.27 13:26:56.
