data_PCOD8043209
_publ_section_title
;
Structure prediction by ZEFSAII (Michael W. Deem and Ramdas Pophale) SiO2 
 PCOD8043209
Probable space group: P -1
;
_chemical_formula_sum "Si O2"
_cell_formula_units_Z 16
_cell_length_a 9.023855
_cell_length_b 19.055228
_cell_length_c 9.128362
_cell_angle_alpha 37.194255
_cell_angle_beta 79.008015
_cell_angle_gamma 60.567888
_cell_volume 763.969912
_symmetry_space_group_name_H-M "P -1"
_symmetry_group_IT_number 2
_symmetry_cell_setting 'triclinic'
loop_
_space_group_symop_operation_xyz
x,y,z
-x,-y,-z
loop_
_atom_site_type_symbol
_atom_site_label
_atom_site_fract_x
_atom_site_fract_y
_atom_site_fract_z
Si Si1 0.486525 0.371072 0.947036
Si Si2 0.328288 0.333248 0.761006
Si Si3 0.871683 0.446670 0.096992
Si Si4 0.576805 0.125799 0.531446
Si Si5 0.788837 0.851020 0.467796
Si Si6 0.176114 0.168491 0.176669
Si Si7 0.419449 0.915840 0.091009
Si Si8 0.790222 0.421888 0.827067
O O1 0.462427 0.340851 0.834980
O O2 0.290370 0.480985 0.875507
O O3 0.597983 0.441179 0.809306
O O4 0.604682 0.223273 0.259553
O O5 0.436601 0.220343 0.801430
O O6 0.194823 0.483527 0.455279
O O7 0.216933 0.287776 0.952202
O O8 0.003423 0.279825 0.385303
O O9 0.793158 0.475191 0.900127
O O10 0.000000 0.500000 0.000000
O O11 0.361852 0.183980 0.472905
O O12 0.635866 0.135450 0.670232
O O13 0.708407 0.960387 0.741129
O O14 0.766806 0.899097 0.560488
O O15 0.751729 0.977748 0.159340
O O16 0.956631 0.256600 0.046334
O O17 0.500000 0.000000 0.000000
#
# Coordination Sequence:
#
# PCOD8043209 Si02
#       8
#     2   2   2   2   2   2   2   2
#     4  12  24  42  63  91 134 173 199 253 319 384
#     4  12  22  41  66  90 129 166 214 262 309 361
#     4  11  22  40  67  91 121 165 212 260 304 366
#     4  11  20  37  66  90 127 157 211 259 318 356
#     4  10  19  36  59  96 119 147 207 264 308 355
#     4  11  21  39  65  95 118 165 212 267 301 367
#     4  10  21  35  62  98 120 151 204 277 312 351
#     4  11  27  41  60  96 133 166 209 249 318 381
#
# _framework density 20.943231999999998
#
# number of rings (size 3 to 8) (size 9 to 14) (size 15 to 20)
#    0.000    1.000    5.000    3.750    1.750    1.500 
#    0.000    0.000    0.000    4.500    0.000    0.000 
#    0.000    0.000    0.000    0.000    0.000    0.000 
#
# Total GULP energy -198390.085079 kJ/mol
# GULP energy per Si atom -12399.380317 kJ/mol
# Density = 2.089556 g / cm^3
# Si number density = 20.943232 Si / 1000 Ang^3
#
#
#
# Elastic Constant Matrix: (Units=GPa)
#
#
# Indices 1 2 3 4 5 6 
#
# 1 81.8321 41.4945 10.7058 -0.9749 7.8608 -4.0573
# 2 41.4945 122.1640 40.5374 9.3926 15.9366 8.9470
# 3 10.7058 40.5374 124.9459 18.6326 24.9251 -1.0529
# 4 -0.9749 9.3926 18.6326 31.1550 7.2064 8.7620
# 5 7.8608 15.9366 24.9251 7.2064 22.0360 1.7107
# 6 -4.0573 8.9470 -1.0529 8.7620 1.7107 21.8749
#
#
#
# Elastic Compliance Matrix: (Units=1/GPa)
#
#
# Indices 1 2 3 4 5 6 
#
# 1 0.015527 -0.005638 0.001086 0.000867 -0.003373 0.005155
# 2 -0.005638 0.011848 -0.002868 0.000317 -0.002957 -0.005926
# 3 0.001086 -0.002868 0.011677 -0.005057 -0.010238 0.004763
# 4 0.000867 0.000317 -0.005057 0.041233 -0.007048 -0.016177
# 5 -0.003373 -0.002957 -0.010238 -0.007048 0.062761 -0.001994
# 6 0.005155 -0.005926 0.004763 -0.016177 -0.001994 0.055959
#
#
# Mechanical properties :
#
#
# Convention : Reuss Voigt Hill
#
# Bulk Modulus (GPa) = 41.30350 57.15748 49.23049
# Shear Modulus (GPa) = 22.53081 30.76012 26.64547
#
# Velocity S-wave (km/s) = 3.28350 3.83657 3.57076
# Velocity P-wave (km/s) = 5.84291 6.85394 6.36852
#
# Compressibility (1/GPa) = 0.02421102
#
# Stress axis : x y z
#
# Youngs Moduli (GPa) = 64.40350 84.40280 85.63499
#
# Poissons Ratio (x) = 0.47590 -0.09300
# Poissons Ratio (y) = 0.36314 0.24563
# Poissons Ratio (z) = -0.06994 0.24209
#
# Static dielectric constant tensor:
#      x y z
#    x 3.501250 0.038110 0.230760 
#    y 0.038110 3.894920 0.189880 
#    z 0.230760 0.189880 4.334260 
# 
# 
# High freq. dielectric constant tensor:
#      x y z
#    x 1.782360 0.004610 0.017760 
#    y 0.004610 1.831050 0.005570 
#    z 0.017760 0.005570 1.837570 
# 
# From -- ./inp_files/216457.got.cif
#   From: 2010.06.25/outbox.cif.g09.slc.cpg/sg2_109_cif.got.tgz:216457.got - 2010.06.27 13:26:56.
