data_PCOD8043067
_publ_section_title
;
Structure prediction by ZEFSAII (Michael W. Deem and Ramdas Pophale) SiO2 
 PCOD8043067
Probable space group: P -1
;
_chemical_formula_sum "Si O2"
_cell_formula_units_Z 16
_cell_length_a 9.268435
_cell_length_b 10.580883
_cell_length_c 11.177814
_cell_angle_alpha 50.008209
_cell_angle_beta 88.612976
_cell_angle_gamma 109.995366
_cell_volume 742.512536
_symmetry_space_group_name_H-M "P -1"
_symmetry_group_IT_number 2
_symmetry_cell_setting 'triclinic'
loop_
_space_group_symop_operation_xyz
x,y,z
-x,-y,-z
loop_
_atom_site_type_symbol
_atom_site_label
_atom_site_fract_x
_atom_site_fract_y
_atom_site_fract_z
Si Si1 0.182751 0.900623 0.254663
Si Si2 0.867173 0.309541 0.857828
Si Si3 0.435006 0.267282 0.727438
Si Si4 0.928931 0.999546 0.129846
Si Si5 0.453319 0.614486 0.599054
Si Si6 0.832854 0.310631 0.376457
Si Si7 0.632968 0.011175 0.397937
Si Si8 0.459958 0.920268 0.905674
O O1 0.117624 0.747796 0.243195
O O2 0.197103 0.804636 0.432158
O O3 0.058165 0.986879 0.227327
O O4 0.361837 0.068890 0.112660
O O5 0.983478 0.527879 0.738211
O O6 0.682054 0.269969 0.918072
O O7 0.913881 0.189802 0.025426
O O8 0.464708 0.422188 0.736144
O O9 0.560870 0.368378 0.555088
O O10 0.468514 0.097746 0.877765
O O11 0.247209 0.178675 0.740599
O O12 0.000000 0.000000 0.000000
O O13 0.291554 0.600221 0.674885
O O14 0.615682 0.801085 0.525970
O O15 0.803836 0.172414 0.347517
O O16 0.596793 0.057445 0.238997
O O17 0.500000 0.000000 0.500000
#
# Coordination Sequence:
#
# PCOD8043067 Si02
#       8
#     2   2   2   2   2   2   2   2
#     4  11  19  35  58  83 117 144 188 235 283 328
#     4  10  22  34  54  85 117 147 184 229 292 331
#     4   9  16  30  51  79 108 138 181 226 275 325
#     4   9  19  33  51  77 115 152 174 219 291 343
#     4   9  16  29  53  79 104 142 185 223 269 328
#     4  11  20  35  57  88 111 149 191 235 269 333
#     4   9  17  33  55  82 110 149 193 226 270 337
#     4  10  19  36  57  86 111 148 187 233 283 332
#
# _framework density 21.548456000000002
#
# number of rings (size 3 to 8) (size 9 to 14) (size 15 to 20)
#    0.000    2.250    3.750    2.250    0.000    0.500 
#    0.000    0.000    0.000    7.500    9.750    0.000 
#    0.000    0.000    0.000    0.000    0.000    0.000 
#
# Total GULP energy -198228.234363 kJ/mol
# GULP energy per Si atom -12389.264648 kJ/mol
# Density = 2.149941 g / cm^3
# Si number density = 21.548456 Si / 1000 Ang^3
#
#
#
# Elastic Constant Matrix: (Units=GPa)
#
#
# Indices 1 2 3 4 5 6 
#
# 1 97.3879 34.9918 18.3583 -13.7446 -6.8650 13.8146
# 2 34.9918 118.6310 28.7285 -19.9316 -1.2030 11.8679
# 3 18.3583 28.7285 49.2284 -11.5375 -11.8214 4.9647
# 4 -13.7446 -19.9316 -11.5375 25.4529 7.6181 -4.9104
# 5 -6.8650 -1.2030 -11.8214 7.6181 32.9649 -6.7134
# 6 13.8146 11.8679 4.9647 -4.9104 -6.7134 30.1803
#
#
#
# Elastic Compliance Matrix: (Units=1/GPa)
#
#
# Indices 1 2 3 4 5 6 
#
# 1 0.012501 -0.002230 -0.002164 0.003204 0.000207 -0.003922
# 2 -0.002230 0.011589 -0.005144 0.006198 -0.003835 -0.002535
# 3 -0.002164 -0.005144 0.027113 0.004865 0.008198 0.001168
# 4 0.003204 0.006198 0.004865 0.051034 -0.008822 0.001637
# 5 0.000207 -0.003835 0.008198 -0.008822 0.036596 0.006770
# 6 -0.003922 -0.002535 0.001168 0.001637 0.006770 0.037506
#
#
# Mechanical properties :
#
#
# Convention : Reuss Voigt Hill
#
# Bulk Modulus (GPa) = 31.12710 47.71162 39.41936
# Shear Modulus (GPa) = 24.25726 29.93088 27.09407
#
# Velocity S-wave (km/s) = 3.35880 3.73098 3.54977
# Velocity P-wave (km/s) = 5.43310 6.38356 5.92741
#
# Compressibility (1/GPa) = 0.03212635
#
# Stress axis : x y z
#
# Youngs Moduli (GPa) = 79.99602 86.28820 36.88209
#
# Poissons Ratio (x) = 0.19245 0.07981
# Poissons Ratio (y) = 0.17842 0.18972
# Poissons Ratio (z) = 0.17311 0.44387
#
# Static dielectric constant tensor:
#      x y z
#    x 5.173740 -0.076210 0.221370 
#    y -0.076210 4.715760 -0.015750 
#    z 0.221370 -0.015750 3.999310 
# 
# 
# High freq. dielectric constant tensor:
#      x y z
#    x 1.835320 0.006410 -0.016860 
#    y 0.006410 1.820200 -0.007530 
#    z -0.016860 -0.007530 1.843400 
# 
# From -- ./inp_files/389108.got.cif
#   From: 2010.06.25/outbox.cif.g09.slc.cpg/sg2_195_cif.got.tgz:389108.got - 2010.06.27 13:26:56.
