data_PCOD8043603
_publ_section_title
;
Structure prediction by ZEFSAII (Michael W. Deem and Ramdas Pophale) SiO2 
 PCOD8043603
Probable space group: P -1
;
_chemical_formula_sum "Si O2"
_cell_formula_units_Z 16
_cell_length_a 9.657984
_cell_length_b 19.281012
_cell_length_c 7.871554
_cell_angle_alpha 100.265083
_cell_angle_beta 80.483709
_cell_angle_gamma 148.709288
_cell_volume 748.881881
_symmetry_space_group_name_H-M "P -1"
_symmetry_group_IT_number 2
_symmetry_cell_setting 'triclinic'
loop_
_space_group_symop_operation_xyz
x,y,z
-x,-y,-z
loop_
_atom_site_type_symbol
_atom_site_label
_atom_site_fract_x
_atom_site_fract_y
_atom_site_fract_z
Si Si1 0.600936 0.643077 0.057957
Si Si2 0.457477 0.845587 0.345436
Si Si3 0.318521 0.895097 0.139789
Si Si4 0.669904 0.662717 0.447985
Si Si5 0.898827 0.062970 0.616609
Si Si6 0.906062 0.642618 0.907377
Si Si7 0.098016 0.380938 0.483380
Si Si8 0.820681 0.889252 0.132090
O O1 0.641470 0.637460 0.242365
O O2 0.284348 0.497326 0.026415
O O3 0.697858 0.762426 0.042778
O O4 0.758563 0.655030 0.914142
O O5 0.482359 0.930586 0.277431
O O6 0.151020 0.697066 0.390479
O O7 0.569920 0.831354 0.200112
O O8 0.632885 0.927889 0.515376
O O9 0.143699 0.885730 0.235882
O O10 0.148948 0.758004 0.037102
O O11 0.500000 0.000000 0.000000
O O12 0.851539 0.810583 0.504026
O O13 0.832753 0.668998 0.501759
O O14 0.368520 0.542648 0.531613
O O15 0.991140 0.038578 0.708541
O O16 0.999431 0.657374 0.708983
O O17 0.000000 0.000000 0.000000
#
# Coordination Sequence:
#
# PCOD8043603 Si02
#       8
#     2   2   2   2   2   2   2   2
#     4   9  19  39  63  89 119 171 213 259 311 381
#     4  12  25  40  62  95 132 166 214 272 321 381
#     4  12  23  37  62  96 128 163 216 274 315 369
#     4   9  18  36  59  87 129 161 213 259 312 382
#     4  11  22  42  63  92 127 173 217 261 322 377
#     4  10  19  36  65  92 123 158 217 266 314 372
#     4  10  20  34  60  97 125 164 206 267 328 369
#     4  11  24  44  64  93 133 175 212 258 329 399
#
# _framework density 21.365183999999999
#
# number of rings (size 3 to 8) (size 9 to 14) (size 15 to 20)
#    0.000    1.500    3.750    2.250    1.750    0.000 
#    0.000    6.250    0.000    1.500    0.000    0.000 
#    0.000    0.000    0.000    0.000    0.000    0.000 
#
# Total GULP energy -198330.431921 kJ/mol
# GULP energy per Si atom -12395.651995 kJ/mol
# Density = 2.131656 g / cm^3
# Si number density = 21.365184 Si / 1000 Ang^3
#
#
#
# Elastic Constant Matrix: (Units=GPa)
#
#
# Indices 1 2 3 4 5 6 
#
# 1 84.9507 48.1036 27.4575 -24.4676 3.0199 5.0868
# 2 48.1036 166.6512 45.3035 -21.0770 1.6902 -0.8381
# 3 27.4575 45.3035 54.4897 -23.3485 0.2657 3.2399
# 4 -24.4676 -21.0770 -23.3485 35.6888 1.7305 0.4580
# 5 3.0199 1.6902 0.2657 1.7305 31.3804 -4.6851
# 6 5.0868 -0.8381 3.2399 0.4580 -4.6851 35.9411
#
#
#
# Elastic Compliance Matrix: (Units=1/GPa)
#
#
# Indices 1 2 3 4 5 6 
#
# 1 0.016973 -0.003263 -0.002006 0.008544 -0.002316 -0.002708
# 2 -0.003263 0.008409 -0.005921 -0.001169 0.000159 0.001227
# 3 -0.002006 -0.005921 0.031154 0.015599 -0.001060 -0.002999
# 4 0.008544 -0.001169 0.015599 0.043627 -0.003850 -0.003700
# 5 -0.002316 0.000159 -0.001060 -0.003850 0.033016 0.004780
# 6 -0.002708 0.001227 -0.002999 -0.003700 0.004780 0.029176
#
#
# Mechanical properties :
#
#
# Convention : Reuss Voigt Hill
#
# Bulk Modulus (GPa) = 29.27943 60.86898 45.07421
# Shear Modulus (GPa) = 25.49439 32.95054 29.22246
#
# Velocity S-wave (km/s) = 3.45812 3.93141 3.70234
# Velocity P-wave (km/s) = 5.44783 7.01140 6.27847
#
# Compressibility (1/GPa) = 0.03415367
#
# Stress axis : x y z
#
# Youngs Moduli (GPa) = 58.91641 118.91986 32.09884
#
# Poissons Ratio (x) = 0.38809 0.06440
# Poissons Ratio (y) = 0.19227 0.19007
# Poissons Ratio (z) = 0.11820 0.70417
#
# Static dielectric constant tensor:
#      x y z
#    x 3.602980 0.039630 0.080210 
#    y 0.039630 4.520420 -0.116150 
#    z 0.080210 -0.116150 3.788210 
# 
# 
# High freq. dielectric constant tensor:
#      x y z
#    x 1.805170 0.004740 0.013130 
#    y 0.004740 1.857600 -0.007250 
#    z 0.013130 -0.007250 1.830160 
# 
# From -- ./inp_files/223694.got.cif
#   From: 2010.06.25/outbox.cif.g09.slc.cpg/sg2_112_cif.got.tgz:223694.got - 2010.06.27 13:26:56.
