data_PCOD8043887
_publ_section_title
;
Structure prediction by ZEFSAII (Michael W. Deem and Ramdas Pophale) SiO2 
 PCOD8043887
Probable space group: P -1
;
_chemical_formula_sum "Si O2"
_cell_formula_units_Z 14
_cell_length_a 5.254031
_cell_length_b 12.169329
_cell_length_c 13.764327
_cell_angle_alpha 133.879254
_cell_angle_beta 76.666561
_cell_angle_gamma 89.155564
_cell_volume 597.823495
_symmetry_space_group_name_H-M "P -1"
_symmetry_group_IT_number 2
_symmetry_cell_setting 'triclinic'
loop_
_space_group_symop_operation_xyz
x,y,z
-x,-y,-z
loop_
_atom_site_type_symbol
_atom_site_label
_atom_site_fract_x
_atom_site_fract_y
_atom_site_fract_z
Si Si1 0.239972 0.634350 0.886633
Si Si2 0.655070 0.121917 0.681991
Si Si3 0.657400 0.677193 0.010160
Si Si4 0.248891 0.514627 0.600269
Si Si5 0.039499 0.247604 0.374632
Si Si6 0.393527 0.940203 0.069211
Si Si7 0.229211 0.923830 0.570820
O O1 0.312964 0.544982 0.723942
O O2 0.492127 0.571162 0.899659
O O3 0.975983 0.594702 0.935140
O O4 0.198670 0.823476 0.990422
O O5 0.486839 0.281552 0.847200
O O6 0.709733 0.163347 0.591873
O O7 0.474838 0.995920 0.623428
O O8 0.941071 0.054877 0.670608
O O9 0.638142 0.840382 0.052409
O O10 0.500000 0.500000 0.500000
O O11 0.151702 0.355040 0.506555
O O12 0.025315 0.663269 0.668138
O O13 0.254514 0.086265 0.236890
O O14 0.784022 0.206593 0.426222
O O15 0.500000 0.000000 0.000000
#
# Coordination Sequence:
#
# PCOD8043887 Si02
#       7
#     2   2   2   2   2   2   2
#     4  10  23  38  59  84 118 157 200 243 303 354
#     4  10  19  37  60  95 123 151 193 252 314 357
#     4  10  20  36  60  85 118 152 190 247 304 357
#     4  11  26  40  59  83 125 171 207 244 293 364
#     4  11  23  39  59  89 122 163 202 250 298 357
#     4  10  20  33  58  86 115 151 194 247 297 353
#     4  10  21  35  61  91 126 155 193 250 309 361
#
# _framework density 23.418281
#
# number of rings (size 3 to 8) (size 9 to 14) (size 15 to 20)
#    0.857    0.857    1.429    3.429    6.000    4.571 
#    0.000    0.000    0.000    1.714    0.000    0.000 
#    0.000    0.000    0.000    0.000    0.000    0.000 
#
# Total GULP energy -173512.759415 kJ/mol
# GULP energy per Si atom -12393.768530 kJ/mol
# Density = 2.336498 g / cm^3
# Si number density = 23.418281 Si / 1000 Ang^3
#
#
#
# Elastic Constant Matrix: (Units=GPa)
#
#
# Indices 1 2 3 4 5 6 
#
# 1 112.2160 -2.2087 20.3989 -3.5777 -0.1731 19.7612
# 2 -2.2087 40.0933 17.2124 -11.8478 1.8138 22.2869
# 3 20.3989 17.2124 126.0373 -23.3358 9.3322 10.0166
# 4 -3.5777 -11.8478 -23.3358 34.4854 7.2633 -4.2291
# 5 -0.1731 1.8138 9.3322 7.2633 34.9242 -9.5989
# 6 19.7612 22.2869 10.0166 -4.2291 -9.5989 22.1123
#
#
#
# Elastic Compliance Matrix: (Units=1/GPa)
#
#
# Indices 1 2 3 4 5 6 
#
# 1 0.034045 0.083936 0.001924 0.027394 -0.046345 -0.130775
# 2 0.083936 0.304399 0.009708 0.099789 -0.158565 -0.435960
# 3 0.001924 0.009708 0.010560 0.010620 -0.010723 -0.018911
# 4 0.027394 0.099789 0.010620 0.068690 -0.061604 -0.143475
# 5 -0.046345 -0.158565 -0.010723 -0.061604 0.120045 0.246421
# 6 -0.130775 -0.435960 -0.018911 -0.143475 0.246421 0.689595
#
#
# Mechanical properties :
#
#
# Convention : Reuss Voigt Hill
#
# Bulk Modulus (GPa) = 1.85137 38.79465 20.32301
# Shear Modulus (GPa) = 4.11101 34.50063 19.30582
#
# Velocity S-wave (km/s) = 1.32638 3.84244 2.87434
# Velocity P-wave (km/s) = 1.77144 6.02393 4.43992
#
# Compressibility (1/GPa) = 0.54014038
#
# Stress axis : x y z
#
# Youngs Moduli (GPa) = 29.37281 3.28516 94.69489
#
# Poissons Ratio (x) = -0.27574 -0.18217
# Poissons Ratio (y) = -2.46544 -0.91931
# Poissons Ratio (z) = -0.05651 -0.03189
#
# Static dielectric constant tensor:
#      x y z
#    x 4.878900 -0.756070 0.388850 
#    y -0.756070 5.655650 -1.143390 
#    z 0.388850 -1.143390 4.834720 
# 
# 
# High freq. dielectric constant tensor:
#      x y z
#    x 1.925910 0.011580 0.003320 
#    y 0.011580 1.905200 -0.019790 
#    z 0.003320 -0.019790 1.930040 
# 
# From -- ./inp_files/483680.got.cif
#   From: 2010.06.25/outbox.cif.g09.slc.cpg/sg2_242_cif.got.tgz:483680.got - 2010.06.27 13:26:56.
