data_PCOD8043445
_publ_section_title
;
Structure prediction by ZEFSAII (Michael W. Deem and Ramdas Pophale) SiO2 
 PCOD8043445
Probable space group: P -1
;
_chemical_formula_sum "Si O2"
_cell_formula_units_Z 12
_cell_length_a 8.791194
_cell_length_b 7.994121
_cell_length_c 11.772638
_cell_angle_alpha 109.477427
_cell_angle_beta 38.920479
_cell_angle_gamma 113.437022
_cell_volume 476.483075
_symmetry_space_group_name_H-M "P -1"
_symmetry_group_IT_number 2
_symmetry_cell_setting 'triclinic'
loop_
_space_group_symop_operation_xyz
x,y,z
-x,-y,-z
loop_
_atom_site_type_symbol
_atom_site_label
_atom_site_fract_x
_atom_site_fract_y
_atom_site_fract_z
Si Si1 0.308951 0.916140 0.846888
Si Si2 0.442797 0.594401 0.941494
Si Si3 0.969533 0.786884 0.605203
Si Si4 0.220430 0.266469 0.852081
Si Si5 0.383667 0.791414 0.540773
Si Si6 0.228111 0.888081 0.251866
O O1 0.326854 0.771255 0.703253
O O2 0.299136 0.116743 0.854123
O O3 0.545609 0.947998 0.798146
O O4 0.064448 0.818322 0.038659
O O5 0.698833 0.653441 0.736444
O O6 0.243885 0.453460 0.949768
O O7 0.500000 0.500000 0.000000
O O8 0.325250 0.765536 0.075915
O O9 0.131331 0.730936 0.600434
O O10 0.094979 0.762987 0.405381
O O11 0.957718 0.000744 0.673540
O O12 0.405429 0.312237 0.646211
O O13 0.500000 0.000000 0.500000
#
# Coordination Sequence:
#
# PCOD8043445 Si02
#       6
#     2   2   2   2   2   2
#     4  10  20  39  64  92 119 165 213 256 301 379
#     4  12  23  40  64  98 127 164 211 264 314 367
#     4  11  24  41  64  94 131 166 208 259 316 382
#     4  10  21  36  62  93 121 156 214 260 303 358
#     4  10  19  36  62  93 114 164 214 249 300 367
#     4  11  24  42  65  96 127 169 205 259 326 368
#
# _framework density 25.184525000000001
#
# number of rings (size 3 to 8) (size 9 to 14) (size 15 to 20)
#    0.000    1.333    5.000    1.500    4.667    4.000 
#    0.000    0.833    0.000    3.000    0.000    0.000 
#    0.000    0.000    0.000    0.000    0.000    0.000 
#
# Total GULP energy -148784.211208 kJ/mol
# GULP energy per Si atom -12398.684267 kJ/mol
# Density = 2.512720 g / cm^3
# Si number density = 25.184525 Si / 1000 Ang^3
#
#
#
# Elastic Constant Matrix: (Units=GPa)
#
#
# Indices 1 2 3 4 5 6 
#
# 1 41.6186 23.9467 43.9906 4.7821 2.9794 2.9520
# 2 23.9467 71.5273 50.7390 -6.9441 2.5536 25.2211
# 3 43.9906 50.7390 174.0553 -1.3718 -11.5889 22.8858
# 4 4.7821 -6.9441 -1.3718 31.1901 12.0501 -0.0645
# 5 2.9794 2.5536 -11.5889 12.0501 22.4767 -0.8233
# 6 2.9520 25.2211 22.8858 -0.0645 -0.8233 25.5486
#
#
#
# Elastic Compliance Matrix: (Units=1/GPa)
#
#
# Indices 1 2 3 4 5 6 
#
# 1 0.041796 -0.014568 -0.008878 -0.008807 -0.003105 0.017383
# 2 -0.014568 0.032546 -0.002746 0.013786 -0.011611 -0.028326
# 3 -0.008878 -0.002746 0.009908 -0.001644 0.007299 -0.004908
# 4 -0.008807 0.013786 -0.001644 0.046708 -0.026722 -0.011862
# 5 -0.003105 -0.011611 0.007299 -0.026722 0.064578 0.007295
# 6 0.017383 -0.028326 -0.004908 -0.011862 0.007295 0.069697
#
#
# Mechanical properties :
#
#
# Convention : Reuss Voigt Hill
#
# Bulk Modulus (GPa) = 31.38192 58.28375 44.83283
# Shear Modulus (GPa) = 15.23279 27.07807 21.15543
#
# Velocity S-wave (km/s) = 2.46203 3.28256 2.90145
# Velocity P-wave (km/s) = 4.53541 6.12861 5.39119
#
# Compressibility (1/GPa) = 0.03186548
#
# Stress axis : x y z
#
# Youngs Moduli (GPa) = 23.92601 30.72530 100.92932
#
# Poissons Ratio (x) = 0.44762 0.89608
# Poissons Ratio (y) = 0.34856 0.27711
# Poissons Ratio (z) = 0.21242 0.08436
#
# Static dielectric constant tensor:
#      x y z
#    x 5.000700 0.458940 0.678330 
#    y 0.458940 4.507280 0.392650 
#    z 0.678330 0.392650 6.059660 
# 
# 
# High freq. dielectric constant tensor:
#      x y z
#    x 1.984890 0.012510 -0.005160 
#    y 0.012510 1.980150 -0.007210 
#    z -0.005160 -0.007210 2.025230 
# 
# From -- ./inp_files/191169.got.cif
#   From: 2010.06.25/outbox.cif.g09.slc.cpg/sg2_96_cif.got.tgz:191169.got - 2010.06.27 13:26:56.
