data_PCOD8043447
_publ_section_title
;
Structure prediction by ZEFSAII (Michael W. Deem and Ramdas Pophale) SiO2 
 PCOD8043447
Probable space group: P -1
;
_chemical_formula_sum "Si O2"
_cell_formula_units_Z 16
_cell_length_a 9.829713
_cell_length_b 13.380413
_cell_length_c 9.648802
_cell_angle_alpha 125.010679
_cell_angle_beta 119.798712
_cell_angle_gamma 49.237542
_cell_volume 771.817615
_symmetry_space_group_name_H-M "P -1"
_symmetry_group_IT_number 2
_symmetry_cell_setting 'triclinic'
loop_
_space_group_symop_operation_xyz
x,y,z
-x,-y,-z
loop_
_atom_site_type_symbol
_atom_site_label
_atom_site_fract_x
_atom_site_fract_y
_atom_site_fract_z
Si Si1 0.862484 0.625475 0.196634
Si Si2 0.306692 0.747507 0.256594
Si Si3 0.187462 0.891589 0.578372
Si Si4 0.498885 0.533582 0.750043
Si Si5 0.206702 0.615511 0.449899
Si Si6 0.552416 0.201591 0.900288
Si Si7 0.313682 0.025857 0.982912
Si Si8 0.990533 0.688712 0.027576
O O1 0.651773 0.745333 0.219250
O O2 0.895265 0.668722 0.096903
O O3 0.012891 0.623854 0.374611
O O4 0.886093 0.469319 0.100264
O O5 0.331862 0.819807 0.466011
O O6 0.463135 0.579688 0.199296
O O7 0.318031 0.824015 0.185713
O O8 0.111044 0.758791 0.178423
O O9 0.166027 0.774176 0.554283
O O10 0.244291 0.965601 0.779236
O O11 0.000000 0.000000 0.500000
O O12 0.332522 0.540740 0.586904
O O13 0.683831 0.474056 0.703224
O O14 0.451282 0.683530 0.905690
O O15 0.649950 0.052043 0.912271
O O16 0.169881 0.196112 0.064128
O O17 0.500000 0.000000 0.000000
#
# Coordination Sequence:
#
# PCOD8043447 Si02
#       8
#     2   2   2   2   2   2   2   2
#     4  11  20  38  66  94 128 164 209 266 311 367
#     4  11  23  40  65  93 127 171 212 255 321 383
#     4  11  21  41  65  87 123 172 212 251 308 386
#     4  10  19  36  62  93 121 163 214 262 298 374
#     4  10  20  35  64  96 120 160 223 261 297 367
#     4  12  24  39  65  96 131 163 210 266 323 370
#     4  12  25  40  67  98 124 164 217 265 310 374
#     4  11  21  38  63  92 126 167 215 251 312 374
#
# _framework density 20.730284999999999
#
# number of rings (size 3 to 8) (size 9 to 14) (size 15 to 20)
#    0.000    1.000    7.500    1.125    0.000    0.500 
#    0.000    1.250    2.750    0.000    0.000    0.000 
#    0.000    0.000    0.000    0.000    0.000    0.000 
#
# Total GULP energy -198314.338614 kJ/mol
# GULP energy per Si atom -12394.646163 kJ/mol
# Density = 2.068310 g / cm^3
# Si number density = 20.730285 Si / 1000 Ang^3
#
#
#
# Elastic Constant Matrix: (Units=GPa)
#
#
# Indices 1 2 3 4 5 6 
#
# 1 68.9525 39.3030 35.3793 -9.7877 8.3865 7.1568
# 2 39.3030 154.0217 15.2444 -15.9791 -1.9242 2.0124
# 3 35.3793 15.2444 50.9691 -8.4253 15.7709 0.6670
# 4 -9.7877 -15.9791 -8.4253 28.5016 -4.3189 1.8898
# 5 8.3865 -1.9242 15.7709 -4.3189 23.5380 -8.1599
# 6 7.1568 2.0124 0.6670 1.8898 -8.1599 32.1060
#
#
#
# Elastic Compliance Matrix: (Units=1/GPa)
#
#
# Indices 1 2 3 4 5 6 
#
# 1 0.026671 -0.004912 -0.016552 0.001818 -0.000387 -0.005499
# 2 -0.004912 0.008061 0.000611 0.003394 0.003020 0.001145
# 3 -0.016552 0.000611 0.037433 0.002937 -0.019364 -0.002221
# 4 0.001818 0.003394 0.002937 0.039245 0.004197 -0.001922
# 5 -0.000387 0.003020 -0.019364 0.004197 0.062104 0.015836
# 6 -0.005499 0.001145 -0.002221 -0.001922 0.015836 0.036485
#
#
# Mechanical properties :
#
#
# Convention : Reuss Voigt Hill
#
# Bulk Modulus (GPa) = 32.83272 50.42185 41.62728
# Shear Modulus (GPa) = 19.09440 29.09688 24.09564
#
# Velocity S-wave (km/s) = 3.03823 3.75052 3.41301
# Velocity P-wave (km/s) = 5.30851 6.56740 5.97122
#
# Compressibility (1/GPa) = 0.03045743
#
# Stress axis : x y z
#
# Youngs Moduli (GPa) = 37.49354 124.06128 26.71473
#
# Poissons Ratio (x) = 0.60939 0.44218
# Poissons Ratio (y) = 0.18417 -0.01631
# Poissons Ratio (z) = 0.62059 -0.07574
#
# Static dielectric constant tensor:
#      x y z
#    x 3.504290 -0.014260 0.162530 
#    y -0.014260 4.349480 0.095000 
#    z 0.162530 0.095000 3.363380 
# 
# 
# High freq. dielectric constant tensor:
#      x y z
#    x 1.785820 -0.007510 0.022690 
#    y -0.007510 1.834720 -0.006060 
#    z 0.022690 -0.006060 1.788850 
# 
# From -- ./inp_files/190279.got.cif
#   From: 2010.06.25/outbox.cif.g09.slc.cpg/sg2_96_cif.got.tgz:190279.got - 2010.06.27 13:26:56.
