data_PCOD8043890
_publ_section_title
;
Structure prediction by ZEFSAII (Michael W. Deem and Ramdas Pophale) SiO2 
 PCOD8043890
Probable space group: P -1
;
_chemical_formula_sum "Si O2"
_cell_formula_units_Z 16
_cell_length_a 8.415619
_cell_length_b 9.037756
_cell_length_c 13.200820
_cell_angle_alpha 98.552693
_cell_angle_beta 54.518321
_cell_angle_gamma 116.106655
_cell_volume 726.313204
_symmetry_space_group_name_H-M "P -1"
_symmetry_group_IT_number 2
_symmetry_cell_setting 'triclinic'
loop_
_space_group_symop_operation_xyz
x,y,z
-x,-y,-z
loop_
_atom_site_type_symbol
_atom_site_label
_atom_site_fract_x
_atom_site_fract_y
_atom_site_fract_z
Si Si1 0.997618 0.738897 0.719226
Si Si2 0.499998 0.220504 0.736583
Si Si3 0.892969 0.103301 0.103883
Si Si4 0.445509 0.808507 0.510644
Si Si5 0.097213 0.054210 0.580113
Si Si6 0.650723 0.221384 0.056389
Si Si7 0.257229 0.865724 0.198906
Si Si8 0.481624 0.486236 0.125631
O O1 0.949384 0.784667 0.854887
O O2 0.209961 0.700501 0.640133
O O3 0.772011 0.588019 0.753887
O O4 0.062752 0.886474 0.630881
O O5 0.570160 0.278645 0.601855
O O6 0.697842 0.221399 0.729016
O O7 0.405134 0.335579 0.841133
O O8 0.322453 0.029858 0.775720
O O9 0.837942 0.220966 0.060565
O O10 0.000000 0.000000 0.000000
O O11 0.647284 0.811439 0.502897
O O12 0.500000 0.000000 0.500000
O O13 0.977443 0.141503 0.698100
O O14 0.000000 0.000000 0.500000
O O15 0.597651 0.376402 0.113822
O O16 0.430407 0.055708 0.137518
O O17 0.741075 0.238782 0.910731
O O18 0.500000 0.500000 0.000000
#
# Coordination Sequence:
#
# PCOD8043890 Si02
#       8
#     2   2   2   2   2   2   2   2
#     4  11  23  41  65  94 138 168 216 277 329 394
#     4  11  22  39  68  92 135 169 219 272 329 395
#     4  11  22  39  66  97 126 177 224 279 322 384
#     4  10  21  40  62  98 122 172 220 273 325 383
#     4  11  21  36  69  98 125 160 226 279 325 377
#     4  10  22  36  63  92 132 171 221 265 328 393
#     4  10  19  37  60  96 122 167 223 268 312 389
#     4  12  24  44  63 100 140 179 212 270 344 399
#
# _framework density 22.029066
#
# number of rings (size 3 to 8) (size 9 to 14) (size 15 to 20)
#    0.000    1.250    5.000    3.000    3.500    0.500 
#    0.000    3.750    0.000    2.250    0.000    0.000 
#    0.000    0.000    0.000    0.000    0.000    0.000 
#
# Total GULP energy -198366.037768 kJ/mol
# GULP energy per Si atom -12397.877360 kJ/mol
# Density = 2.197893 g / cm^3
# Si number density = 22.029066 Si / 1000 Ang^3
#
#
#
# Elastic Constant Matrix: (Units=GPa)
#
#
# Indices 1 2 3 4 5 6 
#
# 1 129.5233 21.8496 45.0071 -1.5568 -2.1632 -6.5993
# 2 21.8496 56.0249 7.3024 15.9821 4.2135 -11.0442
# 3 45.0071 7.3024 99.6800 21.3994 1.3578 1.8034
# 4 -1.5568 15.9821 21.3994 29.8355 4.1914 -0.5237
# 5 -2.1632 4.2135 1.3578 4.1914 46.6356 7.4787
# 6 -6.5993 -11.0442 1.8034 -0.5237 7.4787 24.4447
#
#
#
# Elastic Compliance Matrix: (Units=1/GPa)
#
#
# Indices 1 2 3 4 5 6 
#
# 1 0.011016 -0.005609 -0.006321 0.008086 0.000318 0.000982
# 2 -0.005609 0.026677 0.004046 -0.016874 -0.003003 0.010797
# 3 -0.006321 0.004046 0.015558 -0.013731 0.000351 -0.001428
# 4 0.008086 -0.016874 -0.013731 0.053066 -0.002043 -0.002666
# 5 0.000318 -0.003003 0.000351 -0.002043 0.023258 -0.008457
# 6 0.000982 0.010797 -0.001428 -0.002666 -0.008457 0.048688
#
#
# Mechanical properties :
#
#
# Convention : Reuss Voigt Hill
#
# Bulk Modulus (GPa) = 26.67790 48.17183 37.42487
# Shear Modulus (GPa) = 24.21005 34.25442 29.23224
#
# Velocity S-wave (km/s) = 3.31872 3.94758 3.64673
# Velocity P-wave (km/s) = 5.17898 6.53397 5.89553
#
# Compressibility (1/GPa) = 0.03748421
#
# Stress axis : x y z
#
# Youngs Moduli (GPa) = 90.77944 37.48509 64.27393
#
# Poissons Ratio (x) = 0.21026 0.40626
# Poissons Ratio (y) = 0.50919 -0.26007
# Poissons Ratio (z) = 0.57380 -0.15168
#
# Static dielectric constant tensor:
#      x y z
#    x 4.506510 0.124590 -0.267620 
#    y 0.124590 3.753120 0.028490 
#    z -0.267620 0.028490 4.091860 
# 
# 
# High freq. dielectric constant tensor:
#      x y z
#    x 1.875670 0.001730 -0.007350 
#    y 0.001730 1.829100 0.014300 
#    z -0.007350 0.014300 1.872480 
# 
# From -- ./inp_files/382539.got.cif
#   From: 2010.06.25/outbox.cif.g09.slc.cpg/sg2_192_cif.got.tgz:382539.got - 2010.06.27 13:26:56.
