data_PCOD8043835
_publ_section_title
;
Structure prediction by ZEFSAII (Michael W. Deem and Ramdas Pophale) SiO2 
 PCOD8043835
Probable space group: P -1
;
_chemical_formula_sum "Si O2"
_cell_formula_units_Z 16
_cell_length_a 9.025796
_cell_length_b 30.155165
_cell_length_c 30.523157
_cell_angle_alpha 9.617319
_cell_angle_beta 142.390663
_cell_angle_gamma 141.698354
_cell_volume 846.457855
_symmetry_space_group_name_H-M "P -1"
_symmetry_group_IT_number 2
_symmetry_cell_setting 'triclinic'
loop_
_space_group_symop_operation_xyz
x,y,z
-x,-y,-z
loop_
_atom_site_type_symbol
_atom_site_label
_atom_site_fract_x
_atom_site_fract_y
_atom_site_fract_z
Si Si1 0.781292 0.168350 0.661374
Si Si2 0.337948 0.096636 0.569274
Si Si3 0.563619 0.682660 0.775021
Si Si4 0.974227 0.641868 0.185224
Si Si5 0.499210 0.723230 0.245486
Si Si6 0.793827 0.222981 0.322839
Si Si7 0.021240 0.228094 0.746521
Si Si8 0.468034 0.437918 0.898691
O O1 0.501581 0.114504 0.634046
O O2 0.903205 0.418639 0.421429
O O3 0.799411 0.200087 0.687048
O O4 0.937427 0.920068 0.928441
O O5 0.406602 0.330720 0.324835
O O6 0.064784 0.140901 0.477378
O O7 0.375596 0.822479 0.819030
O O8 0.338725 0.723059 0.715187
O O9 0.460596 0.534013 0.853060
O O10 0.677071 0.977693 0.505981
O O11 0.772765 0.494998 0.025679
O O12 0.812036 0.612244 0.132317
O O13 0.258299 0.649823 0.231513
O O14 0.500000 0.500000 0.500000
O O15 0.722879 0.746470 0.242623
O O16 0.500000 0.000000 0.000000
O O17 0.000000 0.500000 0.500000
O O18 0.000000 0.000000 0.000000
#
# Coordination Sequence:
#
# PCOD8043835 Si02
#       8
#     2   2   2   2   2   2   2   2
#     4  10  20  38  59  80 117 151 183 235 290 337
#     4  10  21  36  59  84 108 148 188 228 280 336
#     4  10  21  37  56  80 114 148 179 231 274 326
#     4  10  19  37  60  84 108 149 196 233 278 338
#     4  12  21  38  65  84 109 159 199 231 279 354
#     4  10  21  37  57  79 113 152 183 213 282 347
#     4  12  24  38  58  88 122 147 189 247 291 332
#     4  10  21  35  58  85 113 139 186 244 274 313
#
# _framework density 18.9023
#
# number of rings (size 3 to 8) (size 9 to 14) (size 15 to 20)
#    0.000    1.500    2.500    3.000    0.000    3.000 
#    2.250    0.000    5.500    0.000    0.000    0.000 
#    0.000    0.000    0.000    0.000    0.000    0.000 
#
# Total GULP energy -198319.556966 kJ/mol
# GULP energy per Si atom -12394.972310 kJ/mol
# Density = 1.885928 g / cm^3
# Si number density = 18.902300 Si / 1000 Ang^3
#
#
#
# Elastic Constant Matrix: (Units=GPa)
#
#
# Indices 1 2 3 4 5 6 
#
# 1 104.1072 68.0898 52.2944 2.2474 14.0225 1.8425
# 2 68.0898 136.8281 39.7029 0.7944 20.8010 -6.2157
# 3 52.2944 39.7029 150.3622 -8.8145 12.3908 -7.8506
# 4 2.2474 0.7944 -8.8145 35.4660 -2.4088 5.8039
# 5 14.0225 20.8010 12.3908 -2.4088 27.9820 -0.0436
# 6 1.8425 -6.2157 -7.8506 5.8039 -0.0436 36.3110
#
#
#
# Elastic Compliance Matrix: (Units=1/GPa)
#
#
# Indices 1 2 3 4 5 6 
#
# 1 0.016391 -0.006887 -0.003989 -0.001545 -0.001465 -0.002628
# 2 -0.006887 0.011691 -0.000173 -0.000616 -0.005212 0.002406
# 3 -0.003989 -0.000173 0.008404 0.001975 -0.001421 0.001672
# 4 -0.001545 -0.000616 0.001975 0.029707 0.002908 -0.004345
# 5 -0.001465 -0.005212 -0.001421 0.002908 0.041223 -0.001540
# 6 -0.002628 0.002406 0.001672 -0.004345 -0.001540 0.029139
#
#
# Mechanical properties :
#
#
# Convention : Reuss Voigt Hill
#
# Bulk Modulus (GPa) = 69.50206 79.05242 74.27724
# Shear Modulus (GPa) = 30.59075 35.36583 32.97829
#
# Velocity S-wave (km/s) = 4.02725 4.33018 4.18146
# Velocity P-wave (km/s) = 7.64682 8.18003 7.91792
#
# Compressibility (1/GPa) = 0.01438806
#
# Stress axis : x y z
#
# Youngs Moduli (GPa) = 61.01076 85.53733 118.99327
#
# Poissons Ratio (x) = 0.58906 0.47468
# Poissons Ratio (y) = 0.42016 0.02057
# Poissons Ratio (z) = 0.24338 0.01478
#
# Static dielectric constant tensor:
#      x y z
#    x 3.281840 0.100160 0.040740 
#    y 0.100160 3.795260 -0.042830 
#    z 0.040740 -0.042830 3.799560 
# 
# 
# High freq. dielectric constant tensor:
#      x y z
#    x 1.711810 0.006420 0.005500 
#    y 0.006420 1.743350 -0.005980 
#    z 0.005500 -0.005980 1.764260 
# 
# From -- ./inp_files/56182.got.cif
#   From: 2010.06.25/outbox.cif.g09.slc.cpg/sg2_29_cif.got.tgz:56182.got - 2010.06.27 13:26:56.
