data_PCOD8043133
_publ_section_title
;
Structure prediction by ZEFSAII (Michael W. Deem and Ramdas Pophale) SiO2 
 PCOD8043133
Probable space group: P -1
;
_chemical_formula_sum "Si O2"
_cell_formula_units_Z 14
_cell_length_a 10.211374
_cell_length_b 7.803871
_cell_length_c 9.887539
_cell_angle_alpha 95.791001
_cell_angle_beta 77.265590
_cell_angle_gamma 53.842902
_cell_volume 593.237925
_symmetry_space_group_name_H-M "P -1"
_symmetry_group_IT_number 2
_symmetry_cell_setting 'triclinic'
loop_
_space_group_symop_operation_xyz
x,y,z
-x,-y,-z
loop_
_atom_site_type_symbol
_atom_site_label
_atom_site_fract_x
_atom_site_fract_y
_atom_site_fract_z
Si Si1 0.171229 0.884817 0.362085
Si Si2 0.772595 0.043361 0.143697
Si Si3 0.248773 0.316219 0.537640
Si Si4 0.880744 0.701006 0.706832
Si Si5 0.805172 0.661448 0.008981
Si Si6 0.388921 0.830022 0.535258
Si Si7 0.817990 0.276853 0.934772
O O1 0.332792 0.751040 0.418703
O O2 0.205870 0.717204 0.222734
O O3 0.157027 0.073163 0.300530
O O4 0.000000 0.000000 0.500000
O O5 0.676801 0.195500 0.309713
O O6 0.727331 0.197004 0.034676
O O7 0.977592 0.884670 0.101529
O O8 0.708076 0.894992 0.130132
O O9 0.188306 0.369991 0.399817
O O10 0.404147 0.324272 0.524882
O O11 0.085126 0.511200 0.677271
O O12 0.298570 0.086841 0.556244
O O13 0.779631 0.734730 0.865837
O O14 0.730575 0.527100 0.028214
O O15 0.000000 0.500000 0.000000
#
# Coordination Sequence:
#
# PCOD8043133 Si02
#       7
#     2   2   2   2   2   2   2
#     4  11  21  35  61  92 123 162 203 252 307 357
#     4  10  19  36  58  89 119 161 205 246 304 359
#     4   9  20  36  62  89 118 157 208 253 303 363
#     4  10  20  37  61  90 115 157 211 251 297 369
#     4  10  20  33  60  90 116 159 209 248 297 362
#     4  10  20  38  61  90 126 157 201 255 310 361
#     4  10  20  34  58  89 123 159 207 250 292 370
#
# _framework density 23.599301000000001
#
# number of rings (size 3 to 8) (size 9 to 14) (size 15 to 20)
#    0.000    2.000    2.857    1.714    4.000    0.000 
#    0.000    1.429    3.143    2.571    0.000    0.000 
#    0.000    0.000    0.000    0.000    0.000    0.000 
#
# Total GULP energy -173523.889799 kJ/mol
# GULP energy per Si atom -12394.563557 kJ/mol
# Density = 2.354559 g / cm^3
# Si number density = 23.599301 Si / 1000 Ang^3
#
#
#
# Elastic Constant Matrix: (Units=GPa)
#
#
# Indices 1 2 3 4 5 6 
#
# 1 102.8896 35.2202 36.1582 -2.9515 18.5214 2.0035
# 2 35.2202 58.8149 27.2452 -1.8521 7.6289 14.3162
# 3 36.1582 27.2452 120.1712 -22.3637 18.3953 7.5513
# 4 -2.9515 -1.8521 -22.3637 22.1032 7.2740 2.0755
# 5 18.5214 7.6289 18.3953 7.2740 29.6036 4.6941
# 6 2.0035 14.3162 7.5513 2.0755 4.6941 39.1157
#
#
#
# Elastic Compliance Matrix: (Units=1/GPa)
#
#
# Indices 1 2 3 4 5 6 
#
# 1 0.014011 -0.007581 -0.001241 0.002004 -0.007015 0.003032
# 2 -0.007581 0.024838 -0.003789 -0.002888 0.002697 -0.008141
# 3 -0.001241 -0.003789 0.014906 0.018616 -0.011928 -0.000984
# 4 0.002004 -0.002888 0.018616 0.074204 -0.029835 -0.002997
# 5 -0.007015 0.002697 -0.011928 -0.029835 0.052702 -0.003067
# 6 0.003032 -0.008141 -0.000984 -0.002997 -0.003067 0.029106
#
#
# Mechanical properties :
#
#
# Convention : Reuss Voigt Hill
#
# Bulk Modulus (GPa) = 35.04546 53.23588 44.14067
# Shear Modulus (GPa) = 20.44982 30.38131 25.41557
#
# Velocity S-wave (km/s) = 2.94690 3.59190 3.28527
# Velocity P-wave (km/s) = 5.14407 6.30948 5.75635
#
# Compressibility (1/GPa) = 0.02853437
#
# Stress axis : x y z
#
# Youngs Moduli (GPa) = 71.37075 40.26071 67.08658
#
# Poissons Ratio (x) = 0.30520 0.08326
# Poissons Ratio (y) = 0.54103 0.25419
# Poissons Ratio (z) = 0.08857 0.15255
#
# Static dielectric constant tensor:
#      x y z
#    x 4.338030 0.288540 0.347810 
#    y 0.288540 4.005380 -0.288380 
#    z 0.347810 -0.288380 4.342530 
# 
# 
# High freq. dielectric constant tensor:
#      x y z
#    x 1.914890 0.018880 0.018560 
#    y 0.018880 1.918330 -0.019610 
#    z 0.018560 -0.019610 1.940870 
# 
# From -- ./inp_files/243951.got.cif
#   From: 2010.06.25/outbox.cif.g09.slc.cpg/sg2_122_cif.got.tgz:243951.got - 2010.06.27 13:26:56.
