data_PCOD8043760
_publ_section_title
;
Structure prediction by ZEFSAII (Michael W. Deem and Ramdas Pophale) SiO2 
 PCOD8043760
Probable space group: P -1
;
_chemical_formula_sum "Si O2"
_cell_formula_units_Z 16
_cell_length_a 8.701979
_cell_length_b 12.131484
_cell_length_c 11.839748
_cell_angle_alpha 76.174407
_cell_angle_beta 50.477713
_cell_angle_gamma 62.191924
_cell_volume 849.721289
_symmetry_space_group_name_H-M "P -1"
_symmetry_group_IT_number 2
_symmetry_cell_setting 'triclinic'
loop_
_space_group_symop_operation_xyz
x,y,z
-x,-y,-z
loop_
_atom_site_type_symbol
_atom_site_label
_atom_site_fract_x
_atom_site_fract_y
_atom_site_fract_z
Si Si1 0.142841 0.858117 0.491138
Si Si2 0.109255 0.295463 0.310509
Si Si3 0.715173 0.869492 0.946554
Si Si4 0.303470 0.459422 0.588336
Si Si5 0.288919 0.103728 0.629236
Si Si6 0.386774 0.228837 0.760097
Si Si7 0.627991 0.715477 0.601512
Si Si8 0.845617 0.102484 0.269715
O O1 0.356130 0.814946 0.324841
O O2 0.223719 0.841294 0.586577
O O3 0.008830 0.776786 0.546672
O O4 0.000000 0.000000 0.500000
O O5 0.251996 0.206914 0.165463
O O6 0.269190 0.324966 0.312854
O O7 0.929038 0.424119 0.315169
O O8 0.926987 0.894690 0.873012
O O9 0.706714 0.777752 0.071682
O O10 0.500000 0.000000 0.000000
O O11 0.500000 0.500000 0.500000
O O12 0.297028 0.365276 0.711941
O O13 0.337400 0.405728 0.458387
O O14 0.336859 0.133103 0.726786
O O15 0.230009 0.223033 0.547161
O O16 0.500000 0.000000 0.500000
O O17 0.110977 0.044030 0.727397
O O18 0.369997 0.806753 0.721611
#
# Coordination Sequence:
#
# PCOD8043760 Si02
#       8
#     2   2   2   2   2   2   2   2
#     4  11  19  33  61  89 115 155 205 252 296 350
#     4  11  23  38  61  89 123 162 196 256 300 354
#     4  11  26  40  57  90 129 163 200 239 309 374
#     4  11  20  41  67  91 115 154 214 254 300 355
#     4   9  17  31  60  88 115 150 202 250 298 348
#     4  11  21  38  59  90 119 161 203 249 299 367
#     4  10  20  36  63  94 117 152 208 257 301 347
#     4  10  19  37  58  86 121 161 194 243 311 361
#
# _framework density 18.829702999999999
#
# number of rings (size 3 to 8) (size 9 to 14) (size 15 to 20)
#    0.000    1.500    5.000    3.375    5.250    1.000 
#    0.000    0.000    0.000    1.500    0.000    0.000 
#    0.000    0.000    0.000    0.000    0.000    0.000 
#
# Total GULP energy -198319.253445 kJ/mol
# GULP energy per Si atom -12394.953340 kJ/mol
# Density = 1.878685 g / cm^3
# Si number density = 18.829703 Si / 1000 Ang^3
#
#
#
# Elastic Constant Matrix: (Units=GPa)
#
#
# Indices 1 2 3 4 5 6 
#
# 1 119.5267 49.9368 54.4232 0.5845 -1.3894 1.1757
# 2 49.9368 113.9438 41.9514 6.0759 -6.7549 -2.0442
# 3 54.4232 41.9514 105.9592 -5.9042 -8.5012 3.7354
# 4 0.5845 6.0759 -5.9042 31.6063 0.9566 -3.5839
# 5 -1.3894 -6.7549 -8.5012 0.9566 28.3535 5.9915
# 6 1.1757 -2.0442 3.7354 -3.5839 5.9915 38.6360
#
#
#
# Elastic Compliance Matrix: (Units=1/GPa)
#
#
# Indices 1 2 3 4 5 6 
#
# 1 0.012095 -0.003549 -0.004977 -0.000399 -0.001766 0.000162
# 2 -0.003549 0.011619 -0.002804 -0.002691 0.001744 0.000474
# 3 -0.004977 -0.002804 0.013593 0.002889 0.003398 -0.001570
# 4 -0.000399 -0.002691 0.002889 0.033078 -0.001522 0.002895
# 5 -0.001766 0.001744 0.003398 -0.001522 0.037981 -0.006214
# 6 0.000162 0.000474 -0.001570 0.002895 -0.006214 0.027287
#
#
# Mechanical properties :
#
#
# Convention : Reuss Voigt Hill
#
# Bulk Modulus (GPa) = 68.27116 70.22806 69.24961
# Shear Modulus (GPa) = 30.63810 32.59372 31.61591
#
# Velocity S-wave (km/s) = 4.03813 4.16501 4.10206
# Velocity P-wave (km/s) = 7.62088 7.77863 7.70016
#
# Compressibility (1/GPa) = 0.01464747
#
# Stress axis : x y z
#
# Youngs Moduli (GPa) = 82.67973 86.06278 73.56688
#
# Poissons Ratio (x) = 0.30542 0.36613
# Poissons Ratio (y) = 0.29341 0.20631
# Poissons Ratio (z) = 0.41148 0.24135
#
# Static dielectric constant tensor:
#      x y z
#    x 3.769810 0.446450 -0.183970 
#    y 0.446450 3.780760 -0.114100 
#    z -0.183970 -0.114100 3.271320 
# 
# 
# High freq. dielectric constant tensor:
#      x y z
#    x 1.741930 0.005870 -0.003320 
#    y 0.005870 1.731940 0.000130 
#    z -0.003320 0.000130 1.704480 
# 
# From -- ./inp_files/189370.got.cif
#   From: 2010.06.25/outbox.cif.g09.slc.cpg/sg2_95_cif.got.tgz:189370.got - 2010.06.27 13:26:56.
