data_PCOD8043327
_publ_section_title
;
Structure prediction by ZEFSAII (Michael W. Deem and Ramdas Pophale) SiO2 
 PCOD8043327
Probable space group: P -1
;
_chemical_formula_sum "Si O2"
_cell_formula_units_Z 14
_cell_length_a 13.400542
_cell_length_b 6.859439
_cell_length_c 22.300366
_cell_angle_alpha 136.957183
_cell_angle_beta 152.516548
_cell_angle_gamma 45.380834
_cell_volume 636.113175
_symmetry_space_group_name_H-M "P -1"
_symmetry_group_IT_number 2
_symmetry_cell_setting 'triclinic'
loop_
_space_group_symop_operation_xyz
x,y,z
-x,-y,-z
loop_
_atom_site_type_symbol
_atom_site_label
_atom_site_fract_x
_atom_site_fract_y
_atom_site_fract_z
Si Si1 0.220097 0.865166 0.778450
Si Si2 0.725150 0.688163 0.600678
Si Si3 0.974557 0.890572 0.158143
Si Si4 0.444908 0.698423 0.338477
Si Si5 0.437446 0.158686 0.140748
Si Si6 0.272407 0.228590 0.705832
Si Si7 0.895234 0.079397 0.556872
O O1 0.151855 0.118770 0.848223
O O2 0.424952 0.945826 0.869110
O O3 0.287511 0.562026 0.779891
O O4 0.012831 0.868198 0.623710
O O5 0.632782 0.627455 0.472021
O O6 0.757629 0.375778 0.580615
O O7 0.963078 0.786640 0.742365
O O8 0.565897 0.959166 0.609989
O O9 0.203984 0.661680 0.228038
O O10 0.819535 0.824811 0.006148
O O11 0.495341 0.474986 0.260247
O O12 0.504549 0.932328 0.179657
O O13 0.066983 0.187827 0.627686
O O14 0.260610 0.092972 0.602715
#
# Coordination Sequence:
#
# PCOD8043327 Si02
#       7
#     2   2   2   2   2   2   2
#     4  11  23  37  58  92 120 153 199 245 290 351
#     4   9  18  37  64  84 113 154 201 237 289 348
#     4  10  21  39  60  87 123 157 193 242 296 348
#     4   9  19  38  65  84 115 160 200 238 292 351
#     4  11  22  38  63  88 122 157 194 240 296 354
#     4  10  20  36  58  89 121 154 196 242 298 347
#     4  10  19  36  61  87 118 156 195 248 294 341
#
# _framework density 22.008661
#
# number of rings (size 3 to 8) (size 9 to 14) (size 15 to 20)
#    0.857    1.143    2.857    1.286    0.000    1.714 
#    2.571    2.143    0.000    2.571    0.000    0.000 
#    0.000    0.000    0.000    0.000    0.000    0.000 
#
# Total GULP energy -173463.850541 kJ/mol
# GULP energy per Si atom -12390.275039 kJ/mol
# Density = 2.195857 g / cm^3
# Si number density = 22.008661 Si / 1000 Ang^3
#
#
#
# Elastic Constant Matrix: (Units=GPa)
#
#
# Indices 1 2 3 4 5 6 
#
# 1 25.5720 18.0161 1.3817 -1.9005 -10.7141 -2.0948
# 2 18.0161 89.1427 17.4290 -7.3348 -4.3297 -3.5701
# 3 1.3817 17.4290 117.2145 -9.8342 -3.9077 8.3519
# 4 -1.9005 -7.3348 -9.8342 19.5601 -2.1705 -4.5973
# 5 -10.7141 -4.3297 -3.9077 -2.1705 21.0688 0.7346
# 6 -2.0948 -3.5701 8.3519 -4.5973 0.7346 22.5804
#
#
#
# Elastic Compliance Matrix: (Units=1/GPa)
#
#
# Indices 1 2 3 4 5 6 
#
# 1 0.059162 -0.010244 0.002127 0.007031 0.028975 0.003571
# 2 -0.010244 0.013961 -0.001928 0.003659 -0.002418 0.002794
# 3 0.002127 -0.001928 0.009422 0.003864 0.002932 -0.002901
# 4 0.007031 0.003659 0.003864 0.059007 0.010723 0.011466
# 5 0.028975 -0.002418 0.002932 0.010723 0.063303 0.001345
# 6 0.003571 0.002794 -0.002901 0.011466 0.001345 0.048423
#
#
# Mechanical properties :
#
#
# Convention : Reuss Voigt Hill
#
# Bulk Modulus (GPa) = 16.01135 33.95364 24.98249
# Shear Modulus (GPa) = 16.99607 25.64869 21.32238
#
# Velocity S-wave (km/s) = 2.78194 3.41749 3.11596
# Velocity P-wave (km/s) = 4.19640 5.57074 4.93168
#
# Compressibility (1/GPa) = 0.06245570
#
# Stress axis : x y z
#
# Youngs Moduli (GPa) = 16.90261 71.62957 106.13899
#
# Poissons Ratio (x) = 0.73377 -0.22579
# Poissons Ratio (y) = 0.17315 0.20462
# Poissons Ratio (z) = -0.03596 0.13809
#
# Static dielectric constant tensor:
#      x y z
#    x 3.628880 -0.293630 -0.089100 
#    y -0.293630 3.891620 -0.142530 
#    z -0.089100 -0.142530 3.845360 
# 
# 
# High freq. dielectric constant tensor:
#      x y z
#    x 1.835720 -0.025730 -0.005330 
#    y -0.025730 1.857020 -0.007600 
#    z -0.005330 -0.007600 1.864080 
# 
# From -- ./inp_files/596694.got.cif
#   From: 2010.06.25/outbox.cif.g09.slc.cpg/sg2_299_cif.got.tgz:596694.got - 2010.06.27 13:26:56.
