data_PCOD8043548
_publ_section_title
;
Structure prediction by ZEFSAII (Michael W. Deem and Ramdas Pophale) SiO2 
 PCOD8043548
Probable space group: P -1
;
_chemical_formula_sum "Si O2"
_cell_formula_units_Z 14
_cell_length_a 8.178676
_cell_length_b 18.433253
_cell_length_c 18.280525
_cell_angle_alpha 26.032207
_cell_angle_beta 33.954688
_cell_angle_gamma 35.670757
_cell_volume 649.798811
_symmetry_space_group_name_H-M "P -1"
_symmetry_group_IT_number 2
_symmetry_cell_setting 'triclinic'
loop_
_space_group_symop_operation_xyz
x,y,z
-x,-y,-z
loop_
_atom_site_type_symbol
_atom_site_label
_atom_site_fract_x
_atom_site_fract_y
_atom_site_fract_z
Si Si1 0.246366 0.445068 0.188538
Si Si2 0.312206 0.241009 0.896896
Si Si3 0.709197 0.738411 0.944715
Si Si4 0.451156 0.944937 0.390011
Si Si5 0.386402 0.606248 0.759608
Si Si6 0.191302 0.098478 0.487277
Si Si7 0.907079 0.075229 0.756893
O O1 0.359428 0.388352 0.279352
O O2 0.188491 0.293662 0.298162
O O3 0.920738 0.578025 0.196176
O O4 0.500000 0.500000 0.000000
O O5 0.636901 0.231556 0.747542
O O6 0.363235 0.208813 0.993051
O O7 0.168512 0.102748 0.036556
O O8 0.065591 0.659186 0.872039
O O9 0.578660 0.917432 0.787937
O O10 0.549235 0.586274 0.122397
O O11 0.415010 0.753912 0.555559
O O12 0.778734 0.923706 0.323415
O O13 0.177653 0.015768 0.487324
O O14 0.917924 0.090662 0.650166
O O15 0.500000 0.000000 0.500000
#
# Coordination Sequence:
#
# PCOD8043548 Si02
#       7
#     2   2   2   2   2   2   2
#     4  12  20  37  66  89 123 161 211 265 308 361
#     4  11  24  40  63  94 125 166 208 262 316 375
#     4  11  24  39  61  95 134 160 207 260 322 379
#     4  11  22  42  66  94 125 167 210 262 317 378
#     4  11  22  39  61  95 125 165 208 263 316 372
#     4  10  19  36  64  91 117 154 212 262 301 359
#     4  10  22  43  64  89 123 165 218 256 313 372
#
# _framework density 21.545131000000001
#
# number of rings (size 3 to 8) (size 9 to 14) (size 15 to 20)
#    0.000    1.143    4.286    4.714    2.000    1.143 
#    0.000    0.714    0.000    0.000    0.000    0.000 
#    0.000    0.000    0.000    0.000    0.000    0.000 
#
# Total GULP energy -173528.558589 kJ/mol
# GULP energy per Si atom -12394.897042 kJ/mol
# Density = 2.149609 g / cm^3
# Si number density = 21.545131 Si / 1000 Ang^3
#
#
#
# Elastic Constant Matrix: (Units=GPa)
#
#
# Indices 1 2 3 4 5 6 
#
# 1 64.0282 25.7049 29.8101 -4.7621 4.0041 1.2152
# 2 25.7049 127.2936 46.7149 1.5394 10.3120 -1.4512
# 3 29.8101 46.7149 129.4088 -23.9556 1.7462 -0.2924
# 4 -4.7621 1.5394 -23.9556 41.7818 2.7975 2.7143
# 5 4.0041 10.3120 1.7462 2.7975 26.8062 -6.1630
# 6 1.2152 -1.4512 -0.2924 2.7143 -6.1630 21.4017
#
#
#
# Elastic Compliance Matrix: (Units=1/GPa)
#
#
# Indices 1 2 3 4 5 6 
#
# 1 0.018282 -0.002366 -0.003224 0.000589 -0.002115 -0.001926
# 2 -0.002366 0.009856 -0.003420 -0.002413 -0.002912 0.000223
# 3 -0.003224 -0.003420 0.010803 0.005966 0.000342 -0.000559
# 4 0.000589 -0.002413 0.005966 0.028054 -0.003556 -0.004698
# 5 -0.002115 -0.002912 0.000342 -0.003556 0.041954 0.012460
# 6 -0.001926 0.000223 -0.000559 -0.004698 0.012460 0.051026
#
#
# Mechanical properties :
#
#
# Convention : Reuss Voigt Hill
#
# Bulk Modulus (GPa) = 47.79851 58.35448 53.07650
# Shear Modulus (GPa) = 27.03155 32.56465 29.79810
#
# Velocity S-wave (km/s) = 3.54594 3.89197 3.72298
# Velocity P-wave (km/s) = 6.24487 6.88042 6.57033
#
# Compressibility (1/GPa) = 0.02092116
#
# Stress axis : x y z
#
# Youngs Moduli (GPa) = 54.69956 101.45715 92.56602
#
# Poissons Ratio (x) = 0.24009 0.29841
# Poissons Ratio (y) = 0.12944 0.31656
# Poissons Ratio (z) = 0.17634 0.34697
#
# Static dielectric constant tensor:
#      x y z
#    x 4.053070 0.154050 0.001770 
#    y 0.154050 3.941110 -0.086960 
#    z 0.001770 -0.086960 4.154520 
# 
# 
# High freq. dielectric constant tensor:
#      x y z
#    x 1.838810 -0.004160 -0.006640 
#    y -0.004160 1.830900 -0.015250 
#    z -0.006640 -0.015250 1.858000 
# 
# From -- ./inp_files/243638.got.cif
#   From: 2010.06.25/outbox.cif.g09.slc.cpg/sg2_122_cif.got.tgz:243638.got - 2010.06.27 13:26:56.
