data_PCOD8043130
_publ_section_title
;
Structure prediction by ZEFSAII (Michael W. Deem and Ramdas Pophale) SiO2 
 PCOD8043130
Probable space group: P -1
;
_chemical_formula_sum "Si O2"
_cell_formula_units_Z 12
_cell_length_a 23.042107
_cell_length_b 5.177462
_cell_length_c 7.420279
_cell_angle_alpha 107.719900
_cell_angle_beta 140.522288
_cell_angle_gamma 89.661023
_cell_volume 496.302083
_symmetry_space_group_name_H-M "P -1"
_symmetry_group_IT_number 2
_symmetry_cell_setting 'triclinic'
loop_
_space_group_symop_operation_xyz
x,y,z
-x,-y,-z
loop_
_atom_site_type_symbol
_atom_site_label
_atom_site_fract_x
_atom_site_fract_y
_atom_site_fract_z
Si Si1 0.929257 0.550959 0.605446
Si Si2 0.144281 0.124917 0.792721
Si Si3 0.338562 0.884007 0.784533
Si Si4 0.874637 0.506770 0.863824
Si Si5 0.440612 0.514836 0.107070
Si Si6 0.644042 0.709682 0.783842
O O1 0.914130 0.784002 0.484942
O O2 0.882638 0.594536 0.691986
O O3 0.879460 0.220047 0.341588
O O4 0.045999 0.634026 0.925418
O O5 0.108895 0.205712 0.915914
O O6 0.260895 0.311876 0.088330
O O7 0.233084 0.735447 0.404418
O O8 0.397391 0.668680 0.887657
O O9 0.403284 0.172596 0.887496
O O10 0.323697 0.974072 0.973792
O O11 0.559366 0.664482 0.421898
O O12 0.400521 0.539557 0.219427
#
# Coordination Sequence:
#
# PCOD8043130 Si02
#       6
#     2   2   2   2   2   2
#     4  11  26  45  65  94 134 169 211 267 321 378
#     4  12  25  43  67  97 129 170 216 262 321 382
#     4  10  19  36  58  88 122 160 209 254 307 374
#     4  11  25  43  69  96 128 172 215 264 320 381
#     4   9  19  33  63  84 122 170 199 251 326 364
#     4   9  20  35  61  87 125 163 206 255 318 368
#
# _framework density 24.178820000000002
#
# number of rings (size 3 to 8) (size 9 to 14) (size 15 to 20)
#    1.000    0.667    1.667    2.500    0.000    6.667 
#    0.000    1.667    0.000    0.000    0.000    0.000 
#    0.000    0.000    0.000    0.000    0.000    0.000 
#
# Total GULP energy -148778.866247 kJ/mol
# GULP energy per Si atom -12398.238854 kJ/mol
# Density = 2.412379 g / cm^3
# Si number density = 24.178820 Si / 1000 Ang^3
#
#
#
# Elastic Constant Matrix: (Units=GPa)
#
#
# Indices 1 2 3 4 5 6 
#
# 1 64.3991 7.7336 17.3736 -1.9285 -15.1802 -16.8696
# 2 7.7336 98.7434 21.8784 -11.3150 -5.1505 4.0363
# 3 17.3736 21.8784 128.3820 -7.0528 17.9749 -2.3170
# 4 -1.9285 -11.3150 -7.0528 26.0649 -16.7910 3.7277
# 5 -15.1802 -5.1505 17.9749 -16.7910 28.9091 6.8767
# 6 -16.8696 4.0363 -2.3170 3.7277 6.8767 10.7835
#
#
#
# Elastic Compliance Matrix: (Units=1/GPa)
#
#
# Indices 1 2 3 4 5 6 
#
# 1 0.029840 -0.004695 -0.002750 -0.007833 -0.000039 0.050580
# 2 -0.004695 0.026638 -0.010995 0.061253 0.064141 -0.081755
# 3 -0.002750 -0.010995 0.014886 -0.034528 -0.042755 0.042212
# 4 -0.007833 0.061253 -0.034528 0.251268 0.241663 -0.283568
# 5 -0.000039 0.064141 -0.042755 0.241663 0.283773 -0.297757
# 6 0.050580 -0.081755 0.042212 -0.283568 -0.297757 0.499437
#
#
# Mechanical properties :
#
#
# Convention : Reuss Voigt Hill
#
# Bulk Modulus (GPa) = 28.99938 42.83286 35.91612
# Shear Modulus (GPa) = 4.33195 29.45412 16.89303
#
# Velocity S-wave (km/s) = 1.33997 3.49403 2.64611
# Velocity P-wave (km/s) = 3.79655 5.83362 4.92163
#
# Compressibility (1/GPa) = 0.03448350
#
# Stress axis : x y z
#
# Youngs Moduli (GPa) = 33.51226 37.54103 67.17602
#
# Poissons Ratio (x) = 0.17625 0.18474
# Poissons Ratio (y) = 0.15734 0.73860
# Poissons Ratio (z) = 0.09216 0.41277
#
# Static dielectric constant tensor:
#      x y z
#    x 4.076580 -0.166910 0.135110 
#    y -0.166910 3.911650 0.038700 
#    z 0.135110 0.038700 4.335810 
# 
# 
# High freq. dielectric constant tensor:
#      x y z
#    x 1.940440 -0.008360 0.014490 
#    y -0.008360 1.940390 0.001390 
#    z 0.014490 0.001390 1.972000 
# 
# From -- ./inp_files/56650.got.cif
#   From: 2010.06.25/outbox.cif.g09.slc.cpg/sg2_29_cif.got.tgz:56650.got - 2010.06.27 13:26:56.
