data_PCOD8043127
_publ_section_title
;
Structure prediction by ZEFSAII (Michael W. Deem and Ramdas Pophale) SiO2 
 PCOD8043127
Probable space group: P -1
;
_chemical_formula_sum "Si O2"
_cell_formula_units_Z 14
_cell_length_a 13.102163
_cell_length_b 15.429738
_cell_length_c 10.014879
_cell_angle_alpha 52.057017
_cell_angle_beta 117.019916
_cell_angle_gamma 152.587744
_cell_volume 711.347432
_symmetry_space_group_name_H-M "P -1"
_symmetry_group_IT_number 2
_symmetry_cell_setting 'triclinic'
loop_
_space_group_symop_operation_xyz
x,y,z
-x,-y,-z
loop_
_atom_site_type_symbol
_atom_site_label
_atom_site_fract_x
_atom_site_fract_y
_atom_site_fract_z
Si Si1 0.040113 0.411872 0.953482
Si Si2 0.916069 0.936101 0.235760
Si Si3 0.846979 0.487245 0.771653
Si Si4 0.330699 0.072588 0.762188
Si Si5 0.696654 0.672872 0.102374
Si Si6 0.450487 0.647553 0.831854
Si Si7 0.832411 0.049241 0.515849
O O1 0.222298 0.524208 0.845813
O O2 0.972635 0.479417 0.813953
O O3 0.161333 0.504803 0.081406
O O4 0.815074 0.149907 0.056120
O O5 0.753899 0.884459 0.265428
O O6 0.771639 0.738332 0.238054
O O7 0.033190 0.955147 0.396942
O O8 0.097688 0.152598 0.048368
O O9 0.593524 0.273752 0.764448
O O10 0.991245 0.705591 0.585482
O O11 0.301990 0.050468 0.607566
O O12 0.577006 0.456216 0.214099
O O13 0.525600 0.633848 0.014653
O O14 0.648972 0.898522 0.671231
#
# Coordination Sequence:
#
# PCOD8043127 Si02
#       7
#     2   2   2   2   2   2   2
#     4  10  21  41  64  82 110 153 200 237 276 332
#     4  10  19  36  58  88 116 150 188 234 286 342
#     4  10  23  40  59  86 115 150 196 237 278 342
#     4  11  21  39  60  86 116 154 188 234 288 339
#     4   9  19  33  60  88 115 147 193 232 282 342
#     4  10  19  38  59  86 117 150 188 240 282 338
#     4  10  24  37  56  88 124 147 184 237 292 340
#
# _framework density 19.680959000000001
#
# number of rings (size 3 to 8) (size 9 to 14) (size 15 to 20)
#    0.000    2.000    1.429    1.714    2.000    1.143 
#    0.000    0.714    0.000    0.000    0.000    0.000 
#    0.000    0.000    0.000    0.000    0.000    0.000 
#
# Total GULP energy -173624.560445 kJ/mol
# GULP energy per Si atom -12401.754318 kJ/mol
# Density = 1.963616 g / cm^3
# Si number density = 19.680959 Si / 1000 Ang^3
#
#
#
# Elastic Constant Matrix: (Units=GPa)
#
#
# Indices 1 2 3 4 5 6 
#
# 1 104.1466 40.6857 42.9622 -10.8846 6.0458 16.5117
# 2 40.6857 123.1490 31.1187 4.2553 -1.8715 6.6273
# 3 42.9622 31.1187 65.6078 -11.1349 8.2286 2.3089
# 4 -10.8846 4.2553 -11.1349 25.7554 1.2987 0.9262
# 5 6.0458 -1.8715 8.2286 1.2987 14.6879 0.5757
# 6 16.5117 6.6273 2.3089 0.9262 0.5757 23.2306
#
#
#
# Elastic Compliance Matrix: (Units=1/GPa)
#
#
# Indices 1 2 3 4 5 6 
#
# 1 0.016181 -0.003068 -0.007676 0.004525 -0.002760 -0.009975
# 2 -0.003068 0.010587 -0.004617 -0.005317 0.005680 -0.000310
# 3 -0.007676 -0.004617 0.025421 0.008995 -0.012630 0.004201
# 4 0.004525 -0.005317 0.008995 0.046236 -0.011505 -0.004152
# 5 -0.002760 0.005680 -0.012630 -0.011505 0.078031 0.000122
# 6 -0.009975 -0.000310 0.004201 -0.004152 0.000122 0.049970
#
#
# Mechanical properties :
#
#
# Convention : Reuss Voigt Hill
#
# Bulk Modulus (GPa) = 46.57858 58.04850 52.31354
# Shear Modulus (GPa) = 18.91763 24.61056 21.76410
#
# Velocity S-wave (km/s) = 3.10371 3.54004 3.32903
# Velocity P-wave (km/s) = 6.04667 6.80206 6.43546
#
# Compressibility (1/GPa) = 0.02146909
#
# Stress axis : x y z
#
# Youngs Moduli (GPa) = 61.79967 94.45487 39.33736
#
# Poissons Ratio (x) = 0.28977 0.30195
# Poissons Ratio (y) = 0.18959 0.18160
# Poissons Ratio (z) = 0.47436 0.43606
#
# Static dielectric constant tensor:
#      x y z
#    x 3.401130 -0.041120 0.129750 
#    y -0.041120 3.779630 -0.052230 
#    z 0.129750 -0.052230 3.420640 
# 
# 
# High freq. dielectric constant tensor:
#      x y z
#    x 1.757310 0.000640 0.008080 
#    y 0.000640 1.781770 -0.004480 
#    z 0.008080 -0.004480 1.755180 
# 
# From -- ./inp_files/187916.got.cif
#   From: 2010.06.25/outbox.cif.g09.slc.cpg/sg2_94_cif.got.tgz:187916.got - 2010.06.27 13:26:56.
