data_PCOD8043485
_publ_section_title
;
Structure prediction by ZEFSAII (Michael W. Deem and Ramdas Pophale) SiO2 
 PCOD8043485
Probable space group: P -1
;
_chemical_formula_sum "Si O2"
_cell_formula_units_Z 14
_cell_length_a 14.707843
_cell_length_b 32.633219
_cell_length_c 15.088723
_cell_angle_alpha 17.512825
_cell_angle_beta 19.418984
_cell_angle_gamma 18.094962
_cell_volume 622.724554
_symmetry_space_group_name_H-M "P -1"
_symmetry_group_IT_number 2
_symmetry_cell_setting 'triclinic'
loop_
_space_group_symop_operation_xyz
x,y,z
-x,-y,-z
loop_
_atom_site_type_symbol
_atom_site_label
_atom_site_fract_x
_atom_site_fract_y
_atom_site_fract_z
Si Si1 0.712063 0.726124 0.415168
Si Si2 0.493072 0.656503 0.215691
Si Si3 0.920503 0.781543 0.591547
Si Si4 0.552281 0.089544 0.384818
Si Si5 0.446107 0.523750 0.105117
Si Si6 0.542507 0.017926 0.732780
Si Si7 0.286569 0.819173 0.440330
O O1 0.502866 0.789531 0.388691
O O2 0.079141 0.628076 0.253095
O O3 0.630964 0.874295 0.245182
O O4 0.625109 0.614939 0.783106
O O5 0.500000 0.500000 0.500000
O O6 0.291507 0.705146 0.391108
O O7 0.824786 0.643733 0.968937
O O8 0.343348 0.789012 0.001105
O O9 0.747652 0.888085 0.442657
O O10 0.823723 0.901490 0.516323
O O11 0.465845 0.124920 0.494522
O O12 0.616109 0.347548 0.353716
O O13 0.500000 0.500000 0.000000
O O14 0.921539 0.911048 0.618133
O O15 0.373186 0.913872 0.094315
#
# Coordination Sequence:
#
# PCOD8043485 Si02
#       7
#     2   2   2   2   2   2   2
#     4  11  21  39  61  86 116 159 197 243 298 339
#     4  10  19  36  63  88 110 145 195 236 284 344
#     4   9  20  38  63  80 114 151 195 223 292 352
#     4   9  23  37  61  83 117 155 192 230 297 339
#     4  10  20  39  63  80 112 157 204 236 290 355
#     4  12  24  36  59  88 125 148 197 252 286 344
#     4  11  22  38  59  86 116 158 200 239 289 350
#
# _framework density 22.481850000000001
#
# number of rings (size 3 to 8) (size 9 to 14) (size 15 to 20)
#    0.857    0.857    0.000    6.857    2.000    0.000 
#    0.000    4.286    0.000    0.000    0.000    0.000 
#    0.000    0.000    0.000    0.000    0.000    0.000 
#
# Total GULP energy -173454.480387 kJ/mol
# GULP energy per Si atom -12389.605742 kJ/mol
# Density = 2.243068 g / cm^3
# Si number density = 22.481850 Si / 1000 Ang^3
#
#
#
# Elastic Constant Matrix: (Units=GPa)
#
#
# Indices 1 2 3 4 5 6 
#
# 1 18.2596 11.3516 3.9075 1.0171 6.2633 7.1481
# 2 11.3516 131.4327 50.8081 17.7302 -1.4087 2.1106
# 3 3.9075 50.8081 166.0413 -4.9382 2.2532 0.5296
# 4 1.0171 17.7302 -4.9382 49.5537 -2.5984 -3.2702
# 5 6.2633 -1.4087 2.2532 -2.5984 12.6723 3.5453
# 6 7.1481 2.1106 0.5296 -3.2702 3.5453 17.3555
#
#
#
# Elastic Compliance Matrix: (Units=1/GPa)
#
#
# Indices 1 2 3 4 5 6 
#
# 1 0.080925 -0.006830 0.000653 -0.002661 -0.034131 -0.026049
# 2 -0.006830 0.009876 -0.003022 -0.003460 0.004250 0.000184
# 3 0.000653 -0.003022 0.007004 0.001713 -0.001709 0.000557
# 4 -0.002661 -0.003460 0.001713 0.022164 0.003810 0.004862
# 5 -0.034131 0.004250 -0.001709 0.003810 0.098992 -0.005911
# 6 -0.026049 0.000184 0.000557 0.004862 -0.005911 0.070432
#
#
# Mechanical properties :
#
#
# Convention : Reuss Voigt Hill
#
# Bulk Modulus (GPa) = 12.59357 49.76309 31.17833
# Shear Modulus (GPa) = 14.95832 32.56073 23.75952
#
# Velocity S-wave (km/s) = 2.58224 3.80980 3.25442
# Velocity P-wave (km/s) = 3.80847 6.44481 5.29339
#
# Compressibility (1/GPa) = 0.07940559
#
# Stress axis : x y z
#
# Youngs Moduli (GPa) = 12.35712 101.25496 142.76617
#
# Poissons Ratio (x) = 0.69159 -0.09319
# Poissons Ratio (y) = 0.08440 0.43150
# Poissons Ratio (z) = -0.00807 0.30604
#
# Static dielectric constant tensor:
#      x y z
#    x 3.515730 0.026480 0.051870 
#    y 0.026480 4.229020 -0.391210 
#    z 0.051870 -0.391210 4.879870 
# 
# 
# High freq. dielectric constant tensor:
#      x y z
#    x 1.841920 0.010410 -0.000840 
#    y 0.010410 1.887100 0.002410 
#    z -0.000840 0.002410 1.906870 
# 
# From -- ./inp_files/535822.got.cif
#   From: 2010.06.25/outbox.cif.g09.slc.cpg/sg2_268_cif.got.tgz:535822.got - 2010.06.27 13:26:56.
