data_PCOD8043187
_publ_section_title
;
Structure prediction by ZEFSAII (Michael W. Deem and Ramdas Pophale) SiO2 
 PCOD8043187
Probable space group: P -1
;
_chemical_formula_sum "Si O2"
_cell_formula_units_Z 16
_cell_length_a 16.992210
_cell_length_b 10.613806
_cell_length_c 8.398171
_cell_angle_alpha 113.369586
_cell_angle_beta 125.423292
_cell_angle_gamma 108.088911
_cell_volume 783.420700
_symmetry_space_group_name_H-M "P -1"
_symmetry_group_IT_number 2
_symmetry_cell_setting 'triclinic'
loop_
_space_group_symop_operation_xyz
x,y,z
-x,-y,-z
loop_
_atom_site_type_symbol
_atom_site_label
_atom_site_fract_x
_atom_site_fract_y
_atom_site_fract_z
Si Si1 0.562509 0.227313 0.985405
Si Si2 0.084761 0.485153 0.795591
Si Si3 0.869431 0.489261 0.505113
Si Si4 0.394647 0.845723 0.435789
Si Si5 0.431963 0.486259 0.754287
Si Si6 0.875527 0.783445 0.809486
Si Si7 0.108988 0.218858 0.804308
Si Si8 0.400191 0.568814 0.197881
O O1 0.591041 0.340740 0.912911
O O2 0.437364 0.986262 0.706747
O O3 0.703674 0.290016 0.227278
O O4 0.526666 0.309073 0.115822
O O5 0.086308 0.445592 0.592788
O O6 0.051778 0.315234 0.772543
O O7 0.958052 0.457554 0.671234
O O8 0.233228 0.706141 0.130240
O O9 0.908293 0.662604 0.737658
O O10 0.419169 0.706840 0.426096
O O11 0.500000 0.000000 0.500000
O O12 0.265540 0.304276 0.479951
O O13 0.489162 0.442925 0.660860
O O14 0.500000 0.500000 0.000000
O O15 0.857688 0.780223 0.974625
O O16 0.000000 0.000000 0.000000
O O17 0.248045 0.345940 0.925035
O O18 0.000000 0.000000 0.500000
#
# Coordination Sequence:
#
# PCOD8043187 Si02
#       8
#     2   2   2   2   2   2   2   2
#     4   9  16  33  58  89 119 152 195 248 299 355
#     4  10  20  36  61  86 117 163 198 251 302 357
#     4  10  19  36  59  87 120 150 208 244 296 366
#     4   9  15  29  53  87 109 151 191 238 292 358
#     4   9  20  36  61  86 122 155 199 257 301 360
#     4  11  25  39  62  91 120 165 211 253 308 370
#     4  11  23  41  61  84 130 164 201 262 310 355
#     4   9  18  35  59  84 119 159 202 243 308 357
#
# _framework density 20.423254
#
# number of rings (size 3 to 8) (size 9 to 14) (size 15 to 20)
#    0.000    2.250    3.750    0.750    3.500    4.000 
#    2.250    0.000    0.000    6.000    0.000    0.000 
#    0.000    0.000    0.000    0.000    0.000    0.000 
#
# Total GULP energy -198265.601181 kJ/mol
# GULP energy per Si atom -12391.600074 kJ/mol
# Density = 2.037677 g / cm^3
# Si number density = 20.423254 Si / 1000 Ang^3
#
#
#
# Elastic Constant Matrix: (Units=GPa)
#
#
# Indices 1 2 3 4 5 6 
#
# 1 126.7480 34.5964 64.2638 5.6816 16.4325 -42.3684
# 2 34.5964 67.5344 52.5218 14.0294 8.7951 -15.4308
# 3 64.2638 52.5218 140.1538 20.3935 3.7485 -29.4328
# 4 5.6816 14.0294 20.3935 36.4238 -8.5336 -4.9044
# 5 16.4325 8.7951 3.7485 -8.5336 34.8071 -9.2098
# 6 -42.3684 -15.4308 -29.4328 -4.9044 -9.2098 30.4514
#
#
#
# Elastic Compliance Matrix: (Units=1/GPa)
#
#
# Indices 1 2 3 4 5 6 
#
# 1 0.016307 -0.001932 -0.003115 0.002114 -0.001434 0.018605
# 2 -0.001932 0.023011 -0.006744 -0.006175 -0.005765 -0.000285
# 3 -0.003115 -0.006744 0.012357 -0.002676 0.002373 0.004479
# 4 0.002114 -0.006175 -0.002676 0.034364 0.010876 0.006050
# 5 -0.001434 -0.005765 0.002373 0.010876 0.035918 0.009993
# 6 0.018605 -0.000285 0.004479 0.006050 0.009993 0.066907
#
#
# Mechanical properties :
#
#
# Convention : Reuss Voigt Hill
#
# Bulk Modulus (GPa) = 35.59827 70.80001 53.19914
# Shear Modulus (GPa) = 22.54170 32.54006 27.54088
#
# Velocity S-wave (km/s) = 3.32584 3.99593 3.67618
# Velocity P-wave (km/s) = 5.67595 7.48542 6.64259
#
# Compressibility (1/GPa) = 0.02809125
#
# Stress axis : x y z
#
# Youngs Moduli (GPa) = 61.32377 43.45836 80.92450
#
# Poissons Ratio (x) = 0.08398 0.25208
# Poissons Ratio (y) = 0.11851 0.54577
# Poissons Ratio (z) = 0.19102 0.29309
#
# Static dielectric constant tensor:
#      x y z
#    x 4.926490 -0.767390 -0.333010 
#    y -0.767390 3.678610 0.232120 
#    z -0.333010 0.232120 3.972960 
# 
# 
# High freq. dielectric constant tensor:
#      x y z
#    x 1.804330 -0.022100 -0.002870 
#    y -0.022100 1.769390 0.007780 
#    z -0.002870 0.007780 1.800600 
# 
# From -- ./inp_files/333553.got.cif
#   From: 2010.06.25/outbox.cif.g09.slc.cpg/sg2_167_cif.got.tgz:333553.got - 2010.06.27 13:26:56.
