data_PCOD8043945
_publ_section_title
;
Structure prediction by ZEFSAII (Michael W. Deem and Ramdas Pophale) SiO2 
 PCOD8043945
Probable space group: P -1
;
_chemical_formula_sum "Si O2"
_cell_formula_units_Z 16
_cell_length_a 13.976511
_cell_length_b 9.622530
_cell_length_c 15.269699
_cell_angle_alpha 37.045471
_cell_angle_beta 115.445629
_cell_angle_gamma 134.240061
_cell_volume 846.993583
_symmetry_space_group_name_H-M "P -1"
_symmetry_group_IT_number 2
_symmetry_cell_setting 'triclinic'
loop_
_space_group_symop_operation_xyz
x,y,z
-x,-y,-z
loop_
_atom_site_type_symbol
_atom_site_label
_atom_site_fract_x
_atom_site_fract_y
_atom_site_fract_z
Si Si1 0.379687 0.861504 0.898254
Si Si2 0.361273 0.347541 0.907387
Si Si3 0.367225 0.168458 0.586883
Si Si4 0.330774 0.289285 0.118181
Si Si5 0.682926 0.207725 0.901007
Si Si6 0.136856 0.824557 0.421745
Si Si7 0.367516 0.839761 0.591427
Si Si8 0.865667 0.851479 0.579682
O O1 0.318762 0.968638 0.756222
O O2 0.541510 0.135254 0.850326
O O3 0.366552 0.607695 0.968790
O O4 0.289195 0.716561 0.023391
O O5 0.527492 0.636736 0.833142
O O6 0.302595 0.500057 0.765838
O O7 0.293355 0.179311 0.058355
O O8 0.323607 0.076959 0.968513
O O9 0.500000 0.500000 0.500000
O O10 0.243288 0.158243 0.514871
O O11 0.410795 0.051839 0.586296
O O12 0.202561 0.044714 0.252816
O O13 0.807972 0.513329 0.746858
O O14 0.244406 0.789595 0.516677
O O15 0.000000 0.500000 0.500000
O O16 0.099257 0.961124 0.411625
O O17 0.500000 0.000000 0.500000
O O18 0.000000 0.000000 0.500000
#
# Coordination Sequence:
#
# PCOD8043945 Si02
#       8
#     2   2   2   2   2   2   2   2
#     4  10  19  37  61  91 121 152 204 255 305 354
#     4  10  21  35  61  96 121 151 198 258 306 358
#     4  11  23  38  64  94 123 159 204 257 307 355
#     4  10  19  37  61  89 123 159 199 246 307 362
#     4  10  21  35  63  90 121 158 197 252 309 358
#     4  11  25  43  63  86 126 173 202 245 308 368
#     4  11  23  39  61  95 128 153 205 258 302 362
#     4  11  25  44  60  89 128 165 207 250 302 370
#
# _framework density 18.890343000000001
#
# number of rings (size 3 to 8) (size 9 to 14) (size 15 to 20)
#    0.000    1.500    5.000    0.000    3.500    1.000 
#    0.000    2.500    0.000    0.000    0.000    0.000 
#    0.000    0.000    0.000    0.000    0.000    0.000 
#
# Total GULP energy -198390.780929 kJ/mol
# GULP energy per Si atom -12399.423808 kJ/mol
# Density = 1.884735 g / cm^3
# Si number density = 18.890343 Si / 1000 Ang^3
#
#
#
# Elastic Constant Matrix: (Units=GPa)
#
#
# Indices 1 2 3 4 5 6 
#
# 1 105.6010 34.9022 49.5049 -2.1886 -11.9908 -8.2072
# 2 34.9022 80.8817 36.4056 -2.3947 -4.2041 -3.2570
# 3 49.5049 36.4056 120.5051 -0.2197 -9.6301 6.9693
# 4 -2.1886 -2.3947 -0.2197 19.4003 0.2670 -2.1576
# 5 -11.9908 -4.2041 -9.6301 0.2670 39.1464 -2.7730
# 6 -8.2072 -3.2570 6.9693 -2.1576 -2.7730 17.9159
#
#
#
# Elastic Compliance Matrix: (Units=1/GPa)
#
#
# Indices 1 2 3 4 5 6 
#
# 1 0.013939 -0.003198 -0.004985 0.002021 0.003288 0.008495
# 2 -0.003198 0.015511 -0.003539 0.001842 0.000012 0.002955
# 3 -0.004985 -0.003539 0.011896 -0.001726 0.000487 -0.007687
# 4 0.002021 0.001842 -0.001726 0.052907 0.000626 0.008401
# 5 0.003288 0.000012 0.000487 0.000626 0.027064 0.005584
# 6 0.008495 0.002955 -0.007687 0.008401 0.005584 0.065111
#
#
# Mechanical properties :
#
#
# Convention : Reuss Voigt Hill
#
# Bulk Modulus (GPa) = 55.86072 60.95703 58.40888
# Shear Modulus (GPa) = 23.16536 27.70420 25.43478
#
# Velocity S-wave (km/s) = 3.50567 3.83375 3.67337
# Velocity P-wave (km/s) = 6.78391 7.20665 6.99847
#
# Compressibility (1/GPa) = 0.01790167
#
# Stress axis : x y z
#
# Youngs Moduli (GPa) = 71.74072 64.47107 84.06451
#
# Poissons Ratio (x) = 0.20621 0.41906
# Poissons Ratio (y) = 0.22946 0.29747
# Poissons Ratio (z) = 0.35763 0.22813
#
# Static dielectric constant tensor:
#      x y z
#    x 3.394450 -0.185550 0.054130 
#    y -0.185550 3.447750 0.152030 
#    z 0.054130 0.152030 3.582320 
# 
# 
# High freq. dielectric constant tensor:
#      x y z
#    x 1.723140 -0.026580 0.004660 
#    y -0.026580 1.723350 0.008980 
#    z 0.004660 0.008980 1.750900 
# 
# From -- ./inp_files/207725.got.cif
#   From: 2010.06.25/outbox.cif.g09.slc.cpg/sg2_104_cif.got.tgz:207725.got - 2010.06.27 13:26:56.
