data_PCOD8043600
_publ_section_title
;
Structure prediction by ZEFSAII (Michael W. Deem and Ramdas Pophale) SiO2 
 PCOD8043600
Probable space group: P -1
;
_chemical_formula_sum "Si O2"
_cell_formula_units_Z 14
_cell_length_a 17.235966
_cell_length_b 21.663620
_cell_length_c 9.520374
_cell_angle_alpha 43.673733
_cell_angle_beta 28.106098
_cell_angle_gamma 25.318710
_cell_volume 666.044844
_symmetry_space_group_name_H-M "P -1"
_symmetry_group_IT_number 2
_symmetry_cell_setting 'triclinic'
loop_
_space_group_symop_operation_xyz
x,y,z
-x,-y,-z
loop_
_atom_site_type_symbol
_atom_site_label
_atom_site_fract_x
_atom_site_fract_y
_atom_site_fract_z
Si Si1 0.375598 0.027507 0.367286
Si Si2 0.053552 0.578704 0.754328
Si Si3 0.425067 0.908846 0.214575
Si Si4 0.520857 0.885696 0.624604
Si Si5 0.037690 0.663424 0.341767
Si Si6 0.569803 0.423957 0.363633
Si Si7 0.928864 0.089321 0.334053
O O1 0.085513 0.187402 0.648340
O O2 0.268014 0.030784 0.389828
O O3 0.556256 0.872045 0.420809
O O4 0.583557 0.023020 0.022155
O O5 0.135899 0.558689 0.489918
O O6 0.286401 0.512895 0.597457
O O7 0.000000 0.500000 0.000000
O O8 0.760682 0.758390 0.962357
O O9 0.293763 0.869317 0.471442
O O10 0.783702 0.726147 0.554505
O O11 0.500000 0.000000 0.500000
O O12 0.228984 0.962954 0.985783
O O13 0.294186 0.566793 0.981283
O O14 0.500000 0.500000 0.500000
O O15 0.791018 0.245584 0.333901
O O16 0.000000 0.000000 0.500000
#
# Coordination Sequence:
#
# PCOD8043600 Si02
#       7
#     2   2   2   2   2   2   2
#     4   9  19  38  66  95 124 166 213 268 338 393
#     4  11  23  43  67  91 134 175 218 272 331 392
#     4  10  22  37  66  98 129 166 218 268 333 394
#     4  10  19  36  65  91 126 165 210 265 336 380
#     4  10  22  43  67  90 130 176 219 268 333 396
#     4  12  27  43  68  96 132 185 224 263 332 409
#     4  12  23  40  65  97 131 164 220 279 324 382
#
# _framework density 21.019608000000002
#
# number of rings (size 3 to 8) (size 9 to 14) (size 15 to 20)
#    0.000    1.429    4.286    3.000    2.000    2.857 
#    0.000    2.143    0.000    0.000    0.000    0.000 
#    0.000    0.000    0.000    0.000    0.000    0.000 
#
# Total GULP energy -173435.640226 kJ/mol
# GULP energy per Si atom -12388.260016 kJ/mol
# Density = 2.097177 g / cm^3
# Si number density = 21.019608 Si / 1000 Ang^3
#
#
#
# Elastic Constant Matrix: (Units=GPa)
#
#
# Indices 1 2 3 4 5 6 
#
# 1 112.8092 42.6606 75.1302 -4.9292 9.3097 -13.6010
# 2 42.6606 78.9581 38.4305 -13.2534 3.7246 -20.9283
# 3 75.1302 38.4305 147.6018 -3.1286 -1.8615 -8.2303
# 4 -4.9292 -13.2534 -3.1286 34.7541 -8.3871 1.5642
# 5 9.3097 3.7246 -1.8615 -8.3871 38.0259 0.6587
# 6 -13.6010 -20.9283 -8.2303 1.5642 0.6587 38.5555
#
#
#
# Elastic Compliance Matrix: (Units=1/GPa)
#
#
# Indices 1 2 3 4 5 6 
#
# 1 0.015580 -0.004763 -0.006677 -0.001240 -0.003976 0.001603
# 2 -0.004763 0.019433 -0.002041 0.006282 0.000407 0.008170
# 3 -0.006677 -0.002041 0.010664 -0.000144 0.002346 -0.001221
# 4 -0.001240 0.006282 -0.000144 0.032563 0.006837 0.001504
# 5 -0.003976 0.000407 0.002346 0.006837 0.028879 -0.001452
# 6 0.001603 0.008170 -0.001221 0.001504 -0.001452 0.030640
#
#
# Mechanical properties :
#
#
# Convention : Reuss Voigt Hill
#
# Bulk Modulus (GPa) = 53.43860 72.42352 62.93106
# Shear Modulus (GPa) = 29.24657 34.47696 31.86177
#
# Velocity S-wave (km/s) = 3.73419 4.05437 3.89757
# Velocity P-wave (km/s) = 6.63857 7.51314 7.08935
#
# Compressibility (1/GPa) = 0.01871306
#
# Stress axis : x y z
#
# Youngs Moduli (GPa) = 64.18450 51.45890 93.77740
#
# Poissons Ratio (x) = 0.24512 0.62616
# Poissons Ratio (y) = 0.30574 0.19142
# Poissons Ratio (z) = 0.42857 0.10504
#
# Static dielectric constant tensor:
#      x y z
#    x 4.405310 -0.744310 0.201000 
#    y -0.744310 4.032410 -0.211400 
#    z 0.201000 -0.211400 4.200710 
# 
# 
# High freq. dielectric constant tensor:
#      x y z
#    x 1.824360 -0.029660 0.007730 
#    y -0.029660 1.804710 -0.010770 
#    z 0.007730 -0.010770 1.829390 
# 
# From -- ./inp_files/319230.got.cif
#   From: 2010.06.25/outbox.cif.g09.slc.cpg/sg2_160_cif.got.tgz:319230.got - 2010.06.27 13:26:56.
