data_PCOD8043396
_publ_section_title
;
Structure prediction by ZEFSAII (Michael W. Deem and Ramdas Pophale) SiO2 
 PCOD8043396
Probable space group: P -1
;
_chemical_formula_sum "Si O2"
_cell_formula_units_Z 16
_cell_length_a 12.328108
_cell_length_b 13.931514
_cell_length_c 11.182708
_cell_angle_alpha 94.788103
_cell_angle_beta 36.485923
_cell_angle_gamma 117.613791
_cell_volume 845.910917
_symmetry_space_group_name_H-M "P -1"
_symmetry_group_IT_number 2
_symmetry_cell_setting 'triclinic'
loop_
_space_group_symop_operation_xyz
x,y,z
-x,-y,-z
loop_
_atom_site_type_symbol
_atom_site_label
_atom_site_fract_x
_atom_site_fract_y
_atom_site_fract_z
Si Si1 0.674164 0.919774 0.668444
Si Si2 0.296342 0.626351 0.950785
Si Si3 0.390285 0.418377 0.208659
Si Si4 0.769832 0.514151 0.432211
Si Si5 0.485438 0.287249 0.489142
Si Si6 0.974000 0.129366 0.607874
Si Si7 0.546500 0.098680 0.375357
Si Si8 0.980359 0.774879 0.175291
O O1 0.426139 0.770939 0.897649
O O2 0.897155 0.922975 0.466645
O O3 0.645086 0.965905 0.572882
O O4 0.735735 0.019712 0.727460
O O5 0.391983 0.564147 0.921569
O O6 0.342860 0.629871 0.768775
O O7 0.011947 0.533971 0.225055
O O8 0.312976 0.483415 0.362278
O O9 0.158879 0.263654 0.382058
O O10 0.500000 0.500000 0.000000
O O11 0.554292 0.375643 0.550715
O O12 0.809304 0.621414 0.326440
O O13 0.524590 0.189799 0.478152
O O14 0.199107 0.202551 0.703574
O O15 0.888092 0.153555 0.807101
O O16 0.500000 0.000000 0.500000
O O17 0.820462 0.178422 0.094752
#
# Coordination Sequence:
#
# PCOD8043396 Si02
#       8
#     2   2   2   2   2   2   2   2
#     4   9  17  38  61  83 113 150 199 243 283 338
#     4  10  19  36  62  85 118 148 197 252 280 342
#     4  10  22  39  55  86 125 150 190 245 300 349
#     4  11  21  36  64  88 111 157 199 238 294 349
#     4  11  21  39  60  90 116 150 204 240 286 356
#     4   9  18  37  63  84 107 156 203 239 285 339
#     4  11  24  40  56  88 128 153 188 246 301 350
#     4  11  20  37  64  87 113 155 196 246 290 344
#
# _framework density 18.914521000000001
#
# number of rings (size 3 to 8) (size 9 to 14) (size 15 to 20)
#    0.000    1.750    7.500    0.750    0.000    1.500 
#    4.500    2.500    0.000    0.000    0.000    0.000 
#    0.000    0.000    0.000    0.000    0.000    0.000 
#
# Total GULP energy -198351.269442 kJ/mol
# GULP energy per Si atom -12396.954340 kJ/mol
# Density = 1.887147 g / cm^3
# Si number density = 18.914521 Si / 1000 Ang^3
#
#
#
# Elastic Constant Matrix: (Units=GPa)
#
#
# Indices 1 2 3 4 5 6 
#
# 1 83.3939 36.5882 26.5305 1.5091 5.2909 -4.8576
# 2 36.5882 102.0081 24.7909 15.3632 8.8844 14.6009
# 3 26.5305 24.7909 72.7902 11.0363 -1.8001 -4.7511
# 4 1.5091 15.3632 11.0363 22.0172 -7.6840 -0.0606
# 5 5.2909 8.8844 -1.8001 -7.6840 23.1281 -3.3586
# 6 -4.8576 14.6009 -4.7511 -0.0606 -3.3586 39.8193
#
#
#
# Elastic Compliance Matrix: (Units=1/GPa)
#
#
# Indices 1 2 3 4 5 6 
#
# 1 0.016177 -0.006212 -0.004378 0.005707 0.000793 0.003804
# 2 -0.006212 0.016800 -0.002121 -0.014119 -0.011069 -0.008126
# 3 -0.004378 -0.002121 0.017211 -0.006354 0.001394 0.002405
# 4 0.005707 -0.014119 -0.006354 0.067565 0.027162 0.007509
# 5 0.000793 -0.011069 0.001394 0.027162 0.057782 0.009237
# 6 0.003804 -0.008126 0.002405 0.007509 0.009237 0.029635
#
#
# Mechanical properties :
#
#
# Convention : Reuss Voigt Hill
#
# Bulk Modulus (GPa) = 40.37689 48.22348 44.30018
# Shear Modulus (GPa) = 20.93380 28.34508 24.63944
#
# Velocity S-wave (km/s) = 3.33041 3.87536 3.61317
# Velocity P-wave (km/s) = 6.01516 6.75095 6.39365
#
# Compressibility (1/GPa) = 0.02476665
#
# Stress axis : x y z
#
# Youngs Moduli (GPa) = 61.81445 59.52270 58.10197
#
# Poissons Ratio (x) = 0.36974 0.25438
# Poissons Ratio (y) = 0.38397 0.12325
# Poissons Ratio (z) = 0.27063 0.12626
#
# Static dielectric constant tensor:
#      x y z
#    x 3.486930 0.020170 -0.172800 
#    y 0.020170 3.516030 0.037430 
#    z -0.172800 0.037430 2.864940 
# 
# 
# High freq. dielectric constant tensor:
#      x y z
#    x 1.730490 -0.000410 -0.020040 
#    y -0.000410 1.734180 0.021850 
#    z -0.020040 0.021850 1.715890 
# 
# From -- ./inp_files/273291.got.cif
#   From: 2010.06.25/outbox.cif.g09.slc.cpg/sg2_137_cif.got.tgz:273291.got - 2010.06.27 13:26:56.
