data_PCOD8043164
_publ_section_title
;
Structure prediction by ZEFSAII (Michael W. Deem and Ramdas Pophale) SiO2 
 PCOD8043164
Probable space group: P -1
;
_chemical_formula_sum "Si O2"
_cell_formula_units_Z 14
_cell_length_a 19.347878
_cell_length_b 13.570139
_cell_length_c 8.844777
_cell_angle_alpha 90.276843
_cell_angle_beta 71.514133
_cell_angle_gamma 153.610950
_cell_volume 733.381718
_symmetry_space_group_name_H-M "P -1"
_symmetry_group_IT_number 2
_symmetry_cell_setting 'triclinic'
loop_
_space_group_symop_operation_xyz
x,y,z
-x,-y,-z
loop_
_atom_site_type_symbol
_atom_site_label
_atom_site_fract_x
_atom_site_fract_y
_atom_site_fract_z
Si Si1 0.888529 0.711257 0.816489
Si Si2 0.531891 0.137250 0.880699
Si Si3 0.297126 0.319854 0.990786
Si Si4 0.214023 0.092363 0.340417
Si Si5 0.135846 0.473655 0.591297
Si Si6 0.050685 0.838026 0.003834
Si Si7 0.107781 0.702033 0.055035
O O1 0.685279 0.411297 0.859664
O O2 0.945660 0.707512 0.910069
O O3 0.824571 0.731550 0.941373
O O4 0.101593 0.997850 0.564975
O O5 0.632924 0.233442 0.650308
O O6 0.302929 0.895717 0.003795
O O7 0.500000 0.000000 0.000000
O O8 0.553588 0.660586 0.779636
O O9 0.209312 0.132600 0.923676
O O10 0.253506 0.227316 0.190379
O O11 0.057937 0.806566 0.388667
O O12 0.139114 0.404820 0.735673
O O13 0.076285 0.508339 0.690441
O O14 0.185302 0.906192 0.930191
O O15 0.000000 0.500000 0.000000
#
# Coordination Sequence:
#
# PCOD8043164 Si02
#       7
#     2   2   2   2   2   2   2
#     4  11  21  37  58  88 115 150 195 235 281 339
#     4  11  23  39  63  87 110 152 199 236 284 343
#     4  10  19  36  59  83 119 153 190 228 290 333
#     4   9  19  35  58  87 115 152 189 237 279 339
#     4   8  20  40  58  84 119 147 190 236 287 340
#     4   9  21  40  55  86 124 146 188 239 281 342
#     4  10  21  41  60  81 115 154 184 239 291 338
#
# _framework density 19.089651
#
# number of rings (size 3 to 8) (size 9 to 14) (size 15 to 20)
#    0.857    1.429    0.000    2.571    2.000    1.714 
#    2.571    0.000    0.000    0.000    0.000    0.000 
#    0.000    0.000    0.000    0.000    0.000    0.000 
#
# Total GULP energy -173525.898976 kJ/mol
# GULP energy per Si atom -12394.707070 kJ/mol
# Density = 1.904620 g / cm^3
# Si number density = 19.089651 Si / 1000 Ang^3
#
#
#
# Elastic Constant Matrix: (Units=GPa)
#
#
# Indices 1 2 3 4 5 6 
#
# 1 113.5834 31.6008 20.6232 8.0610 -9.2187 0.6326
# 2 31.6008 72.9774 24.2644 17.3027 -3.5532 -4.8030
# 3 20.6232 24.2644 66.0533 4.6622 -5.8165 1.8105
# 4 8.0610 17.3027 4.6622 19.8405 -4.3835 2.1198
# 5 -9.2187 -3.5532 -5.8165 -4.3835 26.1183 7.3559
# 6 0.6326 -4.8030 1.8105 2.1198 7.3559 35.4395
#
#
#
# Elastic Compliance Matrix: (Units=1/GPa)
#
#
# Indices 1 2 3 4 5 6 
#
# 1 0.010446 -0.004095 -0.001469 0.000545 0.003283 -0.001380
# 2 -0.004095 0.021725 -0.005991 -0.017365 -0.004213 0.005237
# 3 -0.001469 -0.005991 0.018022 0.002732 0.003893 -0.002678
# 4 0.000545 -0.017365 0.002732 0.068428 0.012512 -0.009193
# 5 0.003283 -0.004213 0.003893 0.012512 0.044909 -0.010898
# 6 -0.001380 0.005237 -0.002678 -0.009193 -0.010898 0.031900
#
#
# Mechanical properties :
#
#
# Convention : Reuss Voigt Hill
#
# Bulk Modulus (GPa) = 36.92343 45.06564 40.99453
# Shear Modulus (GPa) = 21.97163 28.02138 24.99651
#
# Velocity S-wave (km/s) = 3.39628 3.83545 3.62253
# Velocity P-wave (km/s) = 5.89607 6.57821 6.24646
#
# Compressibility (1/GPa) = 0.02708308
#
# Stress axis : x y z
#
# Youngs Moduli (GPa) = 95.73475 46.03072 55.48840
#
# Poissons Ratio (x) = 0.18850 0.08149
# Poissons Ratio (y) = 0.39205 0.33242
# Poissons Ratio (z) = 0.14059 0.27576
#
# Static dielectric constant tensor:
#      x y z
#    x 3.320420 -0.006340 -0.080730 
#    y -0.006340 3.414910 0.088160 
#    z -0.080730 0.088160 3.590100 
# 
# 
# High freq. dielectric constant tensor:
#      x y z
#    x 1.732360 -0.001570 -0.005460 
#    y -0.001570 1.742630 0.011920 
#    z -0.005460 0.011920 1.734380 
# 
# From -- ./inp_files/168906.got.cif
#   From: 2010.06.25/outbox.cif.g09.slc.cpg/sg2_85_cif.got.tgz:168906.got - 2010.06.27 13:26:56.
