data_PCOD8043004
_publ_section_title
;
Structure prediction by ZEFSAII (Michael W. Deem and Ramdas Pophale) SiO2 
 PCOD8043004
Probable space group: P -1
;
_chemical_formula_sum "Si O2"
_cell_formula_units_Z 16
_cell_length_a 27.182252
_cell_length_b 8.931642
_cell_length_c 9.961688
_cell_angle_alpha 30.139408
_cell_angle_beta 44.363952
_cell_angle_gamma 43.860669
_cell_volume 811.901662
_symmetry_space_group_name_H-M "P -1"
_symmetry_group_IT_number 2
_symmetry_cell_setting 'triclinic'
loop_
_space_group_symop_operation_xyz
x,y,z
-x,-y,-z
loop_
_atom_site_type_symbol
_atom_site_label
_atom_site_fract_x
_atom_site_fract_y
_atom_site_fract_z
Si Si1 0.603721 0.744375 0.899259
Si Si2 0.434922 0.855234 0.075660
Si Si3 0.914239 0.031581 0.620898
Si Si4 0.578367 0.819020 0.426229
Si Si5 0.059180 0.303130 0.720698
Si Si6 0.671031 0.015290 0.318544
Si Si7 0.967645 0.945680 0.308509
Si Si8 0.842278 0.733699 0.214181
O O1 0.606293 0.927415 0.890567
O O2 0.643646 0.899405 0.595713
O O3 0.521651 0.768733 0.995769
O O4 0.647631 0.384223 0.094708
O O5 0.411793 0.543168 0.339484
O O6 0.410016 0.050649 0.840389
O O7 0.859136 0.369128 0.494020
O O8 0.905608 0.990672 0.509102
O O9 0.000000 0.000000 0.500000
O O10 0.889707 0.788550 0.951343
O O11 0.500000 0.000000 0.500000
O O12 0.639804 0.876650 0.359359
O O13 0.069913 0.123130 0.699916
O O14 0.133217 0.156676 0.775610
O O15 0.038531 0.668554 0.439046
O O16 0.994382 0.246727 0.986486
O O17 0.757957 0.898824 0.223636
#
# Coordination Sequence:
#
# PCOD8043004 Si02
#       8
#     2   2   2   2   2   2   2   2
#     4  11  22  41  62  93 121 162 211 261 305 367
#     4  11  22  38  67  94 120 155 220 267 297 350
#     4  12  21  38  62  90 115 153 206 255 297 361
#     4  12  21  39  63  96 124 166 208 261 308 363
#     4  10  19  36  55  86 112 145 192 239 299 353
#     4  12  25  40  61  90 133 167 204 252 324 379
#     4  10  20  33  60  85 110 141 195 253 283 343
#     4  12  24  39  59  88 124 161 194 250 318 374
#
# _framework density 19.70682
#
# number of rings (size 3 to 8) (size 9 to 14) (size 15 to 20)
#    0.000    0.750    5.000    3.750    0.000    2.000 
#    0.000    3.750    0.000    0.000    0.000    0.000 
#    0.000    0.000    0.000    0.000    0.000    0.000 
#
# Total GULP energy -198297.208445 kJ/mol
# GULP energy per Si atom -12393.575528 kJ/mol
# Density = 1.966197 g / cm^3
# Si number density = 19.706820 Si / 1000 Ang^3
#
#
#
# Elastic Constant Matrix: (Units=GPa)
#
#
# Indices 1 2 3 4 5 6 
#
# 1 151.6194 79.3077 49.3861 4.0083 19.7320 10.4155
# 2 79.3077 107.5262 40.2077 -8.8707 3.6460 7.3697
# 3 49.3861 40.2077 136.0283 -0.0620 13.3848 14.6278
# 4 4.0083 -8.8707 -0.0620 51.7322 3.9755 3.4573
# 5 19.7320 3.6460 13.3848 3.9755 34.8042 4.0262
# 6 10.4155 7.3697 14.6278 3.4573 4.0262 35.2370
#
#
#
# Elastic Compliance Matrix: (Units=1/GPa)
#
#
# Indices 1 2 3 4 5 6 
#
# 1 0.012237 -0.008463 -0.001374 -0.001966 -0.005242 -0.000485
# 2 -0.008463 0.016522 -0.002074 0.003266 0.003587 -0.000823
# 3 -0.001374 -0.002074 0.008960 0.000104 -0.002155 -0.002643
# 4 -0.001966 0.003266 0.000104 0.020279 -0.001355 -0.001980
# 5 -0.005242 0.003587 -0.002155 -0.001355 0.032531 -0.001890
# 6 -0.000485 -0.000823 -0.002643 -0.001980 -0.001890 0.030202
#
#
# Mechanical properties :
#
#
# Convention : Reuss Voigt Hill
#
# Bulk Modulus (GPa) = 71.96140 81.44189 76.70165
# Shear Modulus (GPa) = 33.51509 39.43950 36.47730
#
# Velocity S-wave (km/s) = 4.12841 4.47846 4.30699
# Velocity P-wave (km/s) = 7.70197 8.25582 7.98370
#
# Compressibility (1/GPa) = 0.01389634
#
# Stress axis : x y z
#
# Youngs Moduli (GPa) = 81.71608 60.52532 111.61025
#
# Poissons Ratio (x) = 0.51224 0.15338
# Poissons Ratio (y) = 0.69159 0.23147
# Poissons Ratio (z) = 0.11230 0.12552
#
# Static dielectric constant tensor:
#      x y z
#    x 3.956670 0.256580 0.396690 
#    y 0.256580 3.678190 -0.124060 
#    z 0.396690 -0.124060 4.023340 
# 
# 
# High freq. dielectric constant tensor:
#      x y z
#    x 1.765580 0.027380 0.018170 
#    y 0.027380 1.757350 -0.008560 
#    z 0.018170 -0.008560 1.790580 
# 
# From -- ./inp_files/351955.got.cif
#   From: 2010.06.25/outbox.cif.g09.slc.cpg/sg2_176_cif.got.tgz:351955.got - 2010.06.27 13:26:56.
