data_PCOD8043410
_publ_section_title
;
Structure prediction by ZEFSAII (Michael W. Deem and Ramdas Pophale) SiO2 
 PCOD8043410
Probable space group: P -1
;
_chemical_formula_sum "Si O2"
_cell_formula_units_Z 16
_cell_length_a 15.801396
_cell_length_b 13.550465
_cell_length_c 11.435067
_cell_angle_alpha 33.155585
_cell_angle_beta 40.311731
_cell_angle_gamma 52.086005
_cell_volume 864.334746
_symmetry_space_group_name_H-M "P -1"
_symmetry_group_IT_number 2
_symmetry_cell_setting 'triclinic'
loop_
_space_group_symop_operation_xyz
x,y,z
-x,-y,-z
loop_
_atom_site_type_symbol
_atom_site_label
_atom_site_fract_x
_atom_site_fract_y
_atom_site_fract_z
Si Si1 0.866141 0.494561 0.216193
Si Si2 0.598379 0.345315 0.552984
Si Si3 0.800426 0.359543 0.655543
Si Si4 0.478990 0.692776 0.574783
Si Si5 0.130351 0.964187 0.965109
Si Si6 0.521630 0.276522 0.950190
Si Si7 0.779830 0.743171 0.243913
Si Si8 0.390836 0.981692 0.535049
O O1 0.746915 0.433322 0.316739
O O2 0.867904 0.350887 0.464241
O O3 0.842402 0.692142 0.102485
O O4 0.000000 0.500000 0.000000
O O5 0.500000 0.500000 0.500000
O O6 0.578012 0.240503 0.555823
O O7 0.559164 0.224844 0.828343
O O8 0.652278 0.270348 0.896517
O O9 0.794162 0.571370 0.487296
O O10 0.878350 0.247082 0.778899
O O11 0.467170 0.476213 0.814917
O O12 0.627852 0.775885 0.350384
O O13 0.391481 0.780968 0.678522
O O14 0.145240 0.081904 0.951582
O O15 0.249943 0.014202 0.703289
O O16 0.000000 0.000000 0.000000
O O17 0.415371 0.130561 0.259174
O O18 0.500000 0.000000 0.500000
#
# Coordination Sequence:
#
# PCOD8043410 Si02
#       8
#     2   2   2   2   2   2   2   2
#     4   9  18  35  62  85 114 150 188 226 285 360
#     4   9  16  34  59  86 116 144 180 242 286 331
#     4   8  18  38  59  80 115 150 185 233 289 335
#     4  10  19  36  62  89 115 148 189 240 292 329
#     4  12  25  41  54  80 122 152 194 242 280 335
#     4   9  18  36  60  89 115 143 192 238 287 336
#     4   9  19  37  62  81 114 157 182 230 305 328
#     4  12  23  36  60  85 110 154 204 234 269 349
#
# _framework density 18.511347000000001
#
# number of rings (size 3 to 8) (size 9 to 14) (size 15 to 20)
#    0.750    1.500    5.000    0.000    0.000    3.500 
#    4.500    0.625    0.000    0.000    0.000    0.000 
#    0.000    0.000    0.000    0.000    0.000    0.000 
#
# Total GULP energy -198250.614283 kJ/mol
# GULP energy per Si atom -12390.663393 kJ/mol
# Density = 1.846921 g / cm^3
# Si number density = 18.511347 Si / 1000 Ang^3
#
#
#
# Elastic Constant Matrix: (Units=GPa)
#
#
# Indices 1 2 3 4 5 6 
#
# 1 109.5971 41.6907 26.7929 4.3463 -4.2897 -1.9948
# 2 41.6907 86.0837 31.2342 14.8248 -4.8545 7.3292
# 3 26.7929 31.2342 79.9486 14.7875 0.5478 -7.8182
# 4 4.3463 14.8248 14.7875 31.8823 -4.7597 -4.4175
# 5 -4.2897 -4.8545 0.5478 -4.7597 22.2977 0.0269
# 6 -1.9948 7.3292 -7.8182 -4.4175 0.0269 32.6254
#
#
#
# Elastic Compliance Matrix: (Units=1/GPa)
#
#
# Indices 1 2 3 4 5 6 
#
# 1 0.011676 -0.005354 -0.002099 0.002355 0.001633 0.001731
# 2 -0.005354 0.017497 -0.004564 -0.005897 0.001640 -0.006151
# 3 -0.002099 -0.004564 0.016349 -0.005031 -0.002878 0.004136
# 4 0.002355 -0.005897 -0.005031 0.037971 0.007392 0.005398
# 5 0.001633 0.001640 -0.002878 0.007392 0.047168 0.000004
# 6 0.001731 -0.006151 0.004136 0.005398 0.000004 0.033861
#
#
# Mechanical properties :
#
#
# Convention : Reuss Voigt Hill
#
# Bulk Modulus (GPa) = 46.53424 52.78501 49.65963
# Shear Modulus (GPa) = 25.54693 29.08851 27.31772
#
# Velocity S-wave (km/s) = 3.71896 3.96837 3.84569
# Velocity P-wave (km/s) = 6.60558 7.04089 6.82671
#
# Compressibility (1/GPa) = 0.02148955
#
# Stress axis : x y z
#
# Youngs Moduli (GPa) = 85.64465 57.15181 61.16569
#
# Poissons Ratio (x) = 0.30600 0.12837
# Poissons Ratio (y) = 0.45856 0.27913
# Poissons Ratio (z) = 0.17974 0.26082
#
# Static dielectric constant tensor:
#      x y z
#    x 2.727760 0.038540 0.447760 
#    y 0.038540 3.300110 -0.012350 
#    z 0.447760 -0.012350 2.700900 
# 
# 
# High freq. dielectric constant tensor:
#      x y z
#    x 1.712770 0.004890 0.009250 
#    y 0.004890 1.710090 -0.000970 
#    z 0.009250 -0.000970 1.696270 
# 
# From -- ./inp_files/455359.got.cif
#   From: 2010.06.25/outbox.cif.g09.slc.cpg/sg2_228_cif.got.tgz:455359.got - 2010.06.27 13:26:56.
