data_PCOD8043637
_publ_section_title
;
Structure prediction by ZEFSAII (Michael W. Deem and Ramdas Pophale) SiO2 
 PCOD8043637
Probable space group: P -1
;
_chemical_formula_sum "Si O2"
_cell_formula_units_Z 16
_cell_length_a 11.782968
_cell_length_b 16.891114
_cell_length_c 9.763489
_cell_angle_alpha 145.250866
_cell_angle_beta 136.913043
_cell_angle_gamma 44.457709
_cell_volume 723.629516
_symmetry_space_group_name_H-M "P -1"
_symmetry_group_IT_number 2
_symmetry_cell_setting 'triclinic'
loop_
_space_group_symop_operation_xyz
x,y,z
-x,-y,-z
loop_
_atom_site_type_symbol
_atom_site_label
_atom_site_fract_x
_atom_site_fract_y
_atom_site_fract_z
Si Si1 0.174949 0.816440 0.285483
Si Si2 0.239204 0.501209 0.520583
Si Si3 0.002626 0.143087 0.541452
Si Si4 0.211229 0.923872 0.992236
Si Si5 0.018284 0.785794 0.829724
Si Si6 0.512600 0.683666 0.995554
Si Si7 0.459410 0.351508 0.727534
Si Si8 0.175006 0.379530 0.011049
O O1 0.117966 0.771008 0.318381
O O2 0.381873 0.757326 0.368691
O O3 0.075691 0.751506 0.989007
O O4 0.121341 0.988899 0.476264
O O5 0.055677 0.629646 0.565054
O O6 0.386348 0.581458 0.741118
O O7 0.286733 0.390518 0.535315
O O8 0.232430 0.399150 0.243482
O O9 0.877058 0.136904 0.296940
O O10 0.141177 0.225605 0.738547
O O11 0.136519 0.883210 0.012279
O O12 0.416269 0.838700 0.057575
O O13 0.176694 0.100415 0.196992
O O14 0.680069 0.602982 0.941301
O O15 0.570690 0.712529 0.242131
O O16 0.500000 0.500000 0.000000
O O17 0.000000 0.500000 0.000000
#
# Coordination Sequence:
#
# PCOD8043637 Si02
#       8
#     2   2   2   2   2   2   2   2
#     4  10  19  40  65  87 117 160 212 243 301 355
#     4  10  21  38  63  91 117 163 201 246 298 365
#     4  10  24  38  62  90 122 165 197 253 298 362
#     4   9  17  35  64  88 115 151 206 246 292 363
#     4   9  16  33  62  90 112 147 204 252 290 347
#     4  10  21  39  62  92 117 162 201 248 305 355
#     4  10  19  36  67  90 115 154 213 252 285 363
#     4  12  26  40  57  91 133 158 197 250 309 365
#
# _framework density 22.110762000000001
#
# number of rings (size 3 to 8) (size 9 to 14) (size 15 to 20)
#    0.000    2.000    3.750    1.875    5.250    0.000 
#    0.000    5.000    0.000    0.000    0.000    0.000 
#    0.000    0.000    0.000    0.000    0.000    0.000 
#
# Total GULP energy -198317.509093 kJ/mol
# GULP energy per Si atom -12394.844318 kJ/mol
# Density = 2.206044 g / cm^3
# Si number density = 22.110762 Si / 1000 Ang^3
#
#
#
# Elastic Constant Matrix: (Units=GPa)
#
#
# Indices 1 2 3 4 5 6 
#
# 1 77.9373 45.4386 45.4738 -8.9101 -32.0770 -11.4250
# 2 45.4386 143.2174 33.3927 -15.3914 -13.0863 -19.3603
# 3 45.4738 33.3927 54.0555 -7.6397 -18.4587 3.0654
# 4 -8.9101 -15.3914 -7.6397 31.3141 5.2007 -10.5932
# 5 -32.0770 -13.0863 -18.4587 5.2007 29.0558 0.2963
# 6 -11.4250 -19.3603 3.0654 -10.5932 0.2963 32.0177
#
#
#
# Elastic Compliance Matrix: (Units=1/GPa)
#
#
# Indices 1 2 3 4 5 6 
#
# 1 0.047087 -0.002085 -0.027502 0.007188 0.032079 0.020256
# 2 -0.002085 0.010395 -0.004893 0.006404 -0.001958 0.008147
# 3 -0.027502 -0.004893 0.043724 -0.005272 -0.003654 -0.018669
# 4 0.007188 0.006404 -0.005272 0.043090 -0.000458 0.021202
# 5 0.032079 -0.001958 -0.003654 -0.000458 0.066610 0.009845
# 6 0.020256 0.008147 -0.018669 0.021202 0.009845 0.052098
#
#
# Mechanical properties :
#
#
# Convention : Reuss Voigt Hill
#
# Bulk Modulus (GPa) = 31.01178 58.20226 44.60702
# Shear Modulus (GPa) = 14.58943 28.53786 21.56364
#
# Velocity S-wave (km/s) = 2.57151 3.59650 3.12630
# Velocity P-wave (km/s) = 4.78257 6.60504 5.76626
#
# Compressibility (1/GPa) = 0.03224581
#
# Stress axis : x y z
#
# Youngs Moduli (GPa) = 21.23721 96.19565 22.87080
#
# Poissons Ratio (x) = 0.20057 0.62899
# Poissons Ratio (y) = 0.04428 0.11191
# Poissons Ratio (z) = 0.58407 0.47071
#
# Static dielectric constant tensor:
#      x y z
#    x 4.055970 -0.125130 -0.345660 
#    y -0.125130 4.589590 -0.290890 
#    z -0.345660 -0.290890 4.074850 
# 
# 
# High freq. dielectric constant tensor:
#      x y z
#    x 1.851550 -0.002790 -0.036860 
#    y -0.002790 1.891640 -0.003520 
#    z -0.036860 -0.003520 1.842330 
# 
# From -- ./inp_files/274760.got.cif
#   From: 2010.06.25/outbox.cif.g09.slc.cpg/sg2_138_cif.got.tgz:274760.got - 2010.06.27 13:26:56.
