data_PCOD8043212
_publ_section_title
;
Structure prediction by ZEFSAII (Michael W. Deem and Ramdas Pophale) SiO2 
 PCOD8043212
Probable space group: P -1
;
_chemical_formula_sum "Si O2"
_cell_formula_units_Z 14
_cell_length_a 27.629612
_cell_length_b 14.149413
_cell_length_c 14.916876
_cell_angle_alpha 28.363708
_cell_angle_beta 18.163359
_cell_angle_gamma 21.192592
_cell_volume 656.251628
_symmetry_space_group_name_H-M "P -1"
_symmetry_group_IT_number 2
_symmetry_cell_setting 'triclinic'
loop_
_space_group_symop_operation_xyz
x,y,z
-x,-y,-z
loop_
_atom_site_type_symbol
_atom_site_label
_atom_site_fract_x
_atom_site_fract_y
_atom_site_fract_z
Si Si1 0.031515 0.177610 0.740799
Si Si2 0.290620 0.935338 0.997268
Si Si3 0.752333 0.031599 0.656060
Si Si4 0.725226 0.502055 0.568284
Si Si5 0.931550 0.265222 0.228888
Si Si6 0.341305 0.243910 0.140968
Si Si7 0.079112 0.354530 0.171336
O O1 0.193311 0.198778 0.485147
O O2 0.809375 0.468485 0.880172
O O3 0.134460 0.041027 0.577817
O O4 0.000000 0.000000 0.000000
O O5 0.519386 0.799578 0.681102
O O6 0.295294 0.716603 0.217916
O O7 0.221979 0.144034 0.019288
O O8 0.161504 0.031728 0.052052
O O9 0.809536 0.166629 0.505997
O O10 0.840836 0.758657 0.775369
O O11 0.502777 0.226753 0.934099
O O12 0.834276 0.473110 0.308143
O O13 0.852045 0.458141 0.469883
O O14 0.926676 0.402156 0.033334
O O15 0.500000 0.000000 0.000000
#
# Coordination Sequence:
#
# PCOD8043212 Si02
#       7
#     2   2   2   2   2   2   2
#     4  10  23  44  71  94 120 157 203 248 307 381
#     4  10  19  36  60  80 115 171 207 248 294 346
#     4  11  23  40  60  93 128 156 198 252 310 361
#     4  10  19  36  60  78 120 165 209 247 296 343
#     4  11  22  36  57  87 120 161 204 247 296 350
#     4   9  22  43  68  92 122 156 195 246 313 372
#     4  11  22  37  57  85 123 161 202 251 297 347
#
# _framework density 21.333280999999999
#
# number of rings (size 3 to 8) (size 9 to 14) (size 15 to 20)
#    0.000    1.714    2.857    2.571    0.000   11.429 
#    0.000    0.000    0.000    0.000    0.000    0.000 
#    0.000    0.000    0.000    0.000    0.000    0.000 
#
# Total GULP energy -173444.841209 kJ/mol
# GULP energy per Si atom -12388.917229 kJ/mol
# Density = 2.128473 g / cm^3
# Si number density = 21.333281 Si / 1000 Ang^3
#
#
#
# Elastic Constant Matrix: (Units=GPa)
#
#
# Indices 1 2 3 4 5 6 
#
# 1 71.8522 22.2644 71.7416 -3.9418 -17.7009 -29.4888
# 2 22.2644 163.0055 -11.0019 43.4810 33.1687 -10.8378
# 3 71.7416 -11.0019 346.0619 -59.4764 -92.4660 -60.3525
# 4 -3.9418 43.4810 -59.4764 80.9597 13.1114 14.4490
# 5 -17.7009 33.1687 -92.4660 13.1114 61.5537 10.6992
# 6 -29.4888 -10.8378 -60.3525 14.4490 10.6992 35.0026
#
#
#
# Elastic Compliance Matrix: (Units=1/GPa)
#
#
# Indices 1 2 3 4 5 6 
#
# 1 0.023644 -0.002302 -0.001677 -0.002264 0.003173 0.016280
# 2 -0.002302 0.009676 -0.001869 -0.005881 -0.007896 0.002675
# 3 -0.001677 -0.001869 0.007674 0.003744 0.010107 0.006605
# 4 -0.002264 -0.005881 0.003744 0.018449 0.005346 -0.006522
# 5 0.003173 -0.007896 0.010107 0.005346 0.034611 0.004869
# 6 0.016280 0.002675 0.006605 -0.006522 0.004869 0.055706
#
#
# Mechanical properties :
#
#
# Convention : Reuss Voigt Hill
#
# Bulk Modulus (GPa) = 34.13205 82.99198 58.56201
# Shear Modulus (GPa) = 29.20192 68.69757 48.94974
#
# Velocity S-wave (km/s) = 3.70380 5.68084 4.79532
# Velocity P-wave (km/s) = 5.85876 9.05629 7.62697
#
# Compressibility (1/GPa) = 0.02929798
#
# Stress axis : x y z
#
# Youngs Moduli (GPa) = 42.29401 103.34510 130.31438
#
# Poissons Ratio (x) = 0.23792 0.21850
# Poissons Ratio (y) = 0.09737 0.24358
# Poissons Ratio (z) = 0.07091 0.19317
#
# Static dielectric constant tensor:
#      x y z
#    x 3.761850 -0.222440 -0.270760 
#    y -0.222440 4.072600 0.217220 
#    z -0.270760 0.217220 4.268960 
# 
# 
# High freq. dielectric constant tensor:
#      x y z
#    x 1.808530 -0.005610 -0.011740 
#    y -0.005610 1.847650 0.000560 
#    z -0.011740 0.000560 1.846980 
# 
# From -- ./inp_files/529561.got.cif
#   From: 2010.06.25/outbox.cif.g09.slc.cpg/sg2_265_cif.got.tgz:529561.got - 2010.06.27 13:26:56.
