data_PCOD8043638
_publ_section_title
;
Structure prediction by ZEFSAII (Michael W. Deem and Ramdas Pophale) SiO2 
 PCOD8043638
Probable space group: P -1
;
_chemical_formula_sum "Si O2"
_cell_formula_units_Z 14
_cell_length_a 22.064748
_cell_length_b 8.843199
_cell_length_c 11.839949
_cell_angle_alpha 46.927512
_cell_angle_beta 31.301021
_cell_angle_gamma 32.998429
_cell_volume 649.025924
_symmetry_space_group_name_H-M "P -1"
_symmetry_group_IT_number 2
_symmetry_cell_setting 'triclinic'
loop_
_space_group_symop_operation_xyz
x,y,z
-x,-y,-z
loop_
_atom_site_type_symbol
_atom_site_label
_atom_site_fract_x
_atom_site_fract_y
_atom_site_fract_z
Si Si1 0.648800 0.774443 0.955768
Si Si2 0.193197 0.103198 0.693132
Si Si3 0.119849 0.853935 0.117302
Si Si4 0.037006 0.626202 0.786545
Si Si5 0.802482 0.984626 0.527398
Si Si6 0.484216 0.083222 0.656531
Si Si7 0.647739 0.562559 0.529299
O O1 0.719323 0.467505 0.963579
O O2 0.783627 0.786095 0.718774
O O3 0.603094 0.827075 0.132068
O O4 0.500000 0.000000 0.000000
O O5 0.073896 0.448543 0.705106
O O6 0.228807 0.996918 0.564836
O O7 0.353760 0.982084 0.560704
O O8 0.121821 0.993139 0.930427
O O9 0.976165 0.864430 0.333485
O O10 0.100977 0.031917 0.166709
O O11 0.185907 0.571327 0.619836
O O12 0.000000 0.500000 0.000000
O O13 0.659246 0.299651 0.641861
O O14 0.371334 0.334588 0.620767
O O15 0.513736 0.815363 0.696554
#
# Coordination Sequence:
#
# PCOD8043638 Si02
#       7
#     2   2   2   2   2   2   2
#     4  12  25  39  58  86 129 162 194 236 298 367
#     4  10  19  36  67  90 116 150 201 256 293 346
#     4  10  22  39  61  86 119 156 205 246 290 348
#     4   8  17  36  60  89 115 145 196 253 296 340
#     4  11  22  39  61  87 121 157 200 244 299 352
#     4  10  21  39  60  92 120 154 198 247 303 346
#     4   9  20  37  64  88 115 152 204 253 290 345
#
# _framework density 21.570785999999998
#
# number of rings (size 3 to 8) (size 9 to 14) (size 15 to 20)
#    0.000    2.000    1.429    1.714    2.000    4.000 
#    0.000    0.714    3.143    0.000    0.000    0.000 
#    0.000    0.000    0.000    0.000    0.000    0.000 
#
# Total GULP energy -173445.252834 kJ/mol
# GULP energy per Si atom -12388.946631 kJ/mol
# Density = 2.152169 g / cm^3
# Si number density = 21.570786 Si / 1000 Ang^3
#
#
#
# Elastic Constant Matrix: (Units=GPa)
#
#
# Indices 1 2 3 4 5 6 
#
# 1 41.9763 39.5455 4.7845 1.2223 -0.6793 12.0538
# 2 39.5455 183.3797 30.9829 2.5946 7.4834 28.5294
# 3 4.7845 30.9829 92.8776 -2.9247 -4.7044 10.7869
# 4 1.2223 2.5946 -2.9247 22.0451 4.6850 -0.9157
# 5 -0.6793 7.4834 -4.7044 4.6850 12.6611 -6.5383
# 6 12.0538 28.5294 10.7869 -0.9157 -6.5383 27.1501
#
#
#
# Elastic Compliance Matrix: (Units=1/GPa)
#
#
# Indices 1 2 3 4 5 6 
#
# 1 0.031547 -0.005860 0.001305 -0.001679 0.002184 -0.007897
# 2 -0.005860 0.008842 -0.002196 0.000999 -0.011092 -0.008454
# 3 0.001305 -0.002196 0.011904 0.000720 0.004554 -0.001880
# 4 -0.001679 0.000999 0.000720 0.049697 -0.020833 -0.003931
# 5 0.002184 -0.011092 0.004554 -0.020833 0.113377 0.035477
# 6 -0.007897 -0.008454 -0.001880 -0.003931 0.035477 0.058380
#
#
# Mechanical properties :
#
#
# Convention : Reuss Voigt Hill
#
# Bulk Modulus (GPa) = 25.78030 52.09551 38.93790
# Shear Modulus (GPa) = 16.65672 28.56597 22.61135
#
# Velocity S-wave (km/s) = 2.78184 3.64303 3.24116
# Velocity P-wave (km/s) = 4.72183 6.47294 5.66545
#
# Compressibility (1/GPa) = 0.03878931
#
# Stress axis : x y z
#
# Youngs Moduli (GPa) = 31.69865 113.10001 84.00592
#
# Poissons Ratio (x) = 0.66281 -0.10961
# Poissons Ratio (y) = 0.18577 0.18449
# Poissons Ratio (z) = -0.04136 0.24838
#
# Static dielectric constant tensor:
#      x y z
#    x 3.858040 0.604980 -0.099030 
#    y 0.604980 4.679070 0.150660 
#    z -0.099030 0.150660 3.836770 
# 
# 
# High freq. dielectric constant tensor:
#      x y z
#    x 1.828070 0.030600 -0.010890 
#    y 0.030600 1.868070 0.009930 
#    z -0.010890 0.009930 1.836520 
# 
# From -- ./inp_files/153723.got.cif
#   From: 2010.06.25/outbox.cif.g09.slc.cpg/sg2_77_cif.got.tgz:153723.got - 2010.06.27 13:26:56.
