data_PCOD8043050
_publ_section_title
;
Structure prediction by ZEFSAII (Michael W. Deem and Ramdas Pophale) SiO2 
 PCOD8043050
Probable space group: P -1
;
_chemical_formula_sum "Si O2"
_cell_formula_units_Z 14
_cell_length_a 21.545878
_cell_length_b 8.708367
_cell_length_c 12.360714
_cell_angle_alpha 77.565328
_cell_angle_beta 28.093934
_cell_angle_gamma 58.918838
_cell_volume 751.564098
_symmetry_space_group_name_H-M "P -1"
_symmetry_group_IT_number 2
_symmetry_cell_setting 'triclinic'
loop_
_space_group_symop_operation_xyz
x,y,z
-x,-y,-z
loop_
_atom_site_type_symbol
_atom_site_label
_atom_site_fract_x
_atom_site_fract_y
_atom_site_fract_z
Si Si1 0.269884 0.377072 0.267650
Si Si2 0.633805 0.749016 0.296441
Si Si3 0.318315 0.467024 0.951528
Si Si4 0.542280 0.295084 0.015721
Si Si5 0.550991 0.299006 0.250470
Si Si6 0.117342 0.200054 0.434189
Si Si7 0.123171 0.217878 0.176069
O O1 0.362812 0.355202 0.016506
O O2 0.420499 0.263217 0.148718
O O3 0.191677 0.266019 0.395252
O O4 0.094823 0.640750 0.527511
O O5 0.623241 0.624055 0.423958
O O6 0.500000 0.000000 0.500000
O O7 0.575248 0.723627 0.274971
O O8 0.833133 0.666251 0.983670
O O9 0.096810 0.665806 0.235998
O O10 0.410541 0.559256 0.791238
O O11 0.486431 0.345167 0.219196
O O12 0.500000 0.500000 0.000000
O O13 0.759895 0.063138 0.703340
O O14 0.742856 0.041069 0.016983
O O15 0.144300 0.251935 0.264844
#
# Coordination Sequence:
#
# PCOD8043050 Si02
#       7
#     2   2   2   2   2   2   2
#     4  11  19  35  59  82 112 140 180 227 273 323
#     4  10  19  36  57  82 110 138 185 229 267 319
#     4  11  19  35  60  84 108 138 186 229 273 313
#     4  11  23  36  52  84 118 142 176 222 277 327
#     4  10  22  34  55  84 113 146 174 222 276 324
#     4  10  20  34  58  84 108 141 183 228 270 317
#     4   9  18  34  58  85 107 138 183 228 269 318
#
# _framework density 18.627818999999999
#
# number of rings (size 3 to 8) (size 9 to 14) (size 15 to 20)
#    0.000    1.714    4.286    1.714    2.000    1.714 
#    0.000    0.714    0.000    0.857    0.000    0.000 
#    0.000    0.000    0.000    0.000    0.000    0.000 
#
# Total GULP energy -173512.515101 kJ/mol
# GULP energy per Si atom -12393.751079 kJ/mol
# Density = 1.858542 g / cm^3
# Si number density = 18.627819 Si / 1000 Ang^3
#
#
#
# Elastic Constant Matrix: (Units=GPa)
#
#
# Indices 1 2 3 4 5 6 
#
# 1 106.3176 36.9168 48.2932 -5.8470 6.4214 8.6715
# 2 36.9168 83.7641 38.4554 -15.3221 8.4142 1.2001
# 3 48.2932 38.4554 71.9613 -5.0519 15.5884 -5.8913
# 4 -5.8470 -15.3221 -5.0519 30.6167 -1.3572 0.5186
# 5 6.4214 8.4142 15.5884 -1.3572 28.6985 0.2519
# 6 8.6715 1.2001 -5.8913 0.5186 0.2519 30.0211
#
#
#
# Elastic Compliance Matrix: (Units=1/GPa)
#
#
# Indices 1 2 3 4 5 6 
#
# 1 0.015092 -0.002149 -0.010073 0.000375 0.002798 -0.006280
# 2 -0.002149 0.017760 -0.007632 0.007237 -0.000223 -0.001710
# 3 -0.010073 -0.007632 0.027640 -0.001804 -0.010684 0.008760
# 4 0.000375 0.007237 -0.001804 0.036103 0.000494 -0.001379
# 5 0.002798 -0.000223 -0.010684 0.000494 0.040140 -0.003241
# 6 -0.006280 -0.001710 0.008760 -0.001379 -0.003241 0.036962
#
#
# Mechanical properties :
#
#
# Convention : Reuss Voigt Hill
#
# Bulk Modulus (GPa) = 48.11742 56.59708 52.35725
# Shear Modulus (GPa) = 22.69296 27.09243 24.89269
#
# Velocity S-wave (km/s) = 3.49410 3.81781 3.65953
# Velocity P-wave (km/s) = 6.49348 7.06281 6.78412
#
# Compressibility (1/GPa) = 0.02078249
#
# Stress axis : x y z
#
# Youngs Moduli (GPa) = 66.26242 56.30617 36.17957
#
# Poissons Ratio (x) = 0.12101 0.36445
# Poissons Ratio (y) = 0.14240 0.27612
# Poissons Ratio (z) = 0.66748 0.42973
#
# Static dielectric constant tensor:
#      x y z
#    x 3.419790 0.072420 0.186900 
#    y 0.072420 3.472220 -0.087930 
#    z 0.186900 -0.087930 3.720540 
# 
# 
# High freq. dielectric constant tensor:
#      x y z
#    x 1.709680 0.021220 0.013180 
#    y 0.021220 1.721080 -0.004300 
#    z 0.013180 -0.004300 1.714990 
# 
# From -- ./inp_files/159507.got.cif
#   From: 2010.06.25/outbox.cif.g09.slc.cpg/sg2_80_cif.got.tgz:159507.got - 2010.06.27 13:26:56.
