data_PCOD8043598
_publ_section_title
;
Structure prediction by ZEFSAII (Michael W. Deem and Ramdas Pophale) SiO2 
 PCOD8043598
Probable space group: P -1
;
_chemical_formula_sum "Si O2"
_cell_formula_units_Z 16
_cell_length_a 15.697724
_cell_length_b 9.105835
_cell_length_c 13.984114
_cell_angle_alpha 126.569900
_cell_angle_beta 45.146399
_cell_angle_gamma 89.144838
_cell_volume 733.920180
_symmetry_space_group_name_H-M "P -1"
_symmetry_group_IT_number 2
_symmetry_cell_setting 'triclinic'
loop_
_space_group_symop_operation_xyz
x,y,z
-x,-y,-z
loop_
_atom_site_type_symbol
_atom_site_label
_atom_site_fract_x
_atom_site_fract_y
_atom_site_fract_z
Si Si1 0.016923 0.178346 0.506535
Si Si2 0.352274 0.894636 0.237413
Si Si3 0.724360 0.614935 0.161389
Si Si4 0.680116 0.165114 0.222623
Si Si5 0.639467 0.795040 0.079871
Si Si6 0.657352 0.358211 0.682280
Si Si7 0.060831 0.981676 0.199919
Si Si8 0.660040 0.077596 0.402893
O O1 0.816606 0.503321 0.770992
O O2 0.146034 0.170005 0.462802
O O3 0.117817 0.032888 0.267468
O O4 0.000000 0.000000 0.500000
O O5 0.315952 0.762260 0.281824
O O6 0.445531 0.949226 0.246033
O O7 0.481693 0.696521 0.965940
O O8 0.542008 0.750187 0.412961
O O9 0.773766 0.760879 0.218808
O O10 0.666259 0.693237 0.126701
O O11 0.897909 0.281688 0.915040
O O12 0.500000 0.500000 0.500000
O O13 0.761538 0.057518 0.225046
O O14 0.837255 0.070556 0.995646
O O15 0.632809 0.020345 0.162468
O O16 0.617364 0.255291 0.593952
O O17 0.839749 0.256888 0.466477
#
# Coordination Sequence:
#
# PCOD8043598 Si02
#       8
#     2   2   2   2   2   2   2   2
#     4  12  21  39  68 102 133 161 211 276 329 380
#     4  11  21  37  66 104 126 160 215 275 329 378
#     4  10  19  36  65  91 120 164 218 267 310 377
#     4  11  26  44  65  89 131 183 216 258 327 390
#     4  11  22  43  68  99 128 167 219 271 322 386
#     4  11  21  36  63  97 131 161 212 273 325 384
#     4  12  23  39  64  96 132 170 214 265 329 385
#     4  10  21  38  61  89 123 170 216 259 317 379
#
# _framework density 21.800737000000002
#
# number of rings (size 3 to 8) (size 9 to 14) (size 15 to 20)
#    0.000    1.000    6.250    1.500    0.000    1.500 
#    0.000    4.375    0.000    0.000    0.000    0.000 
#    0.000    0.000    0.000    0.000    0.000    0.000 
#
# Total GULP energy -198295.152251 kJ/mol
# GULP energy per Si atom -12393.447016 kJ/mol
# Density = 2.175112 g / cm^3
# Si number density = 21.800737 Si / 1000 Ang^3
#
#
#
# Elastic Constant Matrix: (Units=GPa)
#
#
# Indices 1 2 3 4 5 6 
#
# 1 70.3274 26.4060 14.9015 -7.1133 4.1039 9.9876
# 2 26.4060 86.8106 41.9453 -7.9243 7.5812 8.6178
# 3 14.9015 41.9453 98.4309 -20.3303 5.8098 2.3926
# 4 -7.1133 -7.9243 -20.3303 36.0178 -0.9479 9.9729
# 5 4.1039 7.5812 5.8098 -0.9479 44.6142 -2.7624
# 6 9.9876 8.6178 2.3926 9.9729 -2.7624 24.6910
#
#
#
# Elastic Compliance Matrix: (Units=1/GPa)
#
#
# Indices 1 2 3 4 5 6 
#
# 1 0.017355 -0.004153 0.000409 0.004846 -0.001319 -0.007715
# 2 -0.004153 0.016259 -0.006030 0.000345 -0.001821 -0.003754
# 3 0.000409 -0.006030 0.014340 0.007544 -0.000881 -0.002596
# 4 0.004846 0.000345 0.007544 0.038104 -0.001817 -0.018405
# 5 -0.001319 -0.001821 -0.000881 -0.001817 0.023205 0.004584
# 6 -0.007715 -0.003754 -0.002596 -0.018405 0.004584 0.053130
#
#
# Mechanical properties :
#
#
# Convention : Reuss Voigt Hill
#
# Bulk Modulus (GPa) = 35.20431 46.89718 41.05074
# Shear Modulus (GPa) = 26.12187 32.55232 29.33709
#
# Velocity S-wave (km/s) = 3.46527 3.86835 3.67235
# Velocity P-wave (km/s) = 5.67398 6.44288 6.07062
#
# Compressibility (1/GPa) = 0.02840562
#
# Stress axis : x y z
#
# Youngs Moduli (GPa) = 57.62127 61.50306 69.73263
#
# Poissons Ratio (x) = 0.25542 -0.02850
# Poissons Ratio (y) = 0.23930 0.42050
# Poissons Ratio (z) = -0.02355 0.37087
#
# Static dielectric constant tensor:
#      x y z
#    x 3.894370 0.066070 0.260720 
#    y 0.066070 3.732830 -0.042730 
#    z 0.260720 -0.042730 4.209830 
# 
# 
# High freq. dielectric constant tensor:
#      x y z
#    x 1.849980 0.005950 0.021290 
#    y 0.005950 1.822160 -0.009650 
#    z 0.021290 -0.009650 1.868790 
# 
# From -- ./inp_files/530118.got.cif
#   From: 2010.06.25/outbox.cif.g09.slc.cpg/sg2_266_cif.got.tgz:530118.got - 2010.06.27 13:26:56.
