data_PCOD8043308
_publ_section_title
;
Structure prediction by ZEFSAII (Michael W. Deem and Ramdas Pophale) SiO2 
 PCOD8043308
Probable space group: P -1
;
_chemical_formula_sum "Si O2"
_cell_formula_units_Z 16
_cell_length_a 8.182756
_cell_length_b 15.860490
_cell_length_c 15.743491
_cell_angle_alpha 28.232137
_cell_angle_beta 60.230433
_cell_angle_gamma 63.093273
_cell_volume 838.417886
_symmetry_space_group_name_H-M "P -1"
_symmetry_group_IT_number 2
_symmetry_cell_setting 'triclinic'
loop_
_space_group_symop_operation_xyz
x,y,z
-x,-y,-z
loop_
_atom_site_type_symbol
_atom_site_label
_atom_site_fract_x
_atom_site_fract_y
_atom_site_fract_z
Si Si1 0.886005 0.586313 0.831096
Si Si2 0.228666 0.696443 0.755292
Si Si3 0.067585 0.521129 0.276845
Si Si4 0.247373 0.126292 0.781183
Si Si5 0.296475 0.490892 0.524610
Si Si6 0.717951 0.948012 0.493518
Si Si7 0.157955 0.768585 0.178036
Si Si8 0.639184 0.772329 0.510046
O O1 0.913842 0.480340 0.828908
O O2 0.758188 0.767779 0.697122
O O3 0.088211 0.642583 0.764522
O O4 0.774605 0.457166 0.036486
O O5 0.436989 0.715583 0.647420
O O6 0.165643 0.887335 0.645637
O O7 0.095804 0.708594 0.151792
O O8 0.233754 0.403757 0.381313
O O9 0.861447 0.452064 0.415629
O O10 0.296505 0.282377 0.692326
O O11 0.381379 0.126298 0.663694
O O12 0.025479 0.157841 0.787421
O O13 0.291954 0.935591 0.983808
O O14 0.500000 0.500000 0.500000
O O15 0.264261 0.610096 0.342812
O O16 0.761281 0.898001 0.429052
O O17 0.500000 0.000000 0.500000
#
# Coordination Sequence:
#
# PCOD8043308 Si02
#       8
#     2   2   2   2   2   2   2   2
#     4  10  22  38  59  86 116 153 190 235 295 343
#     4  10  22  39  58  83 123 149 188 245 290 336
#     4  10  20  37  61  86 112 153 196 234 282 338
#     4  10  20  37  60  86 111 151 193 234 279 340
#     4  11  22  38  61  84 126 147 182 238 294 342
#     4   9  20  36  58  83 110 150 193 235 282 330
#     4  10  20  38  61  84 115 148 193 238 277 336
#     4  10  19  36  61  85 112 151 199 233 282 339
#
# _framework density 19.083562000000001
#
# number of rings (size 3 to 8) (size 9 to 14) (size 15 to 20)
#    0.000    2.000    2.500    1.125    3.500    5.000 
#    2.250    0.000    2.750    0.000    0.000    0.000 
#    0.000    0.000    0.000    0.000    0.000    0.000 
#
# Total GULP energy -198218.709082 kJ/mol
# GULP energy per Si atom -12388.669318 kJ/mol
# Density = 1.904013 g / cm^3
# Si number density = 19.083562 Si / 1000 Ang^3
#
#
#
# Elastic Constant Matrix: (Units=GPa)
#
#
# Indices 1 2 3 4 5 6 
#
# 1 92.7617 37.2986 53.1769 5.1800 -2.4370 -0.3598
# 2 37.2986 96.4613 63.4513 3.1270 -0.4642 2.5699
# 3 53.1769 63.4513 128.9734 -2.7409 -8.7666 2.2423
# 4 5.1800 3.1270 -2.7409 34.1830 -3.1329 -0.7488
# 5 -2.4370 -0.4642 -8.7666 -3.1329 24.1917 1.1342
# 6 -0.3598 2.5699 2.2423 -0.7488 1.1342 26.0740
#
#
#
# Elastic Compliance Matrix: (Units=1/GPa)
#
#
# Indices 1 2 3 4 5 6 
#
# 1 0.014730 -0.002319 -0.005050 -0.002476 -0.000750 0.000828
# 2 -0.002319 0.016039 -0.007145 -0.001959 -0.002725 -0.000936
# 3 -0.005050 -0.007145 0.013748 0.002942 0.004749 -0.000670
# 4 -0.002476 -0.001959 0.002942 0.030488 0.004700 0.000577
# 5 -0.000750 -0.002725 0.004749 0.004700 0.043628 -0.001913
# 6 0.000828 -0.000936 -0.000670 0.000577 -0.001913 0.038613
#
#
# Mechanical properties :
#
#
# Convention : Reuss Voigt Hill
#
# Bulk Modulus (GPa) = 64.56711 69.56113 67.06412
# Shear Modulus (GPa) = 26.11827 27.84104 26.97965
#
# Velocity S-wave (km/s) = 3.70351 3.82370 3.76408
# Velocity P-wave (km/s) = 7.22463 7.48493 7.35593
#
# Compressibility (1/GPa) = 0.01548776
#
# Stress axis : x y z
#
# Youngs Moduli (GPa) = 67.89040 62.34874 72.73789
#
# Poissons Ratio (x) = 0.14458 0.36735
# Poissons Ratio (y) = 0.15743 0.51972
# Poissons Ratio (z) = 0.34287 0.44549
#
# Static dielectric constant tensor:
#      x y z
#    x 3.372160 0.048910 -0.164460 
#    y 0.048910 4.278010 -0.086780 
#    z -0.164460 -0.086780 4.051040 
# 
# 
# High freq. dielectric constant tensor:
#      x y z
#    x 1.724380 0.004620 0.000250 
#    y 0.004620 1.753890 -0.008110 
#    z 0.000250 -0.008110 1.738900 
# 
# From -- ./inp_files/222087.got.cif
#   From: 2010.06.25/outbox.cif.g09.slc.cpg/sg2_112_cif.got.tgz:222087.got - 2010.06.27 13:26:56.
