data_PCOD8043800
_publ_section_title
;
Structure prediction by ZEFSAII (Michael W. Deem and Ramdas Pophale) SiO2 
 PCOD8043800
Probable space group: P -1
;
_chemical_formula_sum "Si O2"
_cell_formula_units_Z 16
_cell_length_a 9.549327
_cell_length_b 16.299183
_cell_length_c 15.304751
_cell_angle_alpha 153.549567
_cell_angle_beta 100.062124
_cell_angle_gamma 98.532653
_cell_volume 751.193239
_symmetry_space_group_name_H-M "P -1"
_symmetry_group_IT_number 2
_symmetry_cell_setting 'triclinic'
loop_
_space_group_symop_operation_xyz
x,y,z
-x,-y,-z
loop_
_atom_site_type_symbol
_atom_site_label
_atom_site_fract_x
_atom_site_fract_y
_atom_site_fract_z
Si Si1 0.314557 0.209784 0.959856
Si Si2 0.031276 0.743225 0.215358
Si Si3 0.274874 0.727569 0.721323
Si Si4 0.236760 0.932635 0.063983
Si Si5 0.317139 0.290024 0.841453
Si Si6 0.385462 0.444351 0.522206
Si Si7 0.967857 0.733884 0.006653
Si Si8 0.318424 0.794743 0.598406
O O1 0.468857 0.401325 0.233638
O O2 0.104995 0.120598 0.873118
O O3 0.391795 0.345819 0.003062
O O4 0.278403 0.960709 0.716052
O O5 0.834268 0.677559 0.156759
O O6 0.216017 0.001849 0.532693
O O7 0.000000 0.500000 0.000000
O O8 0.081547 0.810520 0.182739
O O9 0.259019 0.512112 0.556506
O O10 0.199567 0.662517 0.551420
O O11 0.500000 0.000000 0.000000
O O12 0.149381 0.747700 0.792159
O O13 0.236576 0.147017 0.244938
O O14 0.451081 0.040583 0.209502
O O15 0.108445 0.789312 0.998728
O O16 0.500000 0.500000 0.000000
O O17 0.500000 0.500000 0.500000
O O18 0.771826 0.429492 0.694439
#
# Coordination Sequence:
#
# PCOD8043800 Si02
#       8
#     2   2   2   2   2   2   2   2
#     4  11  22  40  63  91 124 162 200 257 308 361
#     4  10  23  45  63  90 131 161 200 268 318 371
#     4  10  19  37  59  86 120 165 202 248 299 357
#     4  11  23  37  61  89 119 164 205 248 305 362
#     4  10  24  42  66  95 124 163 211 257 318 378
#     4  12  19  37  65  86 123 165 200 248 306 354
#     4  11  25  39  62  94 120 157 209 254 306 372
#     4  11  21  41  62  85 126 161 207 251 302 364
#
# _framework density 21.299446
#
# number of rings (size 3 to 8) (size 9 to 14) (size 15 to 20)
#    0.000    1.250    6.250    0.750    1.750    3.000 
#    0.000    4.375    0.000    0.000    0.000    0.000 
#    0.000    0.000    0.000    0.000    0.000    0.000 
#
# Total GULP energy -198395.576070 kJ/mol
# GULP energy per Si atom -12399.723504 kJ/mol
# Density = 2.125097 g / cm^3
# Si number density = 21.299446 Si / 1000 Ang^3
#
#
#
# Elastic Constant Matrix: (Units=GPa)
#
#
# Indices 1 2 3 4 5 6 
#
# 1 107.7766 60.4196 32.6666 18.5890 -16.4263 1.7482
# 2 60.4196 120.8568 38.7754 -3.4798 -3.2806 6.0589
# 3 32.6666 38.7754 77.1469 -1.6212 -22.5541 -3.6606
# 4 18.5890 -3.4798 -1.6212 33.7530 -5.7316 -13.0738
# 5 -16.4263 -3.2806 -22.5541 -5.7316 29.2651 10.8835
# 6 1.7482 6.0589 -3.6606 -13.0738 10.8835 49.7143
#
#
#
# Elastic Compliance Matrix: (Units=1/GPa)
#
#
# Indices 1 2 3 4 5 6 
#
# 1 0.017269 -0.008008 -0.001694 -0.010841 0.006898 -0.004117
# 2 -0.008008 0.013911 -0.005337 0.004835 -0.006426 0.000871
# 3 -0.001694 -0.005337 0.020943 0.003975 0.015397 -0.000073
# 4 -0.010841 0.004835 0.003975 0.040590 0.001599 0.010409
# 5 0.006898 -0.006426 0.015397 0.001599 0.053041 -0.009517
# 6 -0.004117 0.000871 -0.000073 0.010409 -0.009517 0.024969
#
#
# Mechanical properties :
#
#
# Convention : Reuss Voigt Hill
#
# Bulk Modulus (GPa) = 45.35940 63.27816 54.31878
# Shear Modulus (GPa) = 24.02117 34.14107 29.08112
#
# Velocity S-wave (km/s) = 3.36189 4.00798 3.69907
# Velocity P-wave (km/s) = 6.03424 7.15485 6.61830
#
# Compressibility (1/GPa) = 0.02204614
#
# Stress axis : x y z
#
# Youngs Moduli (GPa) = 57.90622 71.88463 47.74814
#
# Poissons Ratio (x) = 0.57569 0.08087
# Poissons Ratio (y) = 0.46374 0.25481
# Poissons Ratio (z) = 0.09808 0.38361
#
# Static dielectric constant tensor:
#      x y z
#    x 3.861230 -0.107490 -0.424170 
#    y -0.107490 4.010000 -0.131360 
#    z -0.424170 -0.131360 3.958250 
# 
# 
# High freq. dielectric constant tensor:
#      x y z
#    x 1.834670 0.000920 -0.024730 
#    y 0.000920 1.840020 -0.010380 
#    z -0.024730 -0.010380 1.838430 
# 
# From -- ./inp_files/505932.got.cif
#   From: 2010.06.25/outbox.cif.g09.slc.cpg/sg2_253_cif.got.tgz:505932.got - 2010.06.27 13:26:56.
