data_PCOD8043618
_publ_section_title
;
Structure prediction by ZEFSAII (Michael W. Deem and Ramdas Pophale) SiO2 
 PCOD8043618
Probable space group: P -1
;
_chemical_formula_sum "Si O2"
_cell_formula_units_Z 16
_cell_length_a 12.294120
_cell_length_b 9.286318
_cell_length_c 14.822077
_cell_angle_alpha 57.535369
_cell_angle_beta 124.400547
_cell_angle_gamma 143.683443
_cell_volume 815.324209
_symmetry_space_group_name_H-M "P -1"
_symmetry_group_IT_number 2
_symmetry_cell_setting 'triclinic'
loop_
_space_group_symop_operation_xyz
x,y,z
-x,-y,-z
loop_
_atom_site_type_symbol
_atom_site_label
_atom_site_fract_x
_atom_site_fract_y
_atom_site_fract_z
Si Si1 0.467534 0.190622 0.826612
Si Si2 0.966872 0.294103 0.606436
Si Si3 0.672572 0.313541 0.055873
Si Si4 0.388894 0.768542 0.305809
Si Si5 0.544833 0.803785 0.839494
Si Si6 0.543661 0.851403 0.534982
Si Si7 0.665276 0.571963 0.281409
Si Si8 0.927699 0.285842 0.804223
O O1 0.563808 0.298771 0.737146
O O2 0.329430 0.221389 0.768389
O O3 0.339413 0.902403 0.872142
O O4 0.638978 0.345707 0.927582
O O5 0.970379 0.320721 0.706567
O O6 0.000000 0.500000 0.500000
O O7 0.123713 0.302585 0.649165
O O8 0.767716 0.033168 0.567230
O O9 0.508539 0.250581 0.061208
O O10 0.881318 0.566363 0.099867
O O11 0.439452 0.712876 0.438436
O O12 0.165588 0.615333 0.251268
O O13 0.515928 0.062579 0.268822
O O14 0.419026 0.543778 0.818621
O O15 0.772788 0.996418 0.861607
O O16 0.477087 0.649793 0.641860
O O17 0.500000 0.000000 0.500000
#
# Coordination Sequence:
#
# PCOD8043618 Si02
#       8
#     2   2   2   2   2   2   2   2
#     4  10  25  42  60  88 127 162 198 256 307 350
#     4  12  21  33  64  98 114 162 200 245 302 357
#     4  10  21  45  64  82 119 171 206 242 305 362
#     4   9  19  39  61  87 117 161 200 238 299 368
#     4   9  18  36  63  87 117 153 202 250 292 354
#     4  12  19  38  64  90 123 158 198 248 301 358
#     4  12  22  39  60  96 129 149 203 258 297 357
#     4  10  19  36  66  91 110 157 215 240 292 371
#
# _framework density 19.624095000000001
#
# number of rings (size 3 to 8) (size 9 to 14) (size 15 to 20)
#    0.750    0.750    6.250    0.000    1.750    1.500 
#    2.250    1.250    0.000    0.000    0.000    0.000 
#    0.000    0.000    0.000    0.000    0.000    0.000 
#
# Total GULP energy -198328.485160 kJ/mol
# GULP energy per Si atom -12395.530322 kJ/mol
# Density = 1.957943 g / cm^3
# Si number density = 19.624095 Si / 1000 Ang^3
#
#
#
# Elastic Constant Matrix: (Units=GPa)
#
#
# Indices 1 2 3 4 5 6 
#
# 1 125.3359 36.7157 48.0688 0.4299 0.5808 5.1040
# 2 36.7157 47.4065 26.9460 9.7176 -0.5833 22.8549
# 3 48.0688 26.9460 81.7844 17.4237 -10.1867 -1.7401
# 4 0.4299 9.7176 17.4237 26.3234 -3.8231 6.2799
# 5 0.5808 -0.5833 -10.1867 -3.8231 32.7272 6.8024
# 6 5.1040 22.8549 -1.7401 6.2799 6.8024 35.2721
#
#
#
# Elastic Compliance Matrix: (Units=1/GPa)
#
#
# Indices 1 2 3 4 5 6 
#
# 1 0.012900 -0.009483 -0.005970 0.006124 -0.002231 0.003323
# 2 -0.009483 0.050737 -0.010626 -0.003258 0.004085 -0.032235
# 3 -0.005970 -0.010626 0.022638 -0.013010 0.003249 0.010556
# 4 0.006124 -0.003258 -0.013010 0.050384 0.003555 -0.009073
# 5 -0.002231 0.004085 0.003249 0.003555 0.034040 -0.009361
# 6 0.003323 -0.032235 0.010556 -0.009073 -0.009361 0.052699
#
#
# Mechanical properties :
#
#
# Convention : Reuss Voigt Hill
#
# Bulk Modulus (GPa) = 29.30979 53.10977 41.20978
# Shear Modulus (GPa) = 17.42592 28.38427 22.90510
#
# Velocity S-wave (km/s) = 2.98314 3.80728 3.42013
# Velocity P-wave (km/s) = 5.18011 6.81539 6.05322
#
# Compressibility (1/GPa) = 0.03411829
#
# Stress axis : x y z
#
# Youngs Moduli (GPa) = 77.52036 19.70935 44.17328
#
# Poissons Ratio (x) = 0.18689 0.26370
# Poissons Ratio (y) = 0.73509 0.46940
# Poissons Ratio (z) = 0.46277 0.20944
#
# Static dielectric constant tensor:
#      x y z
#    x 3.645600 0.067950 -0.179740 
#    y 0.067950 3.450340 0.088030 
#    z -0.179740 0.088030 3.526290 
# 
# 
# High freq. dielectric constant tensor:
#      x y z
#    x 1.763120 0.010190 -0.016640 
#    y 0.010190 1.737450 0.010140 
#    z -0.016640 0.010140 1.762420 
# 
# From -- ./inp_files/515238.got.cif
#   From: 2010.06.25/outbox.cif.g09.slc.cpg/sg2_258_cif.got.tgz:515238.got - 2010.06.27 13:26:56.
