data_PCOD8043826
_publ_section_title
;
Structure prediction by ZEFSAII (Michael W. Deem and Ramdas Pophale) SiO2 
 PCOD8043826
Probable space group: P -1
;
_chemical_formula_sum "Si O2"
_cell_formula_units_Z 16
_cell_length_a 15.445869
_cell_length_b 11.550523
_cell_length_c 9.102095
_cell_angle_alpha 62.848762
_cell_angle_beta 135.170791
_cell_angle_gamma 88.252373
_cell_volume 840.824297
_symmetry_space_group_name_H-M "P -1"
_symmetry_group_IT_number 2
_symmetry_cell_setting 'triclinic'
loop_
_space_group_symop_operation_xyz
x,y,z
-x,-y,-z
loop_
_atom_site_type_symbol
_atom_site_label
_atom_site_fract_x
_atom_site_fract_y
_atom_site_fract_z
Si Si1 0.060389 0.789942 0.090732
Si Si2 0.106126 0.277030 0.841651
Si Si3 0.609071 0.439108 0.030060
Si Si4 0.528471 0.338519 0.535048
Si Si5 0.613521 0.048826 0.619272
Si Si6 0.144975 0.537585 0.782362
Si Si7 0.246490 0.600311 0.157537
Si Si8 0.227343 0.879214 0.451482
O O1 0.138871 0.659017 0.133557
O O2 0.179202 0.815627 0.293616
O O3 0.008245 0.713943 0.186157
O O4 0.918148 0.956239 0.761087
O O5 0.178935 0.364139 0.948398
O O6 0.020717 0.355903 0.542130
O O7 0.230452 0.099238 0.050002
O O8 0.730373 0.482397 0.168599
O O9 0.701201 0.246784 0.255769
O O10 0.500000 0.500000 0.000000
O O11 0.517449 0.523109 0.722619
O O12 0.549055 0.185178 0.582487
O O13 0.388981 0.415672 0.436847
O O14 0.680091 0.297975 0.818307
O O15 0.644817 0.101084 0.470352
O O16 0.500000 0.000000 0.500000
O O17 0.148802 0.623157 0.884235
#
# Coordination Sequence:
#
# PCOD8043826 Si02
#       8
#     2   2   2   2   2   2   2   2
#     4  10  19  37  60  81 114 151 190 237 279 338
#     4  10  22  38  60  86 114 150 193 240 278 336
#     4  11  18  32  57  84 112 146 188 235 276 329
#     4  10  21  34  54  87 118 147 189 230 289 341
#     4  11  20  36  58  84 115 149 188 239 286 334
#     4  10  22  38  56  89 116 146 194 235 288 335
#     4  10  20  37  56  83 119 151 185 235 287 341
#     4  10  20  33  58  86 111 144 199 234 277 334
#
# _framework density 19.028943999999999
#
# number of rings (size 3 to 8) (size 9 to 14) (size 15 to 20)
#    0.000    1.750    3.750    1.500    0.000    0.500 
#    0.000    6.875    0.000    0.000    0.000   13.125 
#    0.000    0.000    0.000    0.000    0.000    0.000 
#
# Total GULP energy -198245.931834 kJ/mol
# GULP energy per Si atom -12390.370740 kJ/mol
# Density = 1.898563 g / cm^3
# Si number density = 19.028944 Si / 1000 Ang^3
#
#
#
# Elastic Constant Matrix: (Units=GPa)
#
#
# Indices 1 2 3 4 5 6 
#
# 1 100.5625 56.8368 25.6883 -5.8710 16.2175 0.7358
# 2 56.8368 137.4022 48.0449 -1.1182 4.8283 -3.4495
# 3 25.6883 48.0449 70.3561 -3.6681 -0.2568 -0.6483
# 4 -5.8710 -1.1182 -3.6681 32.1563 4.3826 5.4321
# 5 16.2175 4.8283 -0.2568 4.3826 21.3876 -5.6622
# 6 0.7358 -3.4495 -0.6483 5.4321 -5.6622 43.4273
#
#
#
# Elastic Compliance Matrix: (Units=1/GPa)
#
#
# Indices 1 2 3 4 5 6 
#
# 1 0.015846 -0.005500 -0.001858 0.004699 -0.012541 -0.002956
# 2 -0.005500 0.011586 -0.005978 -0.001833 0.002242 0.001446
# 3 -0.001858 -0.005978 0.019049 0.001245 0.002743 0.000043
# 4 0.004699 -0.001833 0.001245 0.034678 -0.011852 -0.006090
# 5 -0.012541 0.002242 0.002743 -0.011852 0.060828 0.009845
# 6 -0.002956 0.001446 0.000043 -0.006090 0.009845 0.025238
#
#
# Mechanical properties :
#
#
# Convention : Reuss Voigt Hill
#
# Bulk Modulus (GPa) = 50.48055 63.27343 56.87699
# Shear Modulus (GPa) = 24.93782 31.24429 28.09106
#
# Velocity S-wave (km/s) = 3.62404 4.05648 3.84634
# Velocity P-wave (km/s) = 6.64059 7.43393 7.04843
#
# Compressibility (1/GPa) = 0.01980961
#
# Stress axis : x y z
#
# Youngs Moduli (GPa) = 63.10826 86.31165 52.49642
#
# Poissons Ratio (x) = 0.47475 0.09751
# Poissons Ratio (y) = 0.34712 0.31380
# Poissons Ratio (z) = 0.11722 0.51593
#
# Static dielectric constant tensor:
#      x y z
#    x 3.576950 0.087890 0.198200 
#    y 0.087890 3.557740 -0.147660 
#    z 0.198200 -0.147660 3.612440 
# 
# 
# High freq. dielectric constant tensor:
#      x y z
#    x 1.734620 0.006550 0.026070 
#    y 0.006550 1.730930 -0.009090 
#    z 0.026070 -0.009090 1.732590 
# 
# From -- ./inp_files/302660.got.cif
#   From: 2010.06.25/outbox.cif.g09.slc.cpg/sg2_152_cif.got.tgz:302660.got - 2010.06.27 13:26:56.
