data_PCOD8043060
_publ_section_title
;
Structure prediction by ZEFSAII (Michael W. Deem and Ramdas Pophale) SiO2 
 PCOD8043060
Probable space group: P -1
;
_chemical_formula_sum "Si O2"
_cell_formula_units_Z 16
_cell_length_a 11.881822
_cell_length_b 11.881858
_cell_length_c 17.667300
_cell_angle_alpha 32.075837
_cell_angle_beta 41.238886
_cell_angle_gamma 52.007122
_cell_volume 871.472526
_symmetry_space_group_name_H-M "P -1"
_symmetry_group_IT_number 2
_symmetry_cell_setting 'triclinic'
loop_
_space_group_symop_operation_xyz
x,y,z
-x,-y,-z
loop_
_atom_site_type_symbol
_atom_site_label
_atom_site_fract_x
_atom_site_fract_y
_atom_site_fract_z
Si Si1 0.762522 0.873228 0.431178
Si Si2 0.090677 0.784316 0.577865
Si Si3 0.890411 0.509263 0.125537
Si Si4 0.831194 0.650416 0.672962
Si Si5 0.008108 0.916195 0.923800
Si Si6 0.585057 0.234491 0.390457
Si Si7 0.408688 0.027972 0.317573
Si Si8 0.769286 0.176884 0.997888
O O1 0.857727 0.770624 0.511580
O O2 0.595116 0.717322 0.584734
O O3 0.705326 0.109718 0.343761
O O4 0.895485 0.898818 0.280329
O O5 0.049457 0.664443 0.746183
O O6 0.017142 0.647657 0.621793
O O7 0.293205 0.848270 0.432051
O O8 0.000000 0.000000 0.500000
O O9 0.690210 0.451434 0.238875
O O10 0.911063 0.741235 0.019308
O O11 0.000000 0.500000 0.000000
O O12 0.696222 0.765496 0.728378
O O13 0.767845 0.408269 0.829626
O O14 0.144357 0.810542 0.969866
O O15 0.863656 0.018648 0.987006
O O16 0.532130 0.076089 0.575671
O O17 0.572779 0.092219 0.148523
#
# Coordination Sequence:
#
# PCOD8043060 Si02
#       8
#     2   2   2   2   2   2   2   2
#     4  10  19  36  57  84 112 148 184 240 277 334
#     4   9  19  35  54  88 114 141 182 235 294 324
#     4  11  20  35  59  86 110 147 189 238 275 333
#     4  10  20  35  60  85 111 147 193 233 286 329
#     4  11  23  37  58  80 120 154 189 231 278 342
#     4   9  18  33  57  86 112 136 192 235 286 322
#     4   9  18  35  59  81 114 143 187 241 278 332
#     4  11  22  39  54  84 117 155 190 230 279 339
#
# _framework density 18.359729000000002
#
# number of rings (size 3 to 8) (size 9 to 14) (size 15 to 20)
#    0.000    2.000    3.750    1.125    0.000    0.500 
#    4.500    3.750    0.000    1.500    0.000    0.000 
#    0.000    0.000    0.000    0.000    0.000    0.000 
#
# Total GULP energy -198366.084716 kJ/mol
# GULP energy per Si atom -12397.880295 kJ/mol
# Density = 1.831794 g / cm^3
# Si number density = 18.359729 Si / 1000 Ang^3
#
#
#
# Elastic Constant Matrix: (Units=GPa)
#
#
# Indices 1 2 3 4 5 6 
#
# 1 112.5228 28.8567 46.9836 0.1499 -10.9532 10.6568
# 2 28.8567 55.3918 38.0473 1.7740 -6.1901 7.4652
# 3 46.9836 38.0473 101.9231 -3.9642 -9.3363 7.0148
# 4 0.1499 1.7740 -3.9642 14.5075 1.7579 0.6720
# 5 -10.9532 -6.1901 -9.3363 1.7579 32.6947 -3.6403
# 6 10.6568 7.4652 7.0148 0.6720 -3.6403 20.3964
#
#
#
# Elastic Compliance Matrix: (Units=1/GPa)
#
#
# Indices 1 2 3 4 5 6 
#
# 1 0.011776 -0.002628 -0.004072 -0.000993 0.001959 -0.003408
# 2 -0.002628 0.026096 -0.008270 -0.005371 0.001442 -0.004900
# 3 -0.004072 -0.008270 0.015072 0.005038 0.001103 0.000002
# 4 -0.000993 -0.005371 0.005038 0.071568 -0.004018 -0.002323
# 5 0.001959 0.001442 0.001103 -0.004018 0.032492 0.004001
# 6 -0.003408 -0.004900 0.000002 -0.002323 0.004001 0.053392
#
#
# Mechanical properties :
#
#
# Convention : Reuss Voigt Hill
#
# Bulk Modulus (GPa) = 43.46837 55.29030 49.37933
# Shear Modulus (GPa) = 20.16092 23.91639 22.03865
#
# Velocity S-wave (km/s) = 3.31736 3.61315 3.46841
# Velocity P-wave (km/s) = 6.19682 6.89832 6.55696
#
# Compressibility (1/GPa) = 0.02300523
#
# Stress axis : x y z
#
# Youngs Moduli (GPa) = 84.91812 38.32002 66.34645
#
# Poissons Ratio (x) = 0.10070 0.27017
# Poissons Ratio (y) = 0.22315 0.54867
# Poissons Ratio (z) = 0.34579 0.31690
#
# Static dielectric constant tensor:
#      x y z
#    x 3.877100 0.137210 -0.227760 
#    y 0.137210 2.979980 -0.022360 
#    z -0.227760 -0.022360 3.434620 
# 
# 
# High freq. dielectric constant tensor:
#      x y z
#    x 1.723270 0.007010 -0.008090 
#    y 0.007010 1.666960 -0.000230 
#    z -0.008090 -0.000230 1.720030 
# 
# From -- ./inp_files/181589.got.cif
#   From: 2010.06.25/outbox.cif.g09.slc.cpg/sg2_91_cif.got.tgz:181589.got - 2010.06.27 13:26:56.
