data_PCOD8043376
_publ_section_title
;
Structure prediction by ZEFSAII (Michael W. Deem and Ramdas Pophale) SiO2 
 PCOD8043376
Probable space group: P -1
;
_chemical_formula_sum "Si O2"
_cell_formula_units_Z 14
_cell_length_a 8.228425
_cell_length_b 11.234348
_cell_length_c 8.494260
_cell_angle_alpha 125.390856
_cell_angle_beta 88.209855
_cell_angle_gamma 101.110968
_cell_volume 624.948585
_symmetry_space_group_name_H-M "P -1"
_symmetry_group_IT_number 2
_symmetry_cell_setting 'triclinic'
loop_
_space_group_symop_operation_xyz
x,y,z
-x,-y,-z
loop_
_atom_site_type_symbol
_atom_site_label
_atom_site_fract_x
_atom_site_fract_y
_atom_site_fract_z
Si Si1 0.332758 0.518007 0.233849
Si Si2 0.417148 0.326563 0.345780
Si Si3 0.031728 0.482883 0.805655
Si Si4 0.321738 0.761821 0.922489
Si Si5 0.449449 0.273222 0.837242
Si Si6 0.211254 0.220078 0.549256
Si Si7 0.165437 0.043384 0.125027
O O1 0.410268 0.485476 0.379344
O O2 0.415836 0.671402 0.263016
O O3 0.139585 0.511657 0.274344
O O4 0.366087 0.396978 0.015258
O O5 0.368744 0.323712 0.529421
O O6 0.275850 0.196131 0.165627
O O7 0.592037 0.280050 0.271612
O O8 0.077505 0.322636 0.654812
O O9 0.175974 0.620535 0.855667
O O10 0.000000 0.500000 0.000000
O O11 0.456585 0.802869 0.092118
O O12 0.258506 0.909580 0.003732
O O13 0.289938 0.170478 0.671764
O O14 0.130405 0.073957 0.335505
O O15 0.000000 0.000000 0.000000
#
# Coordination Sequence:
#
# PCOD8043376 Si02
#       7
#     2   2   2   2   2   2   2
#     4  10  19  36  62  90 132 164 198 261 312 366
#     4   9  22  40  64  91 123 167 212 251 311 372
#     4  12  21  38  64  97 129 162 208 256 319 363
#     4  11  22  40  70  87 125 176 201 257 318 369
#     4  10  19  36  61  94 125 162 208 253 312 366
#     4  10  23  40  62  97 128 159 214 259 307 377
#     4  10  23  46  63  90 128 166 209 260 316 371
#
# _framework density 22.401844000000001
#
# number of rings (size 3 to 8) (size 9 to 14) (size 15 to 20)
#    0.857    0.857    2.857    3.000    0.000    3.429 
#    2.571    0.714    0.000    0.000    0.000    0.000 
#    0.000    0.000    0.000    0.000    0.000    0.000 
#
# Total GULP energy -173447.525254 kJ/mol
# GULP energy per Si atom -12389.108947 kJ/mol
# Density = 2.235086 g / cm^3
# Si number density = 22.401844 Si / 1000 Ang^3
#
#
#
# Elastic Constant Matrix: (Units=GPa)
#
#
# Indices 1 2 3 4 5 6 
#
# 1 127.9970 26.4864 43.7015 -4.3743 -9.5093 -28.8273
# 2 26.4864 43.5512 0.4694 8.6598 -6.4821 -19.6997
# 3 43.7015 0.4694 92.8568 -3.6321 -5.5653 -18.1133
# 4 -4.3743 8.6598 -3.6321 33.9909 -5.1902 0.3546
# 5 -9.5093 -6.4821 -5.5653 -5.1902 47.4369 -3.9148
# 6 -28.8273 -19.6997 -18.1133 0.3546 -3.9148 45.0061
#
#
#
# Elastic Compliance Matrix: (Units=1/GPa)
#
#
# Indices 1 2 3 4 5 6 
#
# 1 0.011482 -0.005860 -0.004583 0.002679 0.001509 0.003055
# 2 -0.005860 0.035330 0.005302 -0.008649 0.004509 0.014305
# 3 -0.004583 0.005302 0.014014 -0.000214 0.001855 0.005188
# 4 0.002679 -0.008649 -0.000214 0.032379 0.002693 -0.002177
# 5 0.001509 0.004509 0.001855 0.002693 0.022979 0.005664
# 6 0.003055 0.014305 0.005188 -0.002177 0.005664 0.033036
#
#
# Mechanical properties :
#
#
# Convention : Reuss Voigt Hill
#
# Bulk Modulus (GPa) = 19.78495 45.07996 32.43246
# Shear Modulus (GPa) = 28.35293 38.20328 33.27811
#
# Velocity S-wave (km/s) = 3.56146 4.13408 3.85841
# Velocity P-wave (km/s) = 5.07573 6.55397 5.86164
#
# Compressibility (1/GPa) = 0.05054348
#
# Stress axis : x y z
#
# Youngs Moduli (GPa) = 87.09582 28.30485 71.35631
#
# Poissons Ratio (x) = 0.16586 0.32702
# Poissons Ratio (y) = 0.51035 -0.37830
# Poissons Ratio (z) = 0.39915 -0.15006
#
# Static dielectric constant tensor:
#      x y z
#    x 3.392890 -0.485160 0.423860 
#    y -0.485160 3.720850 -0.103480 
#    z 0.423860 -0.103480 4.202340 
# 
# 
# High freq. dielectric constant tensor:
#      x y z
#    x 1.896700 -0.002300 0.002930 
#    y -0.002300 1.854530 -0.011180 
#    z 0.002930 -0.011180 1.895280 
# 
# From -- ./inp_files/172915.got.cif
#   From: 2010.06.25/outbox.cif.g09.slc.cpg/sg2_87_cif.got.tgz:172915.got - 2010.06.27 13:26:56.
