data_PCOD8043617
_publ_section_title
;
Structure prediction by ZEFSAII (Michael W. Deem and Ramdas Pophale) SiO2 
 PCOD8043617
Probable space group: P -1
;
_chemical_formula_sum "Si O2"
_cell_formula_units_Z 16
_cell_length_a 15.860685
_cell_length_b 11.845663
_cell_length_c 10.820145
_cell_angle_alpha 96.193139
_cell_angle_beta 23.852925
_cell_angle_gamma 92.783168
_cell_volume 810.910902
_symmetry_space_group_name_H-M "P -1"
_symmetry_group_IT_number 2
_symmetry_cell_setting 'triclinic'
loop_
_space_group_symop_operation_xyz
x,y,z
-x,-y,-z
loop_
_atom_site_type_symbol
_atom_site_label
_atom_site_fract_x
_atom_site_fract_y
_atom_site_fract_z
Si Si1 0.127946 0.258870 0.849518
Si Si2 0.474996 0.221826 0.738297
Si Si3 0.875237 0.083126 0.079208
Si Si4 0.318641 0.727901 0.280161
Si Si5 0.421856 0.362737 0.303808
Si Si6 0.616566 0.534004 0.225746
Si Si7 0.925383 0.454210 0.300926
Si Si8 0.894610 0.872582 0.884371
O O1 0.352072 0.282293 0.497424
O O2 0.171459 0.186337 0.907343
O O3 0.002328 0.192942 0.908104
O O4 0.982962 0.377414 0.092202
O O5 0.643610 0.124919 0.442977
O O6 0.529164 0.249008 0.809037
O O7 0.465104 0.335824 0.683153
O O8 0.254574 0.168127 0.027100
O O9 0.863078 0.010926 0.960066
O O10 0.000000 0.000000 0.000000
O O11 0.214359 0.612042 0.427068
O O12 0.136896 0.834167 0.521296
O O13 0.454510 0.717469 0.972987
O O14 0.569548 0.452343 0.166823
O O15 0.206344 0.426782 0.544714
O O16 0.500000 0.500000 0.500000
O O17 0.866234 0.518298 0.906220
#
# Coordination Sequence:
#
# PCOD8043617 Si02
#       8
#     2   2   2   2   2   2   2   2
#     4  10  19  38  59  88 114 151 195 246 286 344
#     4  12  20  37  64  86 120 150 196 242 292 345
#     4  10  19  36  66  90 108 149 201 251 291 338
#     4  11  23  39  56  86 121 160 195 233 289 359
#     4  12  24  37  58  85 125 159 190 239 293 341
#     4  12  24  35  61  93 118 154 193 243 288 342
#     4  11  21  38  58  82 120 156 200 228 286 348
#     4  10  21  40  62  87 114 147 202 247 289 344
#
# _framework density 19.730898
#
# number of rings (size 3 to 8) (size 9 to 14) (size 15 to 20)
#    0.000    1.000    8.750    1.125    1.750    1.500 
#    0.000    0.625    0.000    0.750    0.000    0.000 
#    0.000    0.000    0.000    0.000    0.000    0.000 
#
# Total GULP energy -198407.626500 kJ/mol
# GULP energy per Si atom -12400.476656 kJ/mol
# Density = 1.968599 g / cm^3
# Si number density = 19.730898 Si / 1000 Ang^3
#
#
#
# Elastic Constant Matrix: (Units=GPa)
#
#
# Indices 1 2 3 4 5 6 
#
# 1 77.8121 32.3029 53.6913 11.2815 -20.9120 18.8301
# 2 32.3029 80.6187 46.0894 14.0302 -3.6217 20.1343
# 3 53.6913 46.0894 114.4527 8.4020 2.1309 10.8645
# 4 11.2815 14.0302 8.4020 28.8079 6.3216 -6.2592
# 5 -20.9120 -3.6217 2.1309 6.3216 37.5025 -3.8297
# 6 18.8301 20.1343 10.8645 -6.2592 -3.8297 24.9188
#
#
#
# Elastic Compliance Matrix: (Units=1/GPa)
#
#
# Indices 1 2 3 4 5 6 
#
# 1 0.039940 0.007534 -0.017289 -0.026664 0.025254 -0.031547
# 2 0.007534 0.025193 -0.009980 -0.019562 0.007905 -0.025396
# 3 -0.017289 -0.009980 0.018898 0.011844 -0.012247 0.013981
# 4 -0.026664 -0.019562 0.011844 0.066003 -0.024097 0.043666
# 5 0.025254 0.007905 -0.012247 -0.024097 0.044290 -0.019377
# 6 -0.031547 -0.025396 0.013981 0.043666 -0.019377 0.086383
#
#
# Mechanical properties :
#
#
# Convention : Reuss Voigt Hill
#
# Bulk Modulus (GPa) = 22.44055 59.67232 41.05644
# Shear Modulus (GPa) = 14.92408 27.63250 21.27829
#
# Velocity S-wave (km/s) = 2.75322 3.74634 3.28750
# Velocity P-wave (km/s) = 4.63735 7.00158 5.93831
#
# Compressibility (1/GPa) = 0.04456218
#
# Stress axis : x y z
#
# Youngs Moduli (GPa) = 25.03732 39.69391 52.91680
#
# Poissons Ratio (x) = -0.29905 0.91486
# Poissons Ratio (y) = -0.18863 0.52809
# Poissons Ratio (z) = 0.43286 0.39613
#
# Static dielectric constant tensor:
#      x y z
#    x 3.579470 0.350630 -0.266940 
#    y 0.350630 4.056400 -0.069800 
#    z -0.266940 -0.069800 3.527470 
# 
# 
# High freq. dielectric constant tensor:
#      x y z
#    x 1.753180 0.020940 -0.025500 
#    y 0.020940 1.770020 0.004470 
#    z -0.025500 0.004470 1.759750 
# 
# From -- ./inp_files/258813.got.cif
#   From: 2010.06.25/outbox.cif.g09.slc.cpg/sg2_130_cif.got.tgz:258813.got - 2010.06.27 13:26:56.
