data_PCOD8043173
_publ_section_title
;
Structure prediction by ZEFSAII (Michael W. Deem and Ramdas Pophale) SiO2 
 PCOD8043173
Probable space group: P -1
;
_chemical_formula_sum "Si O2"
_cell_formula_units_Z 14
_cell_length_a 8.534588
_cell_length_b 16.543388
_cell_length_c 5.109637
_cell_angle_alpha 113.267026
_cell_angle_beta 91.950123
_cell_angle_gamma 82.140566
_cell_volume 656.379261
_symmetry_space_group_name_H-M "P -1"
_symmetry_group_IT_number 2
_symmetry_cell_setting 'triclinic'
loop_
_space_group_symop_operation_xyz
x,y,z
-x,-y,-z
loop_
_atom_site_type_symbol
_atom_site_label
_atom_site_fract_x
_atom_site_fract_y
_atom_site_fract_z
Si Si1 0.717510 0.318983 0.822751
Si Si2 0.643559 0.690513 0.301662
Si Si3 0.804210 0.606293 0.696942
Si Si4 0.917450 0.136682 0.597503
Si Si5 0.841998 0.401026 0.424258
Si Si6 0.809976 0.963886 0.236207
Si Si7 0.241571 0.127794 0.392960
O O1 0.531789 0.318809 0.806854
O O2 0.802833 0.222814 0.793536
O O3 0.779258 0.343213 0.574515
O O4 0.751456 0.389807 0.133623
O O5 0.683443 0.629958 0.481988
O O6 0.656760 0.791417 0.509270
O O7 0.758027 0.661833 0.027442
O O8 0.810792 0.503402 0.637818
O O9 0.972788 0.630978 0.646793
O O10 0.007106 0.085171 0.786953
O O11 0.053390 0.164540 0.446856
O O12 0.812935 0.069612 0.361184
O O13 0.706619 0.936068 0.439375
O O14 0.724496 0.932350 0.937349
#
# Coordination Sequence:
#
# PCOD8043173 Si02
#       7
#     2   2   2   2   2   2   2
#     4  12  26  39  62  97 130 161 200 258 311 371
#     4  12  25  40  62  94 132 166 196 248 326 365
#     4  11  24  45  67  89 122 163 212 257 297 375
#     4   9  21  36  62  86 122 152 215 249 297 356
#     4  11  25  44  67  93 116 163 218 255 300 354
#     4   9  20  34  63  88 111 160 211 253 295 345
#     4  10  19  36  59  86 116 159 209 243 299 363
#
# _framework density 21.329131
#
# number of rings (size 3 to 8) (size 9 to 14) (size 15 to 20)
#    0.857    0.571    0.000    5.571    4.000    5.714 
#    0.000    1.429    0.000    0.000    0.000    0.000 
#    0.000    0.000    0.000    0.000    0.000    0.000 
#
# Total GULP energy -173609.868754 kJ/mol
# GULP energy per Si atom -12400.704911 kJ/mol
# Density = 2.128058 g / cm^3
# Si number density = 21.329131 Si / 1000 Ang^3
#
#
#
# Elastic Constant Matrix: (Units=GPa)
#
#
# Indices 1 2 3 4 5 6 
#
# 1 63.8712 22.4005 16.3823 11.8424 12.2164 12.7220
# 2 22.4005 62.4550 15.8529 2.1344 -4.7082 12.5653
# 3 16.3823 15.8529 123.5146 -7.1298 17.4375 11.2867
# 4 11.8424 2.1344 -7.1298 31.6915 6.1408 10.4292
# 5 12.2164 -4.7082 17.4375 6.1408 24.9281 -2.5410
# 6 12.7220 12.5653 11.2867 10.4292 -2.5410 19.9803
#
#
#
# Elastic Compliance Matrix: (Units=1/GPa)
#
#
# Indices 1 2 3 4 5 6 
#
# 1 0.023318 -0.007216 0.000858 -0.001353 -0.014270 -0.011903
# 2 -0.007216 0.021155 -0.002076 0.001749 0.007793 -0.007459
# 3 0.000858 -0.002076 0.011568 0.008706 -0.012260 -0.011879
# 4 -0.001353 0.001749 0.008706 0.048816 -0.020511 -0.033246
# 5 -0.014270 0.007793 -0.012260 -0.020511 0.065279 0.030119
# 6 -0.011903 -0.007459 -0.011879 -0.033246 0.030119 0.090213
#
#
# Mechanical properties :
#
#
# Convention : Reuss Voigt Hill
#
# Bulk Modulus (GPa) = 25.52801 39.90136 32.71468
# Shear Modulus (GPa) = 17.22507 28.33367 22.77937
#
# Velocity S-wave (km/s) = 2.84489 3.64868 3.27156
# Velocity P-wave (km/s) = 4.77344 6.04140 5.44446
#
# Compressibility (1/GPa) = 0.03917266
#
# Stress axis : x y z
#
# Youngs Moduli (GPa) = 42.88475 47.27042 86.44760
#
# Poissons Ratio (x) = 0.34111 -0.07414
# Poissons Ratio (y) = 0.30946 0.17943
# Poissons Ratio (z) = -0.03678 0.09812
#
# Static dielectric constant tensor:
#      x y z
#    x 3.605100 0.087590 0.104460 
#    y 0.087590 3.693040 0.011920 
#    z 0.104460 0.011920 3.744890 
# 
# 
# High freq. dielectric constant tensor:
#      x y z
#    x 1.815910 0.013470 0.013250 
#    y 0.013470 1.837900 0.001850 
#    z 0.013250 0.001850 1.842340 
# 
# From -- ./inp_files/45718.got.cif
#   From: 2010.06.25/outbox.cif.g09.slc.cpg/sg2_23_cif.got.tgz:45718.got - 2010.06.27 13:26:56.
