data_PCOD8043465
_publ_section_title
;
Structure prediction by ZEFSAII (Michael W. Deem and Ramdas Pophale) SiO2 
 PCOD8043465
Probable space group: P -1
;
_chemical_formula_sum "Si O2"
_cell_formula_units_Z 16
_cell_length_a 14.780054
_cell_length_b 8.644742
_cell_length_c 12.150360
_cell_angle_alpha 101.420692
_cell_angle_beta 38.672162
_cell_angle_gamma 121.621853
_cell_volume 758.089144
_symmetry_space_group_name_H-M "P -1"
_symmetry_group_IT_number 2
_symmetry_cell_setting 'triclinic'
loop_
_space_group_symop_operation_xyz
x,y,z
-x,-y,-z
loop_
_atom_site_type_symbol
_atom_site_label
_atom_site_fract_x
_atom_site_fract_y
_atom_site_fract_z
Si Si1 0.970345 0.135585 0.236662
Si Si2 0.786867 0.426576 0.866709
Si Si3 0.653676 0.122013 0.782281
Si Si4 0.693189 0.831170 0.144985
Si Si5 0.367059 0.883875 0.851744
Si Si6 0.417074 0.096710 0.533616
Si Si7 0.147110 0.071467 0.461747
Si Si8 0.486607 0.473587 0.139428
O O1 0.038551 0.346568 0.254185
O O2 0.791890 0.062473 0.328115
O O3 0.935254 0.984846 0.345375
O O4 0.123842 0.153863 0.017441
O O5 0.783306 0.350209 0.735135
O O6 0.778555 0.284851 0.948398
O O7 0.604227 0.403593 0.057158
O O8 0.548345 0.082403 0.762341
O O9 0.767962 0.040725 0.656770
O O10 0.500000 0.000000 0.000000
O O11 0.589823 0.762438 0.352659
O O12 0.560346 0.679280 0.155510
O O13 0.736111 0.043157 0.104757
O O14 0.446200 0.793947 0.684913
O O15 0.500000 0.000000 0.500000
O O16 0.284771 0.307755 0.350646
O O17 0.000000 0.000000 0.500000
O O18 0.500000 0.500000 0.000000
#
# Coordination Sequence:
#
# PCOD8043465 Si02
#       8
#     2   2   2   2   2   2   2   2
#     4  11  23  42  60  93 127 156 203 260 305 360
#     4  10  21  36  64  89 120 164 204 244 308 373
#     4  10  19  36  63  83 123 163 202 233 314 359
#     4  10  23  38  68  87 119 165 205 250 312 360
#     4  10  19  40  64  86 121 166 204 251 301 361
#     4  10  21  43  63  88 120 161 212 258 301 357
#     4  12  24  38  59  95 132 158 196 255 306 365
#     4  11  21  40  61  91 123 161 204 247 306 370
#
# _framework density 21.105696999999999
#
# number of rings (size 3 to 8) (size 9 to 14) (size 15 to 20)
#    0.000    1.500    3.750    2.625    5.250    0.500 
#    4.500    9.375    0.000    0.000    0.000    0.000 
#    0.000    0.000    0.000    0.000    0.000    0.000 
#
# Total GULP energy -198260.097135 kJ/mol
# GULP energy per Si atom -12391.256071 kJ/mol
# Density = 2.105766 g / cm^3
# Si number density = 21.105697 Si / 1000 Ang^3
#
#
#
# Elastic Constant Matrix: (Units=GPa)
#
#
# Indices 1 2 3 4 5 6 
#
# 1 94.3346 18.6710 16.9884 -5.1722 -7.8502 11.9446
# 2 18.6710 78.4315 30.0144 0.6849 8.2583 8.7973
# 3 16.9884 30.0144 72.9304 8.3121 5.5774 8.8227
# 4 -5.1722 0.6849 8.3121 41.2486 2.0587 2.6658
# 5 -7.8502 8.2583 5.5774 2.0587 41.3679 5.3653
# 6 11.9446 8.7973 8.8227 2.6658 5.3653 32.8416
#
#
#
# Elastic Compliance Matrix: (Units=1/GPa)
#
#
# Indices 1 2 3 4 5 6 
#
# 1 0.012295 -0.002077 -0.002012 0.002075 0.003448 -0.004106
# 2 -0.002077 0.015899 -0.005764 0.000871 -0.002627 -0.001596
# 3 -0.002012 -0.005764 0.017263 -0.003456 -0.001141 -0.001895
# 4 0.002075 0.000871 -0.003456 0.025334 -0.000307 -0.002066
# 5 0.003448 -0.002627 -0.001141 -0.000307 0.026103 -0.004483
# 6 -0.004106 -0.001596 -0.001895 -0.002066 -0.004483 0.033779
#
#
# Mechanical properties :
#
#
# Convention : Reuss Voigt Hill
#
# Bulk Modulus (GPa) = 38.83792 41.89378 40.36585
# Shear Modulus (GPa) = 31.45365 35.09312 33.27339
#
# Velocity S-wave (km/s) = 3.86462 4.08209 3.97484
# Velocity P-wave (km/s) = 6.19316 6.48926 6.34294
#
# Compressibility (1/GPa) = 0.02574803
#
# Stress axis : x y z
#
# Youngs Moduli (GPa) = 81.33507 62.89901 57.92674
#
# Poissons Ratio (x) = 0.13066 0.11658
# Poissons Ratio (y) = 0.16896 0.33391
# Poissons Ratio (z) = 0.16368 0.36258
#
# Static dielectric constant tensor:
#      x y z
#    x 3.907910 0.393570 0.235230 
#    y 0.393570 4.154460 0.056140 
#    z 0.235230 0.056140 3.477160 
# 
# 
# High freq. dielectric constant tensor:
#      x y z
#    x 1.830820 0.007210 -0.000630 
#    y 0.007210 1.810820 0.019370 
#    z -0.000630 0.019370 1.825120 
# 
# From -- ./inp_files/208801.got.cif
#   From: 2010.06.25/outbox.cif.g09.slc.cpg/sg2_105_cif.got.tgz:208801.got - 2010.06.27 13:26:56.
