data_PCOD8043859
_publ_section_title
;
Structure prediction by ZEFSAII (Michael W. Deem and Ramdas Pophale) SiO2 
 PCOD8043859
Probable space group: P -1
;
_chemical_formula_sum "Si O2"
_cell_formula_units_Z 16
_cell_length_a 9.695697
_cell_length_b 8.789803
_cell_length_c 10.894847
_cell_angle_alpha 65.135817
_cell_angle_beta 95.403728
_cell_angle_gamma 83.423867
_cell_volume 826.387376
_symmetry_space_group_name_H-M "P -1"
_symmetry_group_IT_number 2
_symmetry_cell_setting 'triclinic'
loop_
_space_group_symop_operation_xyz
x,y,z
-x,-y,-z
loop_
_atom_site_type_symbol
_atom_site_label
_atom_site_fract_x
_atom_site_fract_y
_atom_site_fract_z
Si Si1 0.648369 0.551476 0.005418
Si Si2 0.647229 0.913692 0.792952
Si Si3 0.793928 0.629733 0.229771
Si Si4 0.076459 0.739343 0.611739
Si Si5 0.838900 0.221732 0.127194
Si Si6 0.910182 0.870649 0.981714
Si Si7 0.210674 0.039879 0.461371
Si Si8 0.672609 0.943518 0.266499
O O1 0.655219 0.711953 0.866456
O O2 0.500000 0.500000 0.000000
O O3 0.677252 0.587276 0.138897
O O4 0.755825 0.397115 0.006435
O O5 0.759053 0.962501 0.885762
O O6 0.683172 0.956709 0.642872
O O7 0.493855 0.009286 0.787151
O O8 0.880810 0.458388 0.358713
O O9 0.721828 0.749423 0.292682
O O10 0.900876 0.723960 0.129617
O O11 0.160005 0.759391 0.734806
O O12 0.908625 0.791216 0.595336
O O13 0.135032 0.875495 0.482209
O O14 0.998042 0.206948 0.100023
O O15 0.757842 0.061677 0.148877
O O16 0.000000 0.000000 0.000000
O O17 0.300303 0.031754 0.596173
#
# Coordination Sequence:
#
# PCOD8043859 Si02
#       8
#     2   2   2   2   2   2   2   2
#     4  10  21  37  62  89 118 155 192 243 299 358
#     4  11  23  38  62  90 120 156 203 236 292 357
#     4  10  23  37  60  90 120 153 194 244 306 344
#     4   9  20  38  62  85 114 154 204 247 280 351
#     4  10  19  37  60  87 120 154 195 241 298 346
#     4  11  22  36  61  93 123 151 192 249 298 355
#     4  10  21  39  64  84 113 162 204 242 286 340
#     4  11  22  39  60  86 125 158 192 242 296 354
#
# _framework density 19.36138
#
# number of rings (size 3 to 8) (size 9 to 14) (size 15 to 20)
#    0.000    1.750    3.750    0.375    1.750    5.000 
#    0.000    0.625    0.000    0.000    0.000    0.000 
#    0.000    0.000    0.000    0.000    0.000    0.000 
#
# Total GULP energy -198320.610430 kJ/mol
# GULP energy per Si atom -12395.038152 kJ/mol
# Density = 1.931731 g / cm^3
# Si number density = 19.361380 Si / 1000 Ang^3
#
#
#
# Elastic Constant Matrix: (Units=GPa)
#
#
# Indices 1 2 3 4 5 6 
#
# 1 129.5433 36.3033 29.9678 -11.3106 8.1929 -1.4611
# 2 36.3033 98.3193 29.3689 -22.2041 9.0433 -2.3995
# 3 29.9678 29.3689 71.4311 -14.9823 -5.5798 -2.5226
# 4 -11.3106 -22.2041 -14.9823 27.6027 -4.2278 7.4873
# 5 8.1929 9.0433 -5.5798 -4.2278 25.5332 -0.8842
# 6 -1.4611 -2.3995 -2.5226 7.4873 -0.8842 36.1994
#
#
#
# Elastic Compliance Matrix: (Units=1/GPa)
#
#
# Indices 1 2 3 4 5 6 
#
# 1 0.009261 -0.002228 -0.003240 -0.000195 -0.002924 -0.000031
# 2 -0.002228 0.014252 -0.003497 0.008411 -0.003747 -0.001220
# 3 -0.003240 -0.003497 0.018933 0.007410 0.007629 -0.000390
# 4 -0.000195 0.008411 0.007410 0.050467 0.006740 -0.009208
# 5 -0.002924 -0.003747 0.007629 0.006740 0.044208 -0.000149
# 6 -0.000031 -0.001220 -0.000390 -0.009208 -0.000149 0.029416
#
#
# Mechanical properties :
#
#
# Convention : Reuss Voigt Hill
#
# Bulk Modulus (GPa) = 40.78718 54.50817 47.64767
# Shear Modulus (GPa) = 25.95545 31.44395 28.69970
#
# Velocity S-wave (km/s) = 3.66536 4.03433 3.85426
# Velocity P-wave (km/s) = 6.24701 7.06507 6.66860
#
# Compressibility (1/GPa) = 0.02451751
#
# Stress axis : x y z
#
# Youngs Moduli (GPa) = 107.98350 70.16364 52.81823
#
# Poissons Ratio (x) = 0.15629 0.17112
# Poissons Ratio (y) = 0.24054 0.18470
# Poissons Ratio (z) = 0.34984 0.24536
#
# Static dielectric constant tensor:
#      x y z
#    x 3.919960 -0.078730 -0.034120 
#    y -0.078730 3.957530 -0.389930 
#    z -0.034120 -0.389930 3.633670 
# 
# 
# High freq. dielectric constant tensor:
#      x y z
#    x 1.760110 0.001860 0.003400 
#    y 0.001860 1.745990 -0.012450 
#    z 0.003400 -0.012450 1.744890 
# 
# From -- ./inp_files/176283.got.cif
#   From: 2010.06.25/outbox.cif.g09.slc.cpg/sg2_89_cif.got.tgz:176283.got - 2010.06.27 13:26:56.
