data_PCOD8043014
_publ_section_title
;
Structure prediction by ZEFSAII (Michael W. Deem and Ramdas Pophale) SiO2 
 PCOD8043014
Probable space group: P -1
;
_chemical_formula_sum "Si O2"
_cell_formula_units_Z 10
_cell_length_a 9.592564
_cell_length_b 7.572456
_cell_length_c 10.123303
_cell_angle_alpha 95.848101
_cell_angle_beta 60.776258
_cell_angle_gamma 133.105714
_cell_volume 436.454736
_symmetry_space_group_name_H-M "P -1"
_symmetry_group_IT_number 2
_symmetry_cell_setting 'triclinic'
loop_
_space_group_symop_operation_xyz
x,y,z
-x,-y,-z
loop_
_atom_site_type_symbol
_atom_site_label
_atom_site_fract_x
_atom_site_fract_y
_atom_site_fract_z
Si Si1 0.071676 0.364437 0.156900
Si Si2 0.201819 0.799597 0.274282
Si Si3 0.861564 0.718714 0.591287
Si Si4 0.464809 0.632172 0.801278
Si Si5 0.576767 0.075290 0.320936
O O1 0.157937 0.638588 0.157017
O O2 0.064423 0.259586 0.291258
O O3 0.814992 0.158622 0.194970
O O4 0.247336 0.409564 0.978939
O O5 0.950341 0.631834 0.448547
O O6 0.336739 0.089695 0.190222
O O7 0.371266 0.830427 0.302871
O O8 0.584424 0.541953 0.695326
O O9 0.000000 0.000000 0.500000
O O10 0.383375 0.683052 0.716557
O O11 0.500000 0.000000 0.500000
#
# Coordination Sequence:
#
# PCOD8043014 Si02
#       5
#     2   2   2   2   2
#     4  12  19  36  63  79 109 147 182 227 271 317
#     4   9  21  35  59  82 108 142 192 214 268 331
#     4  10  19  36  56  80 112 149 178 219 278 325
#     4   9  21  36  56  85 113 140 178 230 278 313
#     4  10  20  35  57  81 114 139 187 222 267 325
#
# _framework density 22.911881000000001
#
# number of rings (size 3 to 8) (size 9 to 14) (size 15 to 20)
#    1.200    0.800    2.000    2.400    0.000    0.000 
#    0.000    1.000    8.800    2.400    0.000    0.000 
#    0.000    0.000    0.000    0.000    0.000    0.000 
#
# Total GULP energy -123898.784189 kJ/mol
# GULP energy per Si atom -12389.878419 kJ/mol
# Density = 2.285973 g / cm^3
# Si number density = 22.911881 Si / 1000 Ang^3
#
#
#
# Elastic Constant Matrix: (Units=GPa)
#
#
# Indices 1 2 3 4 5 6 
#
# 1 107.7070 -3.1032 39.7068 0.1141 -34.1225 -0.7337
# 2 -3.1032 25.2081 5.8748 -3.0906 -9.1817 8.1552
# 3 39.7068 5.8748 134.1228 -4.7879 -48.5687 6.0527
# 4 0.1141 -3.0906 -4.7879 18.5168 -1.8570 2.1272
# 5 -34.1225 -9.1817 -48.5687 -1.8570 54.6036 -7.6042
# 6 -0.7337 8.1552 6.0527 2.1272 -7.6042 24.2178
#
#
#
# Elastic Compliance Matrix: (Units=1/GPa)
#
#
# Indices 1 2 3 4 5 6 
#
# 1 0.012227 0.004144 -0.001076 0.000924 0.007629 0.001558
# 2 0.004144 0.049874 0.001527 0.011454 0.010676 -0.014705
# 3 -0.001076 0.001527 0.011446 0.004286 0.009813 -0.000703
# 4 0.000924 0.011454 0.004286 0.058638 0.007226 -0.007782
# 5 0.007629 0.010676 0.009813 0.007226 0.034459 0.004369
# 6 0.001558 -0.014705 -0.000703 -0.007782 0.004369 0.048522
#
#
# Mechanical properties :
#
#
# Convention : Reuss Voigt Hill
#
# Bulk Modulus (GPa) = 12.08650 39.11052 25.59851
# Shear Modulus (GPa) = 21.40829 34.43828 27.92328
#
# Velocity S-wave (km/s) = 3.06007 3.88116 3.49481
# Velocity P-wave (km/s) = 4.21569 6.09849 5.24231
#
# Compressibility (1/GPa) = 0.08273692
#
# Stress axis : x y z
#
# Youngs Moduli (GPa) = 81.78558 20.05051 87.36899
#
# Poissons Ratio (x) = -0.08309 0.09401
# Poissons Ratio (y) = -0.33892 -0.13342
# Poissons Ratio (z) = 0.08800 -0.03062
#
# Static dielectric constant tensor:
#      x y z
#    x 4.539610 -0.161300 -0.626910 
#    y -0.161300 3.565860 -0.191360 
#    z -0.626910 -0.191360 4.516730 
# 
# 
# High freq. dielectric constant tensor:
#      x y z
#    x 1.910130 -0.011790 -0.016280 
#    y -0.011790 1.848130 -0.020510 
#    z -0.016280 -0.020510 1.915630 
# 
# From -- ./inp_files/86333.got.cif
#   From: 2010.06.25/outbox.cif.g09.slc.cpg/sg2_44_cif.got.tgz:86333.got - 2010.06.27 13:26:56.
