data_PCOD8043639
_publ_section_title
;
Structure prediction by ZEFSAII (Michael W. Deem and Ramdas Pophale) SiO2 
 PCOD8043639
Probable space group: P -1
;
_chemical_formula_sum "Si O2"
_cell_formula_units_Z 8
_cell_length_a 9.220008
_cell_length_b 9.630916
_cell_length_c 5.545155
_cell_angle_alpha 70.873277
_cell_angle_beta 98.781440
_cell_angle_gamma 139.701039
_cell_volume 297.054322
_symmetry_space_group_name_H-M "P -1"
_symmetry_group_IT_number 2
_symmetry_cell_setting 'triclinic'
loop_
_space_group_symop_operation_xyz
x,y,z
-x,-y,-z
loop_
_atom_site_type_symbol
_atom_site_label
_atom_site_fract_x
_atom_site_fract_y
_atom_site_fract_z
Si Si1 0.371853 0.299708 0.899943
Si Si2 0.233815 0.755639 0.576704
Si Si3 0.988884 0.118338 0.622129
Si Si4 0.668842 0.266325 0.888576
O O1 0.542707 0.325013 0.783199
O O2 0.241606 0.313635 0.685238
O O3 0.500000 0.500000 0.000000
O O4 0.197623 0.056070 0.122983
O O5 0.074621 0.775552 0.575021
O O6 0.170153 0.630520 0.369324
O O7 0.500000 0.000000 0.500000
O O8 0.197203 0.625937 0.880064
O O9 0.000000 0.000000 0.500000
O O10 0.500000 0.000000 0.000000
#
# Coordination Sequence:
#
# PCOD8043639 Si02
#       4
#     2   2   2   2
#     4  11  25  42  65  99 133 169 220 277 328 390
#     4  10  19  36  67  91 122 175 221 261 321 395
#     4  11  23  41  69  94 131 177 217 268 336 394
#     4  10  19  39  65  90 127 175 216 265 326 390
#
# _framework density 26.931101000000002
#
# number of rings (size 3 to 8) (size 9 to 14) (size 15 to 20)
#    0.000    1.500    5.000    3.000    3.500    1.000 
#    0.000    2.500    0.000    0.000    0.000    0.000 
#    0.000    0.000    0.000    0.000    0.000    0.000 
#
# Total GULP energy -99204.737436 kJ/mol
# GULP energy per Si atom -12400.592179 kJ/mol
# Density = 2.686980 g / cm^3
# Si number density = 26.931101 Si / 1000 Ang^3
#
#
#
# Elastic Constant Matrix: (Units=GPa)
#
#
# Indices 1 2 3 4 5 6 
#
# 1 252.2897 45.6612 81.6642 16.9676 8.2704 -12.5217
# 2 45.6612 73.5623 33.4924 29.7958 7.1313 -15.7662
# 3 81.6642 33.4924 176.0501 40.5987 -4.0126 16.7749
# 4 16.9676 29.7958 40.5987 52.6514 2.1083 -4.2232
# 5 8.2704 7.1313 -4.0126 2.1083 62.2878 10.3140
# 6 -12.5217 -15.7662 16.7749 -4.2232 10.3140 29.8517
#
#
#
# Elastic Compliance Matrix: (Units=1/GPa)
#
#
# Indices 1 2 3 4 5 6 
#
# 1 0.005354 -0.001841 -0.002967 0.001955 -0.001368 0.003690
# 2 -0.001841 0.022885 -0.002781 -0.008982 -0.004426 0.013136
# 3 -0.002967 -0.002781 0.010084 -0.006211 0.003294 -0.010396
# 4 0.001955 -0.008982 -0.006211 0.028611 -0.001271 0.004053
# 5 -0.001368 -0.004426 0.003294 -0.001271 0.018898 -0.011472
# 6 0.003690 0.013136 -0.010396 0.004053 -0.011472 0.052364
#
#
# Mechanical properties :
#
#
# Convention : Reuss Voigt Hill
#
# Bulk Modulus (GPa) = 43.20492 91.50419 67.35456
# Shear Modulus (GPa) = 31.03902 51.69714 41.36808
#
# Velocity S-wave (km/s) = 3.39858 4.38609 3.92353
# Velocity P-wave (km/s) = 5.61053 7.72666 6.75201
#
# Compressibility (1/GPa) = 0.02314551
#
# Stress axis : x y z
#
# Youngs Moduli (GPa) = 186.78659 43.69608 99.17146
#
# Poissons Ratio (x) = 0.08042 0.29423
# Poissons Ratio (y) = 0.34379 0.27581
# Poissons Ratio (z) = 0.55417 0.12153
#
# Static dielectric constant tensor:
#      x y z
#    x 5.170710 0.292210 -0.352920 
#    y 0.292210 4.828310 0.376120 
#    z -0.352920 0.376120 6.074240 
# 
# 
# High freq. dielectric constant tensor:
#      x y z
#    x 2.105460 0.015640 -0.005560 
#    y 0.015640 2.085570 0.007500 
#    z -0.005560 0.007500 2.097390 
# 
# From -- ./inp_files/15510.got.cif
#   From: 2010.06.25/outbox.cif.g09.slc.cpg/sg2_8_cif.got.tgz:15510.got - 2010.06.27 13:26:56.
