data_PCOD8043314
_publ_section_title
;
Structure prediction by ZEFSAII (Michael W. Deem and Ramdas Pophale) SiO2 
 PCOD8043314
Probable space group: P -1
;
_chemical_formula_sum "Si O2"
_cell_formula_units_Z 16
_cell_length_a 6.871488
_cell_length_b 17.019572
_cell_length_c 12.499011
_cell_angle_alpha 130.330135
_cell_angle_beta 138.301874
_cell_angle_gamma 63.909947
_cell_volume 738.538530
_symmetry_space_group_name_H-M "P -1"
_symmetry_group_IT_number 2
_symmetry_cell_setting 'triclinic'
loop_
_space_group_symop_operation_xyz
x,y,z
-x,-y,-z
loop_
_atom_site_type_symbol
_atom_site_label
_atom_site_fract_x
_atom_site_fract_y
_atom_site_fract_z
Si Si1 0.253029 0.243172 0.282042
Si Si2 0.733126 0.366439 0.695559
Si Si3 0.012531 0.994066 0.322080
Si Si4 0.087836 0.065579 0.200909
Si Si5 0.582251 0.276642 0.039902
Si Si6 0.986474 0.844607 0.363700
Si Si7 0.660497 0.523962 0.978415
Si Si8 0.508459 0.153411 0.099184
O O1 0.455170 0.349046 0.485066
O O2 0.279822 0.167708 0.329893
O O3 0.387109 0.183478 0.188660
O O4 0.920271 0.264927 0.135461
O O5 0.627686 0.417511 0.805697
O O6 0.847228 0.256913 0.671255
O O7 0.999558 0.442151 0.823414
O O8 0.137120 0.922047 0.402752
O O9 0.213314 0.004086 0.301590
O O10 0.968280 0.104946 0.456157
O O11 0.697493 0.937481 0.117866
O O12 0.814158 0.103913 0.187963
O O13 0.000000 0.000000 0.000000
O O14 0.494177 0.389935 0.075703
O O15 0.544206 0.258284 0.135188
O O16 0.365675 0.186659 0.816731
O O17 0.500000 0.500000 0.000000
#
# Coordination Sequence:
#
# PCOD8043314 Si02
#       8
#     2   2   2   2   2   2   2   2
#     4  11  23  39  64  92 129 170 211 258 316 371
#     4  10  23  42  65  95 121 162 211 259 322 387
#     4  10  19  36  61  85 128 179 214 260 301 370
#     4  11  22  35  57  94 129 173 218 257 308 365
#     4   9  22  41  61  91 124 159 214 260 323 382
#     4   9  20  39  63  89 130 172 216 260 316 371
#     4  10  23  45  69  91 123 156 202 269 332 387
#     4  10  21  38  59  86 132 168 209 265 307 367
#
# _framework density 21.664408999999999
#
# number of rings (size 3 to 8) (size 9 to 14) (size 15 to 20)
#    0.000    2.000    1.250    1.125    1.750    8.500 
#    0.000    2.500    0.000    0.000    0.000    0.000 
#    0.000    0.000    0.000    0.000    0.000    0.000 
#
# Total GULP energy -198228.737439 kJ/mol
# GULP energy per Si atom -12389.296090 kJ/mol
# Density = 2.161510 g / cm^3
# Si number density = 21.664409 Si / 1000 Ang^3
#
#
#
# Elastic Constant Matrix: (Units=GPa)
#
#
# Indices 1 2 3 4 5 6 
#
# 1 145.6027 42.1209 56.1854 2.4392 -17.0630 -7.4635
# 2 42.1209 80.9681 29.2048 15.9946 -13.6518 2.0851
# 3 56.1854 29.2048 126.5244 14.5647 -8.7499 -16.8391
# 4 2.4392 15.9946 14.5647 25.8710 -5.4596 -6.6959
# 5 -17.0630 -13.6518 -8.7499 -5.4596 37.0869 -3.3223
# 6 -7.4635 2.0851 -16.8391 -6.6959 -3.3223 27.5804
#
#
#
# Elastic Compliance Matrix: (Units=1/GPa)
#
#
# Indices 1 2 3 4 5 6 
#
# 1 0.009867 -0.004454 -0.003384 0.005032 0.003069 0.002532
# 2 -0.004454 0.017861 -0.001538 -0.010849 0.002038 -0.005883
# 3 -0.003384 -0.001538 0.010856 -0.003458 0.000380 0.005035
# 4 0.005032 -0.010849 -0.003458 0.051622 0.006302 0.013362
# 5 0.003069 0.002038 0.000380 0.006302 0.030693 0.006136
# 6 0.002532 -0.005883 0.005035 0.013362 0.006136 0.044445
#
#
# Mechanical properties :
#
#
# Convention : Reuss Voigt Hill
#
# Bulk Modulus (GPa) = 50.42254 67.56858 58.99556
# Shear Modulus (GPa) = 26.21843 33.14659 29.68251
#
# Velocity S-wave (km/s) = 3.48258 3.91577 3.70551
# Velocity P-wave (km/s) = 6.28459 7.19033 6.75266
#
# Compressibility (1/GPa) = 0.01983240
#
# Stress axis : x y z
#
# Youngs Moduli (GPa) = 101.34291 55.98861 92.11885
#
# Poissons Ratio (x) = 0.24940 0.31169
# Poissons Ratio (y) = 0.45143 0.14165
# Poissons Ratio (z) = 0.34290 0.08610
#
# Static dielectric constant tensor:
#      x y z
#    x 3.860090 0.096860 -0.119760 
#    y 0.096860 3.899360 -0.293530 
#    z -0.119760 -0.293530 3.885700 
# 
# 
# High freq. dielectric constant tensor:
#      x y z
#    x 1.854840 0.007710 0.002850 
#    y 0.007710 1.842220 0.000920 
#    z 0.002850 0.000920 1.853970 
# 
# From -- ./inp_files/306097.got.cif
#   From: 2010.06.25/outbox.cif.g09.slc.cpg/sg2_154_cif.got.tgz:306097.got - 2010.06.27 13:26:56.
