data_PCOD8043434
_publ_section_title
;
Structure prediction by ZEFSAII (Michael W. Deem and Ramdas Pophale) SiO2 
 PCOD8043434
Probable space group: P -1
;
_chemical_formula_sum "Si O2"
_cell_formula_units_Z 16
_cell_length_a 15.550271
_cell_length_b 9.130425
_cell_length_c 24.692365
_cell_angle_alpha 47.155238
_cell_angle_beta 162.148227
_cell_angle_gamma 133.103117
_cell_volume 777.797641
_symmetry_space_group_name_H-M "P -1"
_symmetry_group_IT_number 2
_symmetry_cell_setting 'triclinic'
loop_
_space_group_symop_operation_xyz
x,y,z
-x,-y,-z
loop_
_atom_site_type_symbol
_atom_site_label
_atom_site_fract_x
_atom_site_fract_y
_atom_site_fract_z
Si Si1 0.038770 0.282450 0.433567
Si Si2 0.144546 0.442521 0.249328
Si Si3 0.898575 0.792278 0.962076
Si Si4 0.551191 0.213638 0.948381
Si Si5 0.530218 0.365523 0.177133
Si Si6 0.763948 0.393811 0.617359
Si Si7 0.898404 0.934680 0.075159
Si Si8 0.364316 0.081687 0.758620
O O1 0.106233 0.480384 0.388373
O O2 0.323373 0.227259 0.646326
O O3 0.825948 0.306715 0.350058
O O4 0.897157 0.103783 0.353771
O O5 0.114578 0.640465 0.146255
O O6 0.424342 0.358117 0.419789
O O7 0.141327 0.489931 0.299453
O O8 0.886106 0.266835 0.123871
O O9 0.568943 0.696360 0.804310
O O10 0.936702 0.858053 0.905555
O O11 0.000000 0.000000 0.000000
O O12 0.457080 0.392981 0.883559
O O13 0.362307 0.200479 0.783817
O O14 0.500000 0.000000 0.000000
O O15 0.266575 0.240876 0.018129
O O16 0.866346 0.176383 0.726916
O O17 0.665158 0.001271 0.958411
#
# Coordination Sequence:
#
# PCOD8043434 Si02
#       8
#     2   2   2   2   2   2   2   2
#     4  10  22  40  59  93 116 157 197 253 285 352
#     4  10  21  37  58  94 115 156 196 247 297 347
#     4   9  15  34  55  85 117 147 197 239 286 350
#     4  11  22  40  60  88 122 161 193 243 298 358
#     4   9  20  36  61  86 121 154 202 234 300 352
#     4  11  20  35  63  88 122 145 203 247 294 335
#     4  10  19  36  62  92 114 158 195 250 290 348
#     4  10  23  38  61  86 122 156 203 235 301 350
#
# _framework density 20.570903999999999
#
# number of rings (size 3 to 8) (size 9 to 14) (size 15 to 20)
#    0.000    2.000    3.750    1.500    1.750    2.500 
#    2.250    6.250    0.000    0.000    0.000    0.000 
#    0.000    0.000    0.000    0.000    0.000    0.000 
#
# Total GULP energy -198259.083447 kJ/mol
# GULP energy per Si atom -12391.192715 kJ/mol
# Density = 2.052408 g / cm^3
# Si number density = 20.570904 Si / 1000 Ang^3
#
#
#
# Elastic Constant Matrix: (Units=GPa)
#
#
# Indices 1 2 3 4 5 6 
#
# 1 60.9529 27.0392 36.9146 -5.0975 -2.2026 13.3458
# 2 27.0392 109.5773 41.4267 -15.3307 -6.7802 16.5460
# 3 36.9146 41.4267 123.7994 -18.5355 8.6774 7.4717
# 4 -5.0975 -15.3307 -18.5355 34.1025 -1.3433 -6.7061
# 5 -2.2026 -6.7802 8.6774 -1.3433 29.0553 -6.8714
# 6 13.3458 16.5460 7.4717 -6.7061 -6.8714 32.8659
#
#
#
# Elastic Compliance Matrix: (Units=1/GPa)
#
#
# Indices 1 2 3 4 5 6 
#
# 1 0.022393 -0.002550 -0.005837 -0.002243 0.001158 -0.006698
# 2 -0.002550 0.011860 -0.002777 0.002939 0.002802 -0.003119
# 3 -0.005837 -0.002777 0.011601 0.004248 -0.004088 0.001143
# 4 -0.002243 0.002939 0.004248 0.033851 0.002191 0.005831
# 5 0.001158 0.002802 -0.004088 0.002191 0.038253 0.007493
# 6 -0.006698 -0.003119 0.001143 0.005831 0.007493 0.037213
#
#
# Mechanical properties :
#
#
# Convention : Reuss Voigt Hill
#
# Bulk Modulus (GPa) = 42.50303 56.12118 49.31210
# Shear Modulus (GPa) = 26.97740 31.80135 29.38937
#
# Velocity S-wave (km/s) = 3.62530 3.93611 3.78390
# Velocity P-wave (km/s) = 6.18307 6.92808 6.56615
#
# Compressibility (1/GPa) = 0.02352773
#
# Stress axis : x y z
#
# Youngs Moduli (GPa) = 44.65714 84.31436 86.20124
#
# Poissons Ratio (x) = 0.21499 0.50312
# Poissons Ratio (y) = 0.11387 0.23936
# Poissons Ratio (z) = 0.26065 0.23412
#
# Static dielectric constant tensor:
#      x y z
#    x 3.770560 0.196920 0.058460 
#    y 0.196920 3.747340 -0.170080 
#    z 0.058460 -0.170080 3.677890 
# 
# 
# High freq. dielectric constant tensor:
#      x y z
#    x 1.789080 0.012690 0.012590 
#    y 0.012690 1.800480 -0.016280 
#    z 0.012590 -0.016280 1.793860 
# 
# From -- ./inp_files/500391.got.cif
#   From: 2010.06.25/outbox.cif.g09.slc.cpg/sg2_251_cif.got.tgz:500391.got - 2010.06.27 13:26:56.
