data_PCOD8043766
_publ_section_title
;
Structure prediction by ZEFSAII (Michael W. Deem and Ramdas Pophale) SiO2 
 PCOD8043766
Probable space group: P -1
;
_chemical_formula_sum "Si O2"
_cell_formula_units_Z 16
_cell_length_a 11.870154
_cell_length_b 9.145359
_cell_length_c 18.387924
_cell_angle_alpha 113.204766
_cell_angle_beta 138.183819
_cell_angle_gamma 100.017063
_cell_volume 790.635173
_symmetry_space_group_name_H-M "P -1"
_symmetry_group_IT_number 2
_symmetry_cell_setting 'triclinic'
loop_
_space_group_symop_operation_xyz
x,y,z
-x,-y,-z
loop_
_atom_site_type_symbol
_atom_site_label
_atom_site_fract_x
_atom_site_fract_y
_atom_site_fract_z
Si Si1 0.418572 0.301528 0.368677
Si Si2 0.996952 0.081415 0.408292
Si Si3 0.909128 0.756939 0.068977
Si Si4 0.800537 0.325566 0.762496
Si Si5 0.109372 0.320321 0.650152
Si Si6 0.715908 0.220838 0.541539
Si Si7 0.427627 0.512284 0.276013
Si Si8 0.377825 0.288575 0.954422
O O1 0.500000 0.500000 0.500000
O O2 0.642312 0.329746 0.486306
O O3 0.393081 0.344372 0.282855
O O4 0.147184 0.030280 0.207628
O O5 0.047403 0.269530 0.523044
O O6 0.268513 0.219933 0.528612
O O7 0.872517 0.848971 0.349019
O O8 0.781852 0.962927 0.217461
O O9 0.842657 0.775429 0.119673
O O10 0.973027 0.612617 0.075629
O O11 0.657594 0.606430 0.868031
O O12 0.872292 0.370255 0.720110
O O13 0.775955 0.493136 0.803191
O O14 0.530144 0.053766 0.602788
O O15 0.877511 0.240093 0.564297
O O16 0.386675 0.607132 0.859742
O O17 0.500000 0.500000 0.000000
#
# Coordination Sequence:
#
# PCOD8043766 Si02
#       8
#     2   2   2   2   2   2   2   2
#     4  11  23  40  62  85 122 169 200 246 310 370
#     4  10  20  34  60  89 121 158 202 248 309 357
#     4  11  23  38  59  94 125 154 207 255 304 370
#     4  10  20  34  61  91 119 152 199 265 305 354
#     4  10  19  37  58  89 121 155 201 258 297 360
#     4  10  20  37  60  91 119 155 209 249 305 361
#     4  12  21  39  60  92 126 162 200 249 312 369
#     4  10  20  34  59  90 120 160 200 249 307 356
#
# _framework density 20.236893999999999
#
# number of rings (size 3 to 8) (size 9 to 14) (size 15 to 20)
#    0.000    1.500    3.750    3.000    1.750    0.000 
#    0.000    0.625    0.000    1.500    0.000    0.000 
#    0.000    0.000    0.000    0.000    0.000    0.000 
#
# Total GULP energy -198277.266415 kJ/mol
# GULP energy per Si atom -12392.329151 kJ/mol
# Density = 2.019083 g / cm^3
# Si number density = 20.236894 Si / 1000 Ang^3
#
#
#
# Elastic Constant Matrix: (Units=GPa)
#
#
# Indices 1 2 3 4 5 6 
#
# 1 116.2378 22.8871 46.8742 -15.4151 -14.2031 4.9010
# 2 22.8871 81.3415 30.7868 -17.0442 -4.5000 4.1234
# 3 46.8742 30.7868 142.0095 -13.5966 -21.4313 4.9303
# 4 -15.4151 -17.0442 -13.5966 21.8979 2.2198 -1.1647
# 5 -14.2031 -4.5000 -21.4313 2.2198 25.8226 2.1938
# 6 4.9010 4.1234 4.9303 -1.1647 2.1938 23.5296
#
#
#
# Elastic Compliance Matrix: (Units=1/GPa)
#
#
# Indices 1 2 3 4 5 6 
#
# 1 0.010897 -0.000825 -0.002319 0.005129 0.003631 -0.001724
# 2 -0.000825 0.015510 -0.002100 0.010127 -0.000230 -0.001583
# 3 -0.002319 -0.002100 0.009427 0.001877 0.006158 -0.001605
# 4 0.005129 0.010127 0.001877 0.058180 0.001182 -0.000467
# 5 0.003631 -0.000230 0.006158 0.001182 0.046223 -0.006257
# 6 -0.001724 -0.001583 -0.001605 -0.000467 -0.006257 0.044033
#
#
# Mechanical properties :
#
#
# Convention : Reuss Voigt Hill
#
# Bulk Modulus (GPa) = 39.45508 60.07608 49.76558
# Shear Modulus (GPa) = 24.60518 30.18605 27.39561
#
# Velocity S-wave (km/s) = 3.49070 3.86636 3.68332
# Velocity P-wave (km/s) = 5.98210 7.04858 6.53713
#
# Compressibility (1/GPa) = 0.02534528
#
# Stress axis : x y z
#
# Youngs Moduli (GPa) = 91.76558 64.47251 106.07480
#
# Poissons Ratio (x) = 0.05322 0.24600
# Poissons Ratio (y) = 0.07575 0.22279
# Poissons Ratio (z) = 0.21282 0.13541
#
# Static dielectric constant tensor:
#      x y z
#    x 3.757350 0.102640 -0.232630 
#    y 0.102640 3.488620 -0.174090 
#    z -0.232630 -0.174090 4.454940 
# 
# 
# High freq. dielectric constant tensor:
#      x y z
#    x 1.797540 0.015720 -0.008300 
#    y 0.015720 1.748230 -0.007510 
#    z -0.008300 -0.007510 1.799680 
# 
# From -- ./inp_files/174991.got.cif
#   From: 2010.06.25/outbox.cif.g09.slc.cpg/sg2_88_cif.got.tgz:174991.got - 2010.06.27 13:26:56.
