data_PCOD8043880
_publ_section_title
;
Structure prediction by ZEFSAII (Michael W. Deem and Ramdas Pophale) SiO2 
 PCOD8043880
Probable space group: P -1
;
_chemical_formula_sum "Si O2"
_cell_formula_units_Z 14
_cell_length_a 8.740880
_cell_length_b 9.253410
_cell_length_c 14.809971
_cell_angle_alpha 99.451882
_cell_angle_beta 132.801552
_cell_angle_gamma 107.839511
_cell_volume 707.808046
_symmetry_space_group_name_H-M "P -1"
_symmetry_group_IT_number 2
_symmetry_cell_setting 'triclinic'
loop_
_space_group_symop_operation_xyz
x,y,z
-x,-y,-z
loop_
_atom_site_type_symbol
_atom_site_label
_atom_site_fract_x
_atom_site_fract_y
_atom_site_fract_z
Si Si1 0.183960 0.503183 0.304008
Si Si2 0.809824 0.180006 0.721920
Si Si3 0.445562 0.593597 0.603882
Si Si4 0.774190 0.029191 0.511297
Si Si5 0.108166 0.036044 0.145754
Si Si6 0.205948 0.876849 0.842686
Si Si7 0.969135 0.790723 0.549160
O O1 0.125205 0.621712 0.232239
O O2 0.363353 0.612267 0.473076
O O3 0.340984 0.446025 0.306809
O O4 0.906752 0.329480 0.202551
O O5 0.918463 0.146282 0.670915
O O6 0.511144 0.034819 0.597929
O O7 0.927542 0.145557 0.852528
O O8 0.590883 0.793857 0.723771
O O9 0.196405 0.426981 0.536972
O O10 0.887122 0.155946 0.482332
O O11 0.786275 0.858475 0.488981
O O12 0.955110 0.071979 0.159641
O O13 0.000000 0.000000 0.000000
O O14 0.170366 0.886953 0.722048
O O15 0.500000 0.000000 0.000000
#
# Coordination Sequence:
#
# PCOD8043880 Si02
#       7
#     2   2   2   2   2   2   2
#     4   9  18  35  65  85 112 152 197 241 285 341
#     4  11  20  38  56  92 116 150 193 247 294 342
#     4   9  17  37  60  87 113 153 197 236 284 346
#     4  10  20  32  61  91 120 142 190 251 297 327
#     4  11  24  40  60  83 121 159 192 238 294 353
#     4  10  22  42  60  82 120 164 191 229 292 357
#     4  10  19  37  60  91 113 152 195 243 284 345
#
# _framework density 19.779374000000001
#
# number of rings (size 3 to 8) (size 9 to 14) (size 15 to 20)
#    0.000    2.000    2.857    2.571    2.000    0.000 
#    2.571    8.571    0.000    0.000    0.000    0.000 
#    0.000    0.000    0.000    0.000    0.000    0.000 
#
# Total GULP energy -173486.652337 kJ/mol
# GULP energy per Si atom -12391.903738 kJ/mol
# Density = 1.973436 g / cm^3
# Si number density = 19.779374 Si / 1000 Ang^3
#
#
#
# Elastic Constant Matrix: (Units=GPa)
#
#
# Indices 1 2 3 4 5 6 
#
# 1 67.2370 31.0191 25.5521 -9.6493 -6.2036 16.4649
# 2 31.0191 154.8292 52.1493 -18.1031 -4.5111 7.0595
# 3 25.5521 52.1493 110.7444 -6.2601 -0.0977 13.1426
# 4 -9.6493 -18.1031 -6.2601 30.6346 9.1102 -3.2049
# 5 -6.2036 -4.5111 -0.0977 9.1102 24.4633 -2.4265
# 6 16.4649 7.0595 13.1426 -3.2049 -2.4265 26.0641
#
#
#
# Elastic Compliance Matrix: (Units=1/GPa)
#
#
# Indices 1 2 3 4 5 6 
#
# 1 0.019925 -0.002449 -0.002073 0.002546 0.002621 -0.010321
# 2 -0.002449 0.008452 -0.003366 0.003784 -0.000347 0.001388
# 3 -0.002073 -0.003366 0.011522 -0.000272 -0.001371 -0.003750
# 4 0.002546 0.003784 -0.000272 0.039710 -0.013332 0.001146
# 5 0.002621 -0.000347 -0.001371 -0.013332 0.046619 0.001830
# 6 -0.010321 0.001388 -0.003750 0.001146 0.001830 0.046713
#
#
# Mechanical properties :
#
#
# Convention : Reuss Voigt Hill
#
# Bulk Modulus (GPa) = 41.45512 61.13905 51.29708
# Shear Modulus (GPa) = 25.41197 31.17174 28.29186
#
# Velocity S-wave (km/s) = 3.58826 3.97416 3.78613
# Velocity P-wave (km/s) = 6.17833 7.21361 6.71595
#
# Compressibility (1/GPa) = 0.02412247
#
# Stress axis : x y z
#
# Youngs Moduli (GPa) = 50.18818 118.31257 86.79335
#
# Poissons Ratio (x) = 0.28975 0.17992
# Poissons Ratio (y) = 0.12291 0.29216
# Poissons Ratio (z) = 0.10404 0.39826
#
# Static dielectric constant tensor:
#      x y z
#    x 3.485550 0.085270 -0.037270 
#    y 0.085270 3.878800 0.088680 
#    z -0.037270 0.088680 3.487870 
# 
# 
# High freq. dielectric constant tensor:
#      x y z
#    x 1.758200 0.004040 0.001140 
#    y 0.004040 1.788920 -0.003130 
#    z 0.001140 -0.003130 1.740080 
# 
# From -- ./inp_files/199720.got.cif
#   From: 2010.06.25/outbox.cif.g09.slc.cpg/sg2_100_cif.got.tgz:199720.got - 2010.06.27 13:26:56.
