data_PCOD8043884
_publ_section_title
;
Structure prediction by ZEFSAII (Michael W. Deem and Ramdas Pophale) SiO2 
 PCOD8043884
Probable space group: P -1
;
_chemical_formula_sum "Si O2"
_cell_formula_units_Z 16
_cell_length_a 12.277229
_cell_length_b 22.788960
_cell_length_c 9.937481
_cell_angle_alpha 39.847613
_cell_angle_beta 65.010024
_cell_angle_gamma 34.356642
_cell_volume 815.771805
_symmetry_space_group_name_H-M "P -1"
_symmetry_group_IT_number 2
_symmetry_cell_setting 'triclinic'
loop_
_space_group_symop_operation_xyz
x,y,z
-x,-y,-z
loop_
_atom_site_type_symbol
_atom_site_label
_atom_site_fract_x
_atom_site_fract_y
_atom_site_fract_z
Si Si1 0.752433 0.487207 0.925800
Si Si2 0.246199 0.906176 0.826990
Si Si3 0.358983 0.524646 0.272286
Si Si4 0.083209 0.437670 0.218637
Si Si5 0.848352 0.288839 0.448458
Si Si6 0.032827 0.903790 0.767393
Si Si7 0.412759 0.850179 0.556951
Si Si8 0.749980 0.498922 0.361557
O O1 0.685294 0.513591 0.760728
O O2 0.948257 0.440976 0.909875
O O3 0.516720 0.677945 0.791379
O O4 0.844877 0.335824 0.218619
O O5 0.308180 0.925969 0.628114
O O6 0.096749 0.069848 0.717747
O O7 0.080064 0.927362 0.839937
O O8 0.485295 0.713281 0.111147
O O9 0.637740 0.353527 0.458265
O O10 0.226358 0.571702 0.388525
O O11 0.255443 0.692099 0.996204
O O12 0.934415 0.461362 0.336478
O O13 0.366820 0.224213 0.448644
O O14 0.000000 0.500000 0.000000
O O15 0.825245 0.382650 0.406442
O O16 0.790092 0.002104 0.712831
O O17 0.000000 0.000000 0.500000
#
# Coordination Sequence:
#
# PCOD8043884 Si02
#       8
#     2   2   2   2   2   2   2   2
#     4  10  20  39  68  92 121 174 216 261 316 380
#     4  11  21  37  67  94 131 169 209 269 324 380
#     4  12  25  39  64  99 139 164 213 275 326 387
#     4  10  19  41  72  85 132 178 212 266 318 376
#     4  12  22  40  67  97 127 171 220 259 330 390
#     4  10  19  37  60  93 130 160 206 267 316 373
#     4   9  18  37  65  93 119 163 217 268 301 362
#     4  12  24  46  60  98 139 172 210 268 329 380
#
# _framework density 19.613329
#
# number of rings (size 3 to 8) (size 9 to 14) (size 15 to 20)
#    0.750    0.500    5.000    3.750    0.000    1.000 
#    2.250    4.375    0.000    0.000    0.000    0.000 
#    0.000    0.000    0.000    0.000    0.000    0.000 
#
# Total GULP energy -198285.732572 kJ/mol
# GULP energy per Si atom -12392.858286 kJ/mol
# Density = 1.956869 g / cm^3
# Si number density = 19.613329 Si / 1000 Ang^3
#
#
#
# Elastic Constant Matrix: (Units=GPa)
#
#
# Indices 1 2 3 4 5 6 
#
# 1 106.6466 37.4326 14.9561 3.0242 0.0805 -23.5029
# 2 37.4326 89.3220 43.9773 -12.7810 -4.1370 -4.8203
# 3 14.9561 43.9773 52.2027 -12.3061 -3.4373 -8.4227
# 4 3.0242 -12.7810 -12.3061 42.0440 -2.9171 -3.7124
# 5 0.0805 -4.1370 -3.4373 -2.9171 25.4678 -5.7902
# 6 -23.5029 -4.8203 -8.4227 -3.7124 -5.7902 29.8896
#
#
#
# Elastic Compliance Matrix: (Units=1/GPa)
#
#
# Indices 1 2 3 4 5 6 
#
# 1 0.013766 -0.007021 0.003607 -0.000989 0.001670 0.010910
# 2 -0.007021 0.022830 -0.017925 0.001605 -0.000027 -0.006696
# 3 0.003607 -0.017925 0.037153 0.006648 0.005658 0.012337
# 4 -0.000989 0.001605 0.006648 0.027192 0.005598 0.005816
# 5 0.001670 -0.000027 0.005658 0.005598 0.043390 0.012004
# 6 0.010910 -0.006696 0.012337 0.005816 0.012004 0.047479
#
#
# Mechanical properties :
#
#
# Convention : Reuss Voigt Hill
#
# Bulk Modulus (GPa) = 32.18223 48.98926 40.58575
# Shear Modulus (GPa) = 20.42113 29.60063 25.01088
#
# Velocity S-wave (km/s) = 3.23024 3.88907 3.57487
# Velocity P-wave (km/s) = 5.50968 6.72296 6.14633
#
# Compressibility (1/GPa) = 0.03107305
#
# Stress axis : x y z
#
# Youngs Moduli (GPa) = 72.64204 43.80193 26.91539
#
# Poissons Ratio (x) = 0.30751 -0.09709
# Poissons Ratio (y) = 0.50999 0.48246
# Poissons Ratio (z) = -0.26204 0.78515
#
# Static dielectric constant tensor:
#      x y z
#    x 3.855250 -0.152070 0.228420 
#    y -0.152070 3.404410 -0.178300 
#    z 0.228420 -0.178300 3.461200 
# 
# 
# High freq. dielectric constant tensor:
#      x y z
#    x 1.765570 -0.000200 0.011150 
#    y -0.000200 1.748710 -0.013940 
#    z 0.011150 -0.013940 1.746780 
# 
# From -- ./inp_files/282734.got.cif
#   From: 2010.06.25/outbox.cif.g09.slc.cpg/sg2_142_cif.got.tgz:282734.got - 2010.06.27 13:26:56.
