data_PCOD8043165
_publ_section_title
;
Structure prediction by ZEFSAII (Michael W. Deem and Ramdas Pophale) SiO2 
 PCOD8043165
Probable space group: P -1
;
_chemical_formula_sum "Si O2"
_cell_formula_units_Z 14
_cell_length_a 14.887968
_cell_length_b 6.480712
_cell_length_c 27.206704
_cell_angle_alpha 81.123810
_cell_angle_beta 163.155232
_cell_angle_gamma 105.832442
_cell_volume 675.972120
_symmetry_space_group_name_H-M "P -1"
_symmetry_group_IT_number 2
_symmetry_cell_setting 'triclinic'
loop_
_space_group_symop_operation_xyz
x,y,z
-x,-y,-z
loop_
_atom_site_type_symbol
_atom_site_label
_atom_site_fract_x
_atom_site_fract_y
_atom_site_fract_z
Si Si1 0.464441 0.529548 0.047778
Si Si2 0.278859 0.484070 0.233469
Si Si3 0.665197 0.761906 0.337694
Si Si4 0.264445 0.104669 0.897225
Si Si5 0.599068 0.550031 0.875214
Si Si6 0.788803 0.608299 0.688157
Si Si7 0.140385 0.947618 0.025960
O O1 0.431189 0.274960 0.024994
O O2 0.100870 0.538204 0.845532
O O3 0.774895 0.727878 0.171812
O O4 0.566291 0.585098 0.156049
O O5 0.607448 0.656642 0.366559
O O6 0.382032 0.485697 0.344420
O O7 0.980613 0.568628 0.067723
O O8 0.161014 0.221273 0.161767
O O9 0.659234 0.573503 0.301011
O O10 0.347517 0.804664 0.152922
O O11 0.000000 0.000000 0.500000
O O12 0.917974 0.887747 0.741743
O O13 0.500000 0.000000 0.000000
O O14 0.628138 0.808247 0.887661
O O15 0.500000 0.500000 0.500000
O O16 0.000000 0.000000 0.000000
#
# Coordination Sequence:
#
# PCOD8043165 Si02
#       7
#     2   2   2   2   2   2   2
#     4   9  19  35  60  83 109 147 191 234 275 332
#     4  10  20  37  56  82 110 150 195 232 270 338
#     4  11  23  36  54  86 124 143 178 243 289 328
#     4   9  18  36  56  78 108 142 188 232 276 325
#     4  10  19  36  59  84 108 149 195 226 274 343
#     4  10  21  35  56  82 116 148 187 233 282 332
#     4  11  18  36  64  79 105 153 197 222 270 343
#
# _framework density 20.710912
#
# number of rings (size 3 to 8) (size 9 to 14) (size 15 to 20)
#    0.000    2.000    2.857    1.714    0.000    3.429 
#    0.000    4.286    0.000    0.000    0.000    0.000 
#    0.000    0.000    0.000    0.000    0.000    0.000 
#
# Total GULP energy -173472.203498 kJ/mol
# GULP energy per Si atom -12390.871678 kJ/mol
# Density = 2.066377 g / cm^3
# Si number density = 20.710912 Si / 1000 Ang^3
#
#
#
# Elastic Constant Matrix: (Units=GPa)
#
#
# Indices 1 2 3 4 5 6 
#
# 1 156.6181 44.8056 47.5028 19.3571 -16.5071 27.9752
# 2 44.8056 107.6170 32.2914 35.6943 -7.9242 9.4585
# 3 47.5028 32.2914 62.2298 23.8653 -14.9291 18.3404
# 4 19.3571 35.6943 23.8653 34.2462 4.1618 6.2807
# 5 -16.5071 -7.9242 -14.9291 4.1618 25.2437 4.5966
# 6 27.9752 9.4585 18.3404 6.2807 4.5966 43.5237
#
#
#
# Elastic Compliance Matrix: (Units=1/GPa)
#
#
# Indices 1 2 3 4 5 6 
#
# 1 0.009333 -0.001967 -0.003646 -0.000384 0.004198 -0.004423
# 2 -0.001967 0.016199 0.002796 -0.018481 0.008809 -0.001698
# 3 -0.003646 0.002796 0.040070 -0.029817 0.029652 -0.013978
# 4 -0.000384 -0.018481 -0.029817 0.072108 -0.037464 0.010379
# 5 0.004198 0.008809 0.029652 -0.037464 0.072359 -0.019344
# 6 -0.004423 -0.001698 -0.013978 0.010379 -0.019344 0.032623
#
#
# Mechanical properties :
#
#
# Convention : Reuss Voigt Hill
#
# Bulk Modulus (GPa) = 16.67500 63.96272 40.31886
# Shear Modulus (GPa) = 18.63474 34.06039 26.34756
#
# Velocity S-wave (km/s) = 3.00285 4.05972 3.57060
# Velocity P-wave (km/s) = 4.48236 7.27501 6.04224
#
# Compressibility (1/GPa) = 0.05997002
#
# Stress axis : x y z
#
# Youngs Moduli (GPa) = 107.14104 61.73048 24.95643
#
# Poissons Ratio (x) = 0.12140 0.09099
# Poissons Ratio (y) = 0.21071 -0.06979
# Poissons Ratio (z) = 0.39065 -0.17262
#
# Static dielectric constant tensor:
#      x y z
#    x 4.028200 0.091160 -0.083930 
#    y 0.091160 4.530950 0.359060 
#    z -0.083930 0.359060 3.267480 
# 
# 
# High freq. dielectric constant tensor:
#      x y z
#    x 1.830830 0.004240 -0.006810 
#    y 0.004240 1.823810 0.024590 
#    z -0.006810 0.024590 1.752680 
# 
# From -- ./inp_files/38759.got.cif
#   From: 2010.06.25/outbox.cif.g09.slc.cpg/sg2_20_cif.got.tgz:38759.got - 2010.06.27 13:26:56.
