data_PCOD8043137
_publ_section_title
;
Structure prediction by ZEFSAII (Michael W. Deem and Ramdas Pophale) SiO2 
 PCOD8043137
Probable space group: P -1
;
_chemical_formula_sum "Si O2"
_cell_formula_units_Z 16
_cell_length_a 8.830701
_cell_length_b 9.029310
_cell_length_c 10.874633
_cell_angle_alpha 85.473345
_cell_angle_beta 62.798063
_cell_angle_gamma 90.615027
_cell_volume 767.713117
_symmetry_space_group_name_H-M "P -1"
_symmetry_group_IT_number 2
_symmetry_cell_setting 'triclinic'
loop_
_space_group_symop_operation_xyz
x,y,z
-x,-y,-z
loop_
_atom_site_type_symbol
_atom_site_label
_atom_site_fract_x
_atom_site_fract_y
_atom_site_fract_z
Si Si1 0.744199 0.009075 0.994446
Si Si2 0.739086 0.222674 0.191592
Si Si3 0.802387 0.517678 0.047768
Si Si4 0.518808 0.618051 0.314275
Si Si5 0.382721 0.867484 0.197304
Si Si6 0.581863 0.711812 0.553647
Si Si7 0.828262 0.904640 0.600509
Si Si8 0.086260 0.244225 0.176927
O O1 0.737233 0.133648 0.879803
O O2 0.885250 0.895266 0.913562
O O3 0.787083 0.078804 0.106795
O O4 0.568071 0.915080 0.076751
O O5 0.713846 0.352036 0.089549
O O6 0.567002 0.197566 0.334274
O O7 0.886223 0.272074 0.231790
O O8 0.704501 0.605129 0.184832
O O9 0.793798 0.611062 0.918170
O O10 0.000000 0.500000 0.000000
O O11 0.390219 0.706513 0.269518
O O12 0.557388 0.713716 0.416551
O O13 0.422632 0.458845 0.387141
O O14 0.315748 0.986660 0.310976
O O15 0.758290 0.803633 0.518334
O O16 0.868511 0.786164 0.698257
O O17 0.000000 0.000000 0.500000
#
# Coordination Sequence:
#
# PCOD8043137 Si02
#       8
#     2   2   2   2   2   2   2   2
#     4  10  19  36  58  89 121 151 197 251 300 356
#     4  10  20  36  63  89 118 156 202 245 301 356
#     4   9  19  37  59  89 117 148 193 252 296 352
#     4  10  21  40  66  88 119 159 205 246 300 357
#     4  10  21  37  60  87 122 155 197 251 302 358
#     4  10  23  41  63  88 119 162 207 246 294 366
#     4  11  25  43  58  88 126 162 203 248 302 357
#     4  10  21  38  60  87 124 155 195 252 299 358
#
# _framework density 20.84112
#
# number of rings (size 3 to 8) (size 9 to 14) (size 15 to 20)
#    0.000    2.000    2.500    0.375    1.750    2.500 
#    9.000    3.125    0.000    0.000    0.000    0.000 
#    0.000    0.000    0.000    0.000    0.000    0.000 
#
# Total GULP energy -198273.750069 kJ/mol
# GULP energy per Si atom -12392.109379 kJ/mol
# Density = 2.079368 g / cm^3
# Si number density = 20.841120 Si / 1000 Ang^3
#
#
#
# Elastic Constant Matrix: (Units=GPa)
#
#
# Indices 1 2 3 4 5 6 
#
# 1 64.7194 26.7316 20.1176 -3.7205 -9.5823 -0.3126
# 2 26.7316 54.5015 20.0408 -0.2552 1.1092 -6.5929
# 3 20.1176 20.0408 77.6033 -8.7442 -6.2282 -1.0771
# 4 -3.7205 -0.2552 -8.7442 30.1857 3.0111 10.2212
# 5 -9.5823 1.1092 -6.2282 3.0111 17.0800 -6.7429
# 6 -0.3126 -6.5929 -1.0771 10.2212 -6.7429 36.3362
#
#
#
# Elastic Compliance Matrix: (Units=1/GPa)
#
#
# Indices 1 2 3 4 5 6 
#
# 1 0.022246 -0.010382 -0.002002 0.000713 0.012440 0.000356
# 2 -0.010382 0.025838 -0.004849 -0.003109 -0.007141 0.004005
# 3 -0.002002 -0.004849 0.015407 0.004110 0.003728 -0.000905
# 4 0.000713 -0.003109 0.004110 0.040019 -0.010328 -0.013610
# 5 0.012440 -0.007141 0.003728 -0.010328 0.075417 0.015822
# 6 0.000356 0.004005 -0.000905 -0.013610 0.015822 0.034988
#
#
# Mechanical properties :
#
#
# Convention : Reuss Voigt Hill
#
# Bulk Modulus (GPa) = 34.45291 36.73379 35.59335
# Shear Modulus (GPa) = 19.37548 25.38266 22.37907
#
# Velocity S-wave (km/s) = 3.05237 3.49365 3.28043
# Velocity P-wave (km/s) = 5.38421 5.82563 5.60926
#
# Compressibility (1/GPa) = 0.02902512
#
# Stress axis : x y z
#
# Youngs Moduli (GPa) = 44.95134 38.70210 64.90480
#
# Poissons Ratio (x) = 0.40179 0.12996
# Poissons Ratio (y) = 0.46667 0.31474
# Poissons Ratio (z) = 0.09001 0.18768
#
# Static dielectric constant tensor:
#      x y z
#    x 3.563690 -0.284100 0.056300 
#    y -0.284100 3.873430 -0.158690 
#    z 0.056300 -0.158690 3.964620 
# 
# 
# High freq. dielectric constant tensor:
#      x y z
#    x 1.797730 -0.020980 -0.002780 
#    y -0.020980 1.813230 -0.004360 
#    z -0.002780 -0.004360 1.818560 
# 
# From -- ./inp_files/203694.got.cif
#   From: 2010.06.25/outbox.cif.g09.slc.cpg/sg2_102_cif.got.tgz:203694.got - 2010.06.27 13:26:56.
