data_PCOD8043601
_publ_section_title
;
Structure prediction by ZEFSAII (Michael W. Deem and Ramdas Pophale) SiO2 
 PCOD8043601
Probable space group: P -1
;
_chemical_formula_sum "Si O2"
_cell_formula_units_Z 16
_cell_length_a 14.257771
_cell_length_b 11.027779
_cell_length_c 14.612818
_cell_angle_alpha 150.037763
_cell_angle_beta 136.721473
_cell_angle_gamma 41.842580
_cell_volume 741.566043
_symmetry_space_group_name_H-M "P -1"
_symmetry_group_IT_number 2
_symmetry_cell_setting 'triclinic'
loop_
_space_group_symop_operation_xyz
x,y,z
-x,-y,-z
loop_
_atom_site_type_symbol
_atom_site_label
_atom_site_fract_x
_atom_site_fract_y
_atom_site_fract_z
Si Si1 0.990655 0.264631 0.507112
Si Si2 0.665693 0.558132 0.411328
Si Si3 0.928130 0.791718 0.114147
Si Si4 0.595534 0.051282 0.019766
Si Si5 0.018549 0.706233 0.923004
Si Si6 0.524775 0.007696 0.733131
Si Si7 0.254401 0.315162 0.633574
Si Si8 0.219176 0.831587 0.026219
O O1 0.026700 0.409203 0.716844
O O2 0.107759 0.245427 0.496781
O O3 0.832918 0.421276 0.461580
O O4 0.986279 0.978960 0.341812
O O5 0.665077 0.749401 0.449981
O O6 0.577337 0.722658 0.540961
O O7 0.587153 0.347590 0.199201
O O8 0.000000 0.500000 0.000000
O O9 0.984304 0.816717 0.070306
O O10 0.755917 0.866138 0.038381
O O11 0.544121 0.976619 0.836268
O O12 0.500000 0.000000 0.000000
O O13 0.173863 0.734390 0.026599
O O14 0.890093 0.881801 0.881995
O O15 0.359755 0.164301 0.691778
O O16 0.618209 0.166790 0.856863
O O17 0.208900 0.625732 0.808923
#
# Coordination Sequence:
#
# PCOD8043601 Si02
#       8
#     2   2   2   2   2   2   2   2
#     4  10  22  40  63  93 128 161 210 258 308 376
#     4  11  22  41  66  93 125 170 208 255 315 377
#     4  11  24  43  66  92 120 163 217 266 304 368
#     4  11  26  46  64  88 126 174 215 257 312 372
#     4  10  20  39  64  95 122 168 207 251 320 368
#     4  12  23  42  62  93 136 164 206 259 315 380
#     4  11  23  37  64 102 132 163 201 259 323 375
#     4  10  19  36  65  91 128 164 199 252 314 374
#
# _framework density 21.575961
#
# number of rings (size 3 to 8) (size 9 to 14) (size 15 to 20)
#    0.000    1.250    3.750    1.875    1.750    4.000 
#    0.000    1.250    0.000    0.000    0.000    0.000 
#    0.000    0.000    0.000    0.000    0.000    0.000 
#
# Total GULP energy -198302.729457 kJ/mol
# GULP energy per Si atom -12393.920591 kJ/mol
# Density = 2.152685 g / cm^3
# Si number density = 21.575961 Si / 1000 Ang^3
#
#
#
# Elastic Constant Matrix: (Units=GPa)
#
#
# Indices 1 2 3 4 5 6 
#
# 1 121.1212 29.7590 32.6440 3.0581 -9.4208 -10.6716
# 2 29.7590 78.0470 47.2353 20.0235 5.8080 -5.9322
# 3 32.6440 47.2353 93.8115 21.4737 -6.5533 -3.7202
# 4 3.0581 20.0235 21.4737 24.9056 -0.1580 0.9880
# 5 -9.4208 5.8080 -6.5533 -0.1580 27.7779 7.1181
# 6 -10.6716 -5.9322 -3.7202 0.9880 7.1181 11.5514
#
#
#
# Elastic Compliance Matrix: (Units=1/GPa)
#
#
# Indices 1 2 3 4 5 6 
#
# 1 0.010201 -0.002937 -0.002377 0.002949 0.002092 0.005609
# 2 -0.002937 0.024518 -0.008680 -0.012569 -0.012270 0.015719
# 3 -0.002377 -0.008680 0.017970 -0.008024 0.006233 -0.004021
# 4 0.002949 -0.012569 -0.008024 0.057439 0.005865 -0.014841
# 5 0.002092 -0.012270 0.006233 0.005865 0.049296 -0.033239
# 6 0.005609 0.015719 -0.004021 -0.014841 -0.033239 0.120280
#
#
# Mechanical properties :
#
#
# Convention : Reuss Voigt Hill
#
# Bulk Modulus (GPa) = 40.48427 56.91736 48.70082
# Shear Modulus (GPa) = 15.82641 25.06974 20.44807
#
# Velocity S-wave (km/s) = 2.71130 3.41241 3.08185
# Velocity P-wave (km/s) = 5.34844 6.47791 5.94008
#
# Compressibility (1/GPa) = 0.02470095
#
# Stress axis : x y z
#
# Youngs Moduli (GPa) = 98.03024 40.78583 55.64746
#
# Poissons Ratio (x) = 0.11978 0.13230
# Poissons Ratio (y) = 0.28789 0.48303
# Poissons Ratio (z) = 0.23306 0.35402
#
# Static dielectric constant tensor:
#      x y z
#    x 3.962910 -0.289940 0.051380 
#    y -0.289940 3.499420 0.289790 
#    z 0.051380 0.289790 4.134050 
# 
# 
# High freq. dielectric constant tensor:
#      x y z
#    x 1.847830 -0.021470 -0.001250 
#    y -0.021470 1.824840 0.013360 
#    z -0.001250 0.013360 1.855230 
# 
# From -- ./inp_files/532192.got.cif
#   From: 2010.06.25/outbox.cif.g09.slc.cpg/sg2_267_cif.got.tgz:532192.got - 2010.06.27 13:26:56.
