data_PCOD8043985
_publ_section_title
;
Structure prediction by ZEFSAII (Michael W. Deem and Ramdas Pophale) SiO2 
 PCOD8043985
Probable space group: P -1
;
_chemical_formula_sum "Si O2"
_cell_formula_units_Z 14
_cell_length_a 8.953430
_cell_length_b 21.352945
_cell_length_c 13.780653
_cell_angle_alpha 33.916596
_cell_angle_beta 149.165999
_cell_angle_gamma 129.534932
_cell_volume 726.394454
_symmetry_space_group_name_H-M "P -1"
_symmetry_group_IT_number 2
_symmetry_cell_setting 'triclinic'
loop_
_space_group_symop_operation_xyz
x,y,z
-x,-y,-z
loop_
_atom_site_type_symbol
_atom_site_label
_atom_site_fract_x
_atom_site_fract_y
_atom_site_fract_z
Si Si1 0.963271 0.276444 0.517582
Si Si2 0.267978 0.310738 0.825799
Si Si3 0.627138 0.864900 0.224721
Si Si4 0.791632 0.517946 0.586790
Si Si5 0.022215 0.874517 0.798654
Si Si6 0.731971 0.697973 0.942603
Si Si7 0.098903 0.853807 0.645793
O O1 0.610704 0.302096 0.267005
O O2 0.037214 0.258945 0.697291
O O3 0.155030 0.162330 0.713637
O O4 0.074018 0.388795 0.398631
O O5 0.298641 0.430224 0.638883
O O6 0.157145 0.333433 0.844904
O O7 0.589339 0.218345 0.131306
O O8 0.827210 0.810632 0.499551
O O9 0.333446 0.817677 0.104253
O O10 0.500000 0.000000 0.000000
O O11 0.500000 0.500000 0.500000
O O12 0.048990 0.397046 0.881255
O O13 0.083438 0.829974 0.780664
O O14 0.764265 0.825321 0.767116
O O15 0.923120 0.013386 0.565970
#
# Coordination Sequence:
#
# PCOD8043985 Si02
#       7
#     2   2   2   2   2   2   2
#     4  10  22  38  62  90 123 157 194 253 298 352
#     4  10  22  37  63  85 127 152 198 245 310 341
#     4  10  19  37  62  86 117 162 201 243 291 353
#     4  10  22  42  66  84 119 160 202 248 292 356
#     4  10  22  36  64  86 122 155 210 241 292 358
#     4  12  22  41  60  93 122 160 195 247 307 353
#     4  10  19  39  61  87 117 164 198 251 290 350
#
# _framework density 19.273275000000002
#
# number of rings (size 3 to 8) (size 9 to 14) (size 15 to 20)
#    0.857    0.857    2.857    2.571    0.000    1.714 
#    0.000    1.429    0.000    0.000    0.000    0.000 
#    0.000    0.000    0.000    0.000    0.000    0.000 
#
# Total GULP energy -173492.261912 kJ/mol
# GULP energy per Si atom -12392.304422 kJ/mol
# Density = 1.922941 g / cm^3
# Si number density = 19.273275 Si / 1000 Ang^3
#
#
#
# Elastic Constant Matrix: (Units=GPa)
#
#
# Indices 1 2 3 4 5 6 
#
# 1 83.2567 58.8394 37.8704 -2.3116 6.5500 10.0572
# 2 58.8394 110.2420 52.0172 27.4211 -3.4217 4.7499
# 3 37.8704 52.0172 92.5551 11.3803 15.1634 -1.9774
# 4 -2.3116 27.4211 11.3803 27.1791 -0.3668 -3.0490
# 5 6.5500 -3.4217 15.1634 -0.3668 37.3052 -0.8971
# 6 10.0572 4.7499 -1.9774 -3.0490 -0.8971 36.7928
#
#
#
# Elastic Compliance Matrix: (Units=1/GPa)
#
#
# Indices 1 2 3 4 5 6 
#
# 1 0.028808 -0.019942 -0.002571 0.023159 -0.005702 -0.003658
# 2 -0.019942 0.030702 -0.006898 -0.029792 0.008801 -0.001138
# 3 -0.002571 -0.006898 0.016957 -0.000194 -0.007020 0.002317
# 4 0.023159 -0.029792 -0.000194 0.069168 -0.005966 0.003092
# 5 -0.005702 0.008801 -0.007020 -0.005966 0.031417 0.000317
# 6 -0.003658 -0.001138 0.002317 0.003092 0.000317 0.028714
#
#
# Mechanical properties :
#
#
# Convention : Reuss Voigt Hill
#
# Bulk Modulus (GPa) = 56.67803 64.83423 60.75613
# Shear Modulus (GPa) = 18.48635 29.41053 23.94844
#
# Velocity S-wave (km/s) = 3.10041 3.91061 3.52884
# Velocity P-wave (km/s) = 6.50293 7.35547 6.94230
#
# Compressibility (1/GPa) = 0.01764352
#
# Stress axis : x y z
#
# Youngs Moduli (GPa) = 34.71303 32.57071 58.97403
#
# Poissons Ratio (x) = 0.64954 0.15160
# Poissons Ratio (y) = 0.69226 0.40683
# Poissons Ratio (z) = 0.08924 0.22469
#
# Static dielectric constant tensor:
#      x y z
#    x 3.378320 -0.275010 0.007450 
#    y -0.275010 3.664650 0.209340 
#    z 0.007450 0.209340 3.618510 
# 
# 
# High freq. dielectric constant tensor:
#      x y z
#    x 1.734230 -0.019970 0.012660 
#    y -0.019970 1.745030 0.010040 
#    z 0.012660 0.010040 1.759000 
# 
# From -- ./inp_files/180722.got.cif
#   From: 2010.06.25/outbox.cif.g09.slc.cpg/sg2_91_cif.got.tgz:180722.got - 2010.06.27 13:26:56.
