data_PCOD8043106
_publ_section_title
;
Structure prediction by ZEFSAII (Michael W. Deem and Ramdas Pophale) SiO2 
 PCOD8043106
Probable space group: P -1
;
_chemical_formula_sum "Si O2"
_cell_formula_units_Z 14
_cell_length_a 9.993147
_cell_length_b 21.222718
_cell_length_c 5.232786
_cell_angle_alpha 125.224329
_cell_angle_beta 131.302759
_cell_angle_gamma 41.251607
_cell_volume 542.398300
_symmetry_space_group_name_H-M "P -1"
_symmetry_group_IT_number 2
_symmetry_cell_setting 'triclinic'
loop_
_space_group_symop_operation_xyz
x,y,z
-x,-y,-z
loop_
_atom_site_type_symbol
_atom_site_label
_atom_site_fract_x
_atom_site_fract_y
_atom_site_fract_z
Si Si1 0.618297 0.522466 0.498382
Si Si2 0.596460 0.694894 0.933223
Si Si3 0.790898 0.781829 0.147856
Si Si4 0.170405 0.655366 0.945799
Si Si5 0.744859 0.956511 0.616172
Si Si6 0.690466 0.225053 0.743828
Si Si7 0.707703 0.056253 0.280370
O O1 0.500000 0.500000 0.500000
O O2 0.710037 0.580834 0.859637
O O3 0.424232 0.593260 0.219981
O O4 0.831222 0.419554 0.414622
O O5 0.497933 0.719596 0.581255
O O6 0.760061 0.727423 0.213445
O O7 0.412128 0.756270 0.059699
O O8 0.884532 0.839316 0.508225
O O9 0.976433 0.694529 0.997416
O O10 0.560336 0.861205 0.894558
O O11 0.140846 0.745780 0.977875
O O12 0.500000 0.000000 0.500000
O O13 0.749673 0.992228 0.427277
O O14 0.830367 0.990935 0.027701
O O15 0.822899 0.110070 0.591410
#
# Coordination Sequence:
#
# PCOD8043106 Si02
#       7
#     2   2   2   2   2   2   2
#     4  10  20  42  61  82 116 165 192 232 310 361
#     4  10  21  37  62  84 119 153 196 240 291 359
#     4  10  21  38  58  95 115 151 201 251 285 338
#     4  10  22  39  62  85 122 151 200 249 290 350
#     4  10  19  36  58  84 121 158 188 237 296 348
#     4  10  19  38  59  87 114 162 196 230 296 358
#     4  10  20  37  61  82 120 160 194 232 292 354
#
# _framework density 25.81129
#
# number of rings (size 3 to 8) (size 9 to 14) (size 15 to 20)
#    0.000    2.000    1.429    4.286    0.000    1.714 
#   12.857    2.143    0.000    0.000    0.000    1.000 
#    0.000    0.000    0.000    0.000    0.000    0.000 
#
# Total GULP energy -173435.996473 kJ/mol
# GULP energy per Si atom -12388.285462 kJ/mol
# Density = 2.575254 g / cm^3
# Si number density = 25.811290 Si / 1000 Ang^3
#
#
#
# Elastic Constant Matrix: (Units=GPa)
#
#
# Indices 1 2 3 4 5 6 
#
# 1 120.9193 33.5923 44.0231 19.2097 -12.6775 40.3968
# 2 33.5923 56.5766 79.6665 14.6431 13.1517 34.4397
# 3 44.0231 79.6665 107.2310 64.2612 -21.7328 21.0686
# 4 19.2097 14.6431 64.2612 48.6095 18.7783 23.1746
# 5 -12.6775 13.1517 -21.7328 18.7783 40.0153 11.5011
# 6 40.3968 34.4397 21.0686 23.1746 11.5011 56.0096
#
#
#
# Elastic Compliance Matrix: (Units=1/GPa)
#
#
# Indices 1 2 3 4 5 6 
#
# 1 0.012889 -0.000277 -0.002071 0.000052 0.005771 -0.009554
# 2 -0.000277 0.006309 0.010560 -0.019950 0.013563 -0.002183
# 3 -0.002071 0.010560 -0.004509 0.009919 -0.009672 -0.005422
# 4 0.000052 -0.019950 0.009919 0.009318 0.006646 0.003278
# 5 0.005771 0.013563 -0.009672 0.006646 0.018414 -0.015395
# 6 -0.009554 -0.002183 -0.005422 0.003278 -0.015395 0.029931
#
#
# Mechanical properties :
#
#
# Convention : Reuss Voigt Hill
#
# Bulk Modulus (GPa) = 32.13916 66.58784 49.36350
# Shear Modulus (GPa) = 75.41463 37.42322 56.41893
#
# Velocity S-wave (km/s) = 5.41120 3.81186 4.68035
# Velocity P-wave (km/s) = 7.17775 6.72515 6.95513
#
# Compressibility (1/GPa) = 0.03111469
#
# Stress axis : x y z
#
# Youngs Moduli (GPa) = 77.58372 158.49945 -221.78748
#
# Poissons Ratio (x) = 0.04386 -0.45923
# Poissons Ratio (y) = 0.02147 2.34203
# Poissons Ratio (z) = 0.16064 -1.67372
#
# Static dielectric constant tensor:
#      x y z
#    x 5.509930 2.433500 0.038590 
#    y 2.433500 8.951610 0.404150 
#    z 0.038590 0.404150 6.210690 
# 
# 
# High freq. dielectric constant tensor:
#      x y z
#    x 2.028850 0.023160 0.002140 
#    y 0.023160 2.035210 0.026160 
#    z 0.002140 0.026160 2.039190 
# 
# From -- ./inp_files/53803.got.cif
#   From: 2010.06.25/outbox.cif.g09.slc.cpg/sg2_27_cif.got.tgz:53803.got - 2010.06.27 13:26:56.
