data_PCOD8043551
_publ_section_title
;
Structure prediction by ZEFSAII (Michael W. Deem and Ramdas Pophale) SiO2 
 PCOD8043551
Probable space group: P -1
;
_chemical_formula_sum "Si O2"
_cell_formula_units_Z 16
_cell_length_a 15.983072
_cell_length_b 8.745401
_cell_length_c 15.779597
_cell_angle_alpha 71.307878
_cell_angle_beta 27.843301
_cell_angle_gamma 90.374249
_cell_volume 737.116865
_symmetry_space_group_name_H-M "P -1"
_symmetry_group_IT_number 2
_symmetry_cell_setting 'triclinic'
loop_
_space_group_symop_operation_xyz
x,y,z
-x,-y,-z
loop_
_atom_site_type_symbol
_atom_site_label
_atom_site_fract_x
_atom_site_fract_y
_atom_site_fract_z
Si Si1 0.854024 0.693709 0.367805
Si Si2 0.997815 0.128687 0.176231
Si Si3 0.324347 0.794157 0.939026
Si Si4 0.203905 0.986607 0.446130
Si Si5 0.496463 0.620322 0.404299
Si Si6 0.579545 0.068002 0.511517
Si Si7 0.335402 0.433656 0.260415
Si Si8 0.177217 0.398316 0.236819
O O1 0.731240 0.541888 0.423070
O O2 0.734239 0.553505 0.585471
O O3 0.840300 0.877855 0.339148
O O4 0.133238 0.822841 0.102803
O O5 0.985604 0.151474 0.283649
O O6 0.862094 0.197687 0.239571
O O7 0.267404 0.273285 0.880014
O O8 0.548399 0.963637 0.769949
O O9 0.438398 0.850463 0.732678
O O10 0.193876 0.554911 0.127756
O O11 0.078729 0.837534 0.502165
O O12 0.257357 0.205500 0.349057
O O13 0.500000 0.500000 0.500000
O O14 0.482228 0.792095 0.422279
O O15 0.500000 0.000000 0.500000
O O16 0.209089 0.470198 0.294660
O O17 0.618707 0.612567 0.965706
#
# Coordination Sequence:
#
# PCOD8043551 Si02
#       8
#     2   2   2   2   2   2   2   2
#     4  11  23  43  64  90 136 166 213 268 322 383
#     4  10  23  43  64  91 129 168 209 263 321 380
#     4  10  23  38  62  89 129 169 208 267 322 371
#     4   9  19  37  62  92 125 174 215 256 322 378
#     4  12  27  43  68  99 124 169 218 264 328 390
#     4  11  25  45  68  93 130 167 214 268 325 384
#     4   9  20  37  60  95 125 174 210 269 320 368
#     4  10  19  36  64  91 129 164 225 262 311 387
#
# _framework density 21.706192999999999
#
# number of rings (size 3 to 8) (size 9 to 14) (size 15 to 20)
#    0.000    1.750    1.250    2.625    5.250    3.000 
#    0.000    0.625    0.000    0.000    0.000    0.000 
#    0.000    0.000    0.000    0.000    0.000    0.000 
#
# Total GULP energy -198323.811727 kJ/mol
# GULP energy per Si atom -12395.238233 kJ/mol
# Density = 2.165679 g / cm^3
# Si number density = 21.706193 Si / 1000 Ang^3
#
#
#
# Elastic Constant Matrix: (Units=GPa)
#
#
# Indices 1 2 3 4 5 6 
#
# 1 131.9842 36.2802 41.8338 -1.6902 -5.5309 3.6611
# 2 36.2802 62.2579 22.3550 5.4345 -9.5397 -3.3984
# 3 41.8338 22.3550 101.7712 9.3939 -18.7352 -0.6123
# 4 -1.6902 5.4345 9.3939 32.3743 -5.7388 -4.5728
# 5 -5.5309 -9.5397 -18.7352 -5.7388 36.2394 -1.0106
# 6 3.6611 -3.3984 -0.6123 -4.5728 -1.0106 32.4088
#
#
#
# Elastic Compliance Matrix: (Units=1/GPa)
#
#
# Indices 1 2 3 4 5 6 
#
# 1 0.010082 -0.005088 -0.003458 0.001937 -0.001324 -0.001506
# 2 -0.005088 0.020450 -0.001526 -0.002281 0.003526 0.002478
# 3 -0.003458 -0.001526 0.012801 -0.002667 0.005273 0.000261
# 4 0.001937 -0.002281 -0.002667 0.033418 0.003729 0.004323
# 5 -0.001324 0.003526 0.005273 0.003729 0.031697 0.002133
# 6 -0.001506 0.002478 0.000261 0.004323 0.002133 0.031967
#
#
# Mechanical properties :
#
#
# Convention : Reuss Voigt Hill
#
# Bulk Modulus (GPa) = 43.12409 55.21679 49.17044
# Shear Modulus (GPa) = 29.71066 33.24080 31.47573
#
# Velocity S-wave (km/s) = 3.70370 3.91755 3.81212
# Velocity P-wave (km/s) = 6.18062 6.77912 6.48678
#
# Compressibility (1/GPa) = 0.02318890
#
# Stress axis : x y z
#
# Youngs Moduli (GPa) = 99.18206 48.90065 78.11673
#
# Poissons Ratio (x) = 0.24879 0.27016
# Poissons Ratio (y) = 0.50461 0.11922
# Poissons Ratio (z) = 0.34301 0.07463
#
# Static dielectric constant tensor:
#      x y z
#    x 4.164120 -0.186490 0.038800 
#    y -0.186490 3.620560 0.078210 
#    z 0.038800 0.078210 4.008310 
# 
# 
# High freq. dielectric constant tensor:
#      x y z
#    x 1.868860 -0.011580 -0.002190 
#    y -0.011580 1.821090 0.000420 
#    z -0.002190 0.000420 1.859030 
# 
# From -- ./inp_files/48361.got.cif
#   From: 2010.06.25/outbox.cif.g09.slc.cpg/sg2_25_cif.got.tgz:48361.got - 2010.06.27 13:26:56.
