data_PCOD8043088
_publ_section_title
;
Structure prediction by ZEFSAII (Michael W. Deem and Ramdas Pophale) SiO2 
 PCOD8043088
Probable space group: P -1
;
_chemical_formula_sum "Si O2"
_cell_formula_units_Z 16
_cell_length_a 30.219615
_cell_length_b 9.220727
_cell_length_c 11.956143
_cell_angle_alpha 37.232362
_cell_angle_beta 24.108070
_cell_angle_gamma 36.944190
_cell_volume 787.145253
_symmetry_space_group_name_H-M "P -1"
_symmetry_group_IT_number 2
_symmetry_cell_setting 'triclinic'
loop_
_space_group_symop_operation_xyz
x,y,z
-x,-y,-z
loop_
_atom_site_type_symbol
_atom_site_label
_atom_site_fract_x
_atom_site_fract_y
_atom_site_fract_z
Si Si1 0.132214 0.785930 0.505661
Si Si2 0.573998 0.635756 0.059570
Si Si3 0.173136 0.890545 0.585126
Si Si4 0.745958 0.758776 0.443176
Si Si5 0.930255 0.229723 0.723548
Si Si6 0.034548 0.644022 0.194533
Si Si7 0.656549 0.067819 0.656941
Si Si8 0.250778 0.835441 0.978875
O O1 0.200377 0.847031 0.418013
O O2 0.145118 0.488086 0.652461
O O3 0.180492 0.888898 0.222493
O O4 0.998360 0.932901 0.738891
O O5 0.637723 0.655662 0.781917
O O6 0.626033 0.364086 0.163003
O O7 0.594901 0.853257 0.959200
O O8 0.440090 0.685994 0.316962
O O9 0.289637 0.854083 0.404865
O O10 0.110439 0.685932 0.891660
O O11 0.091760 0.165741 0.630481
O O12 0.751479 0.957814 0.407644
O O13 0.734121 0.904407 0.262971
O O14 0.899884 0.320991 0.864649
O O15 0.816521 0.287800 0.878430
O O16 0.018316 0.371084 0.386170
#
# Coordination Sequence:
#
# PCOD8043088 Si02
#       8
#     2   2   2   2   2   2   2   2
#     4  10  23  36  51  86 115 146 182 219 274 336
#     4   8  19  36  59  88 104 135 192 234 267 320
#     4  10  19  36  58  80 111 152 179 224 278 322
#     4   9  20  36  56  81 111 142 181 230 272 320
#     4  10  20  36  53  84 112 148 182 229 269 321
#     4   9  20  34  55  82 114 141 192 226 264 326
#     4   9  17  38  61  82 108 141 185 233 275 313
#     4  11  20  36  57  79 117 146 182 225 273 325
#
# _framework density 20.326616999999999
#
# number of rings (size 3 to 8) (size 9 to 14) (size 15 to 20)
#    0.750    1.750    0.000    1.875    1.750    1.000 
#    0.000    2.500    0.000    1.500    0.000    0.000 
#    0.000    0.000    0.000    0.000    0.000    0.000 
#
# Total GULP energy -198286.533666 kJ/mol
# GULP energy per Si atom -12392.908354 kJ/mol
# Density = 2.028035 g / cm^3
# Si number density = 20.326617 Si / 1000 Ang^3
#
#
#
# Elastic Constant Matrix: (Units=GPa)
#
#
# Indices 1 2 3 4 5 6 
#
# 1 117.5349 31.7439 33.5232 5.6001 -1.8152 -14.1254
# 2 31.7439 83.4080 24.6671 -7.4794 2.5340 -16.6135
# 3 33.5232 24.6671 44.9589 -14.0577 13.1345 -6.1811
# 4 5.6001 -7.4794 -14.0577 23.2547 -11.2130 5.6396
# 5 -1.8152 2.5340 13.1345 -11.2130 32.7061 -1.8268
# 6 -14.1254 -16.6135 -6.1811 5.6396 -1.8268 24.3374
#
#
#
# Elastic Compliance Matrix: (Units=1/GPa)
#
#
# Indices 1 2 3 4 5 6 
#
# 1 0.014191 -0.001168 -0.013605 -0.012562 0.002430 0.007077
# 2 -0.001168 0.016333 -0.007553 -0.000113 0.002152 0.008741
# 3 -0.013605 -0.007553 0.046583 0.025916 -0.010440 -0.008010
# 4 -0.012562 -0.000113 0.025916 0.071709 0.012570 -0.016460
# 5 0.002430 0.002152 -0.010440 0.012570 0.039059 0.000248
# 6 0.007077 0.008741 -0.008010 -0.016460 0.000248 0.052962
#
#
# Mechanical properties :
#
#
# Convention : Reuss Voigt Hill
#
# Bulk Modulus (GPa) = 30.81224 47.30779 39.06001
# Shear Modulus (GPa) = 16.87441 26.45748 21.66595
#
# Velocity S-wave (km/s) = 2.88438 3.61171 3.26834
# Velocity P-wave (km/s) = 5.12683 6.38098 5.78797
#
# Compressibility (1/GPa) = 0.03245464
#
# Stress axis : x y z
#
# Youngs Moduli (GPa) = 70.46967 61.22595 21.46711
#
# Poissons Ratio (x) = 0.07150 0.29206
# Poissons Ratio (y) = 0.08230 0.16214
# Poissons Ratio (z) = 0.95875 0.46244
#
# Static dielectric constant tensor:
#      x y z
#    x 3.539680 -0.178180 0.239130 
#    y -0.178180 3.690220 -0.046280 
#    z 0.239130 -0.046280 3.356470 
# 
# 
# High freq. dielectric constant tensor:
#      x y z
#    x 1.779600 -0.014170 0.017960 
#    y -0.014170 1.791030 -0.004510 
#    z 0.017960 -0.004510 1.764370 
# 
# From -- ./inp_files/477462.got.cif
#   From: 2010.06.25/outbox.cif.g09.slc.cpg/sg2_239_cif.got.tgz:477462.got - 2010.06.27 13:26:56.
