data_PCOD8043566
_publ_section_title
;
Structure prediction by ZEFSAII (Michael W. Deem and Ramdas Pophale) SiO2 
 PCOD8043566
Probable space group: P -1
;
_chemical_formula_sum "Si O2"
_cell_formula_units_Z 16
_cell_length_a 18.961681
_cell_length_b 10.472236
_cell_length_c 11.140314
_cell_angle_alpha 64.181010
_cell_angle_beta 44.196502
_cell_angle_gamma 31.929106
_cell_volume 720.281912
_symmetry_space_group_name_H-M "P -1"
_symmetry_group_IT_number 2
_symmetry_cell_setting 'triclinic'
loop_
_space_group_symop_operation_xyz
x,y,z
-x,-y,-z
loop_
_atom_site_type_symbol
_atom_site_label
_atom_site_fract_x
_atom_site_fract_y
_atom_site_fract_z
Si Si1 0.238608 0.211425 0.141338
Si Si2 0.242188 0.661375 0.429661
Si Si3 0.429628 0.994969 0.242211
Si Si4 0.858632 0.971367 0.761422
Si Si5 0.334294 0.844085 0.828534
Si Si6 0.711004 0.396581 0.126609
Si Si7 0.873423 0.071761 0.288978
Si Si8 0.171429 0.169795 0.665735
O O1 0.211140 0.077729 0.211097
O O2 0.053143 0.518052 0.192758
O O3 0.269540 0.207366 0.245764
O O4 0.428947 0.038145 0.907131
O O5 0.458072 0.338077 0.312473
O O6 0.173043 0.834901 0.556983
O O7 0.092843 0.710325 0.571102
O O8 0.245760 0.762008 0.269553
O O9 0.556968 0.705067 0.173083
O O10 0.312416 0.120918 0.458101
O O11 0.807183 0.009951 0.946897
O O12 0.384277 0.636266 0.786894
O O13 0.224606 0.082806 0.775393
O O14 0.779399 0.302155 0.220610
O O15 0.894622 0.210738 0.894654
O O16 0.786946 0.021317 0.384246
#
# Coordination Sequence:
#
# PCOD8043566 Si02
#       8
#     2   2   2   2   2   2   2   2
#     4  11  25  43  61  90 125 166 205 253 301 364
#     4  11  23  41  66  92 122 162 205 253 310 366
#     4  11  23  41  66  92 122 162 205 253 310 366
#     4  11  25  43  61  90 125 166 205 253 301 364
#     4  11  23  40  65  93 125 162 205 255 305 363
#     4  10  19  36  64  95 124 155 198 255 312 357
#     4  10  19  36  64  95 124 155 198 255 312 357
#     4  11  23  40  65  93 125 162 205 255 305 363
#
# _framework density 22.213525000000001
#
# number of rings (size 3 to 8) (size 9 to 14) (size 15 to 20)
#    0.000    1.250    2.500    3.750    0.000    4.500 
#    0.000    1.250    0.000    0.000    0.000    0.000 
#    0.000    0.000    0.000    0.000    0.000    0.000 
#
# Total GULP energy -198478.312390 kJ/mol
# GULP energy per Si atom -12404.894524 kJ/mol
# Density = 2.216297 g / cm^3
# Si number density = 22.213525 Si / 1000 Ang^3
#
#
#
# Elastic Constant Matrix: (Units=GPa)
#
#
# Indices 1 2 3 4 5 6 
#
# 1 74.1827 29.7693 51.8953 -8.6201 -20.4917 -11.6203
# 2 29.7693 111.9301 48.4491 1.9034 -11.7320 -34.9173
# 3 51.8953 48.4491 143.8013 -22.3542 -16.7751 -26.5829
# 4 -8.6201 1.9034 -22.3542 29.4059 -9.6459 -1.8680
# 5 -20.4917 -11.7320 -16.7751 -9.6459 42.5782 -3.5329
# 6 -11.6203 -34.9173 -26.5829 -1.8680 -3.5329 34.1034
#
#
#
# Elastic Compliance Matrix: (Units=1/GPa)
#
#
# Indices 1 2 3 4 5 6 
#
# 1 0.021171 -0.001813 -0.004242 0.006524 0.009780 0.003422
# 2 -0.001813 0.014680 -0.001423 -0.000506 0.003630 0.013652
# 3 -0.004242 -0.001423 0.012937 0.011148 0.005886 0.008402
# 4 0.006524 -0.000506 0.011148 0.052120 0.020476 0.015371
# 5 0.009780 0.003630 0.005886 0.020476 0.037532 0.016647
# 6 0.003422 0.013652 0.008402 0.015371 0.016647 0.053582
#
#
# Mechanical properties :
#
#
# Convention : Reuss Voigt Hill
#
# Bulk Modulus (GPa) = 29.55766 65.57127 47.56447
# Shear Modulus (GPa) = 22.90894 34.53754 28.72324
#
# Velocity S-wave (km/s) = 3.21488 3.94737 3.59980
# Velocity P-wave (km/s) = 5.20727 7.09636 6.22390
#
# Compressibility (1/GPa) = 0.03383218
#
# Stress axis : x y z
#
# Youngs Moduli (GPa) = 47.23479 68.11883 77.29688
#
# Poissons Ratio (x) = 0.12351 0.32787
# Poissons Ratio (y) = 0.08564 0.11001
# Poissons Ratio (z) = 0.20035 0.09695
#
# Static dielectric constant tensor:
#      x y z
#    x 3.898270 -0.225110 -0.285400 
#    y -0.225110 3.886860 -0.134100 
#    z -0.285400 -0.134100 4.151940 
# 
# 
# High freq. dielectric constant tensor:
#      x y z
#    x 1.857550 -0.022770 -0.016400 
#    y -0.022770 1.868270 -0.007040 
#    z -0.016400 -0.007040 1.890530 
# 
# From -- ./inp_files/470965.got.cif
#   From: 2010.06.25/outbox.cif.g09.slc.cpg/sg2_236_cif.got.tgz:470965.got - 2010.06.27 13:26:56.
