data_PCOD8043124
_publ_section_title
;
Structure prediction by ZEFSAII (Michael W. Deem and Ramdas Pophale) SiO2 
 PCOD8043124
Probable space group: P -1
;
_chemical_formula_sum "Si O2"
_cell_formula_units_Z 16
_cell_length_a 14.449986
_cell_length_b 8.453479
_cell_length_c 11.341526
_cell_angle_alpha 91.613764
_cell_angle_beta 58.467684
_cell_angle_gamma 52.948488
_cell_volume 813.625283
_symmetry_space_group_name_H-M "P -1"
_symmetry_group_IT_number 2
_symmetry_cell_setting 'triclinic'
loop_
_space_group_symop_operation_xyz
x,y,z
-x,-y,-z
loop_
_atom_site_type_symbol
_atom_site_label
_atom_site_fract_x
_atom_site_fract_y
_atom_site_fract_z
Si Si1 0.744371 0.039856 0.606813
Si Si2 0.248224 0.469045 0.731270
Si Si3 0.521730 0.894513 0.243802
Si Si4 0.834289 0.156723 0.346523
Si Si5 0.794083 0.664722 0.468467
Si Si6 0.825756 0.731558 0.968440
Si Si7 0.963166 0.743904 0.095969
Si Si8 0.058695 0.160427 0.302227
O O1 0.738957 0.192129 0.523543
O O2 0.840978 0.796010 0.471487
O O3 0.830167 0.004425 0.667539
O O4 0.568254 0.161008 0.758000
O O5 0.406570 0.250140 0.685876
O O6 0.190293 0.387459 0.682944
O O7 0.277695 0.595221 0.636132
O O8 0.107679 0.656360 0.919202
O O9 0.389347 0.167793 0.367601
O O10 0.654138 0.830868 0.070732
O O11 0.874177 0.979069 0.223418
O O12 0.997342 0.065476 0.279419
O O13 0.910324 0.421011 0.454000
O O14 0.962420 0.454156 0.860324
O O15 0.841312 0.843962 0.858638
O O16 0.837212 0.790789 0.094624
#
# Coordination Sequence:
#
# PCOD8043124 Si02
#       8
#     2   2   2   2   2   2   2   2
#     4  10  23  37  57  83 120 155 193 226 281 338
#     4  10  19  36  58  87 120 143 189 238 292 343
#     4   9  22  35  58  88 119 144 185 244 290 335
#     4  11  22  34  60  88 115 152 190 236 286 334
#     4   9  19  36  58  87 108 151 188 239 281 328
#     4  10  20  36  63  85 113 147 192 243 284 331
#     4  10  20  35  59  92 113 143 191 244 289 333
#     4  11  21  39  61  84 114 154 200 231 268 345
#
# _framework density 19.665073
#
# number of rings (size 3 to 8) (size 9 to 14) (size 15 to 20)
#    0.750    1.250    2.500    2.250    3.500    1.000 
#    0.000    1.250    0.000    3.000    0.000    0.000 
#    0.000    0.000    0.000    0.000    0.000    0.000 
#
# Total GULP energy -198276.620846 kJ/mol
# GULP energy per Si atom -12392.288803 kJ/mol
# Density = 1.962031 g / cm^3
# Si number density = 19.665073 Si / 1000 Ang^3
#
#
#
# Elastic Constant Matrix: (Units=GPa)
#
#
# Indices 1 2 3 4 5 6 
#
# 1 81.8210 21.6493 20.2715 3.1144 -11.7747 -0.9021
# 2 21.6493 44.6678 19.9857 -8.9393 -9.0635 -3.4545
# 3 20.2715 19.9857 68.0182 -5.1934 -20.9189 -0.5105
# 4 3.1144 -8.9393 -5.1934 22.0168 1.5066 -3.4104
# 5 -11.7747 -9.0635 -20.9189 1.5066 35.6057 1.2483
# 6 -0.9021 -3.4545 -0.5105 -3.4104 1.2483 29.5512
#
#
#
# Elastic Compliance Matrix: (Units=1/GPa)
#
#
# Indices 1 2 3 4 5 6 
#
# 1 0.015205 -0.007222 -0.002198 -0.005937 0.002192 -0.001196
# 2 -0.007222 0.031764 -0.005622 0.013230 0.001664 0.004852
# 3 -0.002198 -0.005622 0.020109 0.002030 0.009590 -0.000548
# 4 -0.005937 0.013230 0.002030 0.053274 0.000079 0.007545
# 5 0.002192 0.001664 0.009590 0.000079 0.034901 -0.001038
# 6 -0.001196 0.004852 -0.000548 0.007545 -0.001038 0.035275
#
#
# Mechanical properties :
#
#
# Convention : Reuss Voigt Hill
#
# Bulk Modulus (GPa) = 27.03135 35.36886 31.20011
# Shear Modulus (GPa) = 21.46431 26.27477 23.86954
#
# Velocity S-wave (km/s) = 3.30736 3.65925 3.48775
# Velocity P-wave (km/s) = 5.32546 5.98984 5.66740
#
# Compressibility (1/GPa) = 0.03699408
#
# Stress axis : x y z
#
# Youngs Moduli (GPa) = 65.76578 31.48211 49.72842
#
# Poissons Ratio (x) = 0.22737 0.10929
# Poissons Ratio (y) = 0.47497 0.27959
# Poissons Ratio (z) = 0.14454 0.17700
#
# Static dielectric constant tensor:
#      x y z
#    x 3.537460 0.032970 -0.131620 
#    y 0.032970 3.497850 -0.068910 
#    z -0.131620 -0.068910 3.311170 
# 
# 
# High freq. dielectric constant tensor:
#      x y z
#    x 1.761900 0.002460 -0.010020 
#    y 0.002460 1.755140 -0.011870 
#    z -0.010020 -0.011870 1.745210 
# 
# From -- ./inp_files/445974.got.cif
#   From: 2010.06.25/outbox.cif.g09.slc.cpg/sg2_223_cif.got.tgz:445974.got - 2010.06.27 13:26:56.
