data_PCOD8043074
_publ_section_title
;
Structure prediction by ZEFSAII (Michael W. Deem and Ramdas Pophale) SiO2 
 PCOD8043074
Probable space group: P -1
;
_chemical_formula_sum "Si O2"
_cell_formula_units_Z 16
_cell_length_a 14.829754
_cell_length_b 9.324777
_cell_length_c 16.296938
_cell_angle_alpha 31.846886
_cell_angle_beta 137.839109
_cell_angle_gamma 122.828532
_cell_volume 773.384600
_symmetry_space_group_name_H-M "P -1"
_symmetry_group_IT_number 2
_symmetry_cell_setting 'triclinic'
loop_
_space_group_symop_operation_xyz
x,y,z
-x,-y,-z
loop_
_atom_site_type_symbol
_atom_site_label
_atom_site_fract_x
_atom_site_fract_y
_atom_site_fract_z
Si Si1 0.909030 0.933515 0.399396
Si Si2 0.907259 0.436173 0.041413
Si Si3 0.928368 0.965997 0.883889
Si Si4 0.612494 0.249275 0.089977
Si Si5 0.596876 0.590887 0.761351
Si Si6 0.950793 0.618878 0.321032
Si Si7 0.624356 0.094246 0.645027
Si Si8 0.646943 0.753813 0.981787
O O1 0.935763 0.119559 0.248534
O O2 0.750230 0.997787 0.293006
O O3 0.000000 0.000000 0.500000
O O4 0.963177 0.605537 0.576163
O O5 0.750556 0.516551 0.863576
O O6 0.000000 0.500000 0.000000
O O7 0.928880 0.639956 0.031205
O O8 0.769848 0.144804 0.689791
O O9 0.006457 0.087219 0.804910
O O10 0.000000 0.000000 0.000000
O O11 0.650971 0.484025 0.059729
O O12 0.567315 0.352011 0.917422
O O13 0.485087 0.155467 0.091256
O O14 0.493654 0.628327 0.595062
O O15 0.576382 0.855807 0.678439
O O16 0.785524 0.681257 0.165882
O O17 0.000000 0.500000 0.500000
O O18 0.635195 0.022544 0.784106
#
# Coordination Sequence:
#
# PCOD8043074 Si02
#       8
#     2   2   2   2   2   2   2   2
#     4  11  21  40  63  90 120 156 204 246 299 350
#     4  10  21  38  61  89 115 152 198 250 288 347
#     4  11  21  38  61  84 120 159 193 238 304 356
#     4   9  19  35  61  85 114 153 200 254 287 343
#     4   8  17  32  56  84 109 141 198 245 284 329
#     4  12  25  38  59  94 126 157 196 248 303 364
#     4   9  17  33  56  82 109 149 195 241 281 345
#     4  10  19  36  57  89 117 151 204 247 290 349
#
# _framework density 20.688283999999999
#
# number of rings (size 3 to 8) (size 9 to 14) (size 15 to 20)
#    0.000    2.000    2.500    2.250    1.750    1.000 
#    4.500    0.625    2.750    1.500    0.000    0.000 
#    0.000    0.000    0.000    0.000    0.000    0.000 
#
# Total GULP energy -198290.916295 kJ/mol
# GULP energy per Si atom -12393.182268 kJ/mol
# Density = 2.064120 g / cm^3
# Si number density = 20.688284 Si / 1000 Ang^3
#
#
#
# Elastic Constant Matrix: (Units=GPa)
#
#
# Indices 1 2 3 4 5 6 
#
# 1 134.9271 4.1398 40.7332 13.5034 8.4285 12.7328
# 2 4.1398 34.3263 16.6752 11.6942 6.7694 8.3696
# 3 40.7332 16.6752 123.9482 34.9840 5.6275 3.0103
# 4 13.5034 11.6942 34.9840 33.3616 -1.3318 -0.8997
# 5 8.4285 6.7694 5.6275 -1.3318 34.7430 0.9806
# 6 12.7328 8.3696 3.0103 -0.8997 0.9806 25.4904
#
#
#
# Elastic Compliance Matrix: (Units=1/GPa)
#
#
# Indices 1 2 3 4 5 6 
#
# 1 0.008888 0.002477 -0.002431 -0.002137 -0.002187 -0.004957
# 2 0.002477 0.039372 -0.001445 -0.013997 -0.008175 -0.014174
# 3 -0.002431 -0.001445 0.012406 -0.011585 -0.001579 -0.000124
# 4 -0.002137 -0.013997 -0.011585 0.048392 0.006738 0.008480
# 5 -0.002187 -0.008175 -0.001579 0.006738 0.031336 0.002995
# 6 -0.004957 -0.014174 -0.000124 0.008480 0.002995 0.046559
#
#
# Mechanical properties :
#
#
# Convention : Reuss Voigt Hill
#
# Bulk Modulus (GPa) = 17.28079 46.25530 31.76805
# Shear Modulus (GPa) = 23.91901 34.16256 29.04078
#
# Velocity S-wave (km/s) = 3.40393 4.06803 3.75070
# Velocity P-wave (km/s) = 4.88058 6.66872 5.84345
#
# Compressibility (1/GPa) = 0.05786773
#
# Stress axis : x y z
#
# Youngs Moduli (GPa) = 112.51582 25.39884 80.60809
#
# Poissons Ratio (x) = -0.06292 0.19596
# Poissons Ratio (y) = -0.27873 0.11647
# Poissons Ratio (z) = 0.27353 0.03670
#
# Static dielectric constant tensor:
#      x y z
#    x 3.953680 0.695160 -0.384880 
#    y 0.695160 3.755890 0.019300 
#    z -0.384880 0.019300 3.966670 
# 
# 
# High freq. dielectric constant tensor:
#      x y z
#    x 1.811080 0.009950 -0.000370 
#    y 0.009950 1.781280 0.012550 
#    z -0.000370 0.012550 1.818520 
# 
# From -- ./inp_files/528127.got.cif
#   From: 2010.06.25/outbox.cif.g09.slc.cpg/sg2_265_cif.got.tgz:528127.got - 2010.06.27 13:26:56.
