data_PCOD8043511
_publ_section_title
;
Structure prediction by ZEFSAII (Michael W. Deem and Ramdas Pophale) SiO2 
 PCOD8043511
Probable space group: P -1
;
_chemical_formula_sum "Si O2"
_cell_formula_units_Z 16
_cell_length_a 11.436793
_cell_length_b 9.167973
_cell_length_c 12.922438
_cell_angle_alpha 78.104288
_cell_angle_beta 40.712656
_cell_angle_gamma 57.745249
_cell_volume 697.386549
_symmetry_space_group_name_H-M "P -1"
_symmetry_group_IT_number 2
_symmetry_cell_setting 'triclinic'
loop_
_space_group_symop_operation_xyz
x,y,z
-x,-y,-z
loop_
_atom_site_type_symbol
_atom_site_label
_atom_site_fract_x
_atom_site_fract_y
_atom_site_fract_z
Si Si1 0.787321 0.339242 0.122647
Si Si2 0.966796 0.001671 0.401373
Si Si3 0.174918 0.193739 0.603804
Si Si4 0.590255 0.097968 0.983333
Si Si5 0.751860 0.808203 0.072286
Si Si6 0.498855 0.306561 0.612928
Si Si7 0.601865 0.142645 0.353812
Si Si8 0.789582 0.550958 0.910473
O O1 0.644971 0.480540 0.290895
O O2 0.732549 0.190682 0.183040
O O3 0.716711 0.443656 0.044322
O O4 0.045250 0.246993 0.982081
O O5 0.758045 0.206443 0.478961
O O6 0.925483 0.849696 0.418560
O O7 0.000000 0.000000 0.500000
O O8 0.179688 0.959201 0.207713
O O9 0.411060 0.149027 0.417242
O O10 0.007161 0.406211 0.719415
O O11 0.215498 0.060888 0.692469
O O12 0.406451 0.318003 0.059970
O O13 0.500000 0.000000 0.000000
O O14 0.635797 0.019391 0.081351
O O15 0.575903 0.802892 0.257599
O O16 0.837519 0.666241 0.938453
O O17 0.471354 0.290896 0.512157
#
# Coordination Sequence:
#
# PCOD8043511 Si02
#       8
#     2   2   2   2   2   2   2   2
#     4  11  20  34  62  95 121 157 205 253 300 358
#     4  11  22  40  62  83 115 160 205 250 305 366
#     4  10  22  39  59  84 123 164 198 252 311 363
#     4  10  22  40  62  88 119 159 204 250 299 359
#     4  10  19  36  63  93 122 162 206 249 298 353
#     4  10  20  36  63  92 123 158 202 254 299 361
#     4  10  21  37  58  92 128 157 197 251 314 361
#     4  10  21  38  58  87 127 162 203 251 301 362
#
# _framework density 22.942798
#
# number of rings (size 3 to 8) (size 9 to 14) (size 15 to 20)
#    0.000    1.750    0.000    7.125    0.000    3.000 
#    0.000    6.250    0.000   16.500    0.000    0.000 
#    0.000    0.000    0.000    0.000    0.000    0.000 
#
# Total GULP energy -198377.031059 kJ/mol
# GULP energy per Si atom -12398.564441 kJ/mol
# Density = 2.289058 g / cm^3
# Si number density = 22.942798 Si / 1000 Ang^3
#
#
#
# Elastic Constant Matrix: (Units=GPa)
#
#
# Indices 1 2 3 4 5 6 
#
# 1 103.0669 41.4352 36.8494 -3.3774 -17.0320 7.5013
# 2 41.4352 124.0984 39.5806 -16.1417 -19.1320 -25.8521
# 3 36.8494 39.5806 62.6009 -5.0107 -29.5436 -3.4754
# 4 -3.3774 -16.1417 -5.0107 37.6067 3.8525 -6.5501
# 5 -17.0320 -19.1320 -29.5436 3.8525 41.1468 1.4519
# 6 7.5013 -25.8521 -3.4754 -6.5501 1.4519 30.5229
#
#
#
# Elastic Compliance Matrix: (Units=1/GPa)
#
#
# Indices 1 2 3 4 5 6 
#
# 1 0.014609 -0.005427 -0.006056 -0.003483 -0.000159 -0.009616
# 2 -0.005427 0.016054 -0.005386 0.008499 -0.000015 0.016142
# 3 -0.006056 -0.005386 0.031067 -0.000580 0.017367 -0.000487
# 4 -0.003483 0.008499 -0.000580 0.032625 -0.001493 0.015060
# 5 -0.000159 -0.000015 0.017367 -0.001493 0.036842 -0.000069
# 6 -0.009616 0.016142 -0.000487 0.015060 -0.000069 0.051977
#
#
# Mechanical properties :
#
#
# Convention : Reuss Voigt Hill
#
# Bulk Modulus (GPa) = 35.72493 58.38851 47.05672
# Shear Modulus (GPa) = 22.10020 33.31532 27.70776
#
# Velocity S-wave (km/s) = 3.10703 3.81478 3.47895
# Velocity P-wave (km/s) = 5.33635 6.70136 6.05743
#
# Compressibility (1/GPa) = 0.02799166
#
# Stress axis : x y z
#
# Youngs Moduli (GPa) = 68.45201 62.28955 32.18879
#
# Poissons Ratio (x) = 0.33805 0.19492
# Poissons Ratio (y) = 0.37149 0.17338
# Poissons Ratio (z) = 0.41452 0.33551
#
# Static dielectric constant tensor:
#      x y z
#    x 4.237440 -0.140270 -0.154880 
#    y -0.140270 4.553240 -0.053820 
#    z -0.154880 -0.053820 4.083710 
# 
# 
# High freq. dielectric constant tensor:
#      x y z
#    x 1.894240 0.001050 -0.010160 
#    y 0.001050 1.904100 0.003570 
#    z -0.010160 0.003570 1.909370 
# 
# From -- ./inp_files/515509.got.cif
#   From: 2010.06.25/outbox.cif.g09.slc.cpg/sg2_258_cif.got.tgz:515509.got - 2010.06.27 13:26:56.
