data_PCOD8043683
_publ_section_title
;
Structure prediction by ZEFSAII (Michael W. Deem and Ramdas Pophale) SiO2 
 PCOD8043683
Probable space group: P -1
;
_chemical_formula_sum "Si O2"
_cell_formula_units_Z 14
_cell_length_a 8.320812
_cell_length_b 11.237527
_cell_length_c 8.873645
_cell_angle_alpha 83.462933
_cell_angle_beta 109.180704
_cell_angle_gamma 63.427961
_cell_volume 666.650332
_symmetry_space_group_name_H-M "P -1"
_symmetry_group_IT_number 2
_symmetry_cell_setting 'triclinic'
loop_
_space_group_symop_operation_xyz
x,y,z
-x,-y,-z
loop_
_atom_site_type_symbol
_atom_site_label
_atom_site_fract_x
_atom_site_fract_y
_atom_site_fract_z
Si Si1 0.047542 0.156081 0.572086
Si Si2 0.785300 0.124970 0.736135
Si Si3 0.315840 0.065386 0.137006
Si Si4 0.449074 0.645384 0.133396
Si Si5 0.662824 0.329330 0.238167
Si Si6 0.417181 0.878098 0.604901
Si Si7 0.687977 0.789067 0.166010
O O1 0.143086 0.243581 0.653603
O O2 0.964315 0.109721 0.694413
O O3 0.882657 0.252749 0.387003
O O4 0.206727 0.013502 0.562877
O O5 0.708604 0.254388 0.806189
O O6 0.594673 0.156814 0.568122
O O7 0.847082 0.977528 0.861919
O O8 0.398187 0.100588 0.309197
O O9 0.489793 0.931601 0.125994
O O10 0.231914 0.193781 0.975284
O O11 0.540420 0.487106 0.240297
O O12 0.635263 0.668047 0.162718
O O13 0.324577 0.671407 0.938253
O O14 0.548478 0.250967 0.262780
#
# Coordination Sequence:
#
# PCOD8043683 Si02
#       7
#     2   2   2   2   2   2   2
#     4  10  22  36  55  84 115 138 171 229 285 306
#     4  10  20  33  55  86 106 139 185 223 261 323
#     4   9  17  32  56  78 111 140 182 217 264 324
#     4  10  21  37  60  78 103 150 191 210 261 326
#     4  10  20  37  58  78 108 147 179 225 263 325
#     4  10  19  37  55  83 112 144 170 227 276 320
#     4   9  18  35  54  79 108 145 176 221 269 321
#
# _framework density 21.000513000000002
#
# number of rings (size 3 to 8) (size 9 to 14) (size 15 to 20)
#    0.000    2.286    1.429    2.143    2.000    3.429 
#    2.571    0.000    0.000    6.857    0.000    0.000 
#    0.000    0.000    0.000    0.000    0.000    0.000 
#
# Total GULP energy -173554.461944 kJ/mol
# GULP energy per Si atom -12396.747282 kJ/mol
# Density = 2.095272 g / cm^3
# Si number density = 21.000513 Si / 1000 Ang^3
#
#
#
# Elastic Constant Matrix: (Units=GPa)
#
#
# Indices 1 2 3 4 5 6 
#
# 1 64.5874 13.7132 22.6316 -4.0954 12.0681 4.0923
# 2 13.7132 81.4271 27.3181 -0.2430 2.8833 3.6605
# 3 22.6316 27.3181 59.2691 -1.1991 -2.6386 -2.3075
# 4 -4.0954 -0.2430 -1.1991 33.1041 3.9890 -7.5697
# 5 12.0681 2.8833 -2.6386 3.9890 23.9180 9.6044
# 6 4.0923 3.6605 -2.3075 -7.5697 9.6044 13.8916
#
#
#
# Elastic Compliance Matrix: (Units=1/GPa)
#
#
# Indices 1 2 3 4 5 6 
#
# 1 0.021187 -0.000546 -0.008164 0.005377 -0.014681 0.005627
# 2 -0.000546 0.014956 -0.006938 -0.001674 0.000462 -0.006164
# 3 -0.008164 -0.006938 0.023610 0.000009 0.005928 0.004061
# 4 0.005377 -0.001674 0.000009 0.043198 -0.025899 0.040304
# 5 -0.014681 0.000462 0.005928 -0.025899 0.079901 -0.064167
# 6 0.005627 -0.006164 0.004061 0.040304 -0.064167 0.138953
#
#
# Mechanical properties :
#
#
# Convention : Reuss Voigt Hill
#
# Bulk Modulus (GPa) = 35.14208 36.95662 36.04935
# Shear Modulus (GPa) = 13.78972 23.62410 18.70691
#
# Velocity S-wave (km/s) = 2.56527 3.35764 2.98784
# Velocity P-wave (km/s) = 5.05415 5.71557 5.39501
#
# Compressibility (1/GPa) = 0.02845591
#
# Stress axis : x y z
#
# Youngs Moduli (GPa) = 47.19814 66.86072 42.35498
#
# Poissons Ratio (x) = 0.03652 0.34580
# Poissons Ratio (y) = 0.02578 0.29388
# Poissons Ratio (z) = 0.38534 0.46391
#
# Static dielectric constant tensor:
#      x y z
#    x 3.795150 0.412570 -0.132010 
#    y 0.412570 3.636470 0.207340 
#    z -0.132010 0.207340 3.965900 
# 
# 
# High freq. dielectric constant tensor:
#      x y z
#    x 1.811630 0.031080 -0.007540 
#    y 0.031080 1.797150 0.024280 
#    z -0.007540 0.024280 1.834120 
# 
# From -- ./inp_files/178029.got.cif
#   From: 2010.06.25/outbox.cif.g09.slc.cpg/sg2_90_cif.got.tgz:178029.got - 2010.06.27 13:26:56.
