data_PCOD8043100
_publ_section_title
;
Structure prediction by ZEFSAII (Michael W. Deem and Ramdas Pophale) SiO2 
 PCOD8043100
Probable space group: P -1
;
_chemical_formula_sum "Si O2"
_cell_formula_units_Z 14
_cell_length_a 9.816033
_cell_length_b 14.143760
_cell_length_c 15.518139
_cell_angle_alpha 146.957190
_cell_angle_beta 130.411380
_cell_angle_gamma 73.621385
_cell_volume 694.850299
_symmetry_space_group_name_H-M "P -1"
_symmetry_group_IT_number 2
_symmetry_cell_setting 'triclinic'
loop_
_space_group_symop_operation_xyz
x,y,z
-x,-y,-z
loop_
_atom_site_type_symbol
_atom_site_label
_atom_site_fract_x
_atom_site_fract_y
_atom_site_fract_z
Si Si1 0.000084 0.296977 0.357329
Si Si2 0.407048 0.291329 0.533915
Si Si3 0.680016 0.049461 0.180976
Si Si4 0.238489 0.236998 0.917894
Si Si5 0.730373 0.813188 0.415015
Si Si6 0.441082 0.662715 0.022958
Si Si7 0.381043 0.976145 0.144252
O O1 0.930024 0.225057 0.374347
O O2 0.000000 0.500000 0.500000
O O3 0.246478 0.357245 0.491990
O O4 0.823198 0.107768 0.070989
O O5 0.322326 0.157705 0.487169
O O6 0.397105 0.141214 0.343053
O O7 0.670488 0.520067 0.826352
O O8 0.646999 0.827559 0.017825
O O9 0.625506 0.117830 0.300530
O O10 0.500000 0.000000 0.000000
O O11 0.334810 0.264586 0.882595
O O12 0.964763 0.048828 0.660723
O O13 0.527946 0.760359 0.229322
O O14 0.741092 0.608353 0.256460
O O15 0.328195 0.763518 0.010095
#
# Coordination Sequence:
#
# PCOD8043100 Si02
#       7
#     2   2   2   2   2   2   2
#     4  11  20  38  62  83 113 154 198 235 278 344
#     4  11  22  37  56  89 123 150 183 238 298 343
#     4   9  18  35  57  80 108 151 194 230 273 337
#     4  10  19  36  58  83 117 149 197 232 282 343
#     4  10  19  37  62  84 113 154 198 237 282 337
#     4   9  20  37  60  86 110 154 200 240 274 339
#     4  10  22  38  56  87 122 147 189 242 293 341
#
# _framework density 20.148223000000002
#
# number of rings (size 3 to 8) (size 9 to 14) (size 15 to 20)
#    0.000    2.000    1.429    4.286    0.000    0.571 
#    2.571    4.286    0.000    0.000    0.000    0.000 
#    0.000    0.000    0.000    0.000    0.000    0.000 
#
# Total GULP energy -173477.491086 kJ/mol
# GULP energy per Si atom -12391.249363 kJ/mol
# Density = 2.010236 g / cm^3
# Si number density = 20.148223 Si / 1000 Ang^3
#
#
#
# Elastic Constant Matrix: (Units=GPa)
#
#
# Indices 1 2 3 4 5 6 
#
# 1 79.9737 17.7507 50.3726 5.8413 -12.4859 13.8917
# 2 17.7507 74.3408 14.1315 -6.6399 -4.5223 12.5036
# 3 50.3726 14.1315 112.7920 1.6069 -0.2772 14.7097
# 4 5.8413 -6.6399 1.6069 34.8005 5.3928 0.4668
# 5 -12.4859 -4.5223 -0.2772 5.3928 32.8844 -3.7223
# 6 13.8917 12.5036 14.7097 0.4668 -3.7223 23.1805
#
#
#
# Elastic Compliance Matrix: (Units=1/GPa)
#
#
# Indices 1 2 3 4 5 6 
#
# 1 0.020530 -0.002558 -0.008188 -0.004681 0.007643 -0.004406
# 2 -0.002558 0.015527 0.000057 0.003514 -0.000202 -0.006982
# 3 -0.008188 0.000057 0.013008 0.001408 -0.003675 -0.003996
# 4 -0.004681 0.003514 0.001408 0.031169 -0.006583 -0.001668
# 5 0.007643 -0.000202 -0.003675 -0.006583 0.034737 0.003571
# 6 -0.004406 -0.006982 -0.003996 -0.001668 0.003571 0.052689
#
#
# Mechanical properties :
#
#
# Convention : Reuss Voigt Hill
#
# Bulk Modulus (GPa) = 36.11786 47.95733 42.03759
# Shear Modulus (GPa) = 25.21864 30.49650 27.85757
#
# Velocity S-wave (km/s) = 3.54171 3.89473 3.72241
# Velocity P-wave (km/s) = 5.88982 6.63922 6.27571
#
# Compressibility (1/GPa) = 0.02768713
#
# Stress axis : x y z
#
# Youngs Moduli (GPa) = 48.71010 64.40232 76.87828
#
# Poissons Ratio (x) = 0.16471 0.62948
# Poissons Ratio (y) = 0.12458 -0.00437
# Poissons Ratio (z) = 0.39884 -0.00366
#
# Static dielectric constant tensor:
#      x y z
#    x 3.718170 0.334270 0.259470 
#    y 0.334270 4.002330 -0.087980 
#    z 0.259470 -0.087980 3.736750 
# 
# 
# High freq. dielectric constant tensor:
#      x y z
#    x 1.759550 0.020680 0.007960 
#    y 0.020680 1.801260 -0.007970 
#    z 0.007960 -0.007970 1.779370 
# 
# From -- ./inp_files/55309.got.cif
#   From: 2010.06.25/outbox.cif.g09.slc.cpg/sg2_28_cif.got.tgz:55309.got - 2010.06.27 13:26:56.
