data_PCOD8043725
_publ_section_title
;
Structure prediction by ZEFSAII (Michael W. Deem and Ramdas Pophale) SiO2 
 PCOD8043725
Probable space group: P -1
;
_chemical_formula_sum "Si O2"
_cell_formula_units_Z 16
_cell_length_a 11.989093
_cell_length_b 12.376415
_cell_length_c 9.298492
_cell_angle_alpha 140.367105
_cell_angle_beta 65.232178
_cell_angle_gamma 103.367079
_cell_volume 789.100357
_symmetry_space_group_name_H-M "P -1"
_symmetry_group_IT_number 2
_symmetry_cell_setting 'triclinic'
loop_
_space_group_symop_operation_xyz
x,y,z
-x,-y,-z
loop_
_atom_site_type_symbol
_atom_site_label
_atom_site_fract_x
_atom_site_fract_y
_atom_site_fract_z
Si Si1 0.786538 0.803812 0.838141
Si Si2 0.384040 0.864290 0.691042
Si Si3 0.142108 0.847718 0.308477
Si Si4 0.242355 0.034805 0.697763
Si Si5 0.631658 0.426027 0.165621
Si Si6 0.338597 0.237957 0.612671
Si Si7 0.355502 0.494620 0.437343
Si Si8 0.106603 0.171226 0.487284
O O1 0.678259 0.963193 0.012931
O O2 0.837487 0.852107 0.017151
O O3 0.741242 0.619528 0.691492
O O4 0.891686 0.792495 0.646976
O O5 0.342022 0.886919 0.568826
O O6 0.531878 0.855460 0.621892
O O7 0.336335 0.691813 0.596617
O O8 0.150663 0.956118 0.561120
O O9 0.029303 0.737658 0.283908
O O10 0.108643 0.969853 0.313933
O O11 0.276819 0.744656 0.097352
O O12 0.319331 0.159522 0.697242
O O13 0.648163 0.562818 0.172116
O O14 0.490364 0.391684 0.213355
O O15 0.664211 0.505875 0.381648
O O16 0.222822 0.232575 0.564022
#
# Coordination Sequence:
#
# PCOD8043725 Si02
#       8
#     2   2   2   2   2   2   2   2
#     4  10  21  37  61  87 118 159 187 248 297 349
#     4   9  21  35  59  89 123 154 188 245 298 356
#     4  10  22  39  60  84 119 156 207 242 288 347
#     4   9  22  37  57  87 119 161 194 236 303 352
#     4  10  21  35  59  88 121 153 190 260 287 347
#     4  10  19  37  57  87 121 148 204 235 301 353
#     4  10  20  37  57  97 120 148 200 239 308 350
#     4  10  21  38  60  86 110 164 203 242 289 348
#
# _framework density 20.276254999999999
#
# number of rings (size 3 to 8) (size 9 to 14) (size 15 to 20)
#    0.750    1.500    1.250    1.125    3.500    2.500 
#    0.000    2.500    0.000    1.500    0.000    0.000 
#    0.000    0.000    0.000    0.000    0.000    0.000 
#
# Total GULP energy -198216.079371 kJ/mol
# GULP energy per Si atom -12388.504961 kJ/mol
# Density = 2.023011 g / cm^3
# Si number density = 20.276255 Si / 1000 Ang^3
#
#
#
# Elastic Constant Matrix: (Units=GPa)
#
#
# Indices 1 2 3 4 5 6 
#
# 1 59.0773 26.0631 13.2476 -9.2104 6.4065 10.3569
# 2 26.0631 122.5580 30.0422 -11.3214 -2.8270 10.6292
# 3 13.2476 30.0422 51.8339 -10.7417 0.4553 12.4817
# 4 -9.2104 -11.3214 -10.7417 26.4062 1.5377 -2.3194
# 5 6.4065 -2.8270 0.4553 1.5377 19.4340 -0.4057
# 6 10.3569 10.6292 12.4817 -2.3194 -0.4057 24.5925
#
#
#
# Elastic Compliance Matrix: (Units=1/GPa)
#
#
# Indices 1 2 3 4 5 6 
#
# 1 0.021587 -0.003519 -0.000576 0.005660 -0.008206 -0.006879
# 2 -0.003519 0.010268 -0.004763 0.001047 0.002674 -0.000396
# 3 -0.000576 -0.004763 0.026298 0.007658 -0.001941 -0.010356
# 4 0.005660 0.001047 0.007658 0.043484 -0.005390 -0.002711
# 5 -0.008206 0.002674 -0.001941 -0.005390 0.055099 0.003686
# 6 -0.006879 -0.000396 -0.010356 -0.002711 0.003686 0.048792
#
#
# Mechanical properties :
#
#
# Convention : Reuss Voigt Hill
#
# Bulk Modulus (GPa) = 24.73009 41.35278 33.04144
# Shear Modulus (GPa) = 21.12167 25.02764 23.07465
#
# Velocity S-wave (km/s) = 3.23103 3.51712 3.37711
# Velocity P-wave (km/s) = 5.11297 6.07721 5.61582
#
# Compressibility (1/GPa) = 0.04043657
#
# Stress axis : x y z
#
# Youngs Moduli (GPa) = 46.32404 97.38938 38.02579
#
# Poissons Ratio (x) = 0.34275 0.02190
# Poissons Ratio (y) = 0.16303 0.18112
# Poissons Ratio (z) = 0.02668 0.46387
#
# Static dielectric constant tensor:
#      x y z
#    x 3.426600 0.038920 -0.123760 
#    y 0.038920 3.847090 -0.128760 
#    z -0.123760 -0.128760 3.416650 
# 
# 
# High freq. dielectric constant tensor:
#      x y z
#    x 1.769410 0.008280 -0.005160 
#    y 0.008280 1.808060 -0.010930 
#    z -0.005160 -0.010930 1.767100 
# 
# From -- ./inp_files/263338.got.cif
#   From: 2010.06.25/outbox.cif.g09.slc.cpg/sg2_132_cif.got.tgz:263338.got - 2010.06.27 13:26:56.
