data_PCOD8043743
_publ_section_title
;
Structure prediction by ZEFSAII (Michael W. Deem and Ramdas Pophale) SiO2 
 PCOD8043743
Probable space group: P -1
;
_chemical_formula_sum "Si O2"
_cell_formula_units_Z 16
_cell_length_a 26.060594
_cell_length_b 17.349202
_cell_length_c 11.010282
_cell_angle_alpha 149.729922
_cell_angle_beta 40.323157
_cell_angle_gamma 158.572718
_cell_volume 893.062435
_symmetry_space_group_name_H-M "P -1"
_symmetry_group_IT_number 2
_symmetry_cell_setting 'triclinic'
loop_
_space_group_symop_operation_xyz
x,y,z
-x,-y,-z
loop_
_atom_site_type_symbol
_atom_site_label
_atom_site_fract_x
_atom_site_fract_y
_atom_site_fract_z
Si Si1 0.704946 0.903658 0.499304
Si Si2 0.981589 0.512519 0.909565
Si Si3 0.558544 0.495360 0.997816
Si Si4 0.528452 0.223159 0.253576
Si Si5 0.727164 0.734208 0.448684
Si Si6 0.271482 0.070405 0.053247
Si Si7 0.709671 0.597578 0.662858
Si Si8 0.034947 0.178420 0.577620
O O1 0.669004 0.774760 0.257960
O O2 0.612945 0.906448 0.697438
O O3 0.670268 0.712514 0.396769
O O4 0.871154 0.223044 0.646147
O O5 0.927547 0.601391 0.124164
O O6 0.000000 0.500000 0.000000
O O7 0.133357 0.738200 0.869938
O O8 0.415989 0.211034 0.942699
O O9 0.500000 0.500000 0.000000
O O10 0.647083 0.499102 0.780059
O O11 0.645724 0.446255 0.239534
O O12 0.582153 0.354034 0.468425
O O13 0.500000 0.000000 0.000000
O O14 0.688708 0.792000 0.702330
O O15 0.898091 0.978953 0.465034
O O16 0.228664 0.135921 0.124197
O O17 0.831962 0.664751 0.530180
O O18 0.000000 0.000000 0.500000
#
# Coordination Sequence:
#
# PCOD8043743 Si02
#       8
#     2   2   2   2   2   2   2   2
#     4  12  21  35  61  90 119 148 198 244 291 345
#     4  11  21  34  57  95 117 143 186 250 302 332
#     4  10  20  38  59  80 113 166 199 226 280 368
#     4  11  21  33  58  91 118 141 195 251 297 333
#     4  10  20  34  56  91 113 154 188 244 303 335
#     4   9  17  35  56  81 118 146 193 229 289 342
#     4  10  19  37  58  82 111 160 192 233 285 350
#     4  11  18  36  60  82 120 148 189 239 295 344
#
# _framework density 17.915880999999999
#
# number of rings (size 3 to 8) (size 9 to 14) (size 15 to 20)
#    0.000    1.500   10.000    1.125    0.000    0.000 
#    0.000    3.125    2.750    1.500    0.000    0.000 
#    0.000    0.000    0.000    0.000    0.000    0.000 
#
# Total GULP energy -198299.869500 kJ/mol
# GULP energy per Si atom -12393.741844 kJ/mol
# Density = 1.787510 g / cm^3
# Si number density = 17.915881 Si / 1000 Ang^3
#
#
#
# Elastic Constant Matrix: (Units=GPa)
#
#
# Indices 1 2 3 4 5 6 
#
# 1 88.5544 33.6196 46.1136 1.0862 5.8333 0.9574
# 2 33.6196 143.4471 56.3289 -0.2282 7.8260 0.6416
# 3 46.1136 56.3289 88.1959 12.5368 2.7565 -6.1943
# 4 1.0862 -0.2282 12.5368 35.2610 1.6351 -3.2083
# 5 5.8333 7.8260 2.7565 1.6351 26.8358 2.3004
# 6 0.9574 0.6416 -6.1943 -3.2083 2.3004 21.5637
#
#
#
# Elastic Compliance Matrix: (Units=1/GPa)
#
#
# Indices 1 2 3 4 5 6 
#
# 1 0.016078 -0.000182 -0.008749 0.002493 -0.002473 -0.002587
# 2 -0.000182 0.009677 -0.006458 0.002321 -0.002126 -0.001563
# 3 -0.008749 -0.006458 0.021363 -0.006937 0.001540 0.005521
# 4 0.002493 0.002321 -0.006937 0.031136 -0.002638 0.002742
# 5 -0.002473 -0.002126 0.001540 -0.002638 0.038759 -0.003912
# 6 -0.002587 -0.001563 0.005521 0.002742 -0.003912 0.048947
#
#
# Mechanical properties :
#
#
# Convention : Reuss Voigt Hill
#
# Bulk Modulus (GPa) = 61.20258 65.81350 63.50804
# Shear Modulus (GPa) = 24.72990 29.00779 26.86884
#
# Velocity S-wave (km/s) = 3.71932 4.02818 3.87683
# Velocity P-wave (km/s) = 7.25807 7.64523 7.45416
#
# Compressibility (1/GPa) = 0.01633918
#
# Stress axis : x y z
#
# Youngs Moduli (GPa) = 62.19758 103.34202 46.80965
#
# Poissons Ratio (x) = 0.01883 0.40953
# Poissons Ratio (y) = 0.01133 0.30231
# Poissons Ratio (z) = 0.54415 0.66740
#
# Static dielectric constant tensor:
#      x y z
#    x 3.299400 0.033430 -0.098130 
#    y 0.033430 4.199280 -0.160830 
#    z -0.098130 -0.160830 3.395350 
# 
# 
# High freq. dielectric constant tensor:
#      x y z
#    x 1.682930 0.007520 -0.000600 
#    y 0.007520 1.701220 0.011320 
#    z -0.000600 0.011320 1.662280 
# 
# From -- ./inp_files/317897.got.cif
#   From: 2010.06.25/outbox.cif.g09.slc.cpg/sg2_159_cif.got.tgz:317897.got - 2010.06.27 13:26:56.
