data_PCOD8043512
_publ_section_title
;
Structure prediction by ZEFSAII (Michael W. Deem and Ramdas Pophale) SiO2 
 PCOD8043512
Probable space group: P -1
;
_chemical_formula_sum "Si O2"
_cell_formula_units_Z 16
_cell_length_a 7.962670
_cell_length_b 10.115408
_cell_length_c 15.170724
_cell_angle_alpha 48.117289
_cell_angle_beta 105.624600
_cell_angle_gamma 130.309287
_cell_volume 664.697266
_symmetry_space_group_name_H-M "P -1"
_symmetry_group_IT_number 2
_symmetry_cell_setting 'triclinic'
loop_
_space_group_symop_operation_xyz
x,y,z
-x,-y,-z
loop_
_atom_site_type_symbol
_atom_site_label
_atom_site_fract_x
_atom_site_fract_y
_atom_site_fract_z
Si Si1 0.863596 0.818349 0.984184
Si Si2 0.194486 0.096310 0.416437
Si Si3 0.195905 0.704717 0.641217
Si Si4 0.976110 0.071008 0.714453
Si Si5 0.452623 0.981330 0.307514
Si Si6 0.490701 0.840812 0.948028
Si Si7 0.361800 0.576484 0.575235
Si Si8 0.138487 0.674877 0.115912
O O1 0.598445 0.715022 0.996802
O O2 0.985774 0.944836 0.853215
O O3 0.903798 0.632566 0.079763
O O4 0.000000 0.000000 0.000000
O O5 0.238646 0.914356 0.501261
O O6 0.106217 0.096385 0.307637
O O7 0.421382 0.349860 0.369221
O O8 0.000000 0.000000 0.500000
O O9 0.190299 0.551123 0.633725
O O10 0.953634 0.538929 0.735002
O O11 0.407169 0.817188 0.688418
O O12 0.805036 0.118546 0.690451
O O13 0.229678 0.324829 0.623058
O O14 0.447573 0.768463 0.425646
O O15 0.572631 0.094174 0.179216
O O16 0.678822 0.077387 0.922111
O O17 0.257925 0.665685 0.051004
#
# Coordination Sequence:
#
# PCOD8043512 Si02
#       8
#     2   2   2   2   2   2   2   2
#     4   9  19  38  61  91 125 161 218 267 309 381
#     4  11  25  43  57  98 138 161 209 264 318 391
#     4  11  21  40  64  91 126 166 208 266 318 373
#     4  11  21  39  70  92 125 172 208 261 330 376
#     4  10  19  36  63  93 124 157 213 265 313 385
#     4   9  20  37  58  88 122 168 215 260 317 379
#     4  11  21  39  68  94 123 166 212 262 318 380
#     4  10  21  39  60  87 127 166 215 268 310 374
#
# _framework density 24.071110999999998
#
# number of rings (size 3 to 8) (size 9 to 14) (size 15 to 20)
#    0.000    1.750    2.500    3.375    1.750    3.000 
#    9.000    2.500    0.000    0.000    0.000    0.000 
#    0.000    0.000    0.000    0.000    0.000    0.000 
#
# Total GULP energy -198338.981328 kJ/mol
# GULP energy per Si atom -12396.186333 kJ/mol
# Density = 2.401632 g / cm^3
# Si number density = 24.071111 Si / 1000 Ang^3
#
#
#
# Elastic Constant Matrix: (Units=GPa)
#
#
# Indices 1 2 3 4 5 6 
#
# 1 65.7847 8.9499 13.2843 5.6583 -19.3730 6.6489
# 2 8.9499 74.0543 22.1835 12.5541 -1.3690 13.0246
# 3 13.2843 22.1835 107.3496 25.6292 -24.0691 6.6575
# 4 5.6583 12.5541 25.6292 43.7557 1.5843 -7.3363
# 5 -19.3730 -1.3690 -24.0691 1.5843 34.4043 -1.2305
# 6 6.6489 13.0246 6.6575 -7.3363 -1.2305 15.9396
#
#
#
# Elastic Compliance Matrix: (Units=1/GPa)
#
#
# Indices 1 2 3 4 5 6 
#
# 1 0.020308 0.000201 0.002780 -0.006787 0.013275 -0.011896
# 2 0.000201 0.018271 -0.000784 -0.007880 0.000000 -0.018313
# 3 0.002780 -0.000784 0.015345 -0.011457 0.012395 -0.011245
# 4 -0.006787 -0.007880 -0.011457 0.038315 -0.012817 0.030700
# 5 0.013275 0.000000 0.012395 -0.012817 0.045334 -0.013114
# 6 -0.011896 -0.018313 -0.011245 0.030700 -0.013114 0.100477
#
#
# Mechanical properties :
#
#
# Convention : Reuss Voigt Hill
#
# Bulk Modulus (GPa) = 17.14715 37.33601 27.24158
# Shear Modulus (GPa) = 19.75551 32.33798 26.04674
#
# Velocity S-wave (km/s) = 2.86792 3.66927 3.29306
# Velocity P-wave (km/s) = 4.25507 5.78755 5.07944
#
# Compressibility (1/GPa) = 0.05831874
#
# Stress axis : x y z
#
# Youngs Moduli (GPa) = 49.24188 54.73265 65.16772
#
# Poissons Ratio (x) = -0.01101 -0.18117
# Poissons Ratio (y) = -0.00990 0.05106
# Poissons Ratio (z) = -0.13689 0.04289
#
# Static dielectric constant tensor:
#      x y z
#    x 5.231740 0.194920 0.665770 
#    y 0.194920 4.224700 0.318570 
#    z 0.665770 0.318570 5.108260 
# 
# 
# High freq. dielectric constant tensor:
#      x y z
#    x 1.930400 0.011580 -0.015900 
#    y 0.011580 1.946890 0.018500 
#    z -0.015900 0.018500 1.958580 
# 
# From -- ./inp_files/226311.got.cif
#   From: 2010.06.25/outbox.cif.g09.slc.cpg/sg2_114_cif.got.tgz:226311.got - 2010.06.27 13:26:56.
