data_PCOD8043780
_publ_section_title
;
Structure prediction by ZEFSAII (Michael W. Deem and Ramdas Pophale) SiO2 
 PCOD8043780
Probable space group: P -1
;
_chemical_formula_sum "Si O2"
_cell_formula_units_Z 16
_cell_length_a 26.939460
_cell_length_b 20.649723
_cell_length_c 8.772057
_cell_angle_alpha 40.898755
_cell_angle_beta 30.384273
_cell_angle_gamma 20.500593
_cell_volume 826.094910
_symmetry_space_group_name_H-M "P -1"
_symmetry_group_IT_number 2
_symmetry_cell_setting 'triclinic'
loop_
_space_group_symop_operation_xyz
x,y,z
-x,-y,-z
loop_
_atom_site_type_symbol
_atom_site_label
_atom_site_fract_x
_atom_site_fract_y
_atom_site_fract_z
Si Si1 0.448674 0.293885 0.242025
Si Si2 0.577482 0.671403 0.107750
Si Si3 0.825961 0.312352 0.251026
Si Si4 0.863731 0.441117 0.175565
Si Si5 0.780217 0.658505 0.771231
Si Si6 0.643239 0.297384 0.910286
Si Si7 0.703288 0.926793 0.384226
Si Si8 0.240660 0.962550 0.707038
O O1 0.228312 0.486357 0.542135
O O2 0.554051 0.098200 0.350284
O O3 0.450636 0.305772 0.036945
O O4 0.553016 0.295733 0.039322
O O5 0.650155 0.501900 0.275728
O O6 0.367983 0.869213 0.385728
O O7 0.738049 0.614902 0.826941
O O8 0.836259 0.364828 0.288050
O O9 0.800082 0.220522 0.530984
O O10 0.014737 0.163352 0.911265
O O11 0.734743 0.639679 0.082434
O O12 0.089724 0.266965 0.901516
O O13 0.647929 0.867479 0.708018
O O14 0.000000 0.500000 0.500000
O O15 0.500000 0.500000 0.000000
O O16 0.731959 0.166155 0.054199
O O17 0.704727 0.997434 0.396442
#
# Coordination Sequence:
#
# PCOD8043780 Si02
#       8
#     2   2   2   2   2   2   2   2
#     4  11  23  35  53  84 117 148 177 224 285 328
#     4  11  23  37  53  83 121 145 175 226 285 331
#     4  10  19  37  59  81 108 147 191 231 263 319
#     4   9  18  35  58  80 107 142 188 231 267 318
#     4   9  18  37  62  83 104 143 192 228 269 326
#     4  11  18  37  62  81 106 146 193 231 267 321
#     4   9  19  36  57  81 106 141 189 231 266 323
#     4  10  21  36  59  84 108 143 190 231 271 321
#
# _framework density 19.368233
#
# number of rings (size 3 to 8) (size 9 to 14) (size 15 to 20)
#    0.000    2.000    2.500    3.375    0.000    4.000 
#    0.000    3.125    0.000    0.000    0.000    0.000 
#    0.000    0.000    0.000    0.000    0.000    0.000 
#
# Total GULP energy -198256.429749 kJ/mol
# GULP energy per Si atom -12391.026859 kJ/mol
# Density = 1.932415 g / cm^3
# Si number density = 19.368233 Si / 1000 Ang^3
#
#
#
# Elastic Constant Matrix: (Units=GPa)
#
#
# Indices 1 2 3 4 5 6 
#
# 1 66.3147 29.2275 41.2247 3.9711 22.3240 -2.0451
# 2 29.2275 89.2803 32.5273 -4.7768 9.1385 11.1244
# 3 41.2247 32.5273 100.5554 5.5995 14.8821 11.2463
# 4 3.9711 -4.7768 5.5995 39.6188 10.8648 -4.6196
# 5 22.3240 9.1385 14.8821 10.8648 32.7531 -1.4236
# 6 -2.0451 11.1244 11.2463 -4.6196 -1.4236 15.9815
#
#
#
# Elastic Compliance Matrix: (Units=1/GPa)
#
#
# Indices 1 2 3 4 5 6 
#
# 1 0.028577 -0.006085 -0.009457 0.003219 -0.013932 0.014237
# 2 -0.006085 0.015021 -0.001281 0.001558 -0.000409 -0.009919
# 3 -0.009457 -0.001281 0.015754 -0.002878 0.000068 -0.012231
# 4 0.003219 0.001558 -0.002878 0.029492 -0.010716 0.008923
# 5 -0.013932 -0.000409 0.000068 -0.010716 0.043632 -0.000757
# 6 0.014237 -0.009919 -0.012231 0.008923 -0.000757 0.082418
#
#
# Mechanical properties :
#
#
# Convention : Reuss Voigt Hill
#
# Bulk Modulus (GPa) = 38.90212 51.34551 45.12381
# Shear Modulus (GPa) = 19.44708 27.88206 23.66457
#
# Velocity S-wave (km/s) = 3.17215 3.79829 3.49925
# Velocity P-wave (km/s) = 5.79187 6.76785 6.29879
#
# Compressibility (1/GPa) = 0.02570554
#
# Stress axis : x y z
#
# Youngs Moduli (GPa) = 34.99345 66.57515 63.47498
#
# Poissons Ratio (x) = 0.40514 0.60027
# Poissons Ratio (y) = 0.21295 0.08130
# Poissons Ratio (z) = 0.33093 0.08527
#
# Static dielectric constant tensor:
#      x y z
#    x 3.099040 0.062040 -0.119380 
#    y 0.062040 3.959200 -0.202350 
#    z -0.119380 -0.202350 3.883710 
# 
# 
# High freq. dielectric constant tensor:
#      x y z
#    x 1.707530 0.006620 -0.003790 
#    y 0.006620 1.765540 -0.005740 
#    z -0.003790 -0.005740 1.767650 
# 
# From -- ./inp_files/268227.got.cif
#   From: 2010.06.25/outbox.cif.g09.slc.cpg/sg2_135_cif.got.tgz:268227.got - 2010.06.27 13:26:56.
