data_PCOD8043938
_publ_section_title
;
Structure prediction by ZEFSAII (Michael W. Deem and Ramdas Pophale) SiO2 
 PCOD8043938
Probable space group: P -1
;
_chemical_formula_sum "Si O2"
_cell_formula_units_Z 16
_cell_length_a 11.276255
_cell_length_b 7.598506
_cell_length_c 25.548945
_cell_angle_alpha 53.634707
_cell_angle_beta 31.089580
_cell_angle_gamma 43.065626
_cell_volume 768.552762
_symmetry_space_group_name_H-M "P -1"
_symmetry_group_IT_number 2
_symmetry_cell_setting 'triclinic'
loop_
_space_group_symop_operation_xyz
x,y,z
-x,-y,-z
loop_
_atom_site_type_symbol
_atom_site_label
_atom_site_fract_x
_atom_site_fract_y
_atom_site_fract_z
Si Si1 0.736091 0.490281 0.606695
Si Si2 0.601795 0.087396 0.728016
Si Si3 0.017900 0.080964 0.800955
Si Si4 0.455204 0.803675 0.760924
Si Si5 0.516699 0.602206 0.102580
Si Si6 0.994702 0.418645 0.135515
Si Si7 0.829467 0.911105 0.779515
Si Si8 0.669740 0.078730 0.387029
O O1 0.795871 0.201362 0.630490
O O2 0.610616 0.605557 0.690371
O O3 0.535679 0.637755 0.608378
O O4 0.000000 0.500000 0.500000
O O5 0.288380 0.314585 0.811779
O O6 0.635129 0.912245 0.696313
O O7 0.698795 0.906034 0.774909
O O8 0.166245 0.050744 0.805631
O O9 0.184786 0.111829 0.684467
O O10 0.032150 0.812428 0.835115
O O11 0.706891 0.323602 0.872454
O O12 0.401275 0.663289 0.853031
O O13 0.393230 0.836526 0.148920
O O14 0.788391 0.557841 0.983416
O O15 0.088803 0.348898 0.173112
O O16 0.099870 0.920385 0.665532
O O17 0.500000 0.000000 0.500000
#
# Coordination Sequence:
#
# PCOD8043938 Si02
#       8
#     2   2   2   2   2   2   2   2
#     4  11  22  43  68  86 123 162 196 254 308 364
#     4  12  23  40  63  91 127 161 200 254 302 363
#     4   9  19  38  59  88 120 163 203 252 301 359
#     4  11  24  40  60  95 125 157 207 249 304 366
#     4  10  20  37  63  89 122 165 210 252 302 357
#     4  10  20  38  62  90 120 168 210 249 305 357
#     4  10  19  37  61  88 121 163 207 249 301 361
#     4   9  17  33  62  91 110 151 203 242 306 360
#
# _framework density 20.818349000000001
#
# number of rings (size 3 to 8) (size 9 to 14) (size 15 to 20)
#    0.000    2.000    5.000    2.250    1.750    5.000 
#    0.000    1.250    0.000    2.250    0.000    0.000 
#    0.000    0.000    0.000    0.000    0.000    0.000 
#
# Total GULP energy -198298.620994 kJ/mol
# GULP energy per Si atom -12393.663812 kJ/mol
# Density = 2.077097 g / cm^3
# Si number density = 20.818349 Si / 1000 Ang^3
#
#
#
# Elastic Constant Matrix: (Units=GPa)
#
#
# Indices 1 2 3 4 5 6 
#
# 1 132.9443 45.1211 21.7084 -19.4369 -3.4821 -26.0997
# 2 45.1211 54.7682 32.1614 -14.2161 2.2694 -18.0446
# 3 21.7084 32.1614 134.6604 -24.7973 -8.8028 -6.6088
# 4 -19.4369 -14.2161 -24.7973 25.4747 -7.9774 -6.8118
# 5 -3.4821 2.2694 -8.8028 -7.9774 15.4436 -1.8740
# 6 -26.0997 -18.0446 -6.6088 -6.8118 -1.8740 35.3074
#
#
#
# Elastic Compliance Matrix: (Units=1/GPa)
#
#
# Indices 1 2 3 4 5 6 
#
# 1 0.016417 -0.005211 0.006211 0.027996 0.024573 0.017341
# 2 -0.005211 0.034286 -0.003089 0.017583 0.003129 0.016651
# 3 0.006211 -0.003089 0.015069 0.029742 0.027388 0.013025
# 4 0.027996 0.017583 0.029742 0.151882 0.107663 0.070265
# 5 0.024573 0.003129 0.027388 0.107663 0.147548 0.053493
# 6 0.017341 0.016651 0.013025 0.070265 0.053493 0.068484
#
#
# Mechanical properties :
#
#
# Convention : Reuss Voigt Hill
#
# Bulk Modulus (GPa) = 16.23531 57.81720 37.02625
# Shear Modulus (GPa) = 10.90761 30.13728 20.52245
#
# Velocity S-wave (km/s) = 2.29146 3.80890 3.14313
# Velocity P-wave (km/s) = 3.84923 6.86849 5.56744
#
# Compressibility (1/GPa) = 0.06159415
#
# Stress axis : x y z
#
# Youngs Moduli (GPa) = 60.91120 29.16661 66.36045
#
# Poissons Ratio (x) = 0.15198 -0.41214
# Poissons Ratio (y) = 0.31738 0.20499
# Poissons Ratio (z) = -0.37829 0.09010
#
# Static dielectric constant tensor:
#      x y z
#    x 4.129170 -0.530730 0.097920 
#    y -0.530730 3.806780 -0.148430 
#    z 0.097920 -0.148430 4.184490 
# 
# 
# High freq. dielectric constant tensor:
#      x y z
#    x 1.813680 -0.036730 -0.012850 
#    y -0.036730 1.803250 -0.010610 
#    z -0.012850 -0.010610 1.804240 
# 
# From -- ./inp_files/618065.got.cif
#   From: 2010.06.25/outbox.cif.g09.slc.cpg/sg2_310_cif.got.tgz:618065.got - 2010.06.27 13:26:56.
