data_PCOD8043888
_publ_section_title
;
Structure prediction by ZEFSAII (Michael W. Deem and Ramdas Pophale) SiO2 
 PCOD8043888
Probable space group: P -1
;
_chemical_formula_sum "Si O2"
_cell_formula_units_Z 16
_cell_length_a 21.744124
_cell_length_b 5.147483
_cell_length_c 18.105778
_cell_angle_alpha 88.225165
_cell_angle_beta 19.389088
_cell_angle_gamma 88.158438
_cell_volume 672.423179
_symmetry_space_group_name_H-M "P -1"
_symmetry_group_IT_number 2
_symmetry_cell_setting 'triclinic'
loop_
_space_group_symop_operation_xyz
x,y,z
-x,-y,-z
loop_
_atom_site_type_symbol
_atom_site_label
_atom_site_fract_x
_atom_site_fract_y
_atom_site_fract_z
Si Si1 0.133168 0.295981 0.772535
Si Si2 0.675858 0.376709 0.048970
Si Si3 0.894903 0.798968 0.035411
Si Si4 0.760071 0.854679 0.030522
Si Si5 0.307005 0.214898 0.427003
Si Si6 0.159703 0.719319 0.524428
Si Si7 0.719512 0.066713 0.757306
Si Si8 0.048851 0.707907 0.383370
O O1 0.285919 0.215990 0.540041
O O2 0.061327 0.589904 0.837274
O O3 0.214340 0.271197 0.764409
O O4 0.965825 0.093332 0.956451
O O5 0.627767 0.642420 0.144253
O O6 0.864437 0.413036 0.787983
O O7 0.688948 0.145200 0.095620
O O8 0.513193 0.315954 0.175701
O O9 0.761140 0.788958 0.116592
O O10 0.956033 0.831255 0.767497
O O11 0.165335 0.426717 0.551960
O O12 0.291298 0.925596 0.415541
O O13 0.229315 0.701090 0.360059
O O14 0.791916 0.114268 0.758841
O O15 0.855719 0.838940 0.575319
O O16 0.500000 0.000000 0.000000
O O17 0.000000 0.500000 0.500000
#
# Coordination Sequence:
#
# PCOD8043888 Si02
#       8
#     2   2   2   2   2   2   2   2
#     4  10  19  37  60  95 125 163 208 268 308 376
#     4  12  27  42  65  92 136 166 208 265 336 380
#     4  10  20  35  64  92 126 162 213 259 317 370
#     4  12  22  43  64  96 124 172 210 262 315 389
#     4  12  24  42  65  98 128 168 214 269 320 383
#     4  12  24  42  69  93 126 163 227 264 309 390
#     4  11  26  44  67  95 127 173 221 271 330 395
#     4  11  26  45  64  92 133 171 213 275 333 391
#
# _framework density 23.794537999999999
#
# number of rings (size 3 to 8) (size 9 to 14) (size 15 to 20)
#    0.000    0.750    3.750    3.750    5.250    0.500 
#    0.000    1.250    0.000    0.000    0.000    0.000 
#    0.000    0.000    0.000    0.000    0.000    0.000 
#
# Total GULP energy -198315.669995 kJ/mol
# GULP energy per Si atom -12394.729375 kJ/mol
# Density = 2.374038 g / cm^3
# Si number density = 23.794538 Si / 1000 Ang^3
#
#
#
# Elastic Constant Matrix: (Units=GPa)
#
#
# Indices 1 2 3 4 5 6 
#
# 1 99.4872 19.5688 9.1148 2.8398 12.1456 4.9300
# 2 19.5688 94.9346 -3.6068 -10.4542 4.7526 -1.0518
# 3 9.1148 -3.6068 56.2678 4.0895 -7.9624 -7.8854
# 4 2.8398 -10.4542 4.0895 19.8402 4.5795 0.1595
# 5 12.1456 4.7526 -7.9624 4.5795 42.7551 -5.5910
# 6 4.9300 -1.0518 -7.8854 0.1595 -5.5910 36.8264
#
#
#
# Elastic Compliance Matrix: (Units=1/GPa)
#
#
# Indices 1 2 3 4 5 6 
#
# 1 0.011425 -0.002471 -0.002811 -0.001483 -0.003696 -0.002757
# 2 -0.002471 0.011873 0.000590 0.006749 -0.001154 0.000592
# 3 -0.002811 0.000590 0.020217 -0.004826 0.005749 0.005616
# 4 -0.001483 0.006749 -0.004826 0.056935 -0.007593 -0.002041
# 5 -0.003696 -0.001154 0.005749 -0.007593 0.027217 0.005858
# 6 -0.002757 0.000592 0.005616 -0.002041 0.005858 0.029641
#
#
# Mechanical properties :
#
#
# Convention : Reuss Voigt Hill
#
# Bulk Modulus (GPa) = 29.29734 33.42702 31.36218
# Shear Modulus (GPa) = 28.07931 34.92520 31.50225
#
# Velocity S-wave (km/s) = 3.43895 3.83532 3.64253
# Velocity P-wave (km/s) = 5.30168 5.80445 5.55875
#
# Compressibility (1/GPa) = 0.03413279
#
# Stress axis : x y z
#
# Youngs Moduli (GPa) = 87.52604 84.22604 49.46435
#
# Poissons Ratio (x) = 0.20809 0.13903
# Poissons Ratio (y) = 0.21624 -0.02921
# Poissons Ratio (z) = 0.24601 -0.04973
#
# Static dielectric constant tensor:
#      x y z
#    x 4.848820 0.251250 0.061500 
#    y 0.251250 4.305630 -0.063840 
#    z 0.061500 -0.063840 4.068400 
# 
# 
# High freq. dielectric constant tensor:
#      x y z
#    x 1.959410 0.004050 0.007320 
#    y 0.004050 1.954640 -0.007220 
#    z 0.007320 -0.007220 1.910980 
# 
# From -- ./inp_files/55568.got.cif
#   From: 2010.06.25/outbox.cif.g09.slc.cpg/sg2_28_cif.got.tgz:55568.got - 2010.06.27 13:26:56.
