data_PCOD8043352
_publ_section_title
;
Structure prediction by ZEFSAII (Michael W. Deem and Ramdas Pophale) SiO2 
 PCOD8043352
Probable space group: P -1
;
_chemical_formula_sum "Si O2"
_cell_formula_units_Z 14
_cell_length_a 16.187815
_cell_length_b 12.219574
_cell_length_c 9.017305
_cell_angle_alpha 57.810149
_cell_angle_beta 55.954197
_cell_angle_gamma 27.306233
_cell_volume 675.082908
_symmetry_space_group_name_H-M "P -1"
_symmetry_group_IT_number 2
_symmetry_cell_setting 'triclinic'
loop_
_space_group_symop_operation_xyz
x,y,z
-x,-y,-z
loop_
_atom_site_type_symbol
_atom_site_label
_atom_site_fract_x
_atom_site_fract_y
_atom_site_fract_z
Si Si1 0.448621 0.567827 0.756474
Si Si2 0.072003 0.398972 0.218319
Si Si3 0.337098 0.526783 0.636197
Si Si4 0.345779 0.130020 0.675016
Si Si5 0.338500 0.843415 0.939885
Si Si6 0.005542 0.712841 0.869825
Si Si7 0.466037 0.940305 0.209866
O O1 0.315224 0.651090 0.705540
O O2 0.614181 0.455846 0.580115
O O3 0.340333 0.790434 0.806036
O O4 0.516884 0.385629 0.934468
O O5 0.869282 0.618427 0.342944
O O6 0.093793 0.256072 0.185287
O O7 0.249466 0.190029 0.300506
O O8 0.103024 0.501086 0.030250
O O9 0.146409 0.662888 0.699538
O O10 0.496822 0.250874 0.724719
O O11 0.379029 0.192022 0.730558
O O12 0.500000 0.000000 0.500000
O O13 0.389767 0.937938 0.821080
O O14 0.136477 0.047173 0.064658
O O15 0.500000 0.000000 0.000000
#
# Coordination Sequence:
#
# PCOD8043352 Si02
#       7
#     2   2   2   2   2   2   2
#     4  10  23  40  58  84 120 167 210 242 293 359
#     4  10  20  36  59  98 124 153 200 245 317 378
#     4  11  21  37  64  89 118 162 206 251 295 358
#     4  11  23  39  63  93 126 158 195 260 315 359
#     4  10  22  40  59  84 123 163 202 249 303 362
#     4  10  19  36  61  89 125 154 200 257 301 364
#     4  12  20  36  67  92 118 160 198 251 313 364
#
# _framework density 20.738192000000002
#
# number of rings (size 3 to 8) (size 9 to 14) (size 15 to 20)
#    0.000    1.429    2.857    4.286    0.000    1.714 
#    0.000    0.000    0.000    0.000    0.000    0.000 
#    0.000    0.000    0.000    0.000    0.000    0.000 
#
# Total GULP energy -173506.173730 kJ/mol
# GULP energy per Si atom -12393.298124 kJ/mol
# Density = 2.069099 g / cm^3
# Si number density = 20.738192 Si / 1000 Ang^3
#
#
#
# Elastic Constant Matrix: (Units=GPa)
#
#
# Indices 1 2 3 4 5 6 
#
# 1 75.2666 30.1411 10.5552 10.1699 -6.2162 9.8017
# 2 30.1411 83.9659 17.7941 20.2956 -2.5670 -5.7054
# 3 10.5552 17.7941 70.1786 20.6302 -7.2168 1.5957
# 4 10.1699 20.2956 20.6302 27.5288 -1.2210 4.0483
# 5 -6.2162 -2.5670 -7.2168 -1.2210 29.3404 13.4606
# 6 9.8017 -5.7054 1.5957 4.0483 13.4606 34.8802
#
#
#
# Elastic Compliance Matrix: (Units=1/GPa)
#
#
# Indices 1 2 3 4 5 6 
#
# 1 0.017746 -0.006768 -0.000031 0.000087 0.007246 -0.008899
# 2 -0.006768 0.017611 -0.000736 -0.011244 -0.004071 0.007692
# 3 -0.000031 -0.000736 0.018805 -0.013160 0.004559 -0.001204
# 4 0.000087 -0.011244 -0.013160 0.055788 0.002028 -0.008519
# 5 0.007246 -0.004071 0.004559 0.002028 0.046067 -0.020924
# 6 -0.008899 0.007692 -0.001204 -0.008519 -0.020924 0.041547
#
#
# Mechanical properties :
#
#
# Convention : Reuss Voigt Hill
#
# Bulk Modulus (GPa) = 25.57998 38.48799 32.03398
# Shear Modulus (GPa) = 22.15675 29.74459 25.95067
#
# Velocity S-wave (km/s) = 3.27219 3.79131 3.54128
# Velocity P-wave (km/s) = 5.16118 6.14530 5.67461
#
# Compressibility (1/GPa) = 0.03909307
#
# Stress axis : x y z
#
# Youngs Moduli (GPa) = 56.34957 56.78274 53.17651
#
# Poissons Ratio (x) = 0.38430 0.00166
# Poissons Ratio (y) = 0.38137 0.03912
# Poissons Ratio (z) = 0.00176 0.04177
#
# Static dielectric constant tensor:
#      x y z
#    x 3.859030 0.199850 -0.066150 
#    y 0.199850 3.862960 0.138030 
#    z -0.066150 0.138030 3.692910 
# 
# 
# High freq. dielectric constant tensor:
#      x y z
#    x 1.810380 0.011270 -0.015850 
#    y 0.011270 1.811840 0.010360 
#    z -0.015850 0.010360 1.800150 
# 
# From -- ./inp_files/168902.got.cif
#   From: 2010.06.25/outbox.cif.g09.slc.cpg/sg2_85_cif.got.tgz:168902.got - 2010.06.27 13:26:56.
