data_PCOD8043492
_publ_section_title
;
Structure prediction by ZEFSAII (Michael W. Deem and Ramdas Pophale) SiO2 
 PCOD8043492
Probable space group: P -1
;
_chemical_formula_sum "Si O2"
_cell_formula_units_Z 16
_cell_length_a 26.807920
_cell_length_b 8.574811
_cell_length_c 26.778235
_cell_angle_alpha 42.641968
_cell_angle_beta 168.958935
_cell_angle_gamma 137.276317
_cell_volume 794.780882
_symmetry_space_group_name_H-M "P -1"
_symmetry_group_IT_number 2
_symmetry_cell_setting 'triclinic'
loop_
_space_group_symop_operation_xyz
x,y,z
-x,-y,-z
loop_
_atom_site_type_symbol
_atom_site_label
_atom_site_fract_x
_atom_site_fract_y
_atom_site_fract_z
Si Si1 0.206512 0.720478 0.298078
Si Si2 0.127715 0.250153 0.380131
Si Si3 0.649701 0.859258 0.856045
Si Si4 0.885159 0.457521 0.602727
Si Si5 0.283797 0.026823 0.212231
Si Si6 0.610235 0.977073 0.898355
Si Si7 0.552243 0.465294 0.001861
Si Si8 0.947717 0.735202 0.497269
O O1 0.174936 0.444038 0.337635
O O2 0.455760 0.822490 0.549990
O O3 0.239843 0.787736 0.256467
O O4 0.953215 0.818912 0.048768
O O5 0.112881 0.359968 0.393899
O O6 0.861106 0.093105 0.145831
O O7 0.358824 0.086801 0.645630
O O8 0.384203 0.699923 0.624910
O O9 0.694486 0.029376 0.811968
O O10 0.640071 0.016266 0.858858
O O11 0.882207 0.699281 0.124924
O O12 0.922012 0.588443 0.556520
O O13 0.577276 0.705514 0.940292
O O14 0.816561 0.342307 0.286022
O O15 0.500000 0.500000 0.000000
O O16 0.316639 0.298336 0.786499
O O17 0.000000 0.000000 0.500000
#
# Coordination Sequence:
#
# PCOD8043492 Si02
#       8
#     2   2   2   2   2   2   2   2
#     4  10  20  36  59  94 124 156 212 263 306 362
#     4  12  24  40  63  97 125 167 209 264 305 367
#     4  12  21  43  64  93 120 175 207 257 308 375
#     4  12  23  41  68  90 127 158 223 259 298 363
#     4  10  19  36  63  89 122 164 206 261 313 361
#     4  12  26  41  63  90 135 164 205 254 319 378
#     4  12  27  47  66  93 132 171 203 248 326 385
#     4  12  26  46  68  98 125 161 214 267 303 365
#
# _framework density 20.131333999999999
#
# number of rings (size 3 to 8) (size 9 to 14) (size 15 to 20)
#    0.000    0.500    5.000    3.750    3.500    0.000 
#    0.000    1.250    0.000    0.000    0.000    0.000 
#    0.000    0.000    0.000    0.000    0.000    0.000 
#
# Total GULP energy -198474.841023 kJ/mol
# GULP energy per Si atom -12404.677564 kJ/mol
# Density = 2.008551 g / cm^3
# Si number density = 20.131334 Si / 1000 Ang^3
#
#
#
# Elastic Constant Matrix: (Units=GPa)
#
#
# Indices 1 2 3 4 5 6 
#
# 1 144.2988 10.8557 20.5473 7.7801 -1.1643 -0.9361
# 2 10.8557 62.6246 20.4497 10.8763 3.5637 -3.2951
# 3 20.5473 20.4497 145.1826 15.2435 14.8215 -12.3666
# 4 7.7801 10.8763 15.2435 40.4580 -8.8863 -2.5642
# 5 -1.1643 3.5637 14.8215 -8.8863 37.6915 -2.6515
# 6 -0.9361 -3.2951 -12.3666 -2.5642 -2.6515 39.8338
#
#
#
# Elastic Compliance Matrix: (Units=1/GPa)
#
#
# Indices 1 2 3 4 5 6 
#
# 1 0.007162 -0.000865 -0.000880 -0.000723 0.000465 -0.000192
# 2 -0.000865 0.017552 -0.001643 -0.004347 -0.002029 0.000507
# 3 -0.000880 -0.001643 0.008109 -0.003128 -0.003663 0.001916
# 4 -0.000723 -0.004347 -0.003128 0.029155 0.008570 0.001100
# 5 0.000465 -0.002029 -0.003663 0.008570 0.030288 0.001273
# 6 -0.000192 0.000507 0.001916 0.001100 0.001273 0.025892
#
#
# Mechanical properties :
#
#
# Convention : Reuss Voigt Hill
#
# Bulk Modulus (GPa) = 38.39194 50.64572 44.51883
# Shear Modulus (GPa) = 37.42065 43.61355 40.51710
#
# Velocity S-wave (km/s) = 4.31609 4.65956 4.49111
# Velocity P-wave (km/s) = 6.62950 7.35942 7.00397
#
# Compressibility (1/GPa) = 0.02604713
#
# Stress axis : x y z
#
# Youngs Moduli (GPa) = 139.62764 56.97454 123.31399
#
# Poissons Ratio (x) = 0.04929 0.10847
# Poissons Ratio (y) = 0.12081 0.20262
# Poissons Ratio (z) = 0.12282 0.09362
#
# Static dielectric constant tensor:
#      x y z
#    x 3.714510 0.060640 -0.212970 
#    y 0.060640 3.570600 -0.090710 
#    z -0.212970 -0.090710 4.010860 
# 
# 
# High freq. dielectric constant tensor:
#      x y z
#    x 1.801700 0.012140 0.000840 
#    y 0.012140 1.773000 0.004700 
#    z 0.000840 0.004700 1.814150 
# 
# From -- ./inp_files/228009.got.cif
#   From: 2010.06.25/outbox.cif.g09.slc.cpg/sg2_115_cif.got.tgz:228009.got - 2010.06.27 13:26:56.
