data_PCOD8043753
_publ_section_title
;
Structure prediction by ZEFSAII (Michael W. Deem and Ramdas Pophale) SiO2 
 PCOD8043753
Probable space group: P -1
;
_chemical_formula_sum "Si O2"
_cell_formula_units_Z 16
_cell_length_a 15.557862
_cell_length_b 8.973669
_cell_length_c 14.435624
_cell_angle_alpha 39.955653
_cell_angle_beta 141.036209
_cell_angle_gamma 134.163163
_cell_volume 788.167671
_symmetry_space_group_name_H-M "P -1"
_symmetry_group_IT_number 2
_symmetry_cell_setting 'triclinic'
loop_
_space_group_symop_operation_xyz
x,y,z
-x,-y,-z
loop_
_atom_site_type_symbol
_atom_site_label
_atom_site_fract_x
_atom_site_fract_y
_atom_site_fract_z
Si Si1 0.967628 0.717299 0.125941
Si Si2 0.289842 0.039610 0.936149
Si Si3 0.978054 0.363113 0.142048
Si Si4 0.698512 0.785087 0.934150
Si Si5 0.537554 0.320116 0.746449
Si Si6 0.728250 0.223532 0.627736
Si Si7 0.558746 0.480173 0.248822
Si Si8 0.288630 0.423389 0.395483
O O1 0.939477 0.551155 0.091009
O O2 0.107352 0.672842 0.313920
O O3 0.825380 0.648925 0.101002
O O4 0.000000 0.000000 0.000000
O O5 0.279424 0.061039 0.027660
O O6 0.420982 0.925854 0.078555
O O7 0.317934 0.293473 0.787393
O O8 0.144962 0.878493 0.850259
O O9 0.123291 0.285750 0.323990
O O10 0.000000 0.500000 0.000000
O O11 0.545786 0.597557 0.889421
O O12 0.701296 0.946847 0.766691
O O13 0.530215 0.457477 0.770003
O O14 0.387135 0.256576 0.596233
O O15 0.661650 0.485999 0.709091
O O16 0.632602 0.267415 0.440696
O O17 0.687450 0.351186 0.623716
#
# Coordination Sequence:
#
# PCOD8043753 Si02
#       8
#     2   2   2   2   2   2   2   2
#     4   9  19  35  59  87 112 145 190 243 283 334
#     4  12  23  39  56  85 123 152 191 241 291 346
#     4  11  19  35  61  88 114 151 192 237 289 341
#     4  11  21  39  58  82 114 160 196 238 284 343
#     4  10  19  37  58  84 117 144 190 238 287 344
#     4   9  18  39  60  85 112 147 195 242 284 343
#     4  11  24  37  58  86 116 154 194 240 295 342
#     4   9  18  34  61  88 111 142 191 244 283 336
#
# _framework density 20.300250999999999
#
# number of rings (size 3 to 8) (size 9 to 14) (size 15 to 20)
#    0.000    1.750    2.500    3.375    0.000    0.000 
#    0.000    7.500    0.000    0.000    0.000    0.000 
#    0.000    0.000    0.000    0.000    0.000    0.000 
#
# Total GULP energy -198322.578059 kJ/mol
# GULP energy per Si atom -12395.161129 kJ/mol
# Density = 2.025405 g / cm^3
# Si number density = 20.300251 Si / 1000 Ang^3
#
#
#
# Elastic Constant Matrix: (Units=GPa)
#
#
# Indices 1 2 3 4 5 6 
#
# 1 71.3533 38.4872 38.1752 13.2938 20.8504 -0.7906
# 2 38.4872 117.9533 24.3041 20.4442 7.8121 5.0222
# 3 38.1752 24.3041 72.8046 10.8549 19.6658 5.2798
# 4 13.2938 20.4442 10.8549 29.6165 6.5998 -1.8185
# 5 20.8504 7.8121 19.6658 6.5998 28.8941 2.4671
# 6 -0.7906 5.0222 5.2798 -1.8185 2.4671 27.4690
#
#
#
# Elastic Compliance Matrix: (Units=1/GPa)
#
#
# Indices 1 2 3 4 5 6 
#
# 1 0.025059 -0.005629 -0.008400 -0.001608 -0.010837 0.004232
# 2 -0.005629 0.011386 -0.000558 -0.005960 0.002964 -0.002797
# 3 -0.008400 -0.000558 0.020845 -0.002107 -0.007183 -0.003641
# 4 -0.001608 -0.005960 -0.002107 0.040892 -0.005531 0.004652
# 5 -0.010837 0.002964 -0.007183 -0.005531 0.048136 -0.004163
# 6 0.004232 -0.002797 -0.003641 0.004652 -0.004163 0.038420
#
#
# Mechanical properties :
#
#
# Convention : Reuss Voigt Hill
#
# Bulk Modulus (GPa) = 35.56966 51.56049 43.56507
# Shear Modulus (GPa) = 22.39318 27.93890 25.16604
#
# Velocity S-wave (km/s) = 3.32490 3.71385 3.52474
# Velocity P-wave (km/s) = 5.68329 6.62151 6.17026
#
# Compressibility (1/GPa) = 0.02811385
#
# Stress axis : x y z
#
# Youngs Moduli (GPa) = 39.90626 87.83035 47.97398
#
# Poissons Ratio (x) = 0.49442 0.40299
# Poissons Ratio (y) = 0.22464 0.02678
# Poissons Ratio (z) = 0.33522 0.04903
#
# Static dielectric constant tensor:
#      x y z
#    x 3.780050 0.044530 0.433710 
#    y 0.044530 3.880340 0.260150 
#    z 0.433710 0.260150 3.942700 
# 
# 
# High freq. dielectric constant tensor:
#      x y z
#    x 1.791700 -0.002350 0.023890 
#    y -0.002350 1.777540 0.021730 
#    z 0.023890 0.021730 1.786110 
# 
# From -- ./inp_files/358895.got.cif
#   From: 2010.06.25/outbox.cif.g09.slc.cpg/sg2_180_cif.got.tgz:358895.got - 2010.06.27 13:26:56.
