data_PCOD8043761
_publ_section_title
;
Structure prediction by ZEFSAII (Michael W. Deem and Ramdas Pophale) SiO2 
 PCOD8043761
Probable space group: P -1
;
_chemical_formula_sum "Si O2"
_cell_formula_units_Z 16
_cell_length_a 25.214467
_cell_length_b 22.451632
_cell_length_c 15.506671
_cell_angle_alpha 152.441515
_cell_angle_beta 17.660602
_cell_angle_gamma 162.551769
_cell_volume 773.752066
_symmetry_space_group_name_H-M "P -1"
_symmetry_group_IT_number 2
_symmetry_cell_setting 'triclinic'
loop_
_space_group_symop_operation_xyz
x,y,z
-x,-y,-z
loop_
_atom_site_type_symbol
_atom_site_label
_atom_site_fract_x
_atom_site_fract_y
_atom_site_fract_z
Si Si1 0.301164 0.552594 0.708862
Si Si2 0.956787 0.116496 0.749713
Si Si3 0.261568 0.310849 0.688509
Si Si4 0.101671 0.508201 0.640646
Si Si5 0.037901 0.618852 0.714282
Si Si6 0.976039 0.191523 0.308893
Si Si7 0.668235 0.191746 0.666106
Si Si8 0.445092 0.272633 0.639145
O O1 0.610517 0.726071 0.495398
O O2 0.330369 0.579129 0.594690
O O3 0.157531 0.333651 0.671047
O O4 0.141289 0.583931 0.036276
O O5 0.011149 0.121641 0.773031
O O6 0.000000 0.000000 0.500000
O O7 0.652036 0.999916 0.058241
O O8 0.500000 0.500000 0.500000
O O9 0.123053 0.341166 0.999292
O O10 0.387070 0.663225 0.451070
O O11 0.149055 0.649134 0.677043
O O12 0.017783 0.324173 0.489168
O O13 0.796844 0.381845 0.762964
O O14 0.296896 0.765442 0.435439
O O15 0.834834 0.162904 0.403671
O O16 0.765813 0.958418 0.365201
O O17 0.275426 0.305644 0.965376
#
# Coordination Sequence:
#
# PCOD8043761 Si02
#       8
#     2   2   2   2   2   2   2   2
#     4  11  23  42  64  88 130 167 204 261 319 369
#     4  11  23  37  61  96 125 159 204 259 312 385
#     4  10  19  37  58  86 122 158 192 245 315 365
#     4  11  22  41  67  92 125 169 210 263 311 377
#     4  10  20  38  63  90 125 163 196 256 323 370
#     4  10  24  42  67  90 126 167 214 268 308 376
#     4  10  21  38  62  93 121 159 206 255 315 378
#     4  11  24  46  62  91 127 169 218 259 317 371
#
# _framework density 20.678457999999999
#
# number of rings (size 3 to 8) (size 9 to 14) (size 15 to 20)
#    0.000    1.500    2.500    3.750    1.750    3.000 
#    6.750    0.000    0.000    0.000    0.000    0.000 
#    0.000    0.000    0.000    0.000    0.000    0.000 
#
# Total GULP energy -198294.369708 kJ/mol
# GULP energy per Si atom -12393.398107 kJ/mol
# Density = 2.063139 g / cm^3
# Si number density = 20.678458 Si / 1000 Ang^3
#
#
#
# Elastic Constant Matrix: (Units=GPa)
#
#
# Indices 1 2 3 4 5 6 
#
# 1 115.1917 15.0811 63.6416 -13.9335 -4.8609 -6.3814
# 2 15.0811 60.5348 43.6294 4.7028 8.2679 -12.0915
# 3 63.6416 43.6294 141.8848 8.4305 -13.5557 23.8125
# 4 -13.9335 4.7028 8.4305 30.9693 2.9871 -1.5834
# 5 -4.8609 8.2679 -13.5557 2.9871 36.4629 -3.0402
# 6 -6.3814 -12.0915 23.8125 -1.5834 -3.0402 -13.6675
#
#
#
# Elastic Compliance Matrix: (Units=1/GPa)
#
#
# Indices 1 2 3 4 5 6 
#
# 1 0.010891 -0.002675 -0.002991 0.005706 -0.000233 -0.008539
# 2 -0.002675 0.016544 -0.001750 -0.003444 -0.005708 -0.014768
# 3 -0.002991 -0.001750 0.007022 -0.002636 0.004041 0.014586
# 4 0.005706 -0.003444 -0.002636 0.035996 -0.003030 -0.007706
# 5 -0.000233 -0.005708 0.004041 -0.003030 0.030912 0.005673
# 6 -0.008539 -0.014768 0.014586 -0.007706 0.005673 -0.031071
#
#
# Mechanical properties :
#
#
# Convention : Reuss Voigt Hill
#
# Bulk Modulus (GPa) = 50.95085 62.47949 56.71517
# Shear Modulus (GPa) = 54.54505 23.77021 39.15763
#
# Velocity S-wave (km/s) = 5.14150 3.39413 4.35632
# Velocity P-wave (km/s) = 7.74207 6.75578 7.26568
#
# Compressibility (1/GPa) = 0.01962676
#
# Stress axis : x y z
#
# Youngs Moduli (GPa) = 91.81763 60.44389 142.40324
#
# Poissons Ratio (x) = 0.16168 0.42591
# Poissons Ratio (y) = 0.24559 0.24918
# Poissons Ratio (z) = 0.27462 0.10576
#
# Static dielectric constant tensor:
#      x y z
#    x 3.963470 0.238330 -0.198450 
#    y 0.238330 3.567870 0.077010 
#    z -0.198450 0.077010 3.909960 
# 
# 
# High freq. dielectric constant tensor:
#      x y z
#    x 1.813380 0.013020 -0.007150 
#    y 0.013020 1.790020 0.006660 
#    z -0.007150 0.006660 1.825430 
# 
# From -- ./inp_files/543230.got.cif
#   From: 2010.06.25/outbox.cif.g09.slc.cpg/sg2_272_cif.got.tgz:543230.got - 2010.06.27 13:26:56.
