data_PCOD8043692
_publ_section_title
;
Structure prediction by ZEFSAII (Michael W. Deem and Ramdas Pophale) SiO2 
 PCOD8043692
Probable space group: P -1
;
_chemical_formula_sum "Si O2"
_cell_formula_units_Z 12
_cell_length_a 8.124220
_cell_length_b 8.124223
_cell_length_c 14.378801
_cell_angle_alpha 58.500181
_cell_angle_beta 73.162141
_cell_angle_gamma 37.443029
_cell_volume 477.409107
_symmetry_space_group_name_H-M "P -1"
_symmetry_group_IT_number 2
_symmetry_cell_setting 'triclinic'
loop_
_space_group_symop_operation_xyz
x,y,z
-x,-y,-z
loop_
_atom_site_type_symbol
_atom_site_label
_atom_site_fract_x
_atom_site_fract_y
_atom_site_fract_z
Si Si1 0.045025 0.838371 0.853330
Si Si2 0.176273 0.154430 0.760920
Si Si3 0.601049 0.833897 0.633574
Si Si4 0.598369 0.111959 0.993209
Si Si5 0.176733 0.961035 0.357846
Si Si6 0.613613 0.269520 0.422044
O O1 0.076096 0.038477 0.768808
O O2 0.343722 0.484963 0.930242
O O3 0.909392 0.853496 0.777949
O O4 0.845435 0.983255 0.930239
O O5 0.930334 0.531094 0.692712
O O6 0.416520 0.044907 0.692712
O O7 0.288944 0.020710 0.884116
O O8 0.516648 0.685720 0.665462
O O9 0.500000 0.000000 0.500000
O O10 0.500000 0.000000 0.000000
O O11 0.407856 0.602064 0.402271
O O12 0.314847 0.949503 0.432672
O O13 0.906614 0.103298 0.402272
#
# Coordination Sequence:
#
# PCOD8043692 Si02
#       6
#     2   2   2   2   2   2
#     4  12  22  45  73  98 129 180 225 275 329 400
#     4  12  25  46  69  98 134 178 229 276 323 404
#     4  12  24  41  68  98 136 176 217 269 337 398
#     4  12  28  45  68 100 135 172 225 282 346 391
#     4  10  20  34  65  87 125 160 212 262 314 374
#     4  10  19  37  55  95 125 164 204 261 315 380
#
# _framework density 25.135676
#
# number of rings (size 3 to 8) (size 9 to 14) (size 15 to 20)
#    0.000    0.667    3.333    5.000    0.000    2.667 
#    0.000    0.000    0.000    0.000    0.000    0.000 
#    0.000    0.000    0.000    0.000    0.000    0.000 
#
# Total GULP energy -148657.151202 kJ/mol
# GULP energy per Si atom -12388.095934 kJ/mol
# Density = 2.507847 g / cm^3
# Si number density = 25.135676 Si / 1000 Ang^3
#
#
#
# Elastic Constant Matrix: (Units=GPa)
#
#
# Indices 1 2 3 4 5 6 
#
# 1 76.1365 35.7381 38.7390 6.1543 18.4841 -2.1409
# 2 35.7381 235.6797 93.7446 -1.4733 -1.3567 -43.9724
# 3 38.7390 93.7446 205.6955 9.4714 35.0980 -16.0447
# 4 6.1543 -1.4733 9.4714 62.7649 -0.6115 -0.4821
# 5 18.4841 -1.3567 35.0980 -0.6115 61.2295 6.2929
# 6 -2.1409 -43.9724 -16.0447 -0.4821 6.2929 35.8224
#
#
#
# Elastic Compliance Matrix: (Units=1/GPa)
#
#
# Indices 1 2 3 4 5 6 
#
# 1 0.015891 -0.002209 -0.001390 -0.001451 -0.003887 -0.001722
# 2 -0.002209 0.006869 -0.002473 0.000819 0.001532 0.006935
# 3 -0.001390 -0.002473 0.006981 -0.001006 -0.003713 0.000647
# 4 -0.001451 0.000819 -0.001006 0.016261 0.001146 0.000486
# 5 -0.003887 0.001532 -0.003713 0.001146 0.020041 -0.003520
# 6 -0.001722 0.006935 0.000647 0.000486 -0.003520 0.037240
#
#
# Mechanical properties :
#
#
# Convention : Reuss Voigt Hill
#
# Bulk Modulus (GPa) = 56.82925 94.88390 75.85658
# Shear Modulus (GPa) = 41.22241 55.24936 48.23589
#
# Velocity S-wave (km/s) = 4.05408 4.69342 4.38542
# Velocity P-wave (km/s) = 6.67624 8.19765 7.47575
#
# Compressibility (1/GPa) = 0.01759657
#
# Stress axis : x y z
#
# Youngs Moduli (GPa) = 62.92757 145.57134 143.25157
#
# Poissons Ratio (x) = 0.32164 0.19914
# Poissons Ratio (y) = 0.13904 0.35424
# Poissons Ratio (z) = 0.08748 0.35998
#
# Static dielectric constant tensor:
#      x y z
#    x 8.374420 0.928960 0.856090 
#    y 0.928960 5.145090 0.227620 
#    z 0.856090 0.227620 5.397330 
# 
# 
# High freq. dielectric constant tensor:
#      x y z
#    x 2.023420 -0.000760 0.016950 
#    y -0.000760 2.025790 0.004530 
#    z 0.016950 0.004530 2.029720 
# 
# From -- ./inp_files/297146.got.cif
#   From: 2010.06.25/outbox.cif.g09.slc.cpg/sg2_149_cif.got.tgz:297146.got - 2010.06.27 13:26:56.
