data_PCOD8043806
_publ_section_title
;
Structure prediction by ZEFSAII (Michael W. Deem and Ramdas Pophale) SiO2 
 PCOD8043806
Probable space group: P -1
;
_chemical_formula_sum "Si O2"
_cell_formula_units_Z 16
_cell_length_a 14.307085
_cell_length_b 11.956931
_cell_length_c 11.390325
_cell_angle_alpha 141.414643
_cell_angle_beta 112.975788
_cell_angle_gamma 96.681126
_cell_volume 759.865728
_symmetry_space_group_name_H-M "P -1"
_symmetry_group_IT_number 2
_symmetry_cell_setting 'triclinic'
loop_
_space_group_symop_operation_xyz
x,y,z
-x,-y,-z
loop_
_atom_site_type_symbol
_atom_site_label
_atom_site_fract_x
_atom_site_fract_y
_atom_site_fract_z
Si Si1 0.885872 0.471093 0.486152
Si Si2 0.096503 0.297523 0.106595
Si Si3 0.660900 0.890593 0.960378
Si Si4 0.815744 0.595544 0.138234
Si Si5 0.339746 0.402020 0.464192
Si Si6 0.186767 0.300173 0.527749
Si Si7 0.833891 0.341703 0.760397
Si Si8 0.828552 0.978723 0.334278
O O1 0.970859 0.644504 0.788063
O O2 0.853911 0.589854 0.482788
O O3 0.000000 0.500000 0.500000
O O4 0.732160 0.176005 0.205430
O O5 0.219471 0.353178 0.288591
O O6 0.170194 0.496766 0.198707
O O7 0.961028 0.999578 0.750212
O O8 0.498530 0.709464 0.789299
O O9 0.645465 0.774358 0.731096
O O10 0.765972 0.909938 0.114771
O O11 0.742267 0.530059 0.177575
O O12 0.771900 0.718260 0.146309
O O13 0.754398 0.332408 0.828258
O O14 0.993052 0.792557 0.396252
O O15 0.296103 0.323419 0.516947
O O16 0.761256 0.063794 0.445293
O O17 0.000000 0.500000 0.000000
#
# Coordination Sequence:
#
# PCOD8043806 Si02
#       8
#     2   2   2   2   2   2   2   2
#     4  11  21  33  57  86 117 146 182 244 292 345
#     4  11  20  36  56  85 120 149 193 242 290 347
#     4  11  21  40  60  85 114 151 201 238 291 359
#     4  10  20  35  59  83 123 151 191 245 301 340
#     4  10  23  38  59  83 114 159 192 237 301 355
#     4  11  22  36  54  86 121 153 187 240 301 347
#     4  10  20  33  57  89 114 153 198 245 287 346
#     4  10  19  37  59  88 113 154 196 247 291 347
#
# _framework density 21.056349999999998
#
# number of rings (size 3 to 8) (size 9 to 14) (size 15 to 20)
#    0.000    1.500    1.250    7.500    1.750    2.000 
#    2.250    0.625    0.000    0.750    0.000    0.000 
#    0.000    0.000    0.000    0.000    0.000    0.000 
#
# Total GULP energy -198236.718014 kJ/mol
# GULP energy per Si atom -12389.794876 kJ/mol
# Density = 2.100843 g / cm^3
# Si number density = 21.056350 Si / 1000 Ang^3
#
#
#
# Elastic Constant Matrix: (Units=GPa)
#
#
# Indices 1 2 3 4 5 6 
#
# 1 92.4122 58.8394 33.9841 -2.3672 -25.1054 13.4003
# 2 58.8394 -37.2298 28.6601 -2.3967 -44.6628 31.3363
# 3 33.9841 28.6601 55.9792 7.1971 -20.0912 1.8276
# 4 -2.3672 -2.3967 7.1971 23.9798 6.0019 -13.2875
# 5 -25.1054 -44.6628 -20.0912 6.0019 36.5831 -2.6983
# 6 13.4003 31.3363 1.8276 -13.2875 -2.6983 19.0703
#
#
#
# Elastic Compliance Matrix: (Units=1/GPa)
#
#
# Indices 1 2 3 4 5 6 
#
# 1 0.017475 -0.000016 -0.006050 -0.007204 0.008691 -0.015462
# 2 -0.000016 -0.005569 -0.002179 0.011036 -0.008649 0.015836
# 3 -0.006050 -0.002179 0.028365 -0.013600 0.010788 -0.002836
# 4 -0.007204 0.011036 -0.013600 0.066663 -0.007396 0.033634
# 5 0.008691 -0.008649 0.010788 -0.007396 0.030336 0.006210
# 6 -0.015462 0.015836 -0.002836 0.033634 0.006210 0.061866
#
#
# Mechanical properties :
#
#
# Convention : Reuss Voigt Hill
#
# Bulk Modulus (GPa) = 42.05137 39.34764 40.69950
# Shear Modulus (GPa) = 22.36588 15.23850 18.80219
#
# Velocity S-wave (km/s) = 3.26266 2.69309 2.99146
# Velocity P-wave (km/s) = 5.84872 5.32895 5.59487
#
# Compressibility (1/GPa) = 0.02378044
#
# Stress axis : x y z
#
# Youngs Moduli (GPa) = 57.22417 -179.57465 35.25439
#
# Poissons Ratio (x) = -0.00294 0.21330
# Poissons Ratio (y) = 0.00094 0.07682
# Poissons Ratio (z) = 0.34622 -0.39130
#
# Static dielectric constant tensor:
#      x y z
#    x 4.175390 0.615010 -0.533500 
#    y 0.615010 4.904010 0.048210 
#    z -0.533500 0.048210 3.978850 
# 
# 
# High freq. dielectric constant tensor:
#      x y z
#    x 1.830070 0.001010 -0.045570 
#    y 0.001010 1.819420 -0.013480 
#    z -0.045570 -0.013480 1.798890 
# 
# From -- ./inp_files/452655.got.cif
#   From: 2010.06.25/outbox.cif.g09.slc.cpg/sg2_227_cif.got.tgz:452655.got - 2010.06.27 13:26:56.
