data_PCOD8043123
_publ_section_title
;
Structure prediction by ZEFSAII (Michael W. Deem and Ramdas Pophale) SiO2 
 PCOD8043123
Probable space group: P -1
;
_chemical_formula_sum "Si O2"
_cell_formula_units_Z 16
_cell_length_a 6.855880
_cell_length_b 4.999380
_cell_length_c 23.937246
_cell_angle_alpha 111.364650
_cell_angle_beta 109.319078
_cell_angle_gamma 79.789142
_cell_volume 719.542712
_symmetry_space_group_name_H-M "P -1"
_symmetry_group_IT_number 2
_symmetry_cell_setting 'triclinic'
loop_
_space_group_symop_operation_xyz
x,y,z
-x,-y,-z
loop_
_atom_site_type_symbol
_atom_site_label
_atom_site_fract_x
_atom_site_fract_y
_atom_site_fract_z
Si Si1 0.861812 0.285841 0.500825
Si Si2 0.002235 0.435820 0.634917
Si Si3 0.495828 0.714111 0.129283
Si Si4 0.634376 0.112198 0.754285
Si Si5 0.043595 0.817178 0.044606
Si Si6 0.273683 0.870341 0.633277
Si Si7 0.107525 0.427136 0.243253
Si Si8 0.750494 0.169549 0.128943
O O1 0.677127 0.229899 0.434892
O O2 0.000000 0.500000 0.500000
O O3 0.816781 0.412674 0.568781
O O4 0.000000 0.000000 0.500000
O O5 0.192824 0.611706 0.643288
O O6 0.899943 0.578270 0.690696
O O7 0.091720 0.119732 0.636441
O O8 0.479064 0.694689 0.193765
O O9 0.587521 0.389365 0.096172
O O10 0.279549 0.802293 0.085918
O O11 0.644670 0.962044 0.146102
O O12 0.801183 0.286965 0.750333
O O13 0.480579 0.986840 0.685767
O O14 0.745958 0.851158 0.779983
O O15 0.889005 0.956681 0.086645
O O16 0.000000 0.500000 0.000000
O O17 0.000000 0.000000 0.000000
O O18 0.884470 0.391991 0.192541
#
# Coordination Sequence:
#
# PCOD8043123 Si02
#       8
#     2   2   2   2   2   2   2   2
#     4   8  16  30  54  80 116 160 210 270 320 387
#     4  10  19  36  58  87 119 164 220 267 328 395
#     4  12  26  46  74 101 136 182 224 268 333 395
#     4  12  24  40  63  93 132 169 216 280 333 379
#     4  12  28  48  74 106 144 171 218 277 324 392
#     4  10  19  36  58  87 119 164 220 267 328 395
#     4  12  24  40  63  93 132 169 216 280 333 379
#     4  12  26  46  74 101 136 182 224 268 333 395
#
# _framework density 22.236346000000001
#
# number of rings (size 3 to 8) (size 9 to 14) (size 15 to 20)
#    0.000    1.000    1.250    6.000    1.750    3.000 
#    0.000    1.250    0.000    0.000    0.000    0.000 
#    0.000    0.000    0.000    0.000    0.000    0.000 
#
# Total GULP energy -198285.570905 kJ/mol
# GULP energy per Si atom -12392.848182 kJ/mol
# Density = 2.218574 g / cm^3
# Si number density = 22.236346 Si / 1000 Ang^3
#
#
#
# Elastic Constant Matrix: (Units=GPa)
#
#
# Indices 1 2 3 4 5 6 
#
# 1 97.1967 32.9183 68.1884 -0.8636 3.0246 6.6614
# 2 32.9183 125.5527 39.1370 -2.9712 3.7446 4.6788
# 3 68.1884 39.1370 159.3182 2.1673 2.2316 11.4447
# 4 -0.8636 -2.9712 2.1673 33.2785 1.6594 1.2056
# 5 3.0246 3.7446 2.2316 1.6594 27.7831 0.1681
# 6 6.6614 4.6788 11.4447 1.2056 0.1681 44.1313
#
#
#
# Elastic Compliance Matrix: (Units=1/GPa)
#
#
# Indices 1 2 3 4 5 6 
#
# 1 0.015256 -0.002073 -0.005977 0.000667 -0.000938 -0.000548
# 2 -0.002073 0.008972 -0.001293 0.000890 -0.000931 -0.000324
# 3 -0.005977 -0.001293 0.009258 -0.000832 0.000139 -0.001339
# 4 0.000667 0.000890 -0.000832 0.030326 -0.001932 -0.000800
# 5 -0.000938 -0.000931 0.000139 -0.001932 0.036324 0.000119
# 6 -0.000548 -0.000324 -0.001339 -0.000800 0.000119 0.023145
#
#
# Mechanical properties :
#
#
# Convention : Reuss Voigt Hill
#
# Bulk Modulus (GPa) = 67.56101 73.61723 70.58912
# Shear Modulus (GPa) = 34.03664 37.16019 35.59842
#
# Velocity S-wave (km/s) = 3.91663 4.09240 4.00548
# Velocity P-wave (km/s) = 7.13459 7.45043 7.29422
#
# Compressibility (1/GPa) = 0.01480144
#
# Stress axis : x y z
#
# Youngs Moduli (GPa) = 65.54672 111.45718 108.01330
#
# Poissons Ratio (x) = 0.23101 0.64561
# Poissons Ratio (y) = 0.13586 0.13963
# Poissons Ratio (z) = 0.39178 0.14408
#
# Static dielectric constant tensor:
#      x y z
#    x 3.761260 -0.000630 -0.138440 
#    y -0.000630 4.165020 0.227100 
#    z -0.138440 0.227100 3.836870 
# 
# 
# High freq. dielectric constant tensor:
#      x y z
#    x 1.849940 0.006100 0.000130 
#    y 0.006100 1.900190 0.001760 
#    z 0.000130 0.001760 1.894960 
# 
# From -- ./inp_files/603391.got.cif
#   From: 2010.06.25/outbox.cif.g09.slc.cpg/sg2_302_cif.got.tgz:603391.got - 2010.06.27 13:26:56.
