data_PCOD8043233
_publ_section_title
;
Structure prediction by ZEFSAII (Michael W. Deem and Ramdas Pophale) SiO2 
 PCOD8043233
Probable space group: P -1
;
_chemical_formula_sum "Si O2"
_cell_formula_units_Z 16
_cell_length_a 21.847634
_cell_length_b 12.016886
_cell_length_c 10.217509
_cell_angle_alpha 134.557441
_cell_angle_beta 37.239632
_cell_angle_gamma 150.868316
_cell_volume 790.086573
_symmetry_space_group_name_H-M "P -1"
_symmetry_group_IT_number 2
_symmetry_cell_setting 'triclinic'
loop_
_space_group_symop_operation_xyz
x,y,z
-x,-y,-z
loop_
_atom_site_type_symbol
_atom_site_label
_atom_site_fract_x
_atom_site_fract_y
_atom_site_fract_z
Si Si1 0.845573 0.639783 0.998083
Si Si2 0.579965 0.805377 0.353089
Si Si3 0.238689 0.926030 0.996492
Si Si4 0.478174 0.387872 0.079508
Si Si5 0.832103 0.942510 0.157742
Si Si6 0.283482 0.623773 0.742644
Si Si7 0.780680 0.604158 0.798993
Si Si8 0.060755 0.242149 0.605898
O O1 0.809224 0.536088 0.827275
O O2 0.818724 0.798985 0.179263
O O3 0.743513 0.440278 0.111769
O O4 0.015302 0.791953 0.870045
O O5 0.488737 0.538107 0.291599
O O6 0.699098 0.920278 0.363988
O O7 0.460662 0.807301 0.575758
O O8 0.672747 0.948753 0.184326
O O9 0.069156 0.786408 0.157498
O O10 0.321089 0.120755 0.129920
O O11 0.235728 0.743109 0.888192
O O12 0.500000 0.500000 0.000000
O O13 0.606930 0.404075 0.893681
O O14 0.826422 0.838199 0.942874
O O15 0.191146 0.401238 0.623278
O O16 0.873701 0.637493 0.548582
O O17 0.000000 0.000000 0.500000
#
# Coordination Sequence:
#
# PCOD8043233 Si02
#       8
#     2   2   2   2   2   2   2   2
#     4   9  19  37  57  85 122 151 187 241 293 341
#     4  10  19  36  60  85 112 157 197 241 282 340
#     4  11  23  37  55  88 125 150 187 245 299 338
#     4   9  17  35  57  81 112 149 193 240 281 334
#     4   8  17  35  62  81 118 145 198 240 289 327
#     4  12  24  37  57  89 123 153 189 237 298 354
#     4   9  18  35  57  83 110 149 191 243 282 335
#     4  12  22  36  63  89 111 150 203 242 283 340
#
# _framework density 20.250945999999999
#
# number of rings (size 3 to 8) (size 9 to 14) (size 15 to 20)
#    0.750    1.250    0.000    6.750    0.000    0.500 
#    0.000    1.250    0.000    0.000    0.000    0.000 
#    0.000    0.000    0.000    0.000    0.000    0.000 
#
# Total GULP energy -198274.750536 kJ/mol
# GULP energy per Si atom -12392.171908 kJ/mol
# Density = 2.020485 g / cm^3
# Si number density = 20.250946 Si / 1000 Ang^3
#
#
#
# Elastic Constant Matrix: (Units=GPa)
#
#
# Indices 1 2 3 4 5 6 
#
# 1 119.3261 36.7349 50.0397 -18.5105 -7.6587 10.2850
# 2 36.7349 35.1660 22.4465 -10.5834 0.6723 -1.7492
# 3 50.0397 22.4465 88.6323 -21.9533 -18.8121 -4.4360
# 4 -18.5105 -10.5834 -21.9533 27.7539 5.3590 -8.6334
# 5 -7.6587 0.6723 -18.8121 5.3590 37.4570 -5.9524
# 6 10.2850 -1.7492 -4.4360 -8.6334 -5.9524 34.3908
#
#
#
# Elastic Compliance Matrix: (Units=1/GPa)
#
#
# Indices 1 2 3 4 5 6 
#
# 1 0.015144 -0.012643 -0.006162 -0.001486 -0.000582 -0.006441
# 2 -0.012643 0.047168 -0.002904 0.010617 -0.005206 0.007570
# 3 -0.006162 -0.002904 0.020933 0.012430 0.008968 0.009068
# 4 -0.001486 0.010617 0.012430 0.053844 0.000621 0.016212
# 5 -0.000582 -0.005206 0.008968 0.000621 0.032166 0.006789
# 6 -0.006441 0.007570 0.009068 0.016212 0.006789 0.037803
#
#
# Mechanical properties :
#
#
# Convention : Reuss Voigt Hill
#
# Bulk Modulus (GPa) = 25.10831 51.28517 38.19674
# Shear Modulus (GPa) = 18.95722 28.84720 23.90221
#
# Velocity S-wave (km/s) = 3.06292 3.77833 3.43928
# Velocity P-wave (km/s) = 4.99341 6.66440 5.88848
#
# Compressibility (1/GPa) = 0.03982745
#
# Stress axis : x y z
#
# Youngs Moduli (GPa) = 66.03376 21.20062 47.77125
#
# Poissons Ratio (x) = 0.26803 0.29437
# Poissons Ratio (y) = 0.83484 0.13874
# Poissons Ratio (z) = 0.40690 0.06157
#
# Static dielectric constant tensor:
#      x y z
#    x 3.805070 0.257370 -0.136150 
#    y 0.257370 3.891800 -0.112240 
#    z -0.136150 -0.112240 3.406490 
# 
# 
# High freq. dielectric constant tensor:
#      x y z
#    x 1.794600 0.017660 -0.018200 
#    y 0.017660 1.773660 -0.020160 
#    z -0.018200 -0.020160 1.758680 
# 
# From -- ./inp_files/470851.got.cif
#   From: 2010.06.25/outbox.cif.g09.slc.cpg/sg2_236_cif.got.tgz:470851.got - 2010.06.27 13:26:56.
