data_PCOD8043914
_publ_section_title
;
Structure prediction by ZEFSAII (Michael W. Deem and Ramdas Pophale) SiO2 
 PCOD8043914
Probable space group: P -1
;
_chemical_formula_sum "Si O2"
_cell_formula_units_Z 16
_cell_length_a 10.827838
_cell_length_b 9.362189
_cell_length_c 15.477262
_cell_angle_alpha 38.050785
_cell_angle_beta 63.549634
_cell_angle_gamma 80.854282
_cell_volume 811.833456
_symmetry_space_group_name_H-M "P -1"
_symmetry_group_IT_number 2
_symmetry_cell_setting 'triclinic'
loop_
_space_group_symop_operation_xyz
x,y,z
-x,-y,-z
loop_
_atom_site_type_symbol
_atom_site_label
_atom_site_fract_x
_atom_site_fract_y
_atom_site_fract_z
Si Si1 0.402204 0.781095 0.363826
Si Si2 0.844589 0.651592 0.758830
Si Si3 0.528509 0.335022 0.994281
Si Si4 0.837868 0.178873 0.466267
Si Si5 0.737978 0.085491 0.353845
Si Si6 0.477031 0.392172 0.426741
Si Si7 0.949805 0.720615 0.883030
Si Si8 0.671530 0.553257 0.136694
O O1 0.238062 0.733900 0.471966
O O2 0.393622 0.579889 0.388833
O O3 0.500598 0.747903 0.428282
O O4 0.472809 0.050565 0.173325
O O5 0.993802 0.633085 0.680072
O O6 0.853952 0.658519 0.855770
O O7 0.825388 0.899390 0.614692
O O8 0.704180 0.420790 0.881650
O O9 0.500000 0.500000 0.000000
O O10 0.449038 0.375697 0.913387
O O11 0.753373 0.179983 0.402805
O O12 0.892689 0.060147 0.283702
O O13 0.684112 0.290609 0.225150
O O14 0.619058 0.814049 0.511960
O O15 0.626604 0.545242 0.255547
O O16 0.000000 0.500000 0.000000
O O17 0.836691 0.759151 0.971901
#
# Coordination Sequence:
#
# PCOD8043914 Si02
#       8
#     2   2   2   2   2   2   2   2
#     4  11  24  40  55  85 124 157 190 243 295 341
#     4  10  20  33  57  92 115 147 193 241 295 339
#     4  12  21  35  62  89 117 149 190 249 291 339
#     4  10  19  37  61  85 119 149 193 243 285 349
#     4  10  20  35  61  88 112 151 199 239 286 347
#     4  11  24  38  57  85 121 159 196 234 291 355
#     4   9  19  32  53  87 117 142 185 249 289 332
#     4  11  20  36  61  88 116 150 199 243 290 341
#
# _framework density 19.708476999999998
#
# number of rings (size 3 to 8) (size 9 to 14) (size 15 to 20)
#    0.000    1.500    3.750    1.875    1.750    0.500 
#    0.000    1.250    0.000   17.250    0.000    0.000 
#    0.000    0.000    0.000    0.000    0.000    0.000 
#
# Total GULP energy -198297.267604 kJ/mol
# GULP energy per Si atom -12393.579225 kJ/mol
# Density = 1.966362 g / cm^3
# Si number density = 19.708477 Si / 1000 Ang^3
#
#
#
# Elastic Constant Matrix: (Units=GPa)
#
#
# Indices 1 2 3 4 5 6 
#
# 1 96.7964 27.1783 49.1833 5.8735 -8.1869 -9.7562
# 2 27.1783 76.8814 37.8992 7.4501 -13.5954 -24.9566
# 3 49.1833 37.8992 108.6928 14.6009 -2.1187 -10.9749
# 4 5.8735 7.4501 14.6009 25.5622 -9.8779 -1.7699
# 5 -8.1869 -13.5954 -2.1187 -9.8779 40.5703 12.6437
# 6 -9.7562 -24.9566 -10.9749 -1.7699 12.6437 22.4689
#
#
#
# Elastic Compliance Matrix: (Units=1/GPa)
#
#
# Indices 1 2 3 4 5 6 
#
# 1 0.013891 -0.001763 -0.005824 0.001525 0.002255 0.000081
# 2 -0.001763 0.023708 -0.004811 -0.002334 -0.000496 0.023313
# 3 -0.005824 -0.004811 0.014469 -0.007015 -0.004022 0.000905
# 4 0.001525 -0.002334 -0.007015 0.048139 0.013785 -0.009322
# 5 0.002255 -0.000496 -0.004022 0.013785 0.034226 -0.019710
# 6 0.000081 0.023313 0.000905 -0.009322 -0.019710 0.081234
#
#
# Mechanical properties :
#
#
# Convention : Reuss Voigt Hill
#
# Bulk Modulus (GPa) = 36.66744 56.76578 46.71661
# Shear Modulus (GPa) = 20.03583 28.92760 24.48171
#
# Velocity S-wave (km/s) = 3.19189 3.83531 3.52830
# Velocity P-wave (km/s) = 5.67710 6.96262 6.35246
#
# Compressibility (1/GPa) = 0.02727215
#
# Stress axis : x y z
#
# Youngs Moduli (GPa) = 71.98697 42.18014 69.11543
#
# Poissons Ratio (x) = 0.07435 0.40253
# Poissons Ratio (y) = 0.12689 0.33252
# Poissons Ratio (z) = 0.41925 0.20293
#
# Static dielectric constant tensor:
#      x y z
#    x 3.987120 -0.263620 -0.278420 
#    y -0.263620 3.232560 0.318910 
#    z -0.278420 0.318910 3.916490 
# 
# 
# High freq. dielectric constant tensor:
#      x y z
#    x 1.782620 -0.016890 0.004150 
#    y -0.016890 1.713230 0.033520 
#    z 0.004150 0.033520 1.785060 
# 
# From -- ./inp_files/320162.got.cif
#   From: 2010.06.25/outbox.cif.g09.slc.cpg/sg2_161_cif.got.tgz:320162.got - 2010.06.27 13:26:56.
