data_PCOD8043250
_publ_section_title
;
Structure prediction by ZEFSAII (Michael W. Deem and Ramdas Pophale) SiO2 
 PCOD8043250
Probable space group: P -1
;
_chemical_formula_sum "Si O2"
_cell_formula_units_Z 16
_cell_length_a 12.749409
_cell_length_b 18.746839
_cell_length_c 9.746094
_cell_angle_alpha 123.300791
_cell_angle_beta 133.534122
_cell_angle_gamma 29.203428
_cell_volume 814.938623
_symmetry_space_group_name_H-M "P -1"
_symmetry_group_IT_number 2
_symmetry_cell_setting 'triclinic'
loop_
_space_group_symop_operation_xyz
x,y,z
-x,-y,-z
loop_
_atom_site_type_symbol
_atom_site_label
_atom_site_fract_x
_atom_site_fract_y
_atom_site_fract_z
Si Si1 0.398396 0.118435 0.137768
Si Si2 0.037260 0.580445 0.086999
Si Si3 0.561526 0.554803 0.912827
Si Si4 0.916756 0.134787 0.107721
Si Si5 0.017842 0.761897 0.956149
Si Si6 0.354028 0.520017 0.505355
Si Si7 0.201926 0.797723 0.378564
Si Si8 0.877629 0.979833 0.537913
O O1 0.250651 0.152761 0.172909
O O2 0.622204 0.064205 0.344032
O O3 0.220626 0.266405 0.049191
O O4 0.500000 0.000000 0.000000
O O5 0.275298 0.478528 0.093601
O O6 0.087554 0.614012 0.305881
O O7 0.000000 0.500000 0.000000
O O8 0.388321 0.710036 0.994538
O O9 0.354259 0.585038 0.703047
O O10 0.753826 0.416289 0.047524
O O11 0.013361 0.157150 0.109394
O O12 0.043799 0.096829 0.326993
O O13 0.000000 0.000000 0.000000
O O14 0.070679 0.780939 0.170140
O O15 0.500000 0.500000 0.500000
O O16 0.502631 0.362216 0.513892
O O17 0.099688 0.854101 0.499595
O O18 0.154922 0.902846 0.354089
#
# Coordination Sequence:
#
# PCOD8043250 Si02
#       8
#     2   2   2   2   2   2   2   2
#     4  11  23  36  59  88 125 154 188 241 305 353
#     4  10  20  35  58  90 122 151 192 241 298 350
#     4   9  21  37  62  82 115 157 200 245 291 342
#     4  12  24  39  63  89 117 154 208 247 293 352
#     4  10  21  42  60  87 117 159 196 244 294 356
#     4   9  17  32  57  83 114 146 202 239 284 342
#     4  10  19  36  60  88 115 153 197 250 291 342
#     4  11  22  35  59  88 123 153 191 244 304 343
#
# _framework density 19.633379000000001
#
# number of rings (size 3 to 8) (size 9 to 14) (size 15 to 20)
#    0.000    1.750    2.500    3.375    1.750    2.500 
#    0.000    0.000    2.750    1.500    0.000    0.000 
#    0.000    0.000    0.000    0.000    0.000    0.000 
#
# Total GULP energy -198318.671514 kJ/mol
# GULP energy per Si atom -12394.916970 kJ/mol
# Density = 1.958869 g / cm^3
# Si number density = 19.633379 Si / 1000 Ang^3
#
#
#
# Elastic Constant Matrix: (Units=GPa)
#
#
# Indices 1 2 3 4 5 6 
#
# 1 99.4131 50.3726 31.6481 -8.2822 -4.1682 16.6247
# 2 50.3726 140.6820 27.9405 -1.7827 -0.6001 7.8981
# 3 31.6481 27.9405 66.5981 -14.1069 6.1589 6.2129
# 4 -8.2822 -1.7827 -14.1069 24.3280 2.5964 -1.9929
# 5 -4.1682 -0.6001 6.1589 2.5964 33.4955 -6.0604
# 6 16.6247 7.8981 6.2129 -1.9929 -6.0604 23.3854
#
#
#
# Elastic Compliance Matrix: (Units=1/GPa)
#
#
# Indices 1 2 3 4 5 6 
#
# 1 0.014982 -0.004013 -0.004519 0.001437 0.001122 -0.007682
# 2 -0.004013 0.008969 -0.002360 -0.002082 0.000321 0.000356
# 3 -0.004519 -0.002360 0.021226 0.011032 -0.005757 -0.002181
# 4 0.001437 -0.002082 0.011032 0.048402 -0.005750 -0.000615
# 5 0.001122 0.000321 -0.005757 -0.005750 0.033080 0.008706
# 6 -0.007682 0.000356 -0.002181 -0.000615 0.008706 0.050886
#
#
# Mechanical properties :
#
#
# Convention : Reuss Voigt Hill
#
# Bulk Modulus (GPa) = 42.74671 58.51286 50.62978
# Shear Modulus (GPa) = 24.13994 29.35723 26.74858
#
# Velocity S-wave (km/s) = 3.51028 3.87107 3.69508
# Velocity P-wave (km/s) = 6.18459 7.06029 6.63690
#
# Compressibility (1/GPa) = 0.02339361
#
# Stress axis : x y z
#
# Youngs Moduli (GPa) = 66.74525 111.49875 47.11255
#
# Poissons Ratio (x) = 0.44742 0.21290
# Poissons Ratio (y) = 0.26784 0.11118
# Poissons Ratio (z) = 0.30162 0.26312
#
# Static dielectric constant tensor:
#      x y z
#    x 3.463290 0.211780 -0.121060 
#    y 0.211780 4.281910 -1.216680 
#    z -0.121060 -1.216680 6.782410 
# 
# 
# High freq. dielectric constant tensor:
#      x y z
#    x 1.750630 0.019290 -0.004030 
#    y 0.019290 1.778980 -0.007350 
#    z -0.004030 -0.007350 1.752920 
# 
# From -- ./inp_files/279737.got.cif
#   From: 2010.06.25/outbox.cif.g09.slc.cpg/sg2_140_cif.got.tgz:279737.got - 2010.06.27 13:26:56.
