data_PCOD8043720
_publ_section_title
;
Structure prediction by ZEFSAII (Michael W. Deem and Ramdas Pophale) SiO2 
 PCOD8043720
Probable space group: P -1
;
_chemical_formula_sum "Si O2"
_cell_formula_units_Z 14
_cell_length_a 17.469432
_cell_length_b 8.902175
_cell_length_c 12.904134
_cell_angle_alpha 134.024494
_cell_angle_beta 29.894089
_cell_angle_gamma 125.150101
_cell_volume 717.165133
_symmetry_space_group_name_H-M "P -1"
_symmetry_group_IT_number 2
_symmetry_cell_setting 'triclinic'
loop_
_space_group_symop_operation_xyz
x,y,z
-x,-y,-z
loop_
_atom_site_type_symbol
_atom_site_label
_atom_site_fract_x
_atom_site_fract_y
_atom_site_fract_z
Si Si1 0.302362 0.555437 0.999433
Si Si2 0.081351 0.566425 0.095274
Si Si3 0.289446 0.968351 0.318677
Si Si4 0.902577 0.754599 0.803110
Si Si5 0.872701 0.589352 0.543427
Si Si6 0.016358 0.170642 0.859312
Si Si7 0.584436 0.718546 0.832042
O O1 0.255243 0.553242 0.931952
O O2 0.487079 0.560205 0.800724
O O3 0.218256 0.768092 0.251345
O O4 0.241782 0.351076 0.027755
O O5 0.038550 0.334855 0.002567
O O6 0.069089 0.720227 0.086595
O O7 0.968281 0.650187 0.359854
O O8 0.303360 0.157699 0.312702
O O9 0.462966 0.885812 0.113665
O O10 0.181861 0.055776 0.579759
O O11 0.888735 0.758455 0.696527
O O12 0.064018 0.635120 0.593096
O O13 0.907417 0.996857 0.947647
O O14 0.691830 0.585595 0.724065
#
# Coordination Sequence:
#
# PCOD8043720 Si02
#       7
#     2   2   2   2   2   2   2
#     4   9  20  38  54  87 108 144 180 225 275 323
#     4  10  22  35  60  80 108 147 186 230 264 319
#     4   9  18  34  58  84 106 142 184 227 264 327
#     4  10  22  34  57  87 111 138 185 230 271 321
#     4  10  19  37  57  85 108 144 178 227 273 324
#     4  11  21  36  56  86 109 142 189 224 274 319
#     4   9  19  34  60  80 112 142 183 221 277 317
#
# _framework density 19.521307
#
# number of rings (size 3 to 8) (size 9 to 14) (size 15 to 20)
#    0.857    1.429    1.429    2.571    2.000    4.000 
#    0.000    0.714    3.143    1.714    0.000    0.000 
#    0.000    0.000    0.000    0.000    0.000    0.000 
#
# Total GULP energy -173450.552776 kJ/mol
# GULP energy per Si atom -12389.325198 kJ/mol
# Density = 1.947688 g / cm^3
# Si number density = 19.521307 Si / 1000 Ang^3
#
#
#
# Elastic Constant Matrix: (Units=GPa)
#
#
# Indices 1 2 3 4 5 6 
#
# 1 131.6051 24.3824 16.3201 2.7377 -26.2690 -0.3580
# 2 24.3824 118.5927 10.5149 -0.3640 -8.8811 12.7243
# 3 16.3201 10.5149 20.6035 -6.2389 -5.7457 -1.4154
# 4 2.7377 -0.3640 -6.2389 19.7945 -0.2312 0.0278
# 5 -26.2690 -8.8811 -5.7457 -0.2312 24.9763 -1.6675
# 6 -0.3580 12.7243 -1.4154 0.0278 -1.6675 15.1495
#
#
#
# Elastic Compliance Matrix: (Units=1/GPa)
#
#
# Indices 1 2 3 4 5 6 
#
# 1 0.010484 -0.001111 -0.006008 -0.003258 0.009329 0.001653
# 2 -0.001111 0.010114 -0.005090 -0.001244 0.000649 -0.008923
# 3 -0.006008 -0.005090 0.065317 0.021400 0.007833 0.011059
# 4 -0.003258 -0.001244 0.021400 0.057708 0.001793 0.003059
# 5 0.009329 0.000649 0.007833 0.001793 0.052311 0.006161
# 6 0.001653 -0.008923 0.011059 0.003059 0.006161 0.075248
#
#
# Mechanical properties :
#
#
# Convention : Reuss Voigt Hill
#
# Bulk Modulus (GPa) = 16.26153 41.47069 28.86611
# Shear Modulus (GPa) = 15.81776 26.62300 21.22038
#
# Velocity S-wave (km/s) = 2.84963 3.69696 3.30060
# Velocity P-wave (km/s) = 4.37898 6.28596 5.41704
#
# Compressibility (1/GPa) = 0.06149484
#
# Stress axis : x y z
#
# Youngs Moduli (GPa) = 95.38401 98.87044 15.31005
#
# Poissons Ratio (x) = 0.10989 0.09199
# Poissons Ratio (y) = 0.10601 0.07793
# Poissons Ratio (z) = 0.57310 0.50327
#
# Static dielectric constant tensor:
#      x y z
#    x 3.671540 0.047630 -0.073950 
#    y 0.047630 3.479290 0.051480 
#    z -0.073950 0.051480 3.207290 
# 
# 
# High freq. dielectric constant tensor:
#      x y z
#    x 1.760520 -0.000080 -0.009760 
#    y -0.000080 1.760110 -0.002260 
#    z -0.009760 -0.002260 1.718620 
# 
# From -- ./inp_files/390824.got.cif
#   From: 2010.06.25/outbox.cif.g09.slc.cpg/sg2_196_cif.got.tgz:390824.got - 2010.06.27 13:26:56.
