data_PCOD8043560
_publ_section_title
;
Structure prediction by ZEFSAII (Michael W. Deem and Ramdas Pophale) SiO2 
 PCOD8043560
Probable space group: P -1
;
_chemical_formula_sum "Si O2"
_cell_formula_units_Z 16
_cell_length_a 8.618947
_cell_length_b 11.402288
_cell_length_c 9.489947
_cell_angle_alpha 102.995067
_cell_angle_beta 122.832070
_cell_angle_gamma 91.542360
_cell_volume 750.863532
_symmetry_space_group_name_H-M "P -1"
_symmetry_group_IT_number 2
_symmetry_cell_setting 'triclinic'
loop_
_space_group_symop_operation_xyz
x,y,z
-x,-y,-z
loop_
_atom_site_type_symbol
_atom_site_label
_atom_site_fract_x
_atom_site_fract_y
_atom_site_fract_z
Si Si1 0.328844 0.897284 0.851299
Si Si2 0.166441 0.465903 0.979539
Si Si3 0.398599 0.740879 0.593375
Si Si4 0.541202 0.497417 0.354012
Si Si5 0.241615 0.259111 0.403073
Si Si6 0.960498 0.980718 0.638154
Si Si7 0.107631 0.763149 0.225540
Si Si8 0.147946 0.702966 0.909449
O O1 0.351467 0.854086 0.690361
O O2 0.310888 0.783549 0.918952
O O3 0.147705 0.958254 0.799936
O O4 0.500000 0.000000 0.000000
O O5 0.189634 0.563359 0.888322
O O6 0.092614 0.324846 0.858238
O O7 0.357729 0.478314 0.162643
O O8 0.000000 0.500000 0.000000
O O9 0.358569 0.620988 0.643815
O O10 0.615288 0.765006 0.656094
O O11 0.267948 0.719442 0.386154
O O12 0.500000 0.500000 0.500000
O O13 0.673743 0.627567 0.420484
O O14 0.199608 0.138550 0.447117
O O15 0.058214 0.292489 0.248781
O O16 0.900070 0.097106 0.710615
O O17 0.000000 0.000000 0.500000
O O18 0.166520 0.753984 0.090862
#
# Coordination Sequence:
#
# PCOD8043560 Si02
#       8
#     2   2   2   2   2   2   2   2
#     4  11  27  42  63  90 134 161 206 263 310 366
#     4  10  19  36  64  93 123 158 208 258 303 363
#     4  11  22  41  65  96 121 167 207 256 312 363
#     4  10  19  36  64  95 123 157 210 257 303 365
#     4  10  22  39  68  91 127 163 211 251 308 378
#     4  11  25  45  60  93 127 169 206 255 314 365
#     4  11  22  39  69  90 126 166 212 249 309 376
#     4  10  22  42  64  96 122 164 208 256 312 367
#
# _framework density 21.308797999999999
#
# number of rings (size 3 to 8) (size 9 to 14) (size 15 to 20)
#    0.000    1.500    1.250    6.750    5.250    3.500 
#    2.250    2.500    0.000    0.000    0.000    0.000 
#    0.000    0.000    0.000    0.000    0.000    0.000 
#
# Total GULP energy -198354.988072 kJ/mol
# GULP energy per Si atom -12397.186754 kJ/mol
# Density = 2.126030 g / cm^3
# Si number density = 21.308798 Si / 1000 Ang^3
#
#
#
# Elastic Constant Matrix: (Units=GPa)
#
#
# Indices 1 2 3 4 5 6 
#
# 1 61.0365 39.7062 31.0008 5.1002 10.9002 17.4052
# 2 39.7062 158.4057 53.3000 3.7381 17.5188 25.4382
# 3 31.0008 53.3000 125.8066 1.9239 20.1806 13.0709
# 4 5.1002 3.7381 1.9239 38.1146 2.1279 3.5543
# 5 10.9002 17.5188 20.1806 2.1279 34.2437 -0.5939
# 6 17.4052 25.4382 13.0709 3.5543 -0.5939 42.6157
#
#
#
# Elastic Compliance Matrix: (Units=1/GPa)
#
#
# Indices 1 2 3 4 5 6 
#
# 1 0.022578 -0.003199 -0.002909 -0.001756 -0.003837 -0.006327
# 2 -0.003199 0.008597 -0.002177 0.000113 -0.002159 -0.003197
# 3 -0.002909 -0.002177 0.010315 0.000381 -0.004076 -0.000765
# 4 -0.001756 0.000113 0.000381 0.026680 -0.001411 -0.001712
# 5 -0.003837 -0.002159 -0.004076 -0.001411 0.034100 0.004699
# 6 -0.006327 -0.003197 -0.000765 -0.001712 0.004699 0.028401
#
#
# Mechanical properties :
#
#
# Convention : Reuss Voigt Hill
#
# Bulk Modulus (GPa) = 40.12730 65.91809 53.02269
# Shear Modulus (GPa) = 32.14461 37.74424 34.94443
#
# Velocity S-wave (km/s) = 3.88817 4.21325 4.05397
# Velocity P-wave (km/s) = 6.24735 7.39395 6.84470
#
# Compressibility (1/GPa) = 0.02492069
#
# Stress axis : x y z
#
# Youngs Moduli (GPa) = 44.29075 116.32193 96.94281
#
# Poissons Ratio (x) = 0.37211 0.28197
# Poissons Ratio (y) = 0.14169 0.21106
# Poissons Ratio (z) = 0.12883 0.25325
#
# Static dielectric constant tensor:
#      x y z
#    x 3.780150 0.279920 0.177640 
#    y 0.279920 5.606130 0.393450 
#    z 0.177640 0.393450 3.947770 
# 
# 
# High freq. dielectric constant tensor:
#      x y z
#    x 1.812050 0.003600 0.012280 
#    y 0.003600 1.861890 -0.003110 
#    z 0.012280 -0.003110 1.835730 
# 
# From -- ./inp_files/188913.got.cif
#   From: 2010.06.25/outbox.cif.g09.slc.cpg/sg2_95_cif.got.tgz:188913.got - 2010.06.27 13:26:56.
