data_PCOD8043513
_publ_section_title
;
Structure prediction by ZEFSAII (Michael W. Deem and Ramdas Pophale) SiO2 
 PCOD8043513
Probable space group: P -1
;
_chemical_formula_sum "Si O2"
_cell_formula_units_Z 16
_cell_length_a 9.222586
_cell_length_b 19.142591
_cell_length_c 9.790885
_cell_angle_alpha 141.253154
_cell_angle_beta 61.017755
_cell_angle_gamma 133.411733
_cell_volume 780.844103
_symmetry_space_group_name_H-M "P -1"
_symmetry_group_IT_number 2
_symmetry_cell_setting 'triclinic'
loop_
_space_group_symop_operation_xyz
x,y,z
-x,-y,-z
loop_
_atom_site_type_symbol
_atom_site_label
_atom_site_fract_x
_atom_site_fract_y
_atom_site_fract_z
Si Si1 0.628899 0.157245 0.851835
Si Si2 0.463005 0.301820 0.678739
Si Si3 0.039216 0.556447 0.918212
Si Si4 0.191631 0.726323 0.494423
Si Si5 0.145442 0.806084 0.926713
Si Si6 0.776582 0.065103 0.406070
Si Si7 0.233217 0.407499 0.077898
Si Si8 0.087546 0.035377 0.360262
O O1 0.389854 0.070704 0.807229
O O2 0.702534 0.081561 0.611222
O O3 0.683847 0.154176 0.978804
O O4 0.731806 0.313890 0.001338
O O5 0.607765 0.265946 0.630959
O O6 0.599357 0.434903 0.723520
O O7 0.304043 0.175803 0.468368
O O8 0.343424 0.330795 0.888973
O O9 0.994242 0.432062 0.652546
O O10 0.888407 0.601747 0.018282
O O11 0.000000 0.500000 0.000000
O O12 0.229322 0.795548 0.729096
O O13 0.147230 0.802426 0.517492
O O14 0.932574 0.664033 0.837022
O O15 0.105751 0.921133 0.114521
O O16 0.955451 0.050259 0.333661
O O17 0.000000 0.000000 0.500000
#
# Coordination Sequence:
#
# PCOD8043513 Si02
#       8
#     2   2   2   2   2   2   2   2
#     4  10  21  37  64  90 126 159 217 252 304 377
#     4  10  21  38  62  96 120 163 210 257 303 370
#     4  10  19  36  63  94 122 164 203 260 312 369
#     4  11  25  40  65  95 129 161 206 265 319 369
#     4  11  23  43  63  93 128 166 206 260 322 367
#     4  11  23  38  60  97 122 164 213 261 302 373
#     4   9  20  37  64  93 121 159 216 254 298 382
#     4  12  22  38  65  90 123 169 211 255 308 371
#
# _framework density 20.490645000000001
#
# number of rings (size 3 to 8) (size 9 to 14) (size 15 to 20)
#    0.000    1.500    3.750    1.500    1.750    7.000 
#    0.000    0.000    0.000    1.500    0.000    0.000 
#    0.000    0.000    0.000    0.000    0.000    0.000 
#
# Total GULP energy -198354.751256 kJ/mol
# GULP energy per Si atom -12397.171954 kJ/mol
# Density = 2.044401 g / cm^3
# Si number density = 20.490645 Si / 1000 Ang^3
#
#
#
# Elastic Constant Matrix: (Units=GPa)
#
#
# Indices 1 2 3 4 5 6 
#
# 1 108.8780 47.5217 36.2808 16.3530 1.6364 -16.7340
# 2 47.5217 62.6714 28.1541 20.2590 0.8132 -7.8217
# 3 36.2808 28.1541 97.0935 14.3890 4.7820 -7.3561
# 4 16.3530 20.2590 14.3890 47.5057 6.5644 10.1686
# 5 1.6364 0.8132 4.7820 6.5644 27.2143 8.6246
# 6 -16.7340 -7.8217 -7.3561 10.1686 8.6246 32.6600
#
#
#
# Elastic Compliance Matrix: (Units=1/GPa)
#
#
# Indices 1 2 3 4 5 6 
#
# 1 0.015124 -0.009156 -0.002201 -0.001687 -0.001760 0.006050
# 2 -0.009156 0.027470 -0.003067 -0.008559 0.001211 0.003542
# 3 -0.002201 -0.003067 0.012562 -0.001892 -0.002205 0.002138
# 4 -0.001687 -0.008559 -0.001892 0.028690 -0.002555 -0.011598
# 5 -0.001760 0.001211 -0.002205 -0.002555 0.041381 -0.011240
# 6 0.006050 0.003542 0.002138 -0.011598 -0.011240 0.041628
#
#
# Mechanical properties :
#
#
# Convention : Reuss Voigt Hill
#
# Bulk Modulus (GPa) = 38.01169 54.72845 46.37007
# Shear Modulus (GPa) = 24.45314 31.92172 28.18743
#
# Velocity S-wave (km/s) = 3.45828 3.95127 3.71296
# Velocity P-wave (km/s) = 5.87684 6.89809 6.40784
#
# Compressibility (1/GPa) = 0.02630770
#
# Stress axis : x y z
#
# Youngs Moduli (GPa) = 66.11932 36.40345 79.60323
#
# Poissons Ratio (x) = 0.33331 0.17524
# Poissons Ratio (y) = 0.60539 0.24414
# Poissons Ratio (z) = 0.14556 0.11165
#
# Static dielectric constant tensor:
#      x y z
#    x 3.763460 0.055110 0.131400 
#    y 0.055110 3.772820 0.500070 
#    z 0.131400 0.500070 3.899690 
# 
# 
# High freq. dielectric constant tensor:
#      x y z
#    x 1.795830 -0.005470 0.009060 
#    y -0.005470 1.792910 0.037200 
#    z 0.009060 0.037200 1.794920 
# 
# From -- ./inp_files/218876.got.cif
#   From: 2010.06.25/outbox.cif.g09.slc.cpg/sg2_110_cif.got.tgz:218876.got - 2010.06.27 13:26:56.
