data_PCOD8043276
_publ_section_title
;
Structure prediction by ZEFSAII (Michael W. Deem and Ramdas Pophale) SiO2 
 PCOD8043276
Probable space group: P -1
;
_chemical_formula_sum "Si O2"
_cell_formula_units_Z 16
_cell_length_a 17.414122
_cell_length_b 9.332868
_cell_length_c 20.432011
_cell_angle_alpha 142.275842
_cell_angle_beta 155.276053
_cell_angle_gamma 32.131699
_cell_volume 735.148534
_symmetry_space_group_name_H-M "P -1"
_symmetry_group_IT_number 2
_symmetry_cell_setting 'triclinic'
loop_
_space_group_symop_operation_xyz
x,y,z
-x,-y,-z
loop_
_atom_site_type_symbol
_atom_site_label
_atom_site_fract_x
_atom_site_fract_y
_atom_site_fract_z
Si Si1 0.549081 0.988784 0.369639
Si Si2 0.258674 0.134312 0.656986
Si Si3 0.916493 0.205951 0.869012
Si Si4 0.022637 0.752199 0.699620
Si Si5 0.076397 0.986450 0.705724
Si Si6 0.529454 0.220923 0.643198
Si Si7 0.754759 0.164006 0.350765
Si Si8 0.844068 0.515588 0.793443
O O1 0.575139 0.884290 0.276263
O O2 0.772664 0.924559 0.550510
O O3 0.454333 0.846909 0.291443
O O4 0.384475 0.312130 0.356795
O O5 0.096131 0.444719 0.662040
O O6 0.133591 0.996075 0.480081
O O7 0.365040 0.961366 0.743596
O O8 0.737948 0.227373 0.787204
O O9 0.813491 0.399626 0.796209
O O10 0.056352 0.895070 0.840360
O O11 0.068429 0.279961 0.053153
O O12 0.158380 0.766209 0.748528
O O13 0.009972 0.280485 0.789201
O O14 0.260492 0.889725 0.758097
O O15 0.332089 0.521718 0.587757
O O16 0.500000 0.000000 0.500000
O O17 0.000000 0.000000 0.500000
#
# Coordination Sequence:
#
# PCOD8043276 Si02
#       8
#     2   2   2   2   2   2   2   2
#     4  11  21  35  61  89 123 153 209 250 304 360
#     4  10  20  34  60  91 122 155 208 254 311 351
#     4  10  23  42  61  86 130 160 207 246 312 361
#     4  10  19  36  60  91 119 161 199 263 300 360
#     4   9  19  33  58  83 121 153 199 245 302 358
#     4  12  24  37  61  94 125 158 200 262 304 356
#     4  10  21  35  57  90 125 156 197 254 309 358
#     4  10  23  41  61  89 121 173 199 248 303 379
#
# _framework density 21.764309999999998
#
# number of rings (size 3 to 8) (size 9 to 14) (size 15 to 20)
#    0.000    1.750    1.250    4.500    3.500    5.000 
#    0.000    1.250    0.000    1.500    0.000    0.000 
#    0.000    0.000    0.000    0.000    0.000    0.000 
#
# Total GULP energy -198286.627460 kJ/mol
# GULP energy per Si atom -12392.914216 kJ/mol
# Density = 2.171477 g / cm^3
# Si number density = 21.764310 Si / 1000 Ang^3
#
#
#
# Elastic Constant Matrix: (Units=GPa)
#
#
# Indices 1 2 3 4 5 6 
#
# 1 192.7817 61.5439 30.1253 18.6822 0.5016 5.8472
# 2 61.5439 149.3251 35.3704 11.2344 -12.5642 3.7258
# 3 30.1253 35.3704 45.3887 23.1313 -0.7843 -2.9930
# 4 18.6822 11.2344 23.1313 22.6386 -1.2659 -5.3290
# 5 0.5016 -12.5642 -0.7843 -1.2659 20.1819 4.3177
# 6 5.8472 3.7258 -2.9930 -5.3290 4.3177 27.7649
#
#
#
# Elastic Compliance Matrix: (Units=1/GPa)
#
#
# Indices 1 2 3 4 5 6 
#
# 1 0.006462 -0.002319 -0.000509 -0.004139 -0.001528 -0.001661
# 2 -0.002319 0.010069 -0.009855 0.006979 0.006730 -0.001632
# 3 -0.000509 -0.009855 0.057403 -0.054128 -0.006925 -0.001694
# 4 -0.004139 0.006979 -0.054128 0.102803 0.006034 0.012893
# 5 -0.001528 0.006730 -0.006925 0.006034 0.055779 -0.008844
# 6 -0.001661 -0.001632 -0.001694 0.012893 -0.008844 0.040253
#
#
# Mechanical properties :
#
#
# Convention : Reuss Voigt Hill
#
# Bulk Modulus (GPa) = 20.58950 71.28608 45.93779
# Shear Modulus (GPa) = 15.90715 31.48081 23.69398
#
# Velocity S-wave (km/s) = 2.70642 3.80734 3.30307
# Velocity P-wave (km/s) = 4.38714 7.22167 5.97493
#
# Compressibility (1/GPa) = 0.04856844
#
# Stress axis : x y z
#
# Youngs Moduli (GPa) = 154.74077 99.31714 17.42059
#
# Poissons Ratio (x) = 0.23028 0.00887
# Poissons Ratio (y) = 0.35878 0.17168
# Poissons Ratio (z) = 0.07879 0.97880
#
# Static dielectric constant tensor:
#      x y z
#    x 5.420380 0.214380 -0.150080 
#    y 0.214380 3.997730 0.160840 
#    z -0.150080 0.160840 3.343590 
# 
# 
# High freq. dielectric constant tensor:
#      x y z
#    x 1.882090 0.002850 -0.006240 
#    y 0.002850 1.862440 0.015610 
#    z -0.006240 0.015610 1.790190 
# 
# From -- ./inp_files/599631.got.cif
#   From: 2010.06.25/outbox.cif.g09.slc.cpg/sg2_300_cif.got.tgz:599631.got - 2010.06.27 13:26:56.
