data_PCOD8043001
_publ_section_title
;
Structure prediction by ZEFSAII (Michael W. Deem and Ramdas Pophale) SiO2 
 PCOD8043001
Probable space group: P -1
;
_chemical_formula_sum "Si O2"
_cell_formula_units_Z 16
_cell_length_a 4.932966
_cell_length_b 9.121355
_cell_length_c 18.940957
_cell_angle_alpha 77.657065
_cell_angle_beta 65.190781
_cell_angle_gamma 83.402016
_cell_volume 755.413403
_symmetry_space_group_name_H-M "P -1"
_symmetry_group_IT_number 2
_symmetry_cell_setting 'triclinic'
loop_
_space_group_symop_operation_xyz
x,y,z
-x,-y,-z
loop_
_atom_site_type_symbol
_atom_site_label
_atom_site_fract_x
_atom_site_fract_y
_atom_site_fract_z
Si Si1 0.683883 0.696896 0.089387
Si Si2 0.420732 0.946726 0.591847
Si Si3 0.643567 0.668524 0.536567
Si Si4 0.251137 0.500637 0.086902
Si Si5 0.766531 0.057797 0.669558
Si Si6 0.646573 0.990163 0.150981
Si Si7 0.682006 0.329841 0.565850
Si Si8 0.222221 0.175088 0.087548
O O1 0.389051 0.592258 0.128931
O O2 0.959908 0.584778 0.081917
O O3 0.671342 0.816541 0.142084
O O4 0.726197 0.786815 0.003265
O O5 0.446080 0.764989 0.604178
O O6 0.684306 0.987286 0.611212
O O7 0.110962 0.012463 0.650191
O O8 0.500000 0.000000 0.500000
O O9 0.571172 0.497721 0.578988
O O10 0.556645 0.724862 0.460447
O O11 0.996795 0.685654 0.505715
O O12 0.168706 0.325693 0.126281
O O13 0.500000 0.500000 0.000000
O O14 0.581433 0.996184 0.760837
O O15 0.693685 0.235986 0.647357
O O16 0.523928 0.091884 0.089776
O O17 0.957677 0.057006 0.135996
#
# Coordination Sequence:
#
# PCOD8043001 Si02
#       8
#     2   2   2   2   2   2   2   2
#     4  11  21  39  65  93 120 165 216 255 300 369
#     4  12  21  38  63  90 110 155 198 250 297 370
#     4  10  20  33  60  86 108 138 194 235 295 341
#     4  10  20  37  64  94 119 154 209 268 304 349
#     4  12  24  39  58  85 126 154 198 247 312 364
#     4  12  25  39  58  91 128 170 199 256 316 368
#     4  10  19  36  55  84 112 143 180 246 287 355
#     4  11  21  40  63  90 125 162 212 258 302 361
#
# _framework density 21.180454000000001
#
# number of rings (size 3 to 8) (size 9 to 14) (size 15 to 20)
#    0.000    1.000    2.500    7.125    0.000    0.000 
#    0.000    3.750    0.000    1.500    0.000    0.000 
#    0.000    0.000    0.000    0.000    0.000    0.000 
#
# Total GULP energy -198331.835351 kJ/mol
# GULP energy per Si atom -12395.739709 kJ/mol
# Density = 2.113225 g / cm^3
# Si number density = 21.180454 Si / 1000 Ang^3
#
#
#
# Elastic Constant Matrix: (Units=GPa)
#
#
# Indices 1 2 3 4 5 6 
#
# 1 86.6127 23.5904 1.2477 -0.8683 6.6379 3.7550
# 2 23.5904 119.3079 13.2685 9.3736 6.3366 7.4141
# 3 1.2477 13.2685 42.9911 6.8908 -7.9010 7.6498
# 4 -0.8683 9.3736 6.8908 16.4820 -0.5369 2.5388
# 5 6.6379 6.3366 -7.9010 -0.5369 17.4990 -2.1188
# 6 3.7550 7.4141 7.6498 2.5388 -2.1188 49.7403
#
#
#
# Elastic Compliance Matrix: (Units=1/GPa)
#
#
# Indices 1 2 3 4 5 6 
#
# 1 0.012568 -0.002313 -0.000648 0.002233 -0.004251 -0.000799
# 2 -0.002313 0.009783 -0.002859 -0.004504 -0.004190 -0.000792
# 3 -0.000648 -0.002859 0.028698 -0.009521 0.013599 -0.002873
# 4 0.002233 -0.004504 -0.009521 0.067518 -0.001631 -0.001549
# 5 -0.004251 -0.004190 0.013599 -0.001631 0.066581 0.001773
# 6 -0.000799 -0.000792 -0.002873 -0.001549 0.001773 0.020879
#
#
# Mechanical properties :
#
#
# Convention : Reuss Voigt Hill
#
# Bulk Modulus (GPa) = 25.37490 36.12499 30.74995
# Shear Modulus (GPa) = 21.66355 30.79793 26.23074
#
# Velocity S-wave (km/s) = 3.20161 3.81737 3.52297
# Velocity P-wave (km/s) = 5.06689 6.04339 5.57656
#
# Compressibility (1/GPa) = 0.03940902
#
# Stress axis : x y z
#
# Youngs Moduli (GPa) = 79.56872 102.22157 34.84514
#
# Poissons Ratio (x) = 0.23643 0.02257
# Poissons Ratio (y) = 0.18404 0.09963
# Poissons Ratio (z) = 0.05154 0.29227
#
# Static dielectric constant tensor:
#      x y z
#    x 4.541560 -0.381160 0.250800 
#    y -0.381160 5.248710 -0.140720 
#    z 0.250800 -0.140720 3.318830 
# 
# 
# High freq. dielectric constant tensor:
#      x y z
#    x 1.852830 -0.000750 0.006430 
#    y -0.000750 1.857250 0.001550 
#    z 0.006430 0.001550 1.772140 
# 
# From -- ./inp_files/547122.got.cif
#   From: 2010.06.25/outbox.cif.g09.slc.cpg/sg2_274_cif.got.tgz:547122.got - 2010.06.27 13:26:56.
