data_PCOD8043065
_publ_section_title
;
Structure prediction by ZEFSAII (Michael W. Deem and Ramdas Pophale) SiO2 
 PCOD8043065
Probable space group: P -1
;
_chemical_formula_sum "Si O2"
_cell_formula_units_Z 16
_cell_length_a 12.038861
_cell_length_b 16.404840
_cell_length_c 11.165347
_cell_angle_alpha 104.716340
_cell_angle_beta 76.116592
_cell_angle_gamma 158.242855
_cell_volume 790.510998
_symmetry_space_group_name_H-M "P -1"
_symmetry_group_IT_number 2
_symmetry_cell_setting 'triclinic'
loop_
_space_group_symop_operation_xyz
x,y,z
-x,-y,-z
loop_
_atom_site_type_symbol
_atom_site_label
_atom_site_fract_x
_atom_site_fract_y
_atom_site_fract_z
Si Si1 0.442750 0.070212 0.148575
Si Si2 0.562991 0.633828 0.473887
Si Si3 0.094156 0.529793 0.113029
Si Si4 0.840858 0.959145 0.682861
Si Si5 0.572721 0.978173 0.141036
Si Si6 0.512486 0.666707 0.068355
Si Si7 0.879735 0.857470 0.841283
Si Si8 0.186051 0.372495 0.258392
O O1 0.262667 0.016867 0.249950
O O2 0.382815 0.935092 0.161485
O O3 0.789984 0.322662 0.189373
O O4 0.362712 0.017468 0.007039
O O5 0.500000 0.500000 0.500000
O O6 0.594893 0.732430 0.596058
O O7 0.295709 0.484593 0.398952
O O8 0.866834 0.831007 0.393942
O O9 0.212851 0.515411 0.062489
O O10 0.351880 0.764554 0.190800
O O11 0.000000 0.500000 0.000000
O O12 0.898070 0.951822 0.789872
O O13 0.872512 0.194916 0.223202
O O14 0.447865 0.567011 0.165634
O O15 0.598006 0.666104 0.934204
O O16 0.794757 0.923283 0.098277
O O17 0.840893 0.743672 0.741105
#
# Coordination Sequence:
#
# PCOD8043065 Si02
#       8
#     2   2   2   2   2   2   2   2
#     4  10  22  39  61  92 126 162 202 249 312 375
#     4  11  25  45  64  90 121 169 216 265 310 357
#     4  10  19  36  57  85 129 170 194 237 305 380
#     4  11  24  44  66  89 123 166 215 257 307 376
#     4  10  21  37  61  94 129 160 198 249 311 384
#     4  11  22  35  57  98 133 159 198 252 322 385
#     4  11  22  36  60  94 129 160 201 256 319 380
#     4  12  22  39  62  91 126 166 204 257 316 365
#
# _framework density 20.240072999999999
#
# number of rings (size 3 to 8) (size 9 to 14) (size 15 to 20)
#    0.000    1.250    5.000    1.875    1.750    2.000 
#    0.000    0.625    0.000    1.500    0.000    0.000 
#    0.000    0.000    0.000    0.000    0.000    0.000 
#
# Total GULP energy -198239.341161 kJ/mol
# GULP energy per Si atom -12389.958823 kJ/mol
# Density = 2.019401 g / cm^3
# Si number density = 20.240073 Si / 1000 Ang^3
#
#
#
# Elastic Constant Matrix: (Units=GPa)
#
#
# Indices 1 2 3 4 5 6 
#
# 1 90.0187 19.2190 32.8023 3.6397 -5.7569 2.6382
# 2 19.2190 73.1114 17.9431 11.8859 7.2749 6.2843
# 3 32.8023 17.9431 75.3168 16.0540 -2.6816 9.6920
# 4 3.6397 11.8859 16.0540 31.1583 -1.4764 3.6773
# 5 -5.7569 7.2749 -2.6816 -1.4764 34.4119 -1.2625
# 6 2.6382 6.2843 9.6920 3.6773 -1.2625 33.3565
#
#
#
# Elastic Compliance Matrix: (Units=1/GPa)
#
#
# Indices 1 2 3 4 5 6 
#
# 1 0.013948 -0.002975 -0.005950 0.002578 0.002646 0.001002
# 2 -0.002975 0.016232 -0.001378 -0.005101 -0.004330 -0.002024
# 3 -0.005950 -0.001378 0.018344 -0.007779 0.000255 -0.003733
# 4 0.002578 -0.005101 -0.007779 0.037992 0.002494 -0.001077
# 5 0.002646 -0.004330 0.000255 0.002494 0.030596 0.001416
# 6 0.001002 -0.002024 -0.003733 -0.001077 0.001416 0.031538
#
#
# Mechanical properties :
#
#
# Convention : Reuss Voigt Hill
#
# Bulk Modulus (GPa) = 35.81873 42.04175 38.93024
# Shear Modulus (GPa) = 28.00141 31.01750 29.50946
#
# Velocity S-wave (km/s) = 3.72353 3.91894 3.82248
# Velocity P-wave (km/s) = 6.01844 6.42605 6.22558
#
# Compressibility (1/GPa) = 0.02791835
#
# Stress axis : x y z
#
# Youngs Moduli (GPa) = 71.69620 61.60686 54.51252
#
# Poissons Ratio (x) = 0.18327 0.32436
# Poissons Ratio (y) = 0.21328 0.07511
# Poissons Ratio (z) = 0.42661 0.08489
#
# Static dielectric constant tensor:
#      x y z
#    x 3.702500 -0.318530 0.057590 
#    y -0.318530 4.357410 0.169050 
#    z 0.057590 0.169050 3.436010 
# 
# 
# High freq. dielectric constant tensor:
#      x y z
#    x 1.798360 -0.013370 0.008860 
#    y -0.013370 1.805640 0.013980 
#    z 0.008860 0.013980 1.748910 
# 
# From -- ./inp_files/399076.got.cif
#   From: 2010.06.25/outbox.cif.g09.slc.cpg/sg2_200_cif.got.tgz:399076.got - 2010.06.27 13:26:56.
