data_PCOD8043846
_publ_section_title
;
Structure prediction by ZEFSAII (Michael W. Deem and Ramdas Pophale) SiO2 
 PCOD8043846
Probable space group: P -1
;
_chemical_formula_sum "Si O2"
_cell_formula_units_Z 16
_cell_length_a 12.007778
_cell_length_b 7.635668
_cell_length_c 13.419704
_cell_angle_alpha 72.580832
_cell_angle_beta 41.650676
_cell_angle_gamma 86.720599
_cell_volume 752.850195
_symmetry_space_group_name_H-M "P -1"
_symmetry_group_IT_number 2
_symmetry_cell_setting 'triclinic'
loop_
_space_group_symop_operation_xyz
x,y,z
-x,-y,-z
loop_
_atom_site_type_symbol
_atom_site_label
_atom_site_fract_x
_atom_site_fract_y
_atom_site_fract_z
Si Si1 0.481141 0.390385 0.134265
Si Si2 0.060704 0.461356 0.597351
Si Si3 0.437653 0.686480 0.592781
Si Si4 0.266282 0.734899 0.896332
Si Si5 0.549811 0.396321 0.690909
Si Si6 0.898872 0.577038 0.200424
Si Si7 0.085097 0.222030 0.437019
Si Si8 0.308630 0.138759 0.769716
O O1 0.632770 0.280701 0.064396
O O2 0.528705 0.541762 0.166824
O O3 0.291419 0.245488 0.299245
O O4 0.500000 0.500000 0.000000
O O5 0.251805 0.593699 0.422586
O O6 0.054461 0.366853 0.725369
O O7 0.013022 0.284361 0.580382
O O8 0.944252 0.613961 0.646768
O O9 0.408462 0.755006 0.710941
O O10 0.527085 0.512924 0.583482
O O11 0.247717 0.622596 0.677114
O O12 0.573354 0.846303 0.412295
O O13 0.201682 0.925757 0.901217
O O14 0.085976 0.569034 0.029751
O O15 0.436062 0.188502 0.772619
O O16 0.828542 0.737033 0.165368
O O17 0.000000 0.000000 0.500000
#
# Coordination Sequence:
#
# PCOD8043846 Si02
#       8
#     2   2   2   2   2   2   2   2
#     4  10  22  42  58  80 119 156 199 248 306 357
#     4  10  19  39  64  83 121 161 195 255 308 348
#     4  10  19  37  60  85 118 157 197 229 294 371
#     4  11  24  35  57  90 122 150 192 257 296 346
#     4   9  18  36  62  82 110 161 192 230 299 365
#     4  11  20  38  59  84 123 159 192 226 313 370
#     4  10  23  39  62  90 114 152 220 259 291 354
#     4  11  20  37  59  90 120 151 194 241 291 368
#
# _framework density 21.252569999999999
#
# number of rings (size 3 to 8) (size 9 to 14) (size 15 to 20)
#    0.000    1.750    2.500    2.625    1.750    0.000 
#    4.500    0.625    0.000    0.000    0.000    0.000 
#    0.000    0.000    0.000    0.000    0.000    0.000 
#
# Total GULP energy -198216.047462 kJ/mol
# GULP energy per Si atom -12388.502966 kJ/mol
# Density = 2.120420 g / cm^3
# Si number density = 21.252570 Si / 1000 Ang^3
#
#
#
# Elastic Constant Matrix: (Units=GPa)
#
#
# Indices 1 2 3 4 5 6 
#
# 1 117.1560 26.1356 29.4620 -4.3862 -3.2515 -2.9304
# 2 26.1356 61.8002 11.7015 -9.1689 -4.4605 -4.1541
# 3 29.4620 11.7015 69.0385 -0.6545 -9.4310 -6.5676
# 4 -4.3862 -9.1689 -0.6545 21.4298 -1.5675 -4.6356
# 5 -3.2515 -4.4605 -9.4310 -1.5675 37.9488 7.1921
# 6 -2.9304 -4.1541 -6.5676 -4.6356 7.1921 33.6145
#
#
#
# Elastic Compliance Matrix: (Units=1/GPa)
#
#
# Indices 1 2 3 4 5 6 
#
# 1 0.010311 -0.003617 -0.003860 0.000379 -0.000457 -0.000152
# 2 -0.003617 0.019450 -0.001216 0.008231 0.001509 0.002663
# 3 -0.003860 -0.001216 0.016995 -0.000091 0.003347 0.002105
# 4 0.000379 0.008231 -0.000091 0.052081 0.001638 0.007864
# 5 -0.000457 0.001509 0.003347 0.001638 0.028344 -0.005038
# 6 -0.000152 0.002663 0.002105 0.007864 -0.005038 0.032639
#
#
# Mechanical properties :
#
#
# Convention : Reuss Voigt Hill
#
# Bulk Modulus (GPa) = 34.04816 42.51032 38.27924
# Shear Modulus (GPa) = 26.73872 30.64501 28.69186
#
# Velocity S-wave (km/s) = 3.55088 3.80141 3.67828
# Velocity P-wave (km/s) = 5.73299 6.27005 6.00752
#
# Compressibility (1/GPa) = 0.02937016
#
# Stress axis : x y z
#
# Youngs Moduli (GPa) = 96.98439 51.41405 58.84160
#
# Poissons Ratio (x) = 0.18594 0.22715
# Poissons Ratio (y) = 0.35075 0.07153
# Poissons Ratio (z) = 0.37440 0.06250
#
# Static dielectric constant tensor:
#      x y z
#    x 4.118090 -0.055870 -0.141690 
#    y -0.055870 3.723650 0.112810 
#    z -0.141690 0.112810 3.662970 
# 
# 
# High freq. dielectric constant tensor:
#      x y z
#    x 1.850300 -0.002100 -0.010440 
#    y -0.002100 1.803130 0.015230 
#    z -0.010440 0.015230 1.822020 
# 
# From -- ./inp_files/279707.got.cif
#   From: 2010.06.25/outbox.cif.g09.slc.cpg/sg2_140_cif.got.tgz:279707.got - 2010.06.27 13:26:56.
