data_PCOD8043828
_publ_section_title
;
Structure prediction by ZEFSAII (Michael W. Deem and Ramdas Pophale) SiO2 
 PCOD8043828
Probable space group: P -1
;
_chemical_formula_sum "Si O2"
_cell_formula_units_Z 16
_cell_length_a 9.206357
_cell_length_b 11.700208
_cell_length_c 15.652777
_cell_angle_alpha 140.771337
_cell_angle_beta 120.888890
_cell_angle_gamma 55.952169
_cell_volume 873.226240
_symmetry_space_group_name_H-M "P -1"
_symmetry_group_IT_number 2
_symmetry_cell_setting 'triclinic'
loop_
_space_group_symop_operation_xyz
x,y,z
-x,-y,-z
loop_
_atom_site_type_symbol
_atom_site_label
_atom_site_fract_x
_atom_site_fract_y
_atom_site_fract_z
Si Si1 0.601216 0.135437 0.929446
Si Si2 0.585356 0.644700 0.853198
Si Si3 0.204568 0.245237 0.150941
Si Si4 0.758918 0.749574 0.200945
Si Si5 0.625813 0.452811 0.591013
Si Si6 0.165091 0.680468 0.000065
Si Si7 0.133249 0.714843 0.205143
Si Si8 0.201996 0.933507 0.501066
O O1 0.400953 0.148058 0.851194
O O2 0.687905 0.229627 0.937565
O O3 0.718798 0.920086 0.853262
O O4 0.584294 0.249285 0.079831
O O5 0.678155 0.791686 0.922511
O O6 0.516200 0.534944 0.692539
O O7 0.738392 0.498936 0.871340
O O8 0.217729 0.444725 0.310677
O O9 0.003253 0.257910 0.077411
O O10 0.944117 0.727310 0.196260
O O11 0.729883 0.884449 0.354962
O O12 0.749744 0.545194 0.108083
O O13 0.500000 0.500000 0.500000
O O14 0.707030 0.228823 0.496409
O O15 0.112613 0.763741 0.127367
O O16 0.223127 0.856236 0.364865
O O17 0.000000 0.000000 0.500000
#
# Coordination Sequence:
#
# PCOD8043828 Si02
#       8
#     2   2   2   2   2   2   2   2
#     4  12  23  34  54  87 115 141 191 225 271 325
#     4   9  19  35  58  81 109 141 183 230 272 316
#     4  10  21  37  57  80 108 149 182 225 277 324
#     4  11  20  35  60  84 106 146 190 227 269 326
#     4   9  18  35  58  82 107 138 181 235 278 312
#     4  12  22  37  57  79 119 152 175 228 278 327
#     4  10  19  37  60  82 112 143 185 226 285 319
#     4   9  18  34  56  85 106 137 183 234 267 324
#
# _framework density 18.322858
#
# number of rings (size 3 to 8) (size 9 to 14) (size 15 to 20)
#    0.750    1.000    2.500    3.750    0.000    0.000 
#    2.250    0.625    2.750    0.750    0.000    0.000 
#    0.000    0.000    0.000    0.000    0.000    0.000 
#
# Total GULP energy -198266.477918 kJ/mol
# GULP energy per Si atom -12391.654870 kJ/mol
# Density = 1.828115 g / cm^3
# Si number density = 18.322858 Si / 1000 Ang^3
#
#
#
# Elastic Constant Matrix: (Units=GPa)
#
#
# Indices 1 2 3 4 5 6 
#
# 1 50.3421 12.2251 17.7242 0.8877 0.6819 10.8072
# 2 12.2251 96.8911 35.7883 -2.3875 1.1735 -3.5894
# 3 17.7242 35.7883 90.9977 1.8977 -0.3835 3.0844
# 4 0.8877 -2.3875 1.8977 32.8483 -3.8507 6.9194
# 5 0.6819 1.1735 -0.3835 -3.8507 8.7808 -0.7771
# 6 10.8072 -3.5894 3.0844 6.9194 -0.7771 25.5447
#
#
#
# Elastic Compliance Matrix: (Units=1/GPa)
#
#
# Indices 1 2 3 4 5 6 
#
# 1 0.023829 -0.002029 -0.003529 0.001356 -0.002057 -0.010370
# 2 -0.002029 0.012414 -0.004603 0.000446 -0.001242 0.003000
# 3 -0.003529 -0.004603 0.013526 -0.000778 0.001091 -0.000543
# 4 0.001356 0.000446 -0.000778 0.034057 0.013921 -0.009219
# 5 -0.002057 -0.001242 0.001091 0.013921 0.120403 0.000456
# 6 -0.010370 0.003000 -0.000543 -0.009219 0.000456 0.046532
#
#
# Mechanical properties :
#
#
# Convention : Reuss Voigt Hill
#
# Bulk Modulus (GPa) = 33.95875 41.07847 37.51861
# Shear Modulus (GPa) = 17.79981 24.93432 21.36706
#
# Velocity S-wave (km/s) = 3.12020 3.69295 3.41859
# Velocity P-wave (km/s) = 5.61735 6.37587 6.00859
#
# Compressibility (1/GPa) = 0.02944749
#
# Stress axis : x y z
#
# Youngs Moduli (GPa) = 41.96488 80.55165 73.92984
#
# Poissons Ratio (x) = 0.16344 0.26089
# Poissons Ratio (y) = 0.08515 0.34033
# Poissons Ratio (z) = 0.14809 0.37081
#
# Static dielectric constant tensor:
#      x y z
#    x 2.989640 -0.058490 -0.061710 
#    y -0.058490 3.327460 0.023020 
#    z -0.061710 0.023020 4.026830 
# 
# 
# High freq. dielectric constant tensor:
#      x y z
#    x 1.670010 -0.010320 -0.000840 
#    y -0.010320 1.717580 -0.003070 
#    z -0.000840 -0.003070 1.714950 
# 
# From -- ./inp_files/501026.got.cif
#   From: 2010.06.25/outbox.cif.g09.slc.cpg/sg2_251_cif.got.tgz:501026.got - 2010.06.27 13:26:56.
