data_PCOD8043337
_publ_section_title
;
Structure prediction by ZEFSAII (Michael W. Deem and Ramdas Pophale) SiO2 
 PCOD8043337
Probable space group: P -1
;
_chemical_formula_sum "Si O2"
_cell_formula_units_Z 16
_cell_length_a 14.391739
_cell_length_b 11.806737
_cell_length_c 11.608112
_cell_angle_alpha 141.211603
_cell_angle_beta 55.588487
_cell_angle_gamma 142.998424
_cell_volume 734.989964
_symmetry_space_group_name_H-M "P -1"
_symmetry_group_IT_number 2
_symmetry_cell_setting 'triclinic'
loop_
_space_group_symop_operation_xyz
x,y,z
-x,-y,-z
loop_
_atom_site_type_symbol
_atom_site_label
_atom_site_fract_x
_atom_site_fract_y
_atom_site_fract_z
Si Si1 0.395021 0.028587 0.239582
Si Si2 0.271073 0.604006 0.813111
Si Si3 0.508502 0.408363 0.735078
Si Si4 0.540700 0.781176 0.137215
Si Si5 0.722917 0.320741 0.480625
Si Si6 0.015825 0.392898 0.647357
Si Si7 0.757144 0.831104 0.449293
Si Si8 0.733715 0.296961 0.721403
O O1 0.373819 0.971650 0.348355
O O2 0.574321 0.245953 0.253039
O O3 0.304817 0.120197 0.357202
O O4 0.308339 0.767892 0.028074
O O5 0.137814 0.554736 0.793827
O O6 0.204218 0.332224 0.675300
O O7 0.422324 0.232045 0.767920
O O8 0.638901 0.419819 0.602206
O O9 0.383560 0.333438 0.671943
O O10 0.596424 0.690503 0.937725
O O11 0.350685 0.604586 0.115586
O O12 0.632780 0.066861 0.269123
O O13 0.896508 0.533259 0.477264
O O14 0.725566 0.254598 0.557479
O O15 0.910935 0.461058 0.770993
O O16 0.911752 0.097155 0.500578
#
# Coordination Sequence:
#
# PCOD8043337 Si02
#       8
#     2   2   2   2   2   2   2   2
#     4  10  22  40  63  88 112 151 207 250 292 349
#     4  11  23  40  62  86 118 155 199 251 294 346
#     4  10  21  36  61  89 114 153 206 249 289 350
#     4  10  19  36  61  88 115 154 202 247 295 342
#     4  11  21  39  63  89 123 158 197 246 296 351
#     4  11  23  38  60  91 124 162 199 234 297 368
#     4  11  22  39  59  85 122 159 195 245 298 347
#     4  10  20  37  62  88 121 158 191 242 302 352
#
# _framework density 21.769006000000001
#
# number of rings (size 3 to 8) (size 9 to 14) (size 15 to 20)
#    0.000    1.500    0.000    7.875    0.000    3.000 
#    0.000    5.000    0.000    7.500    0.000    0.000 
#    0.000    0.000    0.000    0.000    0.000    0.000 
#
# Total GULP energy -198264.335487 kJ/mol
# GULP energy per Si atom -12391.520968 kJ/mol
# Density = 2.171946 g / cm^3
# Si number density = 21.769006 Si / 1000 Ang^3
#
#
#
# Elastic Constant Matrix: (Units=GPa)
#
#
# Indices 1 2 3 4 5 6 
#
# 1 106.6173 29.5478 41.8565 0.5098 -4.7847 6.7688
# 2 29.5478 113.3973 57.2705 -4.5274 1.7434 10.8532
# 3 41.8565 57.2705 81.2901 9.9434 -31.0618 6.0227
# 4 0.5098 -4.5274 9.9434 22.3105 -2.9940 0.8454
# 5 -4.7847 1.7434 -31.0618 -2.9940 30.3598 -3.8337
# 6 6.7688 10.8532 6.0227 0.8454 -3.8337 28.7944
#
#
#
# Elastic Compliance Matrix: (Units=1/GPa)
#
#
# Indices 1 2 3 4 5 6 
#
# 1 0.015257 0.008739 -0.022837 0.008950 -0.021235 -0.005194
# 2 0.008739 0.035586 -0.051703 0.023446 -0.052815 -0.012373
# 3 -0.022837 -0.051703 0.104138 -0.043121 0.103959 0.018182
# 4 0.008950 0.023446 -0.043121 0.063713 -0.038903 -0.008972
# 5 -0.021235 -0.052815 0.103959 -0.038903 0.138013 0.022672
# 6 -0.005194 -0.012373 0.018182 -0.008972 0.022672 0.040093
#
#
# Mechanical properties :
#
#
# Convention : Reuss Voigt Hill
#
# Bulk Modulus (GPa) = 42.77483 62.07270 52.42377
# Shear Modulus (GPa) = 9.32497 27.80160 18.56329
#
# Velocity S-wave (km/s) = 2.07193 3.57756 2.92334
# Velocity P-wave (km/s) = 5.04142 6.75584 5.96059
#
# Compressibility (1/GPa) = 0.02337823
#
# Stress axis : x y z
#
# Youngs Moduli (GPa) = 65.54468 28.10076 9.60268
#
# Poissons Ratio (x) = -0.24557 0.21929
# Poissons Ratio (y) = -0.57279 0.49649
# Poissons Ratio (z) = 1.49682 1.45291
#
# Static dielectric constant tensor:
#      x y z
#    x 4.157250 0.011890 -0.219660 
#    y 0.011890 3.886370 -0.135050 
#    z -0.219660 -0.135050 3.978900 
# 
# 
# High freq. dielectric constant tensor:
#      x y z
#    x 1.866840 -0.004440 -0.007930 
#    y -0.004440 1.840740 -0.010040 
#    z -0.007930 -0.010040 1.848530 
# 
# From -- ./inp_files/452624.got.cif
#   From: 2010.06.25/outbox.cif.g09.slc.cpg/sg2_227_cif.got.tgz:452624.got - 2010.06.27 13:26:56.
