data_PCOD8043699
_publ_section_title
;
Structure prediction by ZEFSAII (Michael W. Deem and Ramdas Pophale) SiO2 
 PCOD8043699
Probable space group: P -1
;
_chemical_formula_sum "Si O2"
_cell_formula_units_Z 14
_cell_length_a 13.404699
_cell_length_b 9.941330
_cell_length_c 11.891586
_cell_angle_alpha 51.290696
_cell_angle_beta 55.081735
_cell_angle_gamma 96.436650
_cell_volume 687.897382
_symmetry_space_group_name_H-M "P -1"
_symmetry_group_IT_number 2
_symmetry_cell_setting 'triclinic'
loop_
_space_group_symop_operation_xyz
x,y,z
-x,-y,-z
loop_
_atom_site_type_symbol
_atom_site_label
_atom_site_fract_x
_atom_site_fract_y
_atom_site_fract_z
Si Si1 0.150414 0.380482 0.167104
Si Si2 0.254180 0.113595 0.556959
Si Si3 0.753575 0.895836 0.688918
Si Si4 0.139909 0.234652 0.012612
Si Si5 0.434608 0.629175 0.465607
Si Si6 0.441842 0.315629 0.865428
Si Si7 0.364451 0.927619 0.718655
O O1 0.249304 0.315165 0.186690
O O2 0.147407 0.378748 0.034322
O O3 0.256213 0.661363 0.988730
O O4 0.947351 0.173501 0.452213
O O5 0.301232 0.115273 0.396533
O O6 0.422417 0.385417 0.359728
O O7 0.227012 0.910297 0.751118
O O8 0.069738 0.031666 0.731260
O O9 0.607870 0.823359 0.909528
O O10 0.225916 0.411741 0.752890
O O11 0.253292 0.185405 0.002310
O O12 0.500000 0.500000 0.500000
O O13 0.464070 0.714588 0.270460
O O14 0.539999 0.870706 0.348869
O O15 0.500000 0.000000 0.500000
#
# Coordination Sequence:
#
# PCOD8043699 Si02
#       7
#     2   2   2   2   2   2   2
#     4   9  18  35  58  87 119 151 196 242 293 338
#     4  11  21  34  65  91 113 154 203 240 293 348
#     4   9  19  36  59  85 117 158 196 236 284 363
#     4   9  18  34  55  87 116 149 192 246 285 341
#     4  10  19  38  58  84 125 159 186 240 303 351
#     4  10  19  37  56  84 120 158 194 235 289 354
#     4  12  21  37  62  94 118 151 196 253 297 334
#
# _framework density 20.351873000000001
#
# number of rings (size 3 to 8) (size 9 to 14) (size 15 to 20)
#    0.000    2.000    4.286    2.143    0.000    2.857 
#    0.000    0.714    0.000    3.429    0.000    0.000 
#    0.000    0.000    0.000    0.000    0.000    0.000 
#
# Total GULP energy -173467.680156 kJ/mol
# GULP energy per Si atom -12390.548583 kJ/mol
# Density = 2.030555 g / cm^3
# Si number density = 20.351873 Si / 1000 Ang^3
#
#
#
# Elastic Constant Matrix: (Units=GPa)
#
#
# Indices 1 2 3 4 5 6 
#
# 1 38.5260 2.9172 17.7986 -1.6306 0.6930 10.2000
# 2 2.9172 98.0219 47.8493 9.3223 14.9156 12.0826
# 3 17.7986 47.8493 128.7700 14.6498 12.7995 4.7198
# 4 -1.6306 9.3223 14.6498 43.1437 2.1491 12.3581
# 5 0.6930 14.9156 12.7995 2.1491 28.9879 4.0592
# 6 10.2000 12.0826 4.7198 12.3581 4.0592 18.6194
#
#
#
# Elastic Compliance Matrix: (Units=1/GPa)
#
#
# Indices 1 2 3 4 5 6 
#
# 1 0.037321 0.004582 -0.007387 0.011289 0.003343 -0.029767
# 2 0.004582 0.014480 -0.005495 0.002315 -0.003732 -0.011237
# 3 -0.007387 -0.005495 0.011399 -0.005373 -0.002880 0.008917
# 4 0.011289 0.002315 -0.005373 0.033057 0.002495 -0.028809
# 5 0.003343 -0.003732 -0.002880 0.002495 0.038651 -0.008762
# 6 -0.029767 -0.011237 0.008917 -0.028809 -0.008762 0.096077
#
#
# Mechanical properties :
#
#
# Convention : Reuss Voigt Hill
#
# Bulk Modulus (GPa) = 21.45821 44.71644 33.08732
# Shear Modulus (GPa) = 19.00286 31.26705 25.13495
#
# Velocity S-wave (km/s) = 3.05899 3.92385 3.51810
# Velocity P-wave (km/s) = 4.80032 6.52289 5.72674
#
# Compressibility (1/GPa) = 0.04660221
#
# Stress axis : x y z
#
# Youngs Moduli (GPa) = 26.79470 69.05841 87.72563
#
# Poissons Ratio (x) = -0.31643 0.64799
# Poissons Ratio (y) = -0.12277 0.48201
# Poissons Ratio (z) = 0.19792 0.37945
#
# Static dielectric constant tensor:
#      x y z
#    x 3.430710 0.264940 0.125740 
#    y 0.264940 3.849190 0.473250 
#    z 0.125740 0.473250 4.248030 
# 
# 
# High freq. dielectric constant tensor:
#      x y z
#    x 1.757460 0.024600 -0.002440 
#    y 0.024600 1.768090 0.015030 
#    z -0.002440 0.015030 1.814340 
# 
# From -- ./inp_files/445630.got.cif
#   From: 2010.06.25/outbox.cif.g09.slc.cpg/sg2_223_cif.got.tgz:445630.got - 2010.06.27 13:26:56.
