data_PCOD8043961
_publ_section_title
;
Structure prediction by ZEFSAII (Michael W. Deem and Ramdas Pophale) SiO2 
 PCOD8043961
Probable space group: P -1
;
_chemical_formula_sum "Si O2"
_cell_formula_units_Z 16
_cell_length_a 11.406806
_cell_length_b 10.051064
_cell_length_c 11.939323
_cell_angle_alpha 66.326403
_cell_angle_beta 49.965159
_cell_angle_gamma 47.378360
_cell_volume 769.799042
_symmetry_space_group_name_H-M "P -1"
_symmetry_group_IT_number 2
_symmetry_cell_setting 'triclinic'
loop_
_space_group_symop_operation_xyz
x,y,z
-x,-y,-z
loop_
_atom_site_type_symbol
_atom_site_label
_atom_site_fract_x
_atom_site_fract_y
_atom_site_fract_z
Si Si1 0.432277 0.666545 0.226440
Si Si2 0.160445 0.564087 0.413755
Si Si3 0.229954 0.115655 0.823355
Si Si4 0.863809 0.929249 0.342582
Si Si5 0.815143 0.663010 0.709504
Si Si6 0.804989 0.420079 0.968799
Si Si7 0.777500 0.152021 0.928931
Si Si8 0.402283 0.927401 0.338816
O O1 0.320856 0.581971 0.353631
O O2 0.364582 0.770401 0.114604
O O3 0.388285 0.803296 0.304646
O O4 0.657379 0.503840 0.134806
O O5 0.256081 0.380085 0.345210
O O6 0.042476 0.568549 0.590364
O O7 0.007622 0.726404 0.370023
O O8 0.377778 0.160912 0.741304
O O9 0.018317 0.285954 0.930860
O O10 0.245762 0.070458 0.697756
O O11 0.282559 0.944345 0.921202
O O12 0.707394 0.062865 0.485036
O O13 0.000266 0.987132 0.201619
O O14 0.780903 0.587254 0.865226
O O15 0.697239 0.877424 0.722170
O O16 0.753129 0.318119 0.952158
#
# Coordination Sequence:
#
# PCOD8043961 Si02
#       8
#     2   2   2   2   2   2   2   2
#     4  11  23  40  59  91 126 156 193 244 303 356
#     4   9  19  36  64  90 114 151 202 249 293 345
#     4  11  22  39  60  90 119 159 204 244 290 355
#     4   9  18  39  61  88 114 155 198 249 291 350
#     4  10  19  37  61  93 112 151 204 244 294 341
#     4  11  21  38  62  87 119 160 201 248 291 350
#     4  10  21  38  64  90 115 152 205 249 298 344
#     4  11  25  37  60  92 124 158 193 245 303 350
#
# _framework density 20.784645000000001
#
# number of rings (size 3 to 8) (size 9 to 14) (size 15 to 20)
#    0.000    1.750    3.750    3.000    1.750    7.000 
#    0.000    0.000    0.000    5.250    0.000    0.000 
#    0.000    0.000    0.000    0.000    0.000    0.000 
#
# Total GULP energy -198396.199544 kJ/mol
# GULP energy per Si atom -12399.762472 kJ/mol
# Density = 2.073734 g / cm^3
# Si number density = 20.784645 Si / 1000 Ang^3
#
#
#
# Elastic Constant Matrix: (Units=GPa)
#
#
# Indices 1 2 3 4 5 6 
#
# 1 52.6403 35.0250 40.8812 13.9574 -16.2914 14.5719
# 2 35.0250 68.5330 47.7468 23.4380 -7.2266 21.2571
# 3 40.8812 47.7468 105.2242 13.5094 -22.9981 20.7634
# 4 13.9574 23.4380 13.5094 29.2711 -2.0640 -1.6637
# 5 -16.2914 -7.2266 -22.9981 -2.0640 26.3472 -1.4549
# 6 14.5719 21.2571 20.7634 -1.6637 -1.4549 27.8981
#
#
#
# Elastic Compliance Matrix: (Units=1/GPa)
#
#
# Indices 1 2 3 4 5 6 
#
# 1 0.038200 -0.008983 -0.004221 -0.008473 0.016277 -0.009623
# 2 -0.008983 0.039419 -0.008098 -0.025089 -0.004940 -0.021070
# 3 -0.004221 -0.008098 0.017901 0.000736 0.010612 -0.004351
# 4 -0.008473 -0.025089 0.000736 0.059063 -0.005403 0.026235
# 5 0.016277 -0.004940 0.010612 -0.005403 0.054947 -0.010093
# 6 -0.009623 -0.021070 -0.004351 0.026235 -0.010093 0.061202
#
#
# Mechanical properties :
#
#
# Convention : Reuss Voigt Hill
#
# Bulk Modulus (GPa) = 18.89753 52.63373 35.76563
# Shear Modulus (GPa) = 15.10688 23.55292 19.32990
#
# Velocity S-wave (km/s) = 2.69890 3.36994 3.05291
# Velocity P-wave (km/s) = 4.33865 6.36556 5.44721
#
# Compressibility (1/GPa) = 0.05291696
#
# Stress axis : x y z
#
# Youngs Moduli (GPa) = 26.17813 25.36856 55.86158
#
# Poissons Ratio (x) = 0.22789 0.23578
# Poissons Ratio (y) = 0.23516 0.45235
# Poissons Ratio (z) = 0.11049 0.20543
#
# Static dielectric constant tensor:
#      x y z
#    x 3.554030 -0.023130 -0.348620 
#    y -0.023130 3.545390 -0.049910 
#    z -0.348620 -0.049910 4.162550 
# 
# 
# High freq. dielectric constant tensor:
#      x y z
#    x 1.791530 -0.000990 -0.025490 
#    y -0.000990 1.794250 -0.002060 
#    z -0.025490 -0.002060 1.828170 
# 
# From -- ./inp_files/416308.got.cif
#   From: 2010.06.25/outbox.cif.g09.slc.cpg/sg2_209_cif.got.tgz:416308.got - 2010.06.27 13:26:56.
