data_PCOD8043460
_publ_section_title
;
Structure prediction by ZEFSAII (Michael W. Deem and Ramdas Pophale) SiO2 
 PCOD8043460
Probable space group: P -1
;
_chemical_formula_sum "Si O2"
_cell_formula_units_Z 16
_cell_length_a 11.139517
_cell_length_b 8.887019
_cell_length_c 15.721628
_cell_angle_alpha 111.170874
_cell_angle_beta 128.076986
_cell_angle_gamma 39.573321
_cell_volume 759.996114
_symmetry_space_group_name_H-M "P -1"
_symmetry_group_IT_number 2
_symmetry_cell_setting 'triclinic'
loop_
_space_group_symop_operation_xyz
x,y,z
-x,-y,-z
loop_
_atom_site_type_symbol
_atom_site_label
_atom_site_fract_x
_atom_site_fract_y
_atom_site_fract_z
Si Si1 0.760130 0.017646 0.965389
Si Si2 0.377261 0.198253 0.719223
Si Si3 0.919273 0.286809 0.253148
Si Si4 0.802491 0.355269 0.024945
Si Si5 0.670638 0.156610 0.136832
Si Si6 0.444135 0.882732 0.402050
Si Si7 0.674448 0.391288 0.477010
Si Si8 0.204434 0.003770 0.658970
O O1 0.544175 0.088969 0.850743
O O2 0.716854 0.238557 0.967365
O O3 0.995962 0.771223 0.978880
O O4 0.788928 0.974446 0.070931
O O5 0.163230 0.489944 0.687025
O O6 0.528061 0.108289 0.683594
O O7 0.271971 0.103027 0.651487
O O8 0.773562 0.252353 0.216168
O O9 0.884814 0.347911 0.151134
O O10 0.182630 0.040818 0.338785
O O11 0.596964 0.626560 0.957412
O O12 0.708317 0.029554 0.214084
O O13 0.610029 0.607986 0.446949
O O14 0.500000 0.000000 0.500000
O O15 0.500000 0.500000 0.500000
O O16 0.931943 0.197510 0.585001
O O17 0.665089 0.253345 0.376530
#
# Coordination Sequence:
#
# PCOD8043460 Si02
#       8
#     2   2   2   2   2   2   2   2
#     4  10  20  36  64  93 132 167 210 266 313 381
#     4  12  23  42  64  97 135 165 210 272 322 379
#     4  11  21  39  68  95 126 164 216 271 317 375
#     4  10  19  36  62  97 126 166 217 259 316 381
#     4  11  21  39  63  96 125 174 214 256 320 387
#     4  12  26  42  70  98 124 167 219 273 327 374
#     4  11  25  49  67  92 129 172 221 268 319 387
#     4  11  27  42  66  94 133 174 215 262 324 388
#
# _framework density 21.052738999999999
#
# number of rings (size 3 to 8) (size 9 to 14) (size 15 to 20)
#    0.000    1.000    3.750    3.750    0.000    5.500 
#    0.000    0.625    0.000    0.000    0.000    0.000 
#    0.000    0.000    0.000    0.000    0.000    0.000 
#
# Total GULP energy -198487.335583 kJ/mol
# GULP energy per Si atom -12405.458474 kJ/mol
# Density = 2.100482 g / cm^3
# Si number density = 21.052739 Si / 1000 Ang^3
#
#
#
# Elastic Constant Matrix: (Units=GPa)
#
#
# Indices 1 2 3 4 5 6 
#
# 1 83.7562 34.5764 17.0921 4.5152 -6.3454 -10.7512
# 2 34.5764 104.7367 27.9827 8.2002 4.2434 -7.7546
# 3 17.0921 27.9827 77.1852 -2.7195 -5.5611 -5.7819
# 4 4.5152 8.2002 -2.7195 32.4419 -1.5126 3.0854
# 5 -6.3454 4.2434 -5.5611 -1.5126 31.1490 -0.6968
# 6 -10.7512 -7.7546 -5.7819 3.0854 -0.6968 35.7398
#
#
#
# Elastic Compliance Matrix: (Units=1/GPa)
#
#
# Indices 1 2 3 4 5 6 
#
# 1 0.014744 -0.004320 -0.001238 -0.001236 0.003389 0.003470
# 2 -0.004320 0.012454 -0.003839 -0.003120 -0.003392 0.000985
# 3 -0.001238 -0.003839 0.015011 0.002443 0.003093 0.001072
# 4 -0.001236 -0.003120 0.002443 0.032412 0.002107 -0.003411
# 5 0.003389 -0.003392 0.003093 0.002107 0.033939 0.001264
# 6 0.003470 0.000985 0.001072 -0.003411 0.001264 0.029730
#
#
# Mechanical properties :
#
#
# Convention : Reuss Voigt Hill
#
# Bulk Modulus (GPa) = 42.70789 47.22004 44.96397
# Shear Modulus (GPa) = 30.32297 32.26794 31.29545
#
# Velocity S-wave (km/s) = 3.79929 3.91924 3.85973
# Velocity P-wave (km/s) = 6.29097 6.55429 6.42398
#
# Compressibility (1/GPa) = 0.02341487
#
# Stress axis : x y z
#
# Youngs Moduli (GPa) = 67.82214 80.29352 66.61726
#
# Poissons Ratio (x) = 0.34689 0.08248
# Poissons Ratio (y) = 0.29301 0.25574
# Poissons Ratio (z) = 0.08398 0.30825
#
# Static dielectric constant tensor:
#      x y z
#    x 3.743710 -0.245520 -0.056570 
#    y -0.245520 3.877570 0.058040 
#    z -0.056570 0.058040 3.877350 
# 
# 
# High freq. dielectric constant tensor:
#      x y z
#    x 1.823210 -0.020600 0.000370 
#    y -0.020600 1.823550 0.004140 
#    z 0.000370 0.004140 1.830760 
# 
# From -- ./inp_files/348600.got.cif
#   From: 2010.06.25/outbox.cif.g09.slc.cpg/sg2_175_cif.got.tgz:348600.got - 2010.06.27 13:26:56.
