data_PCOD8043660
_publ_section_title
;
Structure prediction by ZEFSAII (Michael W. Deem and Ramdas Pophale) SiO2 
 PCOD8043660
Probable space group: P -1
;
_chemical_formula_sum "Si O2"
_cell_formula_units_Z 14
_cell_length_a 10.792378
_cell_length_b 11.834613
_cell_length_c 10.565379
_cell_angle_alpha 139.687468
_cell_angle_beta 33.346693
_cell_angle_gamma 134.427096
_cell_volume 472.316081
_symmetry_space_group_name_H-M "P -1"
_symmetry_group_IT_number 2
_symmetry_cell_setting 'triclinic'
loop_
_space_group_symop_operation_xyz
x,y,z
-x,-y,-z
loop_
_atom_site_type_symbol
_atom_site_label
_atom_site_fract_x
_atom_site_fract_y
_atom_site_fract_z
Si Si1 0.263712 0.741919 0.980067
Si Si2 0.770716 0.903887 0.804183
Si Si3 0.735554 0.643207 0.387697
Si Si4 0.277523 0.857971 0.334812
Si Si5 0.833773 0.818209 0.954179
Si Si6 0.543870 0.781362 0.420013
Si Si7 0.735341 0.435674 0.704383
O O1 0.390387 0.813138 0.065993
O O2 0.008645 0.672657 0.188968
O O3 0.290216 0.898645 0.989016
O O4 0.353218 0.571641 0.693291
O O5 0.652487 0.770790 0.676480
O O6 0.706166 0.831608 0.939823
O O7 0.045110 0.936290 0.576786
O O8 0.668885 0.689129 0.342850
O O9 0.204191 0.692741 0.346937
O O10 0.467630 0.014769 0.365050
O O11 0.926480 0.624953 0.694989
O O12 0.666319 0.784797 0.183873
O O13 0.000000 0.000000 0.000000
O O14 0.297834 0.665114 0.492044
O O15 0.500000 0.500000 0.000000
#
# Coordination Sequence:
#
# PCOD8043660 Si02
#       7
#     2   2   2   2   2   2   2
#     4  10  19  36  70 103 145 191 238 283 366 441
#     4  11  20  40  69 104 151 182 236 289 367 432
#     4  10  20  38  67 106 140 195 237 291 359 435
#     4  11  20  41  71 104 141 188 242 295 360 433
#     4  12  24  43  69 107 145 188 235 301 364 432
#     4  12  23  44  72 106 147 189 242 305 360 428
#     4  12  26  45  69 104 140 195 251 302 364 428
#
# _framework density 29.641165999999998
#
# number of rings (size 3 to 8) (size 9 to 14) (size 15 to 20)
#    0.000    0.857    5.714    2.571    0.000    2.286 
#    2.571    0.714    0.000    1.714    0.000    0.000 
#    0.000    0.000    0.000    0.000    0.000    0.000 
#
# Total GULP energy -173632.415902 kJ/mol
# GULP energy per Si atom -12402.315422 kJ/mol
# Density = 2.957370 g / cm^3
# Si number density = 29.641166 Si / 1000 Ang^3
#
#
#
# Elastic Constant Matrix: (Units=GPa)
#
#
# Indices 1 2 3 4 5 6 
#
# 1 194.0092 92.9776 79.0679 18.3366 29.9923 -16.7858
# 2 92.9776 188.3561 101.4823 59.1236 20.8678 4.8898
# 3 79.0679 101.4823 206.4275 36.9034 15.5096 -7.1149
# 4 18.3366 59.1236 36.9034 74.3579 -7.0206 0.5049
# 5 29.9923 20.8678 15.5096 -7.0206 50.6812 1.8043
# 6 -16.7858 4.8898 -7.1149 0.5049 1.8043 62.6291
#
#
#
# Elastic Compliance Matrix: (Units=1/GPa)
#
#
# Indices 1 2 3 4 5 6 
#
# 1 0.007742 -0.003181 -0.001287 0.000977 -0.002823 0.002251
# 2 -0.003181 0.010793 -0.002771 -0.006652 -0.002569 -0.001882
# 3 -0.001287 -0.002771 0.006921 -0.000954 -0.000372 0.000676
# 4 0.000977 -0.006652 -0.000954 0.019453 0.005135 0.000368
# 5 -0.002823 -0.002569 -0.000372 0.005135 0.023331 -0.001312
# 6 0.002251 -0.001882 0.000676 0.000368 -0.001312 0.016829
#
#
# Mechanical properties :
#
#
# Convention : Reuss Voigt Hill
#
# Bulk Modulus (GPa) = 91.06787 126.20538 108.63663
# Shear Modulus (GPa) = 48.44704 58.55131 53.49917
#
# Velocity S-wave (km/s) = 4.04722 4.44930 4.25301
# Velocity P-wave (km/s) = 7.25466 8.31055 7.80049
#
# Compressibility (1/GPa) = 0.01098082
#
# Stress axis : x y z
#
# Youngs Moduli (GPa) = 129.16771 92.64908 144.48655
#
# Poissons Ratio (x) = 0.29468 0.18591
# Poissons Ratio (y) = 0.41083 0.40030
# Poissons Ratio (z) = 0.16620 0.25669
#
# Static dielectric constant tensor:
#      x y z
#    x 5.143130 -0.686160 -0.633560 
#    y -0.686160 3.741650 -0.838160 
#    z -0.633560 -0.838160 5.923370 
# 
# 
# High freq. dielectric constant tensor:
#      x y z
#    x 2.234340 0.035790 -0.013270 
#    y 0.035790 2.247660 -0.009640 
#    z -0.013270 -0.009640 2.264200 
# 
# From -- ./inp_files/424427.got.cif
#   From: 2010.06.25/outbox.cif.g09.slc.cpg/sg2_213_cif.got.tgz:424427.got - 2010.06.27 13:26:56.
