data_PCOD8043266
_publ_section_title
;
Structure prediction by ZEFSAII (Michael W. Deem and Ramdas Pophale) SiO2 
 PCOD8043266
Probable space group: P -1
;
_chemical_formula_sum "Si O2"
_cell_formula_units_Z 14
_cell_length_a 11.966560
_cell_length_b 9.467331
_cell_length_c 8.684322
_cell_angle_alpha 70.914277
_cell_angle_beta 100.091210
_cell_angle_gamma 130.871360
_cell_volume 702.044656
_symmetry_space_group_name_H-M "P -1"
_symmetry_group_IT_number 2
_symmetry_cell_setting 'triclinic'
loop_
_space_group_symop_operation_xyz
x,y,z
-x,-y,-z
loop_
_atom_site_type_symbol
_atom_site_label
_atom_site_fract_x
_atom_site_fract_y
_atom_site_fract_z
Si Si1 0.868707 0.796297 0.970738
Si Si2 0.003044 0.654357 0.847189
Si Si3 0.310620 0.831362 0.844971
Si Si4 0.412483 0.289059 0.130199
Si Si5 0.630807 0.076466 0.831634
Si Si6 0.139677 0.559303 0.419058
Si Si7 0.302324 0.547183 0.729192
O O1 0.753665 0.797263 0.838292
O O2 0.936013 0.727967 0.904531
O O3 0.780147 0.665781 0.145691
O O4 0.000000 0.000000 0.000000
O O5 0.176587 0.835628 0.783385
O O6 0.911650 0.570359 0.698195
O O7 0.000000 0.500000 0.000000
O O8 0.265095 0.645383 0.807428
O O9 0.474382 0.022710 0.762590
O O10 0.317665 0.803529 0.039851
O O11 0.519001 0.330021 0.284501
O O12 0.394906 0.123883 0.079990
O O13 0.500000 0.500000 0.000000
O O14 0.754354 0.211985 0.683200
O O15 0.236811 0.526903 0.553785
O O16 0.000000 0.500000 0.500000
#
# Coordination Sequence:
#
# PCOD8043266 Si02
#       7
#     2   2   2   2   2   2   2
#     4  11  22  38  67  91 120 167 213 256 303 373
#     4  12  21  39  63  92 123 159 213 265 304 362
#     4  10  19  36  60  90 120 149 213 262 295 364
#     4   9  21  38  59  85 124 165 207 248 308 373
#     4  10  21  36  63  93 118 161 212 257 312 367
#     4  12  23  37  64  95 130 159 204 268 320 362
#     4  10  21  40  57  91 127 162 202 255 320 364
#
# _framework density 19.941751
#
# number of rings (size 3 to 8) (size 9 to 14) (size 15 to 20)
#    0.000    1.429    4.286    0.857    2.000    2.286 
#    0.000    1.429    0.000    0.000    0.000    0.000 
#    0.000    0.000    0.000    0.000    0.000    0.000 
#
# Total GULP energy -173436.024461 kJ/mol
# GULP energy per Si atom -12388.287461 kJ/mol
# Density = 1.989636 g / cm^3
# Si number density = 19.941751 Si / 1000 Ang^3
#
#
#
# Elastic Constant Matrix: (Units=GPa)
#
#
# Indices 1 2 3 4 5 6 
#
# 1 179.1296 67.9852 50.3588 14.8983 11.5831 27.4691
# 2 67.9852 108.7261 57.7633 20.9273 0.4264 19.3457
# 3 50.3588 57.7633 91.0630 17.0719 8.4818 8.7735
# 4 14.8983 20.9273 17.0719 30.4092 15.3421 -0.6635
# 5 11.5831 0.4264 8.4818 15.3421 32.6164 5.2844
# 6 27.4691 19.3457 8.7735 -0.6635 5.2844 40.0887
#
#
#
# Elastic Compliance Matrix: (Units=1/GPa)
#
#
# Indices 1 2 3 4 5 6 
#
# 1 0.008013 -0.003642 -0.001732 0.000551 -0.002110 -0.003066
# 2 -0.003642 0.019293 -0.008273 -0.011975 0.009879 -0.006505
# 3 -0.001732 -0.008273 0.017637 -0.001614 -0.003386 0.001739
# 4 0.000551 -0.011975 -0.001614 0.055906 -0.027588 0.010317
# 5 -0.002110 0.009879 -0.003386 -0.027588 0.046625 -0.009183
# 6 -0.003066 -0.006505 0.001739 0.010317 -0.009183 0.031186
#
#
# Mechanical properties :
#
#
# Convention : Reuss Voigt Hill
#
# Bulk Modulus (GPa) = 56.65847 81.23703 68.94775
# Shear Modulus (GPa) = 23.60317 34.14361 28.87339
#
# Velocity S-wave (km/s) = 3.44409 4.14232 3.80924
# Velocity P-wave (km/s) = 6.65502 7.98148 7.34824
#
# Compressibility (1/GPa) = 0.01764961
#
# Stress axis : x y z
#
# Youngs Moduli (GPa) = 124.80285 51.83130 56.69847
#
# Poissons Ratio (x) = 0.18877 0.09821
# Poissons Ratio (y) = 0.45454 0.46904
# Poissons Ratio (z) = 0.21617 0.42878
#
# Static dielectric constant tensor:
#      x y z
#    x 4.067280 0.581390 0.262500 
#    y 0.581390 3.710040 -0.011940 
#    z 0.262500 -0.011940 3.323050 
# 
# 
# High freq. dielectric constant tensor:
#      x y z
#    x 1.794010 0.031440 0.004210 
#    y 0.031440 1.788300 0.014780 
#    z 0.004210 0.014780 1.734930 
# 
# From -- ./inp_files/154030.got.cif
#   From: 2010.06.25/outbox.cif.g09.slc.cpg/sg2_78_cif.got.tgz:154030.got - 2010.06.27 13:26:56.
