data_PCOD8043758
_publ_section_title
;
Structure prediction by ZEFSAII (Michael W. Deem and Ramdas Pophale) SiO2 
 PCOD8043758
Probable space group: P -1
;
_chemical_formula_sum "Si O2"
_cell_formula_units_Z 16
_cell_length_a 6.815201
_cell_length_b 14.898668
_cell_length_c 14.843311
_cell_angle_alpha 37.596781
_cell_angle_beta 69.149662
_cell_angle_gamma 71.039762
_cell_volume 856.862035
_symmetry_space_group_name_H-M "P -1"
_symmetry_group_IT_number 2
_symmetry_cell_setting 'triclinic'
loop_
_space_group_symop_operation_xyz
x,y,z
-x,-y,-z
loop_
_atom_site_type_symbol
_atom_site_label
_atom_site_fract_x
_atom_site_fract_y
_atom_site_fract_z
Si Si1 0.262365 0.428226 0.686874
Si Si2 0.770143 0.050359 0.690876
Si Si3 0.541982 0.196316 0.083909
Si Si4 0.298713 0.706566 0.344233
Si Si5 0.250971 0.958469 0.661579
Si Si6 0.401429 0.824427 0.563712
Si Si7 0.462975 0.492005 0.783630
Si Si8 0.839478 0.306108 0.814365
O O1 0.211173 0.569524 0.519888
O O2 0.462469 0.328256 0.698443
O O3 0.289176 0.482320 0.741631
O O4 0.070907 0.324300 0.798741
O O5 0.707848 0.150516 0.706541
O O6 0.722453 0.142195 0.534853
O O7 0.634797 0.910155 0.830019
O O8 0.014046 0.997181 0.699403
O O9 0.633908 0.161550 0.195185
O O10 0.434903 0.364876 0.964820
O O11 0.731776 0.182074 0.990431
O O12 0.150734 0.741750 0.253730
O O13 0.254278 0.889752 0.616182
O O14 0.372926 0.107251 0.525961
O O15 0.442627 0.649666 0.709174
O O16 0.694636 0.461740 0.723862
#
# Coordination Sequence:
#
# PCOD8043758 Si02
#       8
#     2   2   2   2   2   2   2   2
#     4  10  19  37  58  85 119 147 194 242 277 328
#     4  11  22  39  60  84 119 153 191 231 298 332
#     4   9  23  39  55  88 119 153 189 236 276 357
#     4  10  21  34  58  89 112 152 193 240 277 337
#     4  10  23  39  62  83 120 149 188 240 291 342
#     4  10  21  41  61  90 108 147 200 242 280 342
#     4   9  20  37  61  83 115 147 192 238 280 335
#     4   9  21  36  57  84 118 151 189 229 285 337
#
# _framework density 18.672784
#
# number of rings (size 3 to 8) (size 9 to 14) (size 15 to 20)
#    0.750    1.500    1.250    0.750    3.500    3.000 
#    0.000    1.875    0.000    0.000    0.000    0.000 
#    0.000    0.000    0.000    0.000    0.000    0.000 
#
# Total GULP energy -198379.142260 kJ/mol
# GULP energy per Si atom -12398.696391 kJ/mol
# Density = 1.863028 g / cm^3
# Si number density = 18.672784 Si / 1000 Ang^3
#
#
#
# Elastic Constant Matrix: (Units=GPa)
#
#
# Indices 1 2 3 4 5 6 
#
# 1 97.4810 34.1132 32.2685 -4.2608 -12.1749 7.8960
# 2 34.1132 96.7683 39.1285 -16.2246 4.2916 14.1785
# 3 32.2685 39.1285 100.7342 -15.9614 -8.1662 4.9423
# 4 -4.2608 -16.2246 -15.9614 21.6296 0.8796 1.0785
# 5 -12.1749 4.2916 -8.1662 0.8796 18.6922 4.8905
# 6 7.8960 14.1785 4.9423 1.0785 4.8905 19.7864
#
#
#
# Elastic Compliance Matrix: (Units=1/GPa)
#
#
# Indices 1 2 3 4 5 6 
#
# 1 0.014025 -0.004265 -0.002117 -0.002201 0.010465 -0.004478
# 2 -0.004265 0.016340 -0.003620 0.009408 -0.006456 -0.008020
# 3 -0.002117 -0.003620 0.013616 0.006776 0.005526 -0.001698
# 4 -0.002201 0.009408 0.006776 0.058409 -0.000612 -0.010588
# 5 0.010465 -0.006456 0.005526 -0.000612 0.068932 -0.017935
# 6 -0.004478 -0.008020 -0.001698 -0.010588 -0.017935 0.063508
#
#
# Mechanical properties :
#
#
# Convention : Reuss Voigt Hill
#
# Bulk Modulus (GPa) = 41.70521 56.22264 48.96393
# Shear Modulus (GPa) = 19.02394 24.65319 21.83857
#
# Velocity S-wave (km/s) = 3.19534 3.63750 3.42356
# Velocity P-wave (km/s) = 5.99973 6.91496 6.47354
#
# Compressibility (1/GPa) = 0.02397782
#
# Stress axis : x y z
#
# Youngs Moduli (GPa) = 71.29967 61.19956 73.44247
#
# Poissons Ratio (x) = 0.26104 0.15545
# Poissons Ratio (y) = 0.30412 0.26585
# Poissons Ratio (z) = 0.15091 0.22153
#
# Static dielectric constant tensor:
#      x y z
#    x 3.305120 0.097310 0.047390 
#    y 0.097310 3.231890 0.086190 
#    z 0.047390 0.086190 3.410270 
# 
# 
# High freq. dielectric constant tensor:
#      x y z
#    x 1.724610 0.012340 0.003560 
#    y 0.012340 1.712410 0.006150 
#    z 0.003560 0.006150 1.725010 
# 
# From -- ./inp_files/445353.got.cif
#   From: 2010.06.25/outbox.cif.g09.slc.cpg/sg2_223_cif.got.tgz:445353.got - 2010.06.27 13:26:56.
