data_PCOD8043956
_publ_section_title
;
Structure prediction by ZEFSAII (Michael W. Deem and Ramdas Pophale) SiO2 
 PCOD8043956
Probable space group: P -1
;
_chemical_formula_sum "Si O2"
_cell_formula_units_Z 12
_cell_length_a 15.550069
_cell_length_b 8.814387
_cell_length_c 15.622164
_cell_angle_alpha 61.039565
_cell_angle_beta 18.928300
_cell_angle_gamma 61.410287
_cell_volume 606.141721
_symmetry_space_group_name_H-M "P -1"
_symmetry_group_IT_number 2
_symmetry_cell_setting 'triclinic'
loop_
_space_group_symop_operation_xyz
x,y,z
-x,-y,-z
loop_
_atom_site_type_symbol
_atom_site_label
_atom_site_fract_x
_atom_site_fract_y
_atom_site_fract_z
Si Si1 0.874657 0.964511 0.432115
Si Si2 0.356031 0.461947 0.954275
Si Si3 0.413364 0.063374 0.971821
Si Si4 0.794892 0.302183 0.316352
Si Si5 0.895666 0.567218 0.488697
Si Si6 0.690909 0.492406 0.197606
O O1 0.854658 0.773895 0.465142
O O2 0.641484 0.005694 0.706893
O O3 0.851135 0.097921 0.338136
O O4 0.152084 0.970278 0.217903
O O5 0.354128 0.268668 0.971989
O O6 0.614235 0.488496 0.759966
O O7 0.344097 0.579400 0.846733
O O8 0.096544 0.499623 0.244820
O O9 0.500000 0.000000 0.000000
O O10 0.717231 0.328119 0.282350
O O11 0.559321 0.378210 0.577736
O O12 0.050510 0.401565 0.070756
O O13 0.000000 0.500000 0.500000
#
# Coordination Sequence:
#
# PCOD8043956 Si02
#       6
#     2   2   2   2   2   2
#     4  12  22  41  60  89 120 161 200 244 306 354
#     4  12  22  41  61  89 117 160 204 245 300 355
#     4  12  23  38  63  89 116 153 213 257 284 348
#     4  10  19  37  61  92 117 152 194 253 306 350
#     4  12  26  41  58  85 129 166 193 243 311 359
#     4  10  20  36  63  90 119 148 198 254 305 346
#
# _framework density 19.797350000000002
#
# number of rings (size 3 to 8) (size 9 to 14) (size 15 to 20)
#    0.000    0.667    3.333    6.000    0.000    0.000 
#    0.000    1.667    0.000    0.000    0.000    0.000 
#    0.000    0.000    0.000    0.000    0.000    0.000 
#
# Total GULP energy -148847.669887 kJ/mol
# GULP energy per Si atom -12403.972491 kJ/mol
# Density = 1.975229 g / cm^3
# Si number density = 19.797350 Si / 1000 Ang^3
#
#
#
# Elastic Constant Matrix: (Units=GPa)
#
#
# Indices 1 2 3 4 5 6 
#
# 1 97.7750 27.7787 3.4417 21.4083 36.8001 -12.2323
# 2 27.7787 145.2570 34.6492 81.2763 98.4354 27.2622
# 3 3.4417 34.6492 117.2931 26.7521 17.8617 13.4733
# 4 21.4083 81.2763 26.7521 102.4394 92.8339 33.5347
# 5 36.8001 98.4354 17.8617 92.8339 157.7047 31.1886
# 6 -12.2323 27.2622 13.4733 33.5347 31.1886 53.0112
#
#
#
# Elastic Compliance Matrix: (Units=1/GPa)
#
#
# Indices 1 2 3 4 5 6 
#
# 1 0.012525 -0.000872 -0.000056 -0.001332 -0.002736 0.005805
# 2 -0.000872 0.014303 -0.002021 -0.006204 -0.004783 -0.000305
# 3 -0.000056 -0.002021 0.009445 -0.001879 0.001525 -0.001083
# 4 -0.001332 -0.006204 -0.001879 0.027092 -0.009990 -0.007901
# 5 -0.002736 -0.004783 0.001525 -0.009990 0.016000 -0.001653
# 6 0.005805 -0.000305 -0.001083 -0.007901 -0.001653 0.026606
#
#
# Mechanical properties :
#
#
# Convention : Reuss Voigt Hill
#
# Bulk Modulus (GPa) = 32.92327 54.67382 43.79855
# Shear Modulus (GPa) = 40.98554 82.26143 61.62349
#
# Velocity S-wave (km/s) = 4.55494 6.45306 5.58522
# Velocity P-wave (km/s) = 6.65804 9.12136 7.98526
#
# Compressibility (1/GPa) = 0.03037365
#
# Stress axis : x y z
#
# Youngs Moduli (GPa) = 79.84068 69.91592 105.87562
#
# Poissons Ratio (x) = 0.06097 0.00596
# Poissons Ratio (y) = 0.06962 0.21401
# Poissons Ratio (z) = 0.00450 0.14132
#
# Static dielectric constant tensor:
#      x y z
#    x 3.979030 -0.373370 0.073160 
#    y -0.373370 3.667400 -0.037540 
#    z 0.073160 -0.037540 3.834260 
# 
# 
# High freq. dielectric constant tensor:
#      x y z
#    x 1.782900 -0.021650 0.001040 
#    y -0.021650 1.757620 0.003170 
#    z 0.001040 0.003170 1.799160 
# 
# From -- ./inp_files/32227.got.cif
#   From: 2010.06.25/outbox.cif.g09.slc.cpg/sg2_17_cif.got.tgz:32227.got - 2010.06.27 13:26:56.
