data_PCOD8043453
_publ_section_title
;
Structure prediction by ZEFSAII (Michael W. Deem and Ramdas Pophale) SiO2 
 PCOD8043453
Probable space group: P -1
;
_chemical_formula_sum "Si O2"
_cell_formula_units_Z 14
_cell_length_a 5.355773
_cell_length_b 13.208402
_cell_length_c 15.728030
_cell_angle_alpha 48.824730
_cell_angle_beta 83.544980
_cell_angle_gamma 51.468815
_cell_volume 565.224629
_symmetry_space_group_name_H-M "P -1"
_symmetry_group_IT_number 2
_symmetry_cell_setting 'triclinic'
loop_
_space_group_symop_operation_xyz
x,y,z
-x,-y,-z
loop_
_atom_site_type_symbol
_atom_site_label
_atom_site_fract_x
_atom_site_fract_y
_atom_site_fract_z
Si Si1 0.255828 0.512586 0.726484
Si Si2 0.387785 0.893384 0.086227
Si Si3 0.564839 0.815565 0.698347
Si Si4 0.392633 0.493537 0.145426
Si Si5 0.373622 0.880280 0.295245
Si Si6 0.006488 0.227666 0.557971
Si Si7 0.003345 0.291091 0.109291
O O1 0.282390 0.339793 0.825862
O O2 0.627074 0.422751 0.809506
O O3 0.920415 0.708334 0.685680
O O4 0.237920 0.569810 0.598326
O O5 0.376363 0.883237 0.192812
O O6 0.500000 0.000000 0.000000
O O7 0.000000 0.000000 0.000000
O O8 0.433006 0.721583 0.724517
O O9 0.654215 0.772982 0.820141
O O10 0.256377 0.052890 0.573247
O O11 0.649020 0.472254 0.079304
O O12 0.004321 0.648807 0.021389
O O13 0.762765 0.777511 0.378422
O O14 0.270804 0.769947 0.389482
O O15 0.057397 0.108103 0.211521
#
# Coordination Sequence:
#
# PCOD8043453 Si02
#       7
#     2   2   2   2   2   2   2
#     4  11  27  41  68 102 138 188 228 285 342 412
#     4  12  29  51  75 103 136 179 235 293 348 403
#     4  10  21  39  64 103 140 181 223 285 347 411
#     4  10  19  36  62  94 137 173 226 276 348 399
#     4  11  24  45  70  97 140 184 231 285 334 405
#     4  11  25  45  70 104 141 184 232 275 343 417
#     4   9  19  35  59  97 129 179 224 281 339 404
#
# _framework density 24.768913000000001
#
# number of rings (size 3 to 8) (size 9 to 14) (size 15 to 20)
#    0.000    1.429    1.429    2.571    6.000    1.714 
#    0.000    0.000    0.000    0.000    0.000    0.000 
#    0.000    0.000    0.000    0.000    0.000    0.000 
#
# Total GULP energy -173435.635526 kJ/mol
# GULP energy per Si atom -12388.259680 kJ/mol
# Density = 2.471254 g / cm^3
# Si number density = 24.768913 Si / 1000 Ang^3
#
#
#
# Elastic Constant Matrix: (Units=GPa)
#
#
# Indices 1 2 3 4 5 6 
#
# 1 136.1673 36.6336 66.1531 13.2675 -14.6747 35.6361
# 2 36.6336 70.9790 54.9472 16.2150 2.6133 24.7848
# 3 66.1531 54.9472 167.5399 20.4296 -7.8658 29.1679
# 4 13.2675 16.2150 20.4296 40.1444 9.1253 2.2330
# 5 -14.6747 2.6133 -7.8658 9.1253 34.0357 2.8668
# 6 35.6361 24.7848 29.1679 2.2330 2.8668 37.6428
#
#
#
# Elastic Compliance Matrix: (Units=1/GPa)
#
#
# Indices 1 2 3 4 5 6 
#
# 1 0.012167 -0.000633 -0.002153 -0.003627 0.006588 -0.009720
# 2 -0.000633 0.023230 -0.004838 -0.005970 -0.000686 -0.010541
# 3 -0.002153 -0.004838 0.009142 -0.002418 0.002364 -0.001896
# 4 -0.003627 -0.005970 -0.002418 0.031767 -0.010870 0.008181
# 5 0.006588 -0.000686 0.002364 -0.010870 0.036557 -0.009756
# 6 -0.009720 -0.010541 -0.001896 0.008181 -0.009756 0.044435
#
#
# Mechanical properties :
#
#
# Convention : Reuss Voigt Hill
#
# Bulk Modulus (GPa) = 34.13954 76.68379 55.41166
# Shear Modulus (GPa) = 27.42594 36.82808 32.12701
#
# Velocity S-wave (km/s) = 3.33118 3.86017 3.60539
# Velocity P-wave (km/s) = 5.34872 7.13406 6.30491
#
# Compressibility (1/GPa) = 0.02929155
#
# Stress axis : x y z
#
# Youngs Moduli (GPa) = 82.18675 43.04715 109.39118
#
# Poissons Ratio (x) = 0.02725 0.23550
# Poissons Ratio (y) = 0.05203 0.52923
# Poissons Ratio (z) = 0.17693 0.20826
#
# Static dielectric constant tensor:
#      x y z
#    x 4.309570 0.308710 0.296440 
#    y 0.308710 4.534650 -0.133940 
#    z 0.296440 -0.133940 4.704680 
# 
# 
# High freq. dielectric constant tensor:
#      x y z
#    x 1.975520 0.024060 0.003780 
#    y 0.024060 1.980870 0.003980 
#    z 0.003780 0.003980 1.990060 
# 
# From -- ./inp_files/81165.got.cif
#   From: 2010.06.25/outbox.cif.g09.slc.cpg/sg2_41_cif.got.tgz:81165.got - 2010.06.27 13:26:56.
