data_PCOD8043444
_publ_section_title
;
Structure prediction by ZEFSAII (Michael W. Deem and Ramdas Pophale) SiO2 
 PCOD8043444
Probable space group: P -1
;
_chemical_formula_sum "Si O2"
_cell_formula_units_Z 16
_cell_length_a 16.016690
_cell_length_b 11.717906
_cell_length_c 13.195792
_cell_angle_alpha 85.709954
_cell_angle_beta 54.277219
_cell_angle_gamma 39.535555
_cell_volume 879.391209
_symmetry_space_group_name_H-M "P -1"
_symmetry_group_IT_number 2
_symmetry_cell_setting 'triclinic'
loop_
_space_group_symop_operation_xyz
x,y,z
-x,-y,-z
loop_
_atom_site_type_symbol
_atom_site_label
_atom_site_fract_x
_atom_site_fract_y
_atom_site_fract_z
Si Si1 0.021649 0.237412 0.778771
Si Si2 0.625320 0.289845 0.500858
Si Si3 0.851225 0.907588 0.675616
Si Si4 0.371001 0.032322 0.024808
Si Si5 0.404379 0.366776 0.819477
Si Si6 0.134911 0.418452 0.002682
Si Si7 0.789238 0.449225 0.727849
Si Si8 0.944754 0.053316 0.652947
O O1 0.958877 0.333228 0.701131
O O2 0.805193 0.382241 0.973789
O O3 0.054537 0.323697 0.810470
O O4 0.257173 0.927486 0.635876
O O5 0.500000 0.500000 0.500000
O O6 0.432265 0.426926 0.703001
O O7 0.821167 0.161822 0.433422
O O8 0.093991 0.651604 0.458757
O O9 0.644170 0.121021 0.727120
O O10 0.844281 0.026997 0.745894
O O11 0.826206 0.823874 0.771893
O O12 0.542130 0.759629 0.885675
O O13 0.253085 0.199296 0.997144
O O14 0.500000 0.000000 0.000000
O O15 0.336409 0.306924 0.831097
O O16 0.000000 0.500000 0.000000
O O17 0.762261 0.340354 0.782155
O O18 0.000000 0.000000 0.500000
#
# Coordination Sequence:
#
# PCOD8043444 Si02
#       8
#     2   2   2   2   2   2   2   2
#     4   9  19  39  61  82 116 156 198 233 299 351
#     4  11  22  39  63  86 118 156 197 238 293 365
#     4  11  20  37  62  92 120 151 196 249 297 342
#     4  12  21  38  61  90 113 156 208 242 282 356
#     4  10  19  38  64  77 121 159 186 236 316 330
#     4  10  23  43  58  82 125 156 197 249 288 348
#     4  10  19  36  62  93 114 151 200 243 295 348
#     4   9  19  37  58  88 121 146 188 250 288 347
#
# _framework density 18.194405
#
# number of rings (size 3 to 8) (size 9 to 14) (size 15 to 20)
#    0.750    1.000    7.500    0.000    0.000    2.500 
#    6.750    0.625    0.000    0.000    0.000    0.000 
#    0.000    0.000    0.000    0.000    0.000    0.000 
#
# Total GULP energy -198262.534166 kJ/mol
# GULP energy per Si atom -12391.408385 kJ/mol
# Density = 1.815299 g / cm^3
# Si number density = 18.194405 Si / 1000 Ang^3
#
#
#
# Elastic Constant Matrix: (Units=GPa)
#
#
# Indices 1 2 3 4 5 6 
#
# 1 135.0958 52.3051 24.8749 -5.3000 6.7134 2.1200
# 2 52.3051 143.0367 39.1332 -8.1853 4.4353 -0.7757
# 3 24.8749 39.1332 82.6760 -4.6567 3.3187 10.3446
# 4 -5.3000 -8.1853 -4.6567 33.1341 12.5258 -1.7366
# 5 6.7134 4.4353 3.3187 12.5258 29.4019 -2.2916
# 6 2.1200 -0.7757 10.3446 -1.7366 -2.2916 25.4889
#
#
#
# Elastic Compliance Matrix: (Units=1/GPa)
#
#
# Indices 1 2 3 4 5 6 
#
# 1 0.008853 -0.002791 -0.001127 0.001329 -0.002075 -0.000460
# 2 -0.002791 0.009137 -0.003600 0.001761 -0.000928 0.002008
# 3 -0.001127 -0.003600 0.015081 0.001488 -0.002020 -0.006217
# 4 0.001329 0.001761 0.001488 0.037338 -0.016613 0.000390
# 5 -0.002075 -0.000928 -0.002020 -0.016613 0.042214 0.003628
# 6 -0.000460 0.002008 -0.006217 0.000390 0.003628 0.042208
#
#
# Mechanical properties :
#
#
# Convention : Reuss Voigt Hill
#
# Bulk Modulus (GPa) = 55.44613 65.93719 60.69166
# Shear Modulus (GPa) = 28.42882 33.90466 31.16674
#
# Velocity S-wave (km/s) = 3.95714 4.32147 4.14331
# Velocity P-wave (km/s) = 7.17071 7.82427 7.50461
#
# Compressibility (1/GPa) = 0.01803552
#
# Stress axis : x y z
#
# Youngs Moduli (GPa) = 112.95998 109.44277 66.30805
#
# Poissons Ratio (x) = 0.30546 0.07471
# Poissons Ratio (y) = 0.31528 0.23870
# Poissons Ratio (z) = 0.12728 0.39399
#
# Static dielectric constant tensor:
#      x y z
#    x 2.732930 -0.131230 0.019100 
#    y -0.131230 3.632010 0.137590 
#    z 0.019100 0.137590 3.686840 
# 
# 
# High freq. dielectric constant tensor:
#      x y z
#    x 1.702100 0.012240 0.009890 
#    y 0.012240 1.691560 -0.006220 
#    z 0.009890 -0.006220 1.697110 
# 
# From -- ./inp_files/273060.got.cif
#   From: 2010.06.25/outbox.cif.g09.slc.cpg/sg2_137_cif.got.tgz:273060.got - 2010.06.27 13:26:56.
