data_PCOD8043979
_publ_section_title
;
Structure prediction by ZEFSAII (Michael W. Deem and Ramdas Pophale) SiO2 
 PCOD8043979
Probable space group: P -1
;
_chemical_formula_sum "Si O2"
_cell_formula_units_Z 16
_cell_length_a 17.827470
_cell_length_b 9.238591
_cell_length_c 11.676074
_cell_angle_alpha 123.286034
_cell_angle_beta 30.490195
_cell_angle_gamma 111.350585
_cell_volume 788.344453
_symmetry_space_group_name_H-M "P -1"
_symmetry_group_IT_number 2
_symmetry_cell_setting 'triclinic'
loop_
_space_group_symop_operation_xyz
x,y,z
-x,-y,-z
loop_
_atom_site_type_symbol
_atom_site_label
_atom_site_fract_x
_atom_site_fract_y
_atom_site_fract_z
Si Si1 0.107135 0.853424 0.060804
Si Si2 0.154157 0.690765 0.686948
Si Si3 0.367499 0.659927 0.792313
Si Si4 0.546444 0.804567 0.797855
Si Si5 0.218123 0.494038 0.115431
Si Si6 0.996181 0.752620 0.691781
Si Si7 0.511993 0.474676 0.840408
Si Si8 0.107639 0.363181 0.711935
O O1 0.978920 0.787776 0.275443
O O2 0.080808 0.802623 0.942303
O O3 0.273689 0.760199 0.851109
O O4 0.081036 0.064980 0.193546
O O5 0.086242 0.789145 0.702400
O O6 0.334003 0.675768 0.454887
O O7 0.130450 0.487381 0.628677
O O8 0.500000 0.500000 0.500000
O O9 0.444513 0.799935 0.816794
O O10 0.253934 0.583336 0.989274
O O11 0.504460 0.668425 0.882959
O O12 0.726396 0.739624 0.499754
O O13 0.500000 0.000000 0.000000
O O14 0.112229 0.639698 0.399536
O O15 0.135018 0.338273 0.131714
O O16 0.374155 0.403911 0.938710
O O17 0.500000 0.500000 0.000000
O O18 0.000000 0.500000 0.000000
#
# Coordination Sequence:
#
# PCOD8043979 Si02
#       8
#     2   2   2   2   2   2   2   2
#     4  11  23  38  64  94 122 162 213 254 309 372
#     4  10  20  40  61  90 121 165 204 253 312 380
#     4  11  23  45  67  88 129 171 209 258 322 387
#     4  10  23  38  61  96 125 154 210 269 312 363
#     4  10  23  41  61  88 126 169 204 250 326 368
#     4  11  23  39  60  93 128 159 206 264 307 373
#     4  10  19  37  62  82 117 162 204 241 311 374
#     4   9  19  37  62  90 124 164 207 249 316 384
#
# _framework density 20.295696
#
# number of rings (size 3 to 8) (size 9 to 14) (size 15 to 20)
#    0.000    1.750    1.250    4.125    3.500    2.500 
#    2.250    3.750    0.000    0.000    0.000    0.000 
#    0.000    0.000    0.000    0.000    0.000    0.000 
#
# Total GULP energy -198360.057793 kJ/mol
# GULP energy per Si atom -12397.503612 kJ/mol
# Density = 2.024950 g / cm^3
# Si number density = 20.295696 Si / 1000 Ang^3
#
#
#
# Elastic Constant Matrix: (Units=GPa)
#
#
# Indices 1 2 3 4 5 6 
#
# 1 106.0809 46.2864 36.6279 7.7897 -11.8372 -3.5483
# 2 46.2864 73.7219 47.4178 5.5124 -19.2995 10.3027
# 3 36.6279 47.4178 109.9422 -5.2696 -19.0877 4.9957
# 4 7.7897 5.5124 -5.2696 23.3751 -4.2640 -0.2108
# 5 -11.8372 -19.2995 -19.0877 -4.2640 36.3561 1.1174
# 6 -3.5483 10.3027 4.9957 -0.2108 1.1174 30.8336
#
#
#
# Elastic Compliance Matrix: (Units=1/GPa)
#
#
# Indices 1 2 3 4 5 6 
#
# 1 0.013921 -0.008499 -0.001569 -0.003187 -0.001322 0.004722
# 2 -0.008499 0.027201 -0.007346 -0.003928 0.007637 -0.009181
# 3 -0.001569 -0.007346 0.013677 0.005971 0.003472 -0.000027
# 4 -0.003187 -0.003928 0.005971 0.047126 0.005536 0.000100
# 5 -0.001322 0.007637 0.003472 0.005536 0.033738 -0.004451
# 6 0.004722 -0.009181 -0.000027 0.000100 -0.004451 0.036210
#
#
# Mechanical properties :
#
#
# Convention : Reuss Voigt Hill
#
# Bulk Modulus (GPa) = 50.06995 61.15658 55.61327
# Shear Modulus (GPa) = 23.43478 28.74049 26.08764
#
# Velocity S-wave (km/s) = 3.40173 3.76718 3.58911
# Velocity P-wave (km/s) = 6.33662 7.00859 6.68106
#
# Compressibility (1/GPa) = 0.01997206
#
# Stress axis : x y z
#
# Youngs Moduli (GPa) = 71.83147 36.76309 73.11671
#
# Poissons Ratio (x) = 0.31245 0.11474
# Poissons Ratio (y) = 0.61049 0.53708
# Poissons Ratio (z) = 0.11273 0.27004
#
# Static dielectric constant tensor:
#      x y z
#    x 3.900670 0.017800 0.064210 
#    y 0.017800 3.837160 -0.357440 
#    z 0.064210 -0.357440 3.912110 
# 
# 
# High freq. dielectric constant tensor:
#      x y z
#    x 1.793700 -0.002170 -0.012830 
#    y -0.002170 1.780660 -0.012490 
#    z -0.012830 -0.012490 1.800440 
# 
# From -- ./inp_files/223813.got.cif
#   From: 2010.06.25/outbox.cif.g09.slc.cpg/sg2_112_cif.got.tgz:223813.got - 2010.06.27 13:26:56.
