data_PCOD8043641
_publ_section_title
;
Structure prediction by ZEFSAII (Michael W. Deem and Ramdas Pophale) SiO2 
 PCOD8043641
Probable space group: P -1
;
_chemical_formula_sum "Si O2"
_cell_formula_units_Z 14
_cell_length_a 19.313668
_cell_length_b 8.460222
_cell_length_c 11.392252
_cell_angle_alpha 119.233896
_cell_angle_beta 150.405990
_cell_angle_gamma 45.187017
_cell_volume 609.602836
_symmetry_space_group_name_H-M "P -1"
_symmetry_group_IT_number 2
_symmetry_cell_setting 'triclinic'
loop_
_space_group_symop_operation_xyz
x,y,z
-x,-y,-z
loop_
_atom_site_type_symbol
_atom_site_label
_atom_site_fract_x
_atom_site_fract_y
_atom_site_fract_z
Si Si1 0.711463 0.500670 0.739475
Si Si2 0.723405 0.947238 0.418871
Si Si3 0.616049 0.676529 0.063451
Si Si4 0.970865 0.318048 0.853389
Si Si5 0.300251 0.867673 0.295913
Si Si6 0.895229 0.532075 0.217762
Si Si7 0.082051 0.733756 0.509144
O O1 0.808779 0.369080 0.713204
O O2 0.501779 0.734692 0.491186
O O3 0.724640 0.323282 0.785283
O O4 0.819341 0.574236 0.988611
O O5 0.613838 0.849037 0.211687
O O6 0.931473 0.750160 0.605950
O O7 0.733489 0.991145 0.585004
O O8 0.594012 0.196101 0.242329
O O9 0.732430 0.627488 0.101251
O O10 0.712892 0.432059 0.189695
O O11 0.905921 0.344022 0.634691
O O12 0.000000 0.500000 0.000000
O O13 0.157483 0.048685 0.051877
O O14 0.964609 0.680957 0.388453
O O15 0.000000 0.000000 0.500000
#
# Coordination Sequence:
#
# PCOD8043641 Si02
#       7
#     2   2   2   2   2   2   2
#     4  11  24  41  68 100 125 169 225 278 319 378
#     4  10  19  36  67  96 120 161 217 275 313 371
#     4  10  22  40  66  94 129 167 222 265 321 388
#     4  12  24  45  66  96 141 175 212 265 336 399
#     4  11  24  41  69  99 125 168 232 274 315 380
#     4  11  21  43  67  95 125 171 221 267 327 376
#     4  11  25  41  66  98 135 176 210 262 333 397
#
# _framework density 22.965772000000001
#
# number of rings (size 3 to 8) (size 9 to 14) (size 15 to 20)
#    0.000    1.143    4.286    3.000    2.000    1.714 
#    0.000    1.429    0.000   15.429    0.000    0.000 
#    0.000    0.000    0.000    0.000    0.000    0.000 
#
# Total GULP energy -173564.222818 kJ/mol
# GULP energy per Si atom -12397.444487 kJ/mol
# Density = 2.291350 g / cm^3
# Si number density = 22.965772 Si / 1000 Ang^3
#
#
#
# Elastic Constant Matrix: (Units=GPa)
#
#
# Indices 1 2 3 4 5 6 
#
# 1 55.8542 26.9132 49.4754 -11.7483 -10.3702 -10.9091
# 2 26.9132 101.9015 40.6648 -26.1533 0.3658 -7.3219
# 3 49.4754 40.6648 108.0928 -33.2005 2.7871 -1.6105
# 4 -11.7483 -26.1533 -33.2005 44.4890 -3.9559 -10.2721
# 5 -10.3702 0.3658 2.7871 -3.9559 37.3367 -0.8520
# 6 -10.9091 -7.3219 -1.6105 -10.2721 -0.8520 24.1474
#
#
#
# Elastic Compliance Matrix: (Units=1/GPa)
#
#
# Indices 1 2 3 4 5 6 
#
# 1 0.040502 -0.002108 -0.017251 0.001853 0.013159 0.017760
# 2 -0.002108 0.013426 -0.001683 0.007549 0.000351 0.006230
# 3 -0.017251 -0.001683 0.020451 0.008408 -0.005492 -0.003557
# 4 0.001853 0.007549 0.008408 0.038763 0.004384 0.020331
# 5 0.013159 0.000351 -0.005492 0.004384 0.031507 0.008662
# 6 0.017760 0.006230 -0.003557 0.020331 0.008662 0.060042
#
#
# Mechanical properties :
#
#
# Convention : Reuss Voigt Hill
#
# Bulk Modulus (GPa) = 30.96480 55.55056 43.25768
# Shear Modulus (GPa) = 19.41442 31.11430 25.26436
#
# Velocity S-wave (km/s) = 2.91067 3.68477 3.32035
# Velocity P-wave (km/s) = 4.98079 6.50725 5.79450
#
# Compressibility (1/GPa) = 0.03229473
#
# Stress axis : x y z
#
# Youngs Moduli (GPa) = 24.69013 74.48301 48.89660
#
# Poissons Ratio (x) = 0.15704 0.84349
# Poissons Ratio (y) = 0.05206 0.08231
# Poissons Ratio (z) = 0.42592 0.12538
#
# Static dielectric constant tensor:
#      x y z
#    x 3.883660 -0.141090 -0.114440 
#    y -0.141090 4.256070 -0.119020 
#    z -0.114440 -0.119020 4.672220 
# 
# 
# High freq. dielectric constant tensor:
#      x y z
#    x 1.880160 -0.022580 -0.012900 
#    y -0.022580 1.907660 -0.007510 
#    z -0.012900 -0.007510 1.925700 
# 
# From -- ./inp_files/425033.got.cif
#   From: 2010.06.25/outbox.cif.g09.slc.cpg/sg2_213_cif.got.tgz:425033.got - 2010.06.27 13:26:56.
