data_PCOD8043789
_publ_section_title
;
Structure prediction by ZEFSAII (Michael W. Deem and Ramdas Pophale) SiO2 
 PCOD8043789
Probable space group: P -1
;
_chemical_formula_sum "Si O2"
_cell_formula_units_Z 12
_cell_length_a 12.368046
_cell_length_b 9.290618
_cell_length_c 18.150706
_cell_angle_alpha 124.243194
_cell_angle_beta 21.295305
_cell_angle_gamma 123.759798
_cell_volume 622.712535
_symmetry_space_group_name_H-M "P -1"
_symmetry_group_IT_number 2
_symmetry_cell_setting 'triclinic'
loop_
_space_group_symop_operation_xyz
x,y,z
-x,-y,-z
loop_
_atom_site_type_symbol
_atom_site_label
_atom_site_fract_x
_atom_site_fract_y
_atom_site_fract_z
Si Si1 0.536948 0.006043 0.339331
Si Si2 0.331629 0.350366 0.612940
Si Si3 0.291604 0.522373 0.966643
Si Si4 0.688227 0.643637 0.874530
Si Si5 0.642299 0.348698 0.571802
Si Si6 0.816015 0.842130 0.986978
O O1 0.369041 0.844784 0.443258
O O2 0.584373 0.953647 0.208676
O O3 0.335565 0.166280 0.514772
O O4 0.855977 0.055333 0.189831
O O5 0.500000 0.500000 0.500000
O O6 0.497862 0.340682 0.581391
O O7 0.990419 0.382817 0.852969
O O8 0.505771 0.660753 0.919631
O O9 0.474205 0.478767 0.766035
O O10 0.176664 0.346483 0.033290
O O11 0.009926 0.578158 0.633507
O O12 0.500000 0.500000 0.000000
O O13 0.723902 0.820164 0.952881
#
# Coordination Sequence:
#
# PCOD8043789 Si02
#       6
#     2   2   2   2   2   2
#     4  10  20  36  60  87 113 146 197 229 278 339
#     4  12  21  37  57  90 116 148 185 241 288 325
#     4  10  21  36  57  88 118 145 190 235 283 330
#     4  10  19  37  59  84 111 154 193 228 278 344
#     4  11  22  37  61  84 113 154 192 233 276 340
#     4   9  18  36  60  84 112 155 187 229 276 345
#
# _framework density 19.270529
#
# number of rings (size 3 to 8) (size 9 to 14) (size 15 to 20)
#    0.000    1.667    3.333    2.500    0.000    0.000 
#    0.000    1.667    0.000    0.000    0.000    0.000 
#    0.000    0.000    0.000    0.000    0.000    0.000 
#
# Total GULP energy -148791.037367 kJ/mol
# GULP energy per Si atom -12399.253114 kJ/mol
# Density = 1.922667 g / cm^3
# Si number density = 19.270529 Si / 1000 Ang^3
#
#
#
# Elastic Constant Matrix: (Units=GPa)
#
#
# Indices 1 2 3 4 5 6 
#
# 1 60.1946 21.0853 41.1298 12.9014 9.2957 14.9153
# 2 21.0853 73.1759 55.1661 17.2772 8.8566 9.6352
# 3 41.1298 55.1661 155.8515 2.1165 3.9748 -0.5350
# 4 12.9014 17.2772 2.1165 26.6276 6.2786 -1.3655
# 5 9.2957 8.8566 3.9748 6.2786 34.8175 2.3013
# 6 14.9153 9.6352 -0.5350 -1.3655 2.3013 24.0351
#
#
#
# Elastic Compliance Matrix: (Units=1/GPa)
#
#
# Indices 1 2 3 4 5 6 
#
# 1 0.032142 0.007015 -0.010678 -0.019536 -0.004056 -0.023717
# 2 0.007015 0.027537 -0.011305 -0.020559 -0.002786 -0.016545
# 3 -0.010678 -0.011305 0.013084 0.011773 0.001317 0.011992
# 4 -0.019536 -0.020559 0.011773 0.061530 -0.003612 0.024468
# 5 -0.004056 -0.002786 0.001317 -0.003612 0.030981 0.000492
# 6 -0.023717 -0.016545 0.011992 0.024468 0.000492 0.064567
#
#
# Mechanical properties :
#
#
# Convention : Reuss Voigt Hill
#
# Bulk Modulus (GPa) = 23.35026 58.22049 40.78538
# Shear Modulus (GPa) = 18.24472 28.55209 23.39840
#
# Velocity S-wave (km/s) = 3.08030 3.85339 3.48833
# Velocity P-wave (km/s) = 4.97939 7.07644 6.11843
#
# Compressibility (1/GPa) = 0.04282607
#
# Stress axis : x y z
#
# Youngs Moduli (GPa) = 31.11193 36.31524 76.43180
#
# Poissons Ratio (x) = -0.25474 0.81614
# Poissons Ratio (y) = -0.21824 0.86405
# Poissons Ratio (z) = 0.33222 0.41054
#
# Static dielectric constant tensor:
#      x y z
#    x 4.270370 0.369410 0.356300 
#    y 0.369410 3.576500 -0.015840 
#    z 0.356300 -0.015840 3.777070 
# 
# 
# High freq. dielectric constant tensor:
#      x y z
#    x 1.746120 0.023950 0.021060 
#    y 0.023950 1.730250 -0.007690 
#    z 0.021060 -0.007690 1.763680 
# 
# From -- ./inp_files/144602.got.cif
#   From: 2010.06.25/outbox.cif.g09.slc.cpg/sg2_73_cif.got.tgz:144602.got - 2010.06.27 13:26:56.
