data_PCOD8043555
_publ_section_title
;
Structure prediction by ZEFSAII (Michael W. Deem and Ramdas Pophale) SiO2 
 PCOD8043555
Probable space group: P -1
;
_chemical_formula_sum "Si O2"
_cell_formula_units_Z 16
_cell_length_a 20.046344
_cell_length_b 9.987138
_cell_length_c 9.540731
_cell_angle_alpha 68.742744
_cell_angle_beta 52.393362
_cell_angle_gamma 33.614984
_cell_volume 790.200153
_symmetry_space_group_name_H-M "P -1"
_symmetry_group_IT_number 2
_symmetry_cell_setting 'triclinic'
loop_
_space_group_symop_operation_xyz
x,y,z
-x,-y,-z
loop_
_atom_site_type_symbol
_atom_site_label
_atom_site_fract_x
_atom_site_fract_y
_atom_site_fract_z
Si Si1 0.119816 0.940516 0.041568
Si Si2 0.500664 0.314270 0.185575
Si Si3 0.595186 0.903525 0.111978
Si Si4 0.572084 0.404952 0.294952
Si Si5 0.239344 0.864622 0.208660
Si Si6 0.576517 0.104320 0.774038
Si Si7 0.108873 0.216241 0.503133
Si Si8 0.088745 0.676019 0.071843
O O1 0.249128 0.843030 0.828962
O O2 0.127769 0.975915 0.181911
O O3 0.140287 0.740594 0.072739
O O4 0.966643 0.203370 0.059534
O O5 0.511635 0.349299 0.317701
O O6 0.335232 0.588667 0.235165
O O7 0.523333 0.110667 0.240888
O O8 0.639170 0.186282 0.968643
O O9 0.499362 0.892384 0.245002
O O10 0.579751 0.012705 0.946978
O O11 0.770074 0.626806 0.019032
O O12 0.500000 0.500000 0.500000
O O13 0.524541 0.610687 0.185152
O O14 0.138852 0.070949 0.385235
O O15 0.738840 0.926528 0.580953
O O16 0.000000 0.500000 0.500000
O O17 0.040857 0.219518 0.714505
#
# Coordination Sequence:
#
# PCOD8043555 Si02
#       8
#     2   2   2   2   2   2   2   2
#     4  10  23  40  62  88 124 174 203 253 313 380
#     4  10  19  36  64  92 123 160 208 262 302 364
#     4  11  21  38  66  93 122 161 209 255 308 372
#     4  11  21  39  65  91 121 164 212 254 306 373
#     4  10  20  37  62  93 124 161 216 253 306 372
#     4  11  21  37  64  92 121 159 209 251 306 368
#     4  12  22  38  63  95 127 159 204 264 310 367
#     4  11  23  41  63  89 131 168 206 250 320 374
#
# _framework density 20.248035000000002
#
# number of rings (size 3 to 8) (size 9 to 14) (size 15 to 20)
#    0.000    1.250    5.000    2.250    1.750    0.500 
#    0.000    7.500    0.000    0.000    0.000    0.000 
#    0.000    0.000    0.000    0.000    0.000    0.000 
#
# Total GULP energy -198356.190588 kJ/mol
# GULP energy per Si atom -12397.261912 kJ/mol
# Density = 2.020195 g / cm^3
# Si number density = 20.248035 Si / 1000 Ang^3
#
#
#
# Elastic Constant Matrix: (Units=GPa)
#
#
# Indices 1 2 3 4 5 6 
#
# 1 138.2228 48.5777 47.4752 14.3686 2.8814 7.3406
# 2 48.5777 110.6319 26.2629 20.5115 21.3616 7.3953
# 3 47.4752 26.2629 75.0625 9.6720 9.2156 1.6421
# 4 14.3686 20.5115 9.6720 24.5537 5.0177 3.4210
# 5 2.8814 21.3616 9.2156 5.0177 17.3923 4.2948
# 6 7.3406 7.3953 1.6421 3.4210 4.2948 33.3265
#
#
#
# Elastic Compliance Matrix: (Units=1/GPa)
#
#
# Indices 1 2 3 4 5 6 
#
# 1 0.011017 -0.004468 -0.006116 -0.001636 0.007865 -0.001979
# 2 -0.004468 0.015361 0.000365 -0.007069 -0.016378 0.000394
# 3 -0.006116 0.000365 0.018432 -0.002404 -0.008941 0.001757
# 4 -0.001636 -0.007069 -0.002404 0.049602 -0.003441 -0.002601
# 5 0.007865 -0.016378 -0.008941 -0.003441 0.084049 -0.008136
# 6 -0.001979 0.000394 0.001757 -0.002601 -0.008136 0.031584
#
#
# Mechanical properties :
#
#
# Convention : Reuss Voigt Hill
#
# Bulk Modulus (GPa) = 41.03341 63.17207 52.10274
# Shear Modulus (GPa) = 20.95489 28.49459 24.72474
#
# Velocity S-wave (km/s) = 3.22049 3.75544 3.49821
# Velocity P-wave (km/s) = 5.84278 7.07611 6.48881
#
# Compressibility (1/GPa) = 0.02437038
#
# Stress axis : x y z
#
# Youngs Moduli (GPa) = 90.76839 65.09945 54.25372
#
# Poissons Ratio (x) = 0.29090 0.33181
# Poissons Ratio (y) = 0.40560 -0.01978
# Poissons Ratio (z) = 0.55514 -0.02374
#
# Static dielectric constant tensor:
#      x y z
#    x 2.810750 0.572100 0.006960 
#    y 0.572100 3.857060 0.058500 
#    z 0.006960 0.058500 3.351030 
# 
# 
# High freq. dielectric constant tensor:
#      x y z
#    x 1.801610 0.000510 -0.001750 
#    y 0.000510 1.797070 0.005410 
#    z -0.001750 0.005410 1.762790 
# 
# From -- ./inp_files/328850.got.cif
#   From: 2010.06.25/outbox.cif.g09.slc.cpg/sg2_165_cif.got.tgz:328850.got - 2010.06.27 13:26:56.
