data_PCOD8043620
_publ_section_title
;
Structure prediction by ZEFSAII (Michael W. Deem and Ramdas Pophale) SiO2 
 PCOD8043620
Probable space group: P -1
;
_chemical_formula_sum "Si O2"
_cell_formula_units_Z 16
_cell_length_a 14.890829
_cell_length_b 10.785206
_cell_length_c 9.131189
_cell_angle_alpha 67.069295
_cell_angle_beta 126.574856
_cell_angle_gamma 71.664037
_cell_volume 730.441666
_symmetry_space_group_name_H-M "P -1"
_symmetry_group_IT_number 2
_symmetry_cell_setting 'triclinic'
loop_
_space_group_symop_operation_xyz
x,y,z
-x,-y,-z
loop_
_atom_site_type_symbol
_atom_site_label
_atom_site_fract_x
_atom_site_fract_y
_atom_site_fract_z
Si Si1 0.393702 0.465817 0.272046
Si Si2 0.215771 0.562475 0.353364
Si Si3 0.154453 0.904660 0.790168
Si Si4 0.229931 0.837758 0.215241
Si Si5 0.644914 0.783418 0.170297
Si Si6 0.123969 0.215011 0.989659
Si Si7 0.283360 0.335511 0.029729
Si Si8 0.918471 0.740850 0.417060
O O1 0.281040 0.520256 0.272617
O O2 0.576548 0.342941 0.560584
O O3 0.403571 0.328412 0.237738
O O4 0.311703 0.668335 0.016577
O O5 0.186456 0.740512 0.310259
O O6 0.348888 0.365768 0.673325
O O7 0.044251 0.631376 0.149810
O O8 0.180742 0.039803 0.720203
O O9 0.117316 0.931310 0.916285
O O10 0.000000 0.000000 0.500000
O O11 0.205354 0.997525 0.206531
O O12 0.820896 0.700802 0.406006
O O13 0.620297 0.784458 0.972099
O O14 0.500000 0.000000 0.000000
O O15 0.248570 0.228534 0.138871
O O16 0.079749 0.268693 0.751647
O O17 0.108903 0.568190 0.731449
#
# Coordination Sequence:
#
# PCOD8043620 Si02
#       8
#     2   2   2   2   2   2   2   2
#     4  11  25  40  63  98 135 168 202 268 329 373
#     4  11  21  40  63  92 127 165 218 259 317 379
#     4  10  19  36  66  92 118 169 221 249 296 388
#     4  10  24  40  62  92 133 174 203 262 335 366
#     4  11  24  39  67  95 123 170 213 270 318 375
#     4  10  20  39  65  89 118 172 214 260 308 382
#     4  11  21  43  64  91 129 168 215 257 320 384
#     4  10  19  39  65  91 122 164 219 260 313 370
#
# _framework density 21.904557
#
# number of rings (size 3 to 8) (size 9 to 14) (size 15 to 20)
#    0.000    1.500    3.750    2.625    7.000    1.000 
#    0.000    0.625    5.500    0.000    0.000    0.000 
#    0.000    0.000    0.000    0.000    0.000    0.000 
#
# Total GULP energy -198294.515563 kJ/mol
# GULP energy per Si atom -12393.407223 kJ/mol
# Density = 2.185470 g / cm^3
# Si number density = 21.904557 Si / 1000 Ang^3
#
#
#
# Elastic Constant Matrix: (Units=GPa)
#
#
# Indices 1 2 3 4 5 6 
#
# 1 82.5289 37.9011 25.3238 -8.0471 -12.4748 5.1822
# 2 37.9011 92.8539 19.6937 -15.4356 -13.5681 13.7897
# 3 25.3238 19.6937 74.8853 -9.2562 -6.4035 2.8869
# 4 -8.0471 -15.4356 -9.2562 36.2817 13.3339 -1.5589
# 5 -12.4748 -13.5681 -6.4035 13.3339 27.4237 -16.6792
# 6 5.1822 13.7897 2.8869 -1.5589 -16.6792 38.6353
#
#
#
# Elastic Compliance Matrix: (Units=1/GPa)
#
#
# Indices 1 2 3 4 5 6 
#
# 1 0.016554 -0.005742 -0.003893 -0.002029 0.006496 0.002842
# 2 -0.005742 0.014732 -0.001230 0.004718 -0.000627 -0.004476
# 3 -0.003893 -0.001230 0.015304 0.002561 -0.000135 -0.000137
# 4 -0.002029 0.004718 0.002561 0.037464 -0.022052 -0.009612
# 5 0.006496 -0.000627 -0.000135 -0.022052 0.066272 0.027083
# 6 0.002842 -0.004476 -0.000137 -0.009612 0.027083 0.038414
#
#
# Mechanical properties :
#
#
# Convention : Reuss Voigt Hill
#
# Bulk Modulus (GPa) = 40.22582 46.23391 43.22987
# Shear Modulus (GPa) = 22.85648 31.62478 27.24063
#
# Velocity S-wave (km/s) = 3.23376 3.80380 3.53031
# Velocity P-wave (km/s) = 5.68744 6.35961 6.03289
#
# Compressibility (1/GPa) = 0.02485965
#
# Stress axis : x y z
#
# Youngs Moduli (GPa) = 60.40891 67.88111 65.34172
#
# Poissons Ratio (x) = 0.38974 0.25437
# Poissons Ratio (y) = 0.34684 0.08040
# Poissons Ratio (z) = 0.23517 0.08353
#
# Static dielectric constant tensor:
#      x y z
#    x 4.043980 0.514740 -0.157580 
#    y 0.514740 4.261410 -0.400330 
#    z -0.157580 -0.400330 3.831480 
# 
# 
# High freq. dielectric constant tensor:
#      x y z
#    x 1.850970 0.026810 -0.003270 
#    y 0.026810 1.862900 -0.029630 
#    z -0.003270 -0.029630 1.847740 
# 
# From -- ./inp_files/306787.got.cif
#   From: 2010.06.25/outbox.cif.g09.slc.cpg/sg2_154_cif.got.tgz:306787.got - 2010.06.27 13:26:56.
