data_PCOD8043236
_publ_section_title
;
Structure prediction by ZEFSAII (Michael W. Deem and Ramdas Pophale) SiO2 
 PCOD8043236
Probable space group: P -1
;
_chemical_formula_sum "Si O2"
_cell_formula_units_Z 16
_cell_length_a 8.723760
_cell_length_b 9.267351
_cell_length_c 17.454117
_cell_angle_alpha 36.976738
_cell_angle_beta 64.836715
_cell_angle_gamma 73.975341
_cell_volume 762.949036
_symmetry_space_group_name_H-M "P -1"
_symmetry_group_IT_number 2
_symmetry_cell_setting 'triclinic'
loop_
_space_group_symop_operation_xyz
x,y,z
-x,-y,-z
loop_
_atom_site_type_symbol
_atom_site_label
_atom_site_fract_x
_atom_site_fract_y
_atom_site_fract_z
Si Si1 0.789410 0.153529 0.235473
Si Si2 0.820865 0.392375 0.835985
Si Si3 0.491135 0.179709 0.495233
Si Si4 0.839485 0.376946 0.299470
Si Si5 0.154233 0.048072 0.168849
Si Si6 0.255161 0.147442 0.943565
Si Si7 0.304743 0.491870 0.026138
Si Si8 0.625696 0.350831 0.748603
O O1 0.832252 0.249021 0.272120
O O2 0.745690 0.364591 0.099218
O O3 0.947942 0.021829 0.226579
O O4 0.620494 0.955754 0.355892
O O5 0.681020 0.454617 0.777380
O O6 0.980865 0.603306 0.702421
O O7 0.771986 0.389231 0.935699
O O8 0.850677 0.114716 0.933915
O O9 0.691094 0.258631 0.438801
O O10 0.404536 0.418595 0.392296
O O11 0.500000 0.000000 0.500000
O O12 0.822882 0.659029 0.173134
O O13 0.225513 0.785942 0.264357
O O14 0.228929 0.205769 0.013478
O O15 0.226694 0.211405 0.155785
O O16 0.456860 0.159449 0.875531
O O17 0.500000 0.500000 0.000000
#
# Coordination Sequence:
#
# PCOD8043236 Si02
#       8
#     2   2   2   2   2   2   2   2
#     4  11  22  40  59  88 121 167 200 236 312 356
#     4  11  21  33  59  98 118 148 200 250 303 342
#     4   9  22  41  65  80 117 172 203 239 289 368
#     4  10  19  37  59  86 120 158 202 244 289 361
#     4  11  20  37  62  86 128 155 192 252 300 362
#     4  10  19  36  60  85 127 159 193 241 300 361
#     4  12  23  35  61  93 126 150 194 259 306 352
#     4  10  22  40  62  92 120 163 202 237 297 358
#
# _framework density 20.971257000000001
#
# number of rings (size 3 to 8) (size 9 to 14) (size 15 to 20)
#    0.000    1.500    2.500    4.500    3.500    1.500 
#    0.000    3.750    0.000   15.750    0.000    0.000 
#    0.000    0.000    0.000    0.000    0.000    0.000 
#
# Total GULP energy -198216.925490 kJ/mol
# GULP energy per Si atom -12388.557843 kJ/mol
# Density = 2.092353 g / cm^3
# Si number density = 20.971257 Si / 1000 Ang^3
#
#
#
# Elastic Constant Matrix: (Units=GPa)
#
#
# Indices 1 2 3 4 5 6 
#
# 1 95.6819 32.8942 34.3846 0.0132 -26.9013 -10.1390
# 2 32.8942 79.7388 30.9995 -0.1236 -4.8886 -8.6956
# 3 34.3846 30.9995 65.0047 -7.0233 -21.1424 -7.2394
# 4 0.0132 -0.1236 -7.0233 21.5226 0.1266 -2.6750
# 5 -26.9013 -4.8886 -21.1424 0.1266 32.0063 2.8526
# 6 -10.1390 -8.6956 -7.2394 -2.6750 2.8526 38.0516
#
#
#
# Elastic Compliance Matrix: (Units=1/GPa)
#
#
# Indices 1 2 3 4 5 6 
#
# 1 0.016391 -0.004868 -0.002587 -0.000715 0.011160 0.001876
# 2 -0.004868 0.017416 -0.008046 -0.002295 -0.006871 0.001506
# 3 -0.002587 -0.008046 0.026207 0.008681 0.013692 0.002042
# 4 -0.000715 -0.002295 0.008681 0.049770 0.004219 0.004119
# 5 0.011160 -0.006871 0.013692 0.004219 0.048543 0.000666
# 6 0.001876 0.001506 0.002042 0.004119 0.000666 0.027752
#
#
# Mechanical properties :
#
#
# Convention : Reuss Voigt Hill
#
# Bulk Modulus (GPa) = 34.46768 48.55357 41.51063
# Shear Modulus (GPa) = 22.05043 27.79258 24.92151
#
# Velocity S-wave (km/s) = 3.24614 3.64438 3.45101
# Velocity P-wave (km/s) = 5.52460 6.39620 5.97631
#
# Compressibility (1/GPa) = 0.02901268
#
# Stress axis : x y z
#
# Youngs Moduli (GPa) = 61.00812 57.41692 38.15726
#
# Poissons Ratio (x) = 0.27952 0.09872
# Poissons Ratio (y) = 0.29701 0.30700
# Poissons Ratio (z) = 0.15785 0.46195
#
# Static dielectric constant tensor:
#      x y z
#    x 4.029800 -0.008500 -0.319430 
#    y -0.008500 3.750770 -0.023830 
#    z -0.319430 -0.023830 3.759070 
# 
# 
# High freq. dielectric constant tensor:
#      x y z
#    x 1.828210 -0.008050 -0.020450 
#    y -0.008050 1.820650 -0.010620 
#    z -0.020450 -0.010620 1.796570 
# 
# From -- ./inp_files/186658.got.cif
#   From: 2010.06.25/outbox.cif.g09.slc.cpg/sg2_94_cif.got.tgz:186658.got - 2010.06.27 13:26:56.
