data_PCOD8043399
_publ_section_title
;
Structure prediction by ZEFSAII (Michael W. Deem and Ramdas Pophale) SiO2 
 PCOD8043399
Probable space group: P -1
;
_chemical_formula_sum "Si O2"
_cell_formula_units_Z 16
_cell_length_a 21.121084
_cell_length_b 8.865738
_cell_length_c 11.753852
_cell_angle_alpha 86.024010
_cell_angle_beta 148.169029
_cell_angle_gamma 70.827767
_cell_volume 783.778284
_symmetry_space_group_name_H-M "P -1"
_symmetry_group_IT_number 2
_symmetry_cell_setting 'triclinic'
loop_
_space_group_symop_operation_xyz
x,y,z
-x,-y,-z
loop_
_atom_site_type_symbol
_atom_site_label
_atom_site_fract_x
_atom_site_fract_y
_atom_site_fract_z
Si Si1 0.485831 0.568300 0.251248
Si Si2 0.558648 0.060100 0.247183
Si Si3 0.727069 0.085666 0.688468
Si Si4 0.427288 0.271202 0.802120
Si Si5 0.948124 0.341616 0.675508
Si Si6 0.233950 0.526393 0.831769
Si Si7 0.539126 0.156703 0.617354
Si Si8 0.788330 0.665512 0.994334
O O1 0.673866 0.307663 0.567718
O O2 0.499874 0.647396 0.151789
O O3 0.443222 0.714189 0.284280
O O4 0.323371 0.602691 0.993445
O O5 0.716466 0.992363 0.563129
O O6 0.576608 0.861814 0.288377
O O7 0.564504 0.109003 0.122058
O O8 0.372043 0.280021 0.003457
O O9 0.580456 0.161780 0.549548
O O10 0.923275 0.895115 0.050480
O O11 0.229681 0.480175 0.534001
O O12 0.916603 0.305794 0.502009
O O13 0.039934 0.421598 0.799814
O O14 0.150125 0.524247 0.815587
O O15 0.337230 0.282854 0.300968
O O16 0.677832 0.898635 0.881205
#
# Coordination Sequence:
#
# PCOD8043399 Si02
#       8
#     2   2   2   2   2   2   2   2
#     4  11  22  36  63  85 115 154 196 233 280 352
#     4   9  19  39  62  83 111 149 205 233 275 334
#     4  10  21  38  59  86 117 152 188 246 286 339
#     4  10  22  38  60  88 113 154 196 236 277 352
#     4  10  23  37  57  86 122 153 191 233 298 331
#     4  10  20  38  62  86 116 152 193 241 286 341
#     4  10  20  36  63  92 109 148 203 237 285 336
#     4  10  19  36  62  87 113 151 188 250 282 334
#
# _framework density 20.413937000000001
#
# number of rings (size 3 to 8) (size 9 to 14) (size 15 to 20)
#    0.000    2.000    2.500    1.500    3.500    5.500 
#    0.000    2.500    8.250    0.000    0.000    0.000 
#    0.000    0.000    0.000    0.000    0.000    0.000 
#
# Total GULP energy -198385.565872 kJ/mol
# GULP energy per Si atom -12399.097867 kJ/mol
# Density = 2.036747 g / cm^3
# Si number density = 20.413937 Si / 1000 Ang^3
#
#
#
# Elastic Constant Matrix: (Units=GPa)
#
#
# Indices 1 2 3 4 5 6 
#
# 1 76.6815 42.5120 19.4371 11.5900 -11.2685 15.5272
# 2 42.5120 115.9362 37.6549 17.4142 -11.3410 11.3649
# 3 19.4371 37.6549 100.4281 8.8825 -20.6508 2.5438
# 4 11.5900 17.4142 8.8825 22.8615 4.6805 -8.2151
# 5 -11.2685 -11.3410 -20.6508 4.6805 27.2080 -1.8333
# 6 15.5272 11.3649 2.5438 -8.2151 -1.8333 33.2488
#
#
#
# Elastic Compliance Matrix: (Units=1/GPa)
#
#
# Indices 1 2 3 4 5 6 
#
# 1 0.020674 -0.003733 0.000825 -0.013942 0.009264 -0.011376
# 2 -0.003733 0.012994 -0.002540 -0.009347 0.003238 -0.004635
# 3 0.000825 -0.002540 0.013534 -0.006468 0.010562 -0.001568
# 4 -0.013942 -0.009347 -0.006468 0.075577 -0.025731 0.027456
# 5 0.009264 0.003238 0.010562 -0.025731 0.053734 -0.009636
# 6 -0.011376 -0.004635 -0.001568 0.027456 -0.009636 0.043345
#
#
# Mechanical properties :
#
#
# Convention : Reuss Voigt Hill
#
# Bulk Modulus (GPa) = 27.54395 54.69486 41.11941
# Shear Modulus (GPa) = 20.58838 29.55979 25.07408
#
# Velocity S-wave (km/s) = 3.17921 3.80941 3.50849
# Velocity P-wave (km/s) = 5.19601 6.79705 6.04973
#
# Compressibility (1/GPa) = 0.03630561
#
# Stress axis : x y z
#
# Youngs Moduli (GPa) = 48.37088 76.95693 73.89054
#
# Poissons Ratio (x) = 0.28728 -0.06094
# Poissons Ratio (y) = 0.18057 0.18765
# Poissons Ratio (z) = -0.03989 0.19544
#
# Static dielectric constant tensor:
#      x y z
#    x 3.674110 0.118770 -0.341020 
#    y 0.118770 3.654250 0.014160 
#    z -0.341020 0.014160 3.724310 
# 
# 
# High freq. dielectric constant tensor:
#      x y z
#    x 1.792050 0.011630 -0.024110 
#    y 0.011630 1.789290 0.006630 
#    z -0.024110 0.006630 1.790790 
# 
# From -- ./inp_files/259195.got.cif
#   From: 2010.06.25/outbox.cif.g09.slc.cpg/sg2_130_cif.got.tgz:259195.got - 2010.06.27 13:26:56.
