data_PCOD8043506
_publ_section_title
;
Structure prediction by ZEFSAII (Michael W. Deem and Ramdas Pophale) SiO2 
 PCOD8043506
Probable space group: P -1
;
_chemical_formula_sum "Si O2"
_cell_formula_units_Z 16
_cell_length_a 9.183946
_cell_length_b 9.320087
_cell_length_c 15.930265
_cell_angle_alpha 30.073790
_cell_angle_beta 103.196889
_cell_angle_gamma 96.941511
_cell_volume 656.977980
_symmetry_space_group_name_H-M "P -1"
_symmetry_group_IT_number 2
_symmetry_cell_setting 'triclinic'
loop_
_space_group_symop_operation_xyz
x,y,z
-x,-y,-z
loop_
_atom_site_type_symbol
_atom_site_label
_atom_site_fract_x
_atom_site_fract_y
_atom_site_fract_z
Si Si1 0.377220 0.803366 0.605627
Si Si2 0.559841 0.662420 0.852245
Si Si3 0.741017 0.121472 0.076597
Si Si4 0.836817 0.697442 0.619991
Si Si5 0.317516 0.906455 0.240640
Si Si6 0.978529 0.796528 0.023631
Si Si7 0.845059 0.622369 0.466641
Si Si8 0.430503 0.690030 0.198655
O O1 0.411509 0.714546 0.750125
O O2 0.407360 0.516455 0.695245
O O3 0.500000 0.000000 0.500000
O O4 0.209783 0.995983 0.490465
O O5 0.608697 0.964552 0.734385
O O6 0.500000 0.500000 0.000000
O O7 0.697156 0.452981 0.933196
O O8 0.740901 0.877494 0.271564
O O9 0.914582 0.106641 0.082582
O O10 0.625191 0.082528 0.001848
O O11 0.983801 0.535339 0.770987
O O12 0.876697 0.736334 0.507118
O O13 0.705221 0.500169 0.713042
O O14 0.255863 0.629046 0.408372
O O15 0.441384 0.840786 0.214423
O O16 0.189275 0.151484 0.061349
O O17 0.000000 0.000000 0.000000
O O18 0.000000 0.500000 0.500000
#
# Coordination Sequence:
#
# PCOD8043506 Si02
#       8
#     2   2   2   2   2   2   2   2
#     4   9  18  39  64  86 121 175 208 251 321 371
#     4  11  25  44  63  90 133 172 210 265 312 370
#     4  10  19  36  63  92 127 168 200 257 329 367
#     4   9  17  30  59  91 123 168 201 250 325 372
#     4  11  22  39  66 101 123 167 215 256 318 380
#     4  11  17  36  66  93 125 165 209 258 318 383
#     4  11  19  33  59  96 129 159 202 262 318 372
#     4   8  17  34  61  89 118 166 211 254 303 384
#
# _framework density 24.353933999999999
#
# number of rings (size 3 to 8) (size 9 to 14) (size 15 to 20)
#    0.000    2.000    5.000    1.500    0.000    0.500 
#    0.000   13.750    0.000    1.500    0.000    0.000 
#    0.000    0.000    0.000    0.000    0.000    0.000 
#
# Total GULP energy -198247.450373 kJ/mol
# GULP energy per Si atom -12390.465648 kJ/mol
# Density = 2.429850 g / cm^3
# Si number density = 24.353934 Si / 1000 Ang^3
#
#
#
# Elastic Constant Matrix: (Units=GPa)
#
#
# Indices 1 2 3 4 5 6 
#
# 1 33.1948 27.7064 28.1435 -2.4351 18.1211 -20.6898
# 2 27.7064 108.8472 45.5034 -12.1529 14.4120 -24.7485
# 3 28.1435 45.5034 158.3729 5.6908 15.5582 -23.3207
# 4 -2.4351 -12.1529 5.6908 36.5032 -15.6346 -1.1501
# 5 18.1211 14.4120 15.5582 -15.6346 38.2829 -5.2983
# 6 -20.6898 -24.7485 -23.3207 -1.1501 -5.2983 34.9793
#
#
#
# Elastic Compliance Matrix: (Units=1/GPa)
#
#
# Indices 1 2 3 4 5 6 
#
# 1 0.075177 -0.007468 -0.003128 -0.009162 -0.030797 0.032131
# 2 -0.007468 0.013251 -0.002311 0.005345 0.002212 0.003928
# 3 -0.003128 -0.002311 0.008054 -0.003022 -0.001951 0.001489
# 4 -0.009162 0.005345 -0.003022 0.037079 0.018752 0.000407
# 5 -0.030797 0.002212 -0.001951 0.018752 0.046901 -0.010231
# 6 0.032131 0.003928 0.001489 0.000407 -0.010231 0.049830
#
#
# Mechanical properties :
#
#
# Convention : Reuss Voigt Hill
#
# Bulk Modulus (GPa) = 14.15058 55.90239 35.02649
# Shear Modulus (GPa) = 17.87880 35.22385 26.55132
#
# Velocity S-wave (km/s) = 2.71241 3.80719 3.30544
# Velocity P-wave (km/s) = 3.95380 6.50617 5.38344
#
# Compressibility (1/GPa) = 0.07066849
#
# Stress axis : x y z
#
# Youngs Moduli (GPa) = 13.30198 75.46384 124.16856
#
# Poissons Ratio (x) = 0.56356 0.38834
# Poissons Ratio (y) = 0.09934 0.28698
# Poissons Ratio (z) = 0.04160 0.17441
#
# Static dielectric constant tensor:
#      x y z
#    x 4.136800 -0.643800 0.186240 
#    y -0.643800 4.146610 -0.065320 
#    z 0.186240 -0.065320 5.203630 
# 
# 
# High freq. dielectric constant tensor:
#      x y z
#    x 1.946150 -0.038660 0.005910 
#    y -0.038660 1.960460 0.007510 
#    z 0.005910 0.007510 1.988260 
# 
# From -- ./inp_files/514828.got.cif
#   From: 2010.06.25/outbox.cif.g09.slc.cpg/sg2_258_cif.got.tgz:514828.got - 2010.06.27 13:26:56.
