data_PCOD8043631
_publ_section_title
;
Structure prediction by ZEFSAII (Michael W. Deem and Ramdas Pophale) SiO2 
 PCOD8043631
Probable space group: P -1
;
_chemical_formula_sum "Si O2"
_cell_formula_units_Z 16
_cell_length_a 9.196415
_cell_length_b 8.694296
_cell_length_c 17.795258
_cell_angle_alpha 141.294811
_cell_angle_beta 56.677502
_cell_angle_gamma 104.800964
_cell_volume 701.394399
_symmetry_space_group_name_H-M "P -1"
_symmetry_group_IT_number 2
_symmetry_cell_setting 'triclinic'
loop_
_space_group_symop_operation_xyz
x,y,z
-x,-y,-z
loop_
_atom_site_type_symbol
_atom_site_label
_atom_site_fract_x
_atom_site_fract_y
_atom_site_fract_z
Si Si1 0.475979 0.018507 0.845828
Si Si2 0.150220 0.376476 0.702267
Si Si3 0.812273 0.753232 0.862780
Si Si4 0.802606 0.049416 0.358579
Si Si5 0.122315 0.251422 0.323563
Si Si6 0.741790 0.695983 0.113760
Si Si7 0.537336 0.505901 0.404929
Si Si8 0.124286 0.717796 0.970699
O O1 0.696868 0.918131 0.747489
O O2 0.397640 0.785026 0.758818
O O3 0.422009 0.224754 0.870572
O O4 0.384952 0.149380 0.001076
O O5 0.308260 0.349906 0.585509
O O6 0.218958 0.550573 0.808293
O O7 0.947985 0.510938 0.776846
O O8 0.156206 0.101735 0.631343
O O9 0.804474 0.666989 0.745244
O O10 0.897352 0.985081 0.922128
O O11 0.649850 0.330361 0.523603
O O12 0.992041 0.073291 0.280137
O O13 0.715451 0.903786 0.267456
O O14 0.000000 0.500000 0.500000
O O15 0.760134 0.412921 0.036753
O O16 0.927612 0.673525 0.008233
O O17 0.500000 0.500000 0.500000
#
# Coordination Sequence:
#
# PCOD8043631 Si02
#       8
#     2   2   2   2   2   2   2   2
#     4  12  24  41  66 101 133 175 223 271 328 397
#     4  11  23  38  70 102 130 164 222 280 336 384
#     4  12  23  42  66  97 132 177 217 277 333 395
#     4  11  23  43  65  97 134 174 218 278 326 390
#     4  12  27  46  66  90 134 187 227 266 330 401
#     4  10  20  37  66 100 127 162 214 269 331 386
#     4  12  22  38  68 100 133 170 223 274 330 396
#     4  10  19  36  66  99 131 158 206 273 337 385
#
# _framework density 22.811702
#
# number of rings (size 3 to 8) (size 9 to 14) (size 15 to 20)
#    0.000    0.750    6.250    2.625    0.000    0.000 
#    0.000    4.375    0.000    0.000    0.000    0.000 
#    0.000    0.000    0.000    0.000    0.000    0.000 
#
# Total GULP energy -198364.654557 kJ/mol
# GULP energy per Si atom -12397.790910 kJ/mol
# Density = 2.275978 g / cm^3
# Si number density = 22.811702 Si / 1000 Ang^3
#
#
#
# Elastic Constant Matrix: (Units=GPa)
#
#
# Indices 1 2 3 4 5 6 
#
# 1 81.2947 23.2740 34.0510 0.4926 -27.5614 -26.0062
# 2 23.2740 91.1930 32.9480 2.7358 -17.2779 -29.0107
# 3 34.0510 32.9480 98.7136 -12.8874 -18.1937 -20.1108
# 4 0.4926 2.7358 -12.8874 35.6905 -5.1500 -10.5166
# 5 -27.5614 -17.2779 -18.1937 -5.1500 40.9723 2.5897
# 6 -26.0062 -29.0107 -20.1108 -10.5166 2.5897 40.5489
#
#
#
# Elastic Compliance Matrix: (Units=1/GPa)
#
#
# Indices 1 2 3 4 5 6 
#
# 1 0.022528 0.002712 -0.001886 0.005692 0.015167 0.015961
# 2 0.002712 0.016365 -0.002117 0.002725 0.007330 0.012637
# 3 -0.001886 -0.002117 0.014776 0.008132 0.005018 0.006393
# 4 0.005692 0.002725 0.008132 0.037933 0.012175 0.018694
# 5 0.015167 0.007330 0.005018 0.012175 0.040318 0.018043
# 6 0.015961 0.012637 0.006393 0.018694 0.018043 0.050806
#
#
# Mechanical properties :
#
#
# Convention : Reuss Voigt Hill
#
# Bulk Modulus (GPa) = 19.57370 50.19413 34.88392
# Shear Modulus (GPa) = 24.71119 35.50423 30.10771
#
# Velocity S-wave (km/s) = 3.29487 3.94941 3.63690
# Velocity P-wave (km/s) = 4.80355 6.54588 5.74120
#
# Compressibility (1/GPa) = 0.05108895
#
# Stress axis : x y z
#
# Youngs Moduli (GPa) = 44.38929 61.10442 67.67564
#
# Poissons Ratio (x) = -0.16574 0.12764
# Poissons Ratio (y) = -0.12040 0.14325
# Poissons Ratio (z) = 0.08372 0.12934
#
# Static dielectric constant tensor:
#      x y z
#    x 3.777480 -0.259660 -0.140330 
#    y -0.259660 4.282540 -0.009500 
#    z -0.140330 -0.009500 4.249580 
# 
# 
# High freq. dielectric constant tensor:
#      x y z
#    x 1.868350 -0.023190 -0.016620 
#    y -0.023190 1.906680 -0.008220 
#    z -0.016620 -0.008220 1.906940 
# 
# From -- ./inp_files/306628.got.cif
#   From: 2010.06.25/outbox.cif.g09.slc.cpg/sg2_154_cif.got.tgz:306628.got - 2010.06.27 13:26:56.
