data_PCOD8043066
_publ_section_title
;
Structure prediction by ZEFSAII (Michael W. Deem and Ramdas Pophale) SiO2 
 PCOD8043066
Probable space group: P -1
;
_chemical_formula_sum "Si O2"
_cell_formula_units_Z 16
_cell_length_a 15.514115
_cell_length_b 11.181001
_cell_length_c 16.611940
_cell_angle_alpha 147.784276
_cell_angle_beta 29.193729
_cell_angle_gamma 143.263832
_cell_volume 727.101419
_symmetry_space_group_name_H-M "P -1"
_symmetry_group_IT_number 2
_symmetry_cell_setting 'triclinic'
loop_
_space_group_symop_operation_xyz
x,y,z
-x,-y,-z
loop_
_atom_site_type_symbol
_atom_site_label
_atom_site_fract_x
_atom_site_fract_y
_atom_site_fract_z
Si Si1 0.300685 0.376246 0.271250
Si Si2 0.310855 0.499111 0.059879
Si Si3 0.607200 0.690565 0.375423
Si Si4 0.623235 0.997756 0.683072
Si Si5 0.672781 0.172278 0.419865
Si Si6 0.253361 0.102827 0.008247
Si Si7 0.111345 0.166109 0.914755
Si Si8 0.421793 0.187724 0.216492
O O1 0.245147 0.619043 0.465892
O O2 0.177736 0.213453 0.212003
O O3 0.281905 0.256020 0.305947
O O4 0.511035 0.430990 0.101635
O O5 0.338339 0.316280 0.000872
O O6 0.272061 0.732084 0.263388
O O7 0.141838 0.386021 0.074439
O O8 0.680047 0.822927 0.473956
O O9 0.408480 0.738694 0.543839
O O10 0.759202 0.788113 0.241442
O O11 0.578155 0.413376 0.245757
O O12 0.677683 0.924709 0.685370
O O13 0.407347 0.977427 0.839923
O O14 0.500000 0.000000 0.500000
O O15 0.833376 0.042100 0.197447
O O16 0.095613 0.907354 0.986300
O O17 0.500000 0.000000 0.000000
#
# Coordination Sequence:
#
# PCOD8043066 Si02
#       8
#     2   2   2   2   2   2   2   2
#     4  10  19  36  57  86 109 153 195 235 279 342
#     4  11  20  36  57  82 118 153 192 226 286 345
#     4  10  21  36  61  88 113 149 200 234 281 341
#     4  11  22  37  63  87 113 149 200 245 272 333
#     4   9  17  31  58  78 114 152 185 226 282 340
#     4  11  24  33  58  91 121 146 194 236 287 345
#     4  11  21  38  56  86 123 156 182 231 300 344
#     4  11  18  38  65  86 110 149 203 239 278 336
#
# _framework density 22.005184
#
# number of rings (size 3 to 8) (size 9 to 14) (size 15 to 20)
#    0.000    1.500    6.250    3.000    5.250    0.500 
#    0.000    0.625    0.000    0.750    0.000    0.000 
#    0.000    0.000    0.000    0.000    0.000    0.000 
#
# Total GULP energy -198290.541739 kJ/mol
# GULP energy per Si atom -12393.158859 kJ/mol
# Density = 2.195510 g / cm^3
# Si number density = 22.005184 Si / 1000 Ang^3
#
#
#
# Elastic Constant Matrix: (Units=GPa)
#
#
# Indices 1 2 3 4 5 6 
#
# 1 99.0973 33.4485 26.5704 4.7110 22.6265 -1.1004
# 2 33.4485 69.3051 22.8768 24.9932 2.4724 5.2112
# 3 26.5704 22.8768 72.5615 36.8535 26.5796 10.6575
# 4 4.7110 24.9932 36.8535 34.5837 8.3605 9.2753
# 5 22.6265 2.4724 26.5796 8.3605 41.3778 2.6959
# 6 -1.1004 5.2112 10.6575 9.2753 2.6959 44.1667
#
#
#
# Elastic Compliance Matrix: (Units=1/GPa)
#
#
# Indices 1 2 3 4 5 6 
#
# 1 0.016786 -0.010897 -0.008823 0.016278 -0.006201 0.000793
# 2 -0.010897 0.026803 0.007389 -0.027024 0.005061 0.000149
# 3 -0.008823 0.007389 0.044229 -0.047557 -0.014360 -0.000900
# 4 0.016278 -0.027024 -0.047557 0.097467 0.003937 -0.005639
# 5 -0.006201 0.005061 -0.014360 0.003937 0.035704 -0.000293
# 6 0.000793 0.000149 -0.000900 -0.005639 -0.000293 0.024063
#
#
# Mechanical properties :
#
#
# Convention : Reuss Voigt Hill
#
# Bulk Modulus (GPa) = 15.83412 45.19505 30.51459
# Shear Modulus (GPa) = 17.19593 34.56352 25.87972
#
# Velocity S-wave (km/s) = 2.79847 3.96750 3.43311
# Velocity P-wave (km/s) = 4.20157 6.44756 5.44170
#
# Compressibility (1/GPa) = 0.06315475
#
# Stress axis : x y z
#
# Youngs Moduli (GPa) = 59.57407 37.30955 22.60950
#
# Poissons Ratio (x) = 0.40658 0.19949
# Poissons Ratio (y) = 0.64920 -0.16707
# Poissons Ratio (z) = 0.52565 -0.27569
#
# Static dielectric constant tensor:
#      x y z
#    x 4.316660 -0.066660 0.300070 
#    y -0.066660 4.038210 0.520150 
#    z 0.300070 0.520150 4.055130 
# 
# 
# High freq. dielectric constant tensor:
#      x y z
#    x 1.859590 -0.004230 0.038050 
#    y -0.004230 1.852230 0.031870 
#    z 0.038050 0.031870 1.849270 
# 
# From -- ./inp_files/419223.got.cif
#   From: 2010.06.25/outbox.cif.g09.slc.cpg/sg2_210_cif.got.tgz:419223.got - 2010.06.27 13:26:56.
