data_PCOD8043210
_publ_section_title
;
Structure prediction by ZEFSAII (Michael W. Deem and Ramdas Pophale) SiO2 
 PCOD8043210
Probable space group: P -1
;
_chemical_formula_sum "Si O2"
_cell_formula_units_Z 16
_cell_length_a 12.759836
_cell_length_b 18.001115
_cell_length_c 10.052412
_cell_angle_alpha 143.063345
_cell_angle_beta 145.383294
_cell_angle_gamma 35.392885
_cell_volume 699.446753
_symmetry_space_group_name_H-M "P -1"
_symmetry_group_IT_number 2
_symmetry_cell_setting 'triclinic'
loop_
_space_group_symop_operation_xyz
x,y,z
-x,-y,-z
loop_
_atom_site_type_symbol
_atom_site_label
_atom_site_fract_x
_atom_site_fract_y
_atom_site_fract_z
Si Si1 0.803321 0.894870 0.060751
Si Si2 0.355338 0.295918 0.835643
Si Si3 0.399886 0.713867 0.170000
Si Si4 0.349586 0.955516 0.621434
Si Si5 0.229414 0.528103 0.677514
Si Si6 0.772322 0.075496 0.036414
Si Si7 0.058069 0.577635 0.862412
Si Si8 0.853565 0.880016 0.591875
O O1 0.786810 0.983927 0.302284
O O2 0.844297 0.973036 0.091597
O O3 0.593947 0.879833 0.800988
O O4 0.986005 0.737930 0.054668
O O5 0.451823 0.257443 0.733482
O O6 0.254777 0.464800 0.993818
O O7 0.161318 0.258663 0.577480
O O8 0.541106 0.205700 0.003362
O O9 0.273863 0.849746 0.323779
O O10 0.531972 0.590410 0.233556
O O11 0.240987 0.672933 0.861704
O O12 0.307178 0.071137 0.630616
O O13 0.112955 0.559958 0.740891
O O14 0.120603 0.472430 0.376887
O O15 0.925457 0.143650 0.268519
O O16 0.770787 0.991807 0.783678
#
# Coordination Sequence:
#
# PCOD8043210 Si02
#       8
#     2   2   2   2   2   2   2   2
#     4  11  24  42  65  97 134 176 220 263 324 399
#     4  11  22  39  65  95 130 165 213 280 327 381
#     4  10  19  36  59  98 128 167 211 274 326 378
#     4  11  22  41  66  93 134 179 213 267 327 394
#     4   9  20  33  58  91 136 161 216 272 327 371
#     4  11  24  40  66  97 133 166 224 277 321 388
#     4  10  22  37  60  96 130 174 215 269 326 387
#     4  11  24  39  67  98 128 172 221 271 334 379
#
# _framework density 22.875222999999998
#
# number of rings (size 3 to 8) (size 9 to 14) (size 15 to 20)
#    0.000    1.500    3.750    1.125    7.000    0.500 
#    0.000    0.625    0.000    0.750    0.000    0.000 
#    0.000    0.000    0.000    0.000    0.000    0.000 
#
# Total GULP energy -198234.381023 kJ/mol
# GULP energy per Si atom -12389.648814 kJ/mol
# Density = 2.282316 g / cm^3
# Si number density = 22.875223 Si / 1000 Ang^3
#
#
#
# Elastic Constant Matrix: (Units=GPa)
#
#
# Indices 1 2 3 4 5 6 
#
# 1 104.6876 51.8177 51.4091 14.4513 8.3083 10.5926
# 2 51.8177 142.5171 37.2250 20.1772 7.5520 3.2030
# 3 51.4091 37.2250 66.5858 14.5187 7.0109 9.4708
# 4 14.4513 20.1772 14.5187 21.2438 5.6995 2.6491
# 5 8.3083 7.5520 7.0109 5.6995 39.4353 2.0779
# 6 10.5926 3.2030 9.4708 2.6491 2.0779 26.7010
#
#
#
# Elastic Compliance Matrix: (Units=1/GPa)
#
#
# Indices 1 2 3 4 5 6 
#
# 1 0.016680 -0.003115 -0.010573 -0.000648 -0.000820 -0.002365
# 2 -0.003115 0.009400 -0.001779 -0.005740 -0.000067 0.001314
# 3 -0.010573 -0.001779 0.026735 -0.008680 -0.000711 -0.004158
# 4 -0.000648 -0.005740 -0.008680 0.060674 -0.005909 -0.001536
# 5 -0.000820 -0.000067 -0.000711 -0.005909 0.026571 -0.000896
# 6 -0.002365 0.001314 -0.004158 -0.001536 -0.000896 0.039930
#
#
# Mechanical properties :
#
#
# Convention : Reuss Voigt Hill
#
# Bulk Modulus (GPa) = 45.69899 66.07710 55.88805
# Shear Modulus (GPa) = 22.91309 29.03195 25.97252
#
# Velocity S-wave (km/s) = 3.16833 3.56637 3.37322
# Velocity P-wave (km/s) = 5.77973 6.77549 6.29732
#
# Compressibility (1/GPa) = 0.02188232
#
# Stress axis : x y z
#
# Youngs Moduli (GPa) = 59.95327 106.37790 37.40469
#
# Poissons Ratio (x) = 0.33134 0.39547
# Poissons Ratio (y) = 0.18674 0.06654
# Poissons Ratio (z) = 0.63387 0.18922
#
# Static dielectric constant tensor:
#      x y z
#    x 4.014170 0.138520 0.357230 
#    y 0.138520 4.506670 -0.051190 
#    z 0.357230 -0.051190 3.963840 
# 
# 
# High freq. dielectric constant tensor:
#      x y z
#    x 1.884560 0.006870 0.039180 
#    y 0.006870 1.918380 -0.004130 
#    z 0.039180 -0.004130 1.870300 
# 
# From -- ./inp_files/280185.got.cif
#   From: 2010.06.25/outbox.cif.g09.slc.cpg/sg2_141_cif.got.tgz:280185.got - 2010.06.27 13:26:56.
