data_PCOD8043839
_publ_section_title
;
Structure prediction by ZEFSAII (Michael W. Deem and Ramdas Pophale) SiO2 
 PCOD8043839
Probable space group: P -1
;
_chemical_formula_sum "Si O2"
_cell_formula_units_Z 16
_cell_length_a 7.859353
_cell_length_b 9.133060
_cell_length_c 18.257530
_cell_angle_alpha 53.841329
_cell_angle_beta 100.678736
_cell_angle_gamma 132.528725
_cell_volume 727.810429
_symmetry_space_group_name_H-M "P -1"
_symmetry_group_IT_number 2
_symmetry_cell_setting 'triclinic'
loop_
_space_group_symop_operation_xyz
x,y,z
-x,-y,-z
loop_
_atom_site_type_symbol
_atom_site_label
_atom_site_fract_x
_atom_site_fract_y
_atom_site_fract_z
Si Si1 0.249712 0.897313 0.360472
Si Si2 0.383035 0.848557 0.907565
Si Si3 0.720581 0.127370 0.269602
Si Si4 0.067958 0.286168 0.019252
Si Si5 0.847510 0.584649 0.521138
Si Si6 0.938867 0.308214 0.850626
Si Si7 0.599821 0.645294 0.371584
Si Si8 0.970759 0.860724 0.221717
O O1 0.141542 0.622088 0.408142
O O2 0.157611 0.974635 0.270853
O O3 0.130501 0.859697 0.442481
O O4 0.546248 0.099928 0.324086
O O5 0.401948 0.936042 0.800881
O O6 0.189243 0.817453 0.947361
O O7 0.645596 0.067856 0.902533
O O8 0.300745 0.576294 0.981583
O O9 0.987786 0.424004 0.209702
O O10 0.727404 0.915382 0.343507
O O11 0.090459 0.104578 0.108451
O O12 0.066763 0.282196 0.931869
O O13 0.679927 0.522743 0.456367
O O14 0.703249 0.560338 0.588059
O O15 0.048831 0.329940 0.774729
O O16 0.698042 0.707313 0.277323
#
# Coordination Sequence:
#
# PCOD8043839 Si02
#       8
#     2   2   2   2   2   2   2   2
#     4   9  17  33  59  86 115 150 189 231 292 341
#     4  10  20  40  59  81 113 159 192 235 286 329
#     4  10  19  37  60  84 117 155 191 234 277 345
#     4  10  22  38  58  82 119 151 197 237 276 334
#     4   8  16  31  59  90 107 147 196 230 286 349
#     4  11  23  37  57  87 120 151 191 236 287 329
#     4   9  17  33  61  86 113 150 193 234 284 342
#     4  11  20  35  57  86 117 154 190 236 282 337
#
# _framework density 21.983749
#
# number of rings (size 3 to 8) (size 9 to 14) (size 15 to 20)
#    0.000    2.250    2.500    0.750    0.000    0.500 
#    2.250    1.250    0.000   28.500    0.000    0.000 
#    0.000    0.000    0.000    0.000    0.000    0.000 
#
# Total GULP energy -198210.267855 kJ/mol
# GULP energy per Si atom -12388.141741 kJ/mol
# Density = 2.193371 g / cm^3
# Si number density = 21.983749 Si / 1000 Ang^3
#
#
#
# Elastic Constant Matrix: (Units=GPa)
#
#
# Indices 1 2 3 4 5 6 
#
# 1 69.4569 18.3385 24.0854 -1.2553 -18.0696 -1.3073
# 2 18.3385 71.0616 25.7064 -14.5238 -0.5513 9.2453
# 3 24.0854 25.7064 91.6184 -9.5403 -7.2704 0.4505
# 4 -1.2553 -14.5238 -9.5403 10.4477 -6.0196 -6.4264
# 5 -18.0696 -0.5513 -7.2704 -6.0196 52.3597 -1.9632
# 6 -1.3073 9.2453 0.4505 -6.4264 -1.9632 21.3807
#
#
#
# Elastic Compliance Matrix: (Units=1/GPa)
#
#
# Indices 1 2 3 4 5 6 
#
# 1 0.018158 -0.004127 -0.003325 -0.001414 0.005714 0.003065
# 2 -0.004127 0.021790 -0.001912 0.028527 0.001786 -0.000896
# 3 -0.003325 -0.001912 0.013982 0.014165 0.002583 0.004824
# 4 -0.001414 0.028527 0.014165 0.192032 0.025632 0.047352
# 5 0.005714 0.001786 0.002583 0.025632 0.024751 0.009500
# 6 0.003065 -0.000896 0.004824 0.047352 0.009500 0.062349
#
#
# Mechanical properties :
#
#
# Convention : Reuss Voigt Hill
#
# Bulk Modulus (GPa) = 28.40687 40.93305 34.66996
# Shear Modulus (GPa) = 13.75427 27.77138 20.76282
#
# Velocity S-wave (km/s) = 2.50403 3.55810 3.07654
# Velocity P-wave (km/s) = 4.61628 5.96156 5.33152
#
# Compressibility (1/GPa) = 0.03520276
#
# Stress axis : x y z
#
# Youngs Moduli (GPa) = 55.07065 45.89291 71.52187
#
# Poissons Ratio (x) = 0.18939 0.23778
# Poissons Ratio (y) = 0.22726 0.13677
# Poissons Ratio (z) = 0.18309 0.08776
#
# Static dielectric constant tensor:
#      x y z
#    x 4.081700 -0.193720 -0.366710 
#    y -0.193720 3.352990 -0.080940 
#    z -0.366710 -0.080940 4.487200 
# 
# 
# High freq. dielectric constant tensor:
#      x y z
#    x 1.867170 -0.014560 -0.014960 
#    y -0.014560 1.794570 -0.010110 
#    z -0.014960 -0.010110 1.893310 
# 
# From -- ./inp_files/340341.got.cif
#   From: 2010.06.25/outbox.cif.g09.slc.cpg/sg2_171_cif.got.tgz:340341.got - 2010.06.27 13:26:56.
