data_PCOD8043294
_publ_section_title
;
Structure prediction by ZEFSAII (Michael W. Deem and Ramdas Pophale) SiO2 
 PCOD8043294
Probable space group: P -1
;
_chemical_formula_sum "Si O2"
_cell_formula_units_Z 16
_cell_length_a 5.866513
_cell_length_b 19.896997
_cell_length_c 8.870462
_cell_angle_alpha 47.762742
_cell_angle_beta 90.332590
_cell_angle_gamma 81.229178
_cell_volume 749.277191
_symmetry_space_group_name_H-M "P -1"
_symmetry_group_IT_number 2
_symmetry_cell_setting 'triclinic'
loop_
_space_group_symop_operation_xyz
x,y,z
-x,-y,-z
loop_
_atom_site_type_symbol
_atom_site_label
_atom_site_fract_x
_atom_site_fract_y
_atom_site_fract_z
Si Si1 0.822060 0.599757 0.513035
Si Si2 0.395704 0.703156 0.204082
Si Si3 0.091276 0.076383 0.481557
Si Si4 0.314146 0.234930 0.135955
Si Si5 0.352762 0.076793 0.775848
Si Si6 0.925501 0.395907 0.806437
Si Si7 0.658145 0.199376 0.442298
Si Si8 0.045261 0.758083 0.368095
O O1 0.547225 0.640704 0.427724
O O2 0.865805 0.495844 0.740504
O O3 0.937522 0.593693 0.359887
O O4 0.925579 0.669649 0.513445
O O5 0.315680 0.635036 0.184779
O O6 0.171158 0.764717 0.196415
O O7 0.547036 0.766043 0.020645
O O8 0.253090 0.132749 0.301750
O O9 0.234616 0.034486 0.696120
O O10 0.860139 0.148778 0.411318
O O11 0.000000 0.000000 0.500000
O O12 0.463543 0.258144 0.243870
O O13 0.084404 0.316226 0.027071
O O14 0.549007 0.128195 0.644832
O O15 0.146228 0.146311 0.759370
O O16 0.500000 0.000000 0.000000
O O17 0.766029 0.260949 0.468260
#
# Coordination Sequence:
#
# PCOD8043294 Si02
#       8
#     2   2   2   2   2   2   2   2
#     4   9  18  34  57  92 128 160 204 251 299 360
#     4  10  19  36  60  96 122 166 202 250 309 360
#     4  10  23  45  65  90 122 162 210 261 313 375
#     4  10  21  39  63  90 124 164 203 250 310 366
#     4  10  23  45  65  90 122 162 210 261 313 375
#     4   9  18  34  57  92 128 160 204 251 299 360
#     4  10  22  44  61  84 126 162 199 254 316 358
#     4  10  21  39  63  90 124 164 203 250 310 366
#
# _framework density 21.353914
#
# number of rings (size 3 to 8) (size 9 to 14) (size 15 to 20)
#    0.000    2.250    0.000    1.875    0.000    5.000 
#   29.250    0.625    0.000   14.250    0.000    0.000 
#    0.000    0.000    0.000    0.000    0.000    0.000 
#
# Total GULP energy -198307.717784 kJ/mol
# GULP energy per Si atom -12394.232361 kJ/mol
# Density = 2.130531 g / cm^3
# Si number density = 21.353914 Si / 1000 Ang^3
#
#
#
# Elastic Constant Matrix: (Units=GPa)
#
#
# Indices 1 2 3 4 5 6 
#
# 1 121.0954 62.9890 37.9801 -0.8740 5.8719 29.0440
# 2 62.9890 123.0986 63.2162 -8.1478 9.0595 31.3763
# 3 37.9801 63.2162 87.2946 -3.9325 11.6672 18.9406
# 4 -0.8740 -8.1478 -3.9325 16.3541 0.3808 -2.8485
# 5 5.8719 9.0595 11.6672 0.3808 35.5158 21.0110
# 6 29.0440 31.3763 18.9406 -2.8485 21.0110 38.6033
#
#
#
# Elastic Compliance Matrix: (Units=1/GPa)
#
#
# Indices 1 2 3 4 5 6 
#
# 1 0.012542 -0.004232 -0.001397 -0.003225 0.004103 -0.007782
# 2 -0.004232 0.016997 -0.009056 0.004566 0.004058 -0.008060
# 3 -0.001397 -0.009056 0.018891 0.000365 -0.004687 0.001721
# 4 -0.003225 0.004566 0.000365 0.064502 -0.005004 0.006019
# 5 0.004103 0.004058 -0.004687 -0.005004 0.045238 -0.029078
# 6 -0.007782 -0.008060 0.001721 0.006019 -0.029078 0.053737
#
#
# Mechanical properties :
#
#
# Convention : Reuss Voigt Hill
#
# Bulk Modulus (GPa) = 52.46519 73.31769 62.89144
# Shear Modulus (GPa) = 20.19139 29.24820 24.71979
#
# Velocity S-wave (km/s) = 3.07833 3.70494 3.40608
# Velocity P-wave (km/s) = 6.10389 7.26025 6.70704
#
# Compressibility (1/GPa) = 0.01906026
#
# Stress axis : x y z
#
# Youngs Moduli (GPa) = 79.73411 58.83235 52.93600
#
# Poissons Ratio (x) = 0.24897 0.07396
# Poissons Ratio (y) = 0.33742 0.47937
# Poissons Ratio (z) = 0.11141 0.53277
#
# Static dielectric constant tensor:
#      x y z
#    x 4.246640 -0.139640 0.121640 
#    y -0.139640 2.472820 0.205630 
#    z 0.121640 0.205630 3.764110 
# 
# 
# High freq. dielectric constant tensor:
#      x y z
#    x 1.865590 0.008400 0.005790 
#    y 0.008400 1.817690 0.001960 
#    z 0.005790 0.001960 1.816070 
# 
# From -- ./inp_files/97633.got.cif
#   From: 2010.06.25/outbox.cif.g09.slc.cpg/sg2_49_cif.got.tgz:97633.got - 2010.06.27 13:26:56.
