data_PCOD8043943
_publ_section_title
;
Structure prediction by ZEFSAII (Michael W. Deem and Ramdas Pophale) SiO2 
 PCOD8043943
Probable space group: P -1
;
_chemical_formula_sum "Si O2"
_cell_formula_units_Z 16
_cell_length_a 15.910496
_cell_length_b 9.619466
_cell_length_c 14.138663
_cell_angle_alpha 79.036160
_cell_angle_beta 149.579962
_cell_angle_gamma 79.618756
_cell_volume 776.079128
_symmetry_space_group_name_H-M "P -1"
_symmetry_group_IT_number 2
_symmetry_cell_setting 'triclinic'
loop_
_space_group_symop_operation_xyz
x,y,z
-x,-y,-z
loop_
_atom_site_type_symbol
_atom_site_label
_atom_site_fract_x
_atom_site_fract_y
_atom_site_fract_z
Si Si1 0.798155 0.624913 0.102285
Si Si2 0.549964 0.594705 0.464543
Si Si3 0.976109 0.702655 0.103364
Si Si4 0.314661 0.176480 0.365103
Si Si5 0.810086 0.822183 0.419031
Si Si6 0.710621 0.042538 0.473367
Si Si7 0.868536 0.026396 0.075368
Si Si8 0.298363 0.050211 0.909559
O O1 0.920451 0.601789 0.127781
O O2 0.780250 0.753294 0.149526
O O3 0.954324 0.406443 0.321993
O O4 0.536906 0.735040 0.807720
O O5 0.500000 0.500000 0.500000
O O6 0.626338 0.695990 0.574650
O O7 0.752374 0.426789 0.612139
O O8 0.320275 0.745015 0.160961
O O9 0.838582 0.918290 0.983631
O O10 0.919492 0.699957 0.939156
O O11 0.500000 0.000000 0.500000
O O12 0.306605 0.091468 0.464883
O O13 0.795322 0.908054 0.292642
O O14 0.822898 0.935741 0.495838
O O15 0.576752 0.868139 0.204594
O O16 0.878947 0.057149 0.681865
O O17 0.821257 0.001393 0.138807
#
# Coordination Sequence:
#
# PCOD8043943 Si02
#       8
#     2   2   2   2   2   2   2   2
#     4  10  19  37  61  89 114 156 208 248 304 367
#     4  12  26  40  63  96 123 159 212 255 307 365
#     4  11  23  39  65  85 124 164 204 256 302 366
#     4  12  22  43  64  86 124 168 201 252 306 369
#     4  10  20  38  64  88 117 157 205 260 302 368
#     4  11  24  38  60  87 123 166 204 246 312 370
#     4  11  24  42  58  91 129 162 202 259 311 361
#     4   9  20  39  63  89 117 156 204 255 315 362
#
# _framework density 20.616455999999999
#
# number of rings (size 3 to 8) (size 9 to 14) (size 15 to 20)
#    0.000    1.250    2.500    4.500    1.750    3.500 
#    0.000    0.625    0.000    0.000    0.000    0.000 
#    0.000    0.000    0.000    0.000    0.000    0.000 
#
# Total GULP energy -198401.522225 kJ/mol
# GULP energy per Si atom -12400.095139 kJ/mol
# Density = 2.056953 g / cm^3
# Si number density = 20.616456 Si / 1000 Ang^3
#
#
#
# Elastic Constant Matrix: (Units=GPa)
#
#
# Indices 1 2 3 4 5 6 
#
# 1 112.5936 38.8252 51.6863 -3.8188 -2.2362 1.6121
# 2 38.8252 62.3825 37.9573 -1.3190 -3.4070 14.1166
# 3 51.6863 37.9573 141.1585 -12.7244 1.4248 8.1440
# 4 -3.8188 -1.3190 -12.7244 33.0853 -2.9297 2.9490
# 5 -2.2362 -3.4070 1.4248 -2.9297 36.3686 3.5615
# 6 1.6121 14.1166 8.1440 2.9490 3.5615 31.0022
#
#
#
# Elastic Compliance Matrix: (Units=1/GPa)
#
#
# Indices 1 2 3 4 5 6 
#
# 1 0.012508 -0.006707 -0.002985 -0.000266 -0.000079 0.003222
# 2 -0.006707 0.024974 -0.003690 0.000004 0.003091 -0.010409
# 3 -0.002985 -0.003690 0.009516 0.003199 -0.000556 -0.000905
# 4 -0.000266 0.000004 0.003199 0.032052 0.002852 -0.004205
# 5 -0.000079 0.003091 -0.000556 0.002852 0.028503 -0.004803
# 6 0.003222 -0.010409 -0.000905 -0.004205 -0.004803 0.038018
#
#
# Mechanical properties :
#
#
# Convention : Reuss Voigt Hill
#
# Bulk Modulus (GPa) = 49.42478 63.67469 56.54973
# Shear Modulus (GPa) = 27.92043 32.60225 30.26134
#
# Velocity S-wave (km/s) = 3.68405 3.98096 3.83538
# Velocity P-wave (km/s) = 6.49013 7.21686 6.86312
#
# Compressibility (1/GPa) = 0.02023277
#
# Stress axis : x y z
#
# Youngs Moduli (GPa) = 79.94819 40.04139 105.08830
#
# Poissons Ratio (x) = 0.26857 0.31374
# Poissons Ratio (y) = 0.53624 0.38776
# Poissons Ratio (z) = 0.23868 0.14775
#
# Static dielectric constant tensor:
#      x y z
#    x 4.649010 0.017010 -1.404910 
#    y 0.017010 3.502930 -0.320190 
#    z -1.404910 -0.320190 6.279190 
# 
# 
# High freq. dielectric constant tensor:
#      x y z
#    x 1.810950 -0.010220 0.002990 
#    y -0.010220 1.784040 -0.007800 
#    z 0.002990 -0.007800 1.823510 
# 
# From -- ./inp_files/315326.got.cif
#   From: 2010.06.25/outbox.cif.g09.slc.cpg/sg2_158_cif.got.tgz:315326.got - 2010.06.27 13:26:56.
