data_PCOD8043518
_publ_section_title
;
Structure prediction by ZEFSAII (Michael W. Deem and Ramdas Pophale) SiO2 
 PCOD8043518
Probable space group: P -1
;
_chemical_formula_sum "Si O2"
_cell_formula_units_Z 14
_cell_length_a 17.615703
_cell_length_b 9.432657
_cell_length_c 18.058386
_cell_angle_alpha 37.365398
_cell_angle_beta 157.869243
_cell_angle_gamma 143.313772
_cell_volume 657.108391
_symmetry_space_group_name_H-M "P -1"
_symmetry_group_IT_number 2
_symmetry_cell_setting 'triclinic'
loop_
_space_group_symop_operation_xyz
x,y,z
-x,-y,-z
loop_
_atom_site_type_symbol
_atom_site_label
_atom_site_fract_x
_atom_site_fract_y
_atom_site_fract_z
Si Si1 0.924503 0.219434 0.522384
Si Si2 0.048710 0.794584 0.179407
Si Si3 0.612058 0.435108 0.474134
Si Si4 0.647548 0.994359 0.498841
Si Si5 0.700708 0.880406 0.169527
Si Si6 0.684060 0.966089 0.282357
Si Si7 0.582644 0.632868 0.831287
O O1 0.000000 0.500000 0.500000
O O2 0.117781 0.106525 0.731359
O O3 0.768672 0.037607 0.513025
O O4 0.807670 0.201349 0.344505
O O5 0.174913 0.643605 0.309688
O O6 0.180185 0.900434 0.326541
O O7 0.818857 0.623919 0.066030
O O8 0.000000 0.000000 0.000000
O O9 0.474107 0.291060 0.478291
O O10 0.682758 0.725523 0.428261
O O11 0.458554 0.362323 0.295287
O O12 0.466550 0.131278 0.276351
O O13 0.790909 0.971496 0.295362
O O14 0.568710 0.600408 0.170060
O O15 0.559439 0.045792 0.944273
#
# Coordination Sequence:
#
# PCOD8043518 Si02
#       7
#     2   2   2   2   2   2   2
#     4  12  26  43  64  97 135 172 211 268 328 382
#     4  11  19  35  66  98 123 169 216 263 319 376
#     4  10  21  39  62  94 128 163 216 265 315 379
#     4  11  22  38  60  96 132 160 210 265 323 376
#     4  10  23  45  68  94 126 173 225 258 315 390
#     4  10  25  44  67  92 129 175 218 264 319 384
#     4  10  19  36  63  95 125 161 213 269 309 370
#
# _framework density 21.305465000000002
#
# number of rings (size 3 to 8) (size 9 to 14) (size 15 to 20)
#    0.000    1.429    4.286    1.286    2.000    5.714 
#    0.000    0.714    0.000    0.000    0.000    0.000 
#    0.000    0.000    0.000    0.000    0.000    0.000 
#
# Total GULP energy -173573.335700 kJ/mol
# GULP energy per Si atom -12398.095407 kJ/mol
# Density = 2.125697 g / cm^3
# Si number density = 21.305465 Si / 1000 Ang^3
#
#
#
# Elastic Constant Matrix: (Units=GPa)
#
#
# Indices 1 2 3 4 5 6 
#
# 1 100.1273 40.3730 31.4624 -4.7225 20.4972 -0.0585
# 2 40.3730 88.3801 35.2170 -5.8215 -2.6997 -9.4822
# 3 31.4624 35.2170 116.2337 -2.5110 14.4994 -3.1452
# 4 -4.7225 -5.8215 -2.5110 36.2906 4.2273 -3.2456
# 5 20.4972 -2.6997 14.4994 4.2273 28.1684 2.0238
# 6 -0.0585 -9.4822 -3.1452 -3.2456 2.0238 29.4413
#
#
#
# Elastic Compliance Matrix: (Units=1/GPa)
#
#
# Indices 1 2 3 4 5 6 
#
# 1 0.015670 -0.007327 -0.000506 0.002116 -0.012067 -0.001320
# 2 -0.007327 0.017125 -0.004140 0.000909 0.008640 0.004565
# 3 -0.000506 -0.004140 0.010725 0.000698 -0.005674 0.000278
# 4 0.002116 0.000909 0.000698 0.029139 -0.006475 0.004029
# 5 -0.012067 0.008640 -0.005674 -0.006475 0.049141 -0.001939
# 6 -0.001320 0.004565 0.000278 0.004029 -0.001939 0.036041
#
#
# Mechanical properties :
#
#
# Convention : Reuss Voigt Hill
#
# Bulk Modulus (GPa) = 51.08976 57.64956 54.36966
# Shear Modulus (GPa) = 26.55147 31.95930 29.25539
#
# Velocity S-wave (km/s) = 3.53403 3.87725 3.70961
# Velocity P-wave (km/s) = 6.37841 6.86742 6.62743
#
# Compressibility (1/GPa) = 0.01957339
#
# Stress axis : x y z
#
# Youngs Moduli (GPa) = 63.81516 58.39339 93.23943
#
# Poissons Ratio (x) = 0.42788 0.04720
# Poissons Ratio (y) = 0.46760 0.38600
# Poissons Ratio (z) = 0.03231 0.24174
#
# Static dielectric constant tensor:
#      x y z
#    x 3.779820 0.109440 0.157880 
#    y 0.109440 3.906370 0.048230 
#    z 0.157880 0.048230 4.242650 
# 
# 
# High freq. dielectric constant tensor:
#      x y z
#    x 1.819370 0.012580 0.011030 
#    y 0.012580 1.831620 -0.002230 
#    z 0.011030 -0.002230 1.843460 
# 
# From -- ./inp_files/336672.got.cif
#   From: 2010.06.25/outbox.cif.g09.slc.cpg/sg2_169_cif.got.tgz:336672.got - 2010.06.27 13:26:56.
