data_PCOD8043653
_publ_section_title
;
Structure prediction by ZEFSAII (Michael W. Deem and Ramdas Pophale) SiO2 
 PCOD8043653
Probable space group: P -1
;
_chemical_formula_sum "Si O2"
_cell_formula_units_Z 16
_cell_length_a 9.849933
_cell_length_b 7.859659
_cell_length_c 17.220256
_cell_angle_alpha 102.144025
_cell_angle_beta 132.476617
_cell_angle_gamma 106.607668
_cell_volume 773.718218
_symmetry_space_group_name_H-M "P -1"
_symmetry_group_IT_number 2
_symmetry_cell_setting 'triclinic'
loop_
_space_group_symop_operation_xyz
x,y,z
-x,-y,-z
loop_
_atom_site_type_symbol
_atom_site_label
_atom_site_fract_x
_atom_site_fract_y
_atom_site_fract_z
Si Si1 0.806434 0.990509 0.222699
Si Si2 0.908944 0.147176 0.614177
Si Si3 0.965279 0.417996 0.808493
Si Si4 0.655707 0.546850 0.285084
Si Si5 0.590245 0.475743 0.953243
Si Si6 0.436886 0.881253 0.773018
Si Si7 0.273561 0.917837 0.951916
Si Si8 0.513180 0.833074 0.323906
O O1 0.557197 0.783470 0.138191
O O2 0.014387 0.999293 0.339287
O O3 0.787061 0.174002 0.270012
O O4 0.834086 0.995171 0.139334
O O5 0.895863 0.274620 0.691405
O O6 0.086128 0.308839 0.632807
O O7 0.659121 0.993899 0.466134
O O8 0.746313 0.339352 0.767291
O O9 0.088412 0.662187 0.853974
O O10 0.139669 0.405700 0.928578
O O11 0.473214 0.431927 0.132582
O O12 0.619245 0.347349 0.299943
O O13 0.613896 0.698727 0.331763
O O14 0.500000 0.500000 0.000000
O O15 0.485537 0.030077 0.732666
O O16 0.661788 0.992850 0.926899
O O17 0.500000 0.000000 0.000000
#
# Coordination Sequence:
#
# PCOD8043653 Si02
#       8
#     2   2   2   2   2   2   2   2
#     4  10  19  36  68  99 123 157 220 282 303 372
#     4  11  23  44  69  91 129 183 226 264 306 394
#     4  12  23  41  69  94 134 176 207 278 336 381
#     4  11  23  42  71  96 127 174 223 269 323 382
#     4  11  18  36  66 100 121 158 217 268 328 376
#     4  11  22  40  67 100 131 165 210 278 330 383
#     4  10  19  37  65 102 123 152 223 271 322 386
#     4  12  27  46  58  97 143 176 216 260 330 391
#
# _framework density 20.679366000000002
#
# number of rings (size 3 to 8) (size 9 to 14) (size 15 to 20)
#    0.000    1.000    7.500    3.000    0.000    2.500 
#    4.500    1.875    0.000    0.000    0.000    0.000 
#    0.000    0.000    0.000    0.000    0.000    0.000 
#
# Total GULP energy -198275.636857 kJ/mol
# GULP energy per Si atom -12392.227304 kJ/mol
# Density = 2.063230 g / cm^3
# Si number density = 20.679366 Si / 1000 Ang^3
#
#
#
# Elastic Constant Matrix: (Units=GPa)
#
#
# Indices 1 2 3 4 5 6 
#
# 1 40.3336 23.0389 4.8148 -1.7651 4.4785 1.3910
# 2 23.0389 133.1219 30.7670 -5.3716 -0.7419 -1.2599
# 3 4.8148 30.7670 101.1716 -8.2398 0.5201 10.5465
# 4 -1.7651 -5.3716 -8.2398 19.5621 0.3094 -5.9782
# 5 4.4785 -0.7419 0.5201 0.3094 24.5582 6.0457
# 6 1.3910 -1.2599 10.5465 -5.9782 6.0457 24.3163
#
#
#
# Elastic Compliance Matrix: (Units=1/GPa)
#
#
# Indices 1 2 3 4 5 6 
#
# 1 0.028227 -0.004943 0.000333 0.001290 -0.005222 -0.000400
# 2 -0.004943 0.009059 -0.002614 0.001571 0.000694 0.002100
# 3 0.000333 -0.002614 0.011357 0.002679 0.000719 -0.004600
# 4 0.001290 0.001571 0.002679 0.057141 -0.004408 0.013990
# 5 -0.005222 0.000694 0.000719 -0.004408 0.044732 -0.012183
# 6 -0.000400 0.002100 -0.004600 0.013990 -0.012183 0.049720
#
#
# Mechanical properties :
#
#
# Convention : Reuss Voigt Hill
#
# Bulk Modulus (GPa) = 29.24335 43.54094 36.39215
# Shear Modulus (GPa) = 22.11589 28.08773 25.10181
#
# Velocity S-wave (km/s) = 3.27382 3.68944 3.48783
# Velocity P-wave (km/s) = 5.33503 6.26500 5.81863
#
# Compressibility (1/GPa) = 0.03419581
#
# Stress axis : x y z
#
# Youngs Moduli (GPa) = 35.42712 110.39153 88.04888
#
# Poissons Ratio (x) = 0.54567 -0.02936
# Poissons Ratio (y) = 0.17512 0.23016
# Poissons Ratio (z) = -0.01181 0.28857
#
# Static dielectric constant tensor:
#      x y z
#    x 3.578070 -0.070980 -0.200380 
#    y -0.070980 4.222640 -0.198490 
#    z -0.200380 -0.198490 3.744600 
# 
# 
# High freq. dielectric constant tensor:
#      x y z
#    x 1.777810 -0.011770 -0.015030 
#    y -0.011770 1.817290 -0.007230 
#    z -0.015030 -0.007230 1.806900 
# 
# From -- ./inp_files/557395.got.cif
#   From: 2010.06.25/outbox.cif.g09.slc.cpg/sg2_279_cif.got.tgz:557395.got - 2010.06.27 13:26:56.
