data_PCOD8043097
_publ_section_title
;
Structure prediction by ZEFSAII (Michael W. Deem and Ramdas Pophale) SiO2 
 PCOD8043097
Probable space group: P -1
;
_chemical_formula_sum "Si O2"
_cell_formula_units_Z 14
_cell_length_a 6.981634
_cell_length_b 16.902407
_cell_length_c 11.858081
_cell_angle_alpha 36.710342
_cell_angle_beta 55.269201
_cell_angle_gamma 66.233860
_cell_volume 683.325812
_symmetry_space_group_name_H-M "P -1"
_symmetry_group_IT_number 2
_symmetry_cell_setting 'triclinic'
loop_
_space_group_symop_operation_xyz
x,y,z
-x,-y,-z
loop_
_atom_site_type_symbol
_atom_site_label
_atom_site_fract_x
_atom_site_fract_y
_atom_site_fract_z
Si Si1 0.617314 0.919902 0.456467
Si Si2 0.964146 0.675669 0.254859
Si Si3 0.953040 0.416998 0.435167
Si Si4 0.110129 0.038561 0.110855
Si Si5 0.524278 0.971405 0.177209
Si Si6 0.556161 0.334047 0.489098
Si Si7 0.442168 0.372372 0.241652
O O1 0.550557 0.982155 0.288921
O O2 0.514262 0.765037 0.679057
O O3 0.500000 0.000000 0.500000
O O4 0.901754 0.934808 0.349107
O O5 0.033247 0.573778 0.252229
O O6 0.694298 0.630391 0.426560
O O7 0.118306 0.658791 0.335863
O O8 0.005787 0.824930 0.024643
O O9 0.744899 0.405110 0.429131
O O10 0.168357 0.350956 0.386195
O O11 0.323610 0.062307 0.102307
O O12 0.223017 0.986227 0.016594
O O13 0.434718 0.823596 0.333050
O O14 0.597882 0.389336 0.284179
O O15 0.500000 0.500000 0.000000
#
# Coordination Sequence:
#
# PCOD8043097 Si02
#       7
#     2   2   2   2   2   2   2
#     4  11  24  40  60  87 120 158 193 243 300 346
#     4   9  20  33  56  91 117 141 188 243 285 345
#     4  10  19  36  58  82 118 153 184 238 292 335
#     4  10  20  37  61  88 117 152 196 240 297 348
#     4   9  20  38  61  88 116 150 195 248 288 354
#     4   9  18  36  58  83 113 147 189 237 291 338
#     4  10  23  40  57  80 114 154 202 231 276 350
#
# _framework density 20.488032
#
# number of rings (size 3 to 8) (size 9 to 14) (size 15 to 20)
#    0.000    2.286    0.000    2.571    2.000    4.571 
#    2.571    0.000    0.000    0.000    0.000    0.000 
#    0.000    0.000    0.000    0.000    0.000    0.000 
#
# Total GULP energy -173562.866001 kJ/mol
# GULP energy per Si atom -12397.347572 kJ/mol
# Density = 2.044140 g / cm^3
# Si number density = 20.488032 Si / 1000 Ang^3
#
#
#
# Elastic Constant Matrix: (Units=GPa)
#
#
# Indices 1 2 3 4 5 6 
#
# 1 126.3757 39.7596 38.5255 3.6358 9.9057 9.5094
# 2 39.7596 106.8635 32.9368 2.7170 9.1379 13.8065
# 3 38.5255 32.9368 80.1613 6.1944 3.6375 2.0025
# 4 3.6358 2.7170 6.1944 24.9692 -1.1587 9.8301
# 5 9.9057 9.1379 3.6375 -1.1587 20.9457 -4.5015
# 6 9.5094 13.8065 2.0025 9.8301 -4.5015 25.3327
#
#
#
# Elastic Compliance Matrix: (Units=1/GPa)
#
#
# Indices 1 2 3 4 5 6 
#
# 1 0.010263 -0.001787 -0.003993 0.000940 -0.004115 -0.003659
# 2 -0.001787 0.012739 -0.004139 0.002800 -0.005562 -0.008020
# 3 -0.003993 -0.004139 0.016274 -0.004738 0.001592 0.004590
# 4 0.000940 0.002800 -0.004738 0.048909 -0.002640 -0.020952
# 5 -0.004115 -0.005562 0.001592 -0.002640 0.054968 0.015242
# 6 -0.003659 -0.008020 0.004590 -0.020952 0.015242 0.055695
#
#
# Mechanical properties :
#
#
# Convention : Reuss Voigt Hill
#
# Bulk Modulus (GPa) = 51.44532 59.53828 55.49180
# Shear Modulus (GPa) = 22.20592 27.72809 24.96700
#
# Velocity S-wave (km/s) = 3.29576 3.68282 3.49465
# Velocity P-wave (km/s) = 6.29660 6.87076 6.58993
#
# Compressibility (1/GPa) = 0.01943812
#
# Stress axis : x y z
#
# Youngs Moduli (GPa) = 97.43569 78.49988 61.44933
#
# Poissons Ratio (x) = 0.14030 0.24535
# Poissons Ratio (y) = 0.17414 0.25433
# Poissons Ratio (z) = 0.38903 0.32490
#
# Static dielectric constant tensor:
#      x y z
#    x 3.730160 -0.078310 0.223620 
#    y -0.078310 3.645100 -0.048010 
#    z 0.223620 -0.048010 3.484990 
# 
# 
# High freq. dielectric constant tensor:
#      x y z
#    x 1.805400 -0.005840 0.014290 
#    y -0.005840 1.797300 -0.011770 
#    z 0.014290 -0.011770 1.777410 
# 
# From -- ./inp_files/369287.got.cif
#   From: 2010.06.25/outbox.cif.g09.slc.cpg/sg2_185_cif.got.tgz:369287.got - 2010.06.27 13:26:56.
