data_PCOD8043831
_publ_section_title
;
Structure prediction by ZEFSAII (Michael W. Deem and Ramdas Pophale) SiO2 
 PCOD8043831
Probable space group: P -1
;
_chemical_formula_sum "Si O2"
_cell_formula_units_Z 10
_cell_length_a 17.069206
_cell_length_b 5.196103
_cell_length_c 6.862624
_cell_angle_alpha 77.845474
_cell_angle_beta 91.046129
_cell_angle_gamma 122.086649
_cell_volume 500.903654
_symmetry_space_group_name_H-M "P -1"
_symmetry_group_IT_number 2
_symmetry_cell_setting 'triclinic'
loop_
_space_group_symop_operation_xyz
x,y,z
-x,-y,-z
loop_
_atom_site_type_symbol
_atom_site_label
_atom_site_fract_x
_atom_site_fract_y
_atom_site_fract_z
Si Si1 0.149202 0.372117 0.648992
Si Si2 0.608605 0.732731 0.491301
Si Si3 0.729418 0.197781 0.104897
Si Si4 0.913632 0.294804 0.166668
Si Si5 0.309027 0.677722 0.333168
O O1 0.200697 0.500911 0.423631
O O2 0.232560 0.505906 0.793196
O O3 0.083980 0.505433 0.676872
O O4 0.084086 0.998154 0.707118
O O5 0.500000 0.500000 0.500000
O O6 0.655087 0.551479 0.599555
O O7 0.626641 0.997403 0.604039
O O8 0.651110 0.882927 0.259443
O O9 0.817997 0.171010 0.061291
O O10 0.685122 0.249188 0.906281
O O11 0.000000 0.500000 0.000000
#
# Coordination Sequence:
#
# PCOD8043831 Si02
#       5
#     2   2   2   2   2
#     4   9  19  37  55  82 117 148 189 235 280 332
#     4  11  24  40  59  87 119 148 192 243 283 340
#     4   9  23  36  63  82 119 152 193 232 289 333
#     4  10  19  37  60  82 117 152 185 237 287 329
#     4  11  21  39  62  83 116 156 191 231 291 341
#
# _framework density 19.963918
#
# number of rings (size 3 to 8) (size 9 to 14) (size 15 to 20)
#    1.200    0.800    2.000    1.200    2.800    1.600 
#    0.000    2.000    0.000    0.000    0.000    0.000 
#    0.000    0.000    0.000    0.000    0.000    0.000 
#
# Total GULP energy -123934.562023 kJ/mol
# GULP energy per Si atom -12393.456202 kJ/mol
# Density = 1.991848 g / cm^3
# Si number density = 19.963918 Si / 1000 Ang^3
#
#
#
# Elastic Constant Matrix: (Units=GPa)
#
#
# Indices 1 2 3 4 5 6 
#
# 1 71.5995 24.6686 39.8242 -21.0590 -19.0375 -0.4944
# 2 24.6686 109.4613 34.0859 -29.7734 -4.0514 -15.0856
# 3 39.8242 34.0859 137.5995 -21.9994 4.1677 5.5973
# 4 -21.0590 -29.7734 -21.9994 28.4751 4.1816 -5.8048
# 5 -19.0375 -4.0514 4.1677 4.1816 23.3237 -14.2508
# 6 -0.4944 -15.0856 5.5973 -5.8048 -14.2508 37.7574
#
#
#
# Elastic Compliance Matrix: (Units=1/GPa)
#
#
# Indices 1 2 3 4 5 6 
#
# 1 0.036797 0.006947 -0.010771 0.024833 0.044207 0.025357
# 2 0.006947 0.017684 -0.004128 0.021573 0.016097 0.017160
# 3 -0.010771 -0.004128 0.011957 -0.002616 -0.017675 -0.010636
# 4 0.024833 0.021573 -0.002616 0.076157 0.030786 0.032660
# 5 0.044207 0.016097 -0.017675 0.030786 0.114596 0.057615
# 6 0.025357 0.017160 -0.010636 0.032660 0.057615 0.062017
#
#
# Mechanical properties :
#
#
# Convention : Reuss Voigt Hill
#
# Bulk Modulus (GPa) = 19.78843 57.31310 38.55077
# Shear Modulus (GPa) = 14.20631 32.58335 23.39483
#
# Velocity S-wave (km/s) = 2.67048 4.04432 3.42695
# Velocity P-wave (km/s) = 4.40933 7.11192 5.91699
#
# Compressibility (1/GPa) = 0.05053457
#
# Stress axis : x y z
#
# Youngs Moduli (GPa) = 27.17594 56.54762 83.63333
#
# Poissons Ratio (x) = -0.39281 0.90080
# Poissons Ratio (y) = -0.18878 0.34521
# Poissons Ratio (z) = 0.29271 0.23341
#
# Static dielectric constant tensor:
#      x y z
#    x 3.478830 -0.138870 -0.253580 
#    y -0.138870 3.655450 -0.186000 
#    z -0.253580 -0.186000 3.537320 
# 
# 
# High freq. dielectric constant tensor:
#      x y z
#    x 1.764500 -0.012350 -0.019150 
#    y -0.012350 1.784230 -0.017590 
#    z -0.019150 -0.017590 1.767570 
# 
# From -- ./inp_files/2264.got.cif
#   From: 2010.06.25/outbox.cif.g09.slc.cpg/sg2_2_cif.got.tgz:2264.got - 2010.06.27 13:26:56.
