data_PCOD8043368
_publ_section_title
;
Structure prediction by ZEFSAII (Michael W. Deem and Ramdas Pophale) SiO2 
 PCOD8043368
Probable space group: P -1
;
_chemical_formula_sum "Si O2"
_cell_formula_units_Z 14
_cell_length_a 6.696411
_cell_length_b 19.542526
_cell_length_c 16.077056
_cell_angle_alpha 24.540227
_cell_angle_beta 51.740467
_cell_angle_gamma 43.119609
_cell_volume 589.806695
_symmetry_space_group_name_H-M "P -1"
_symmetry_group_IT_number 2
_symmetry_cell_setting 'triclinic'
loop_
_space_group_symop_operation_xyz
x,y,z
-x,-y,-z
loop_
_atom_site_type_symbol
_atom_site_label
_atom_site_fract_x
_atom_site_fract_y
_atom_site_fract_z
Si Si1 0.866841 0.970744 0.188776
Si Si2 0.524464 0.461931 0.264411
Si Si3 0.458115 0.819971 0.798754
Si Si4 0.098750 0.352758 0.558108
Si Si5 0.055074 0.090850 0.465728
Si Si6 0.565110 0.352367 0.752415
Si Si7 0.467006 0.203368 0.788523
O O1 0.675260 0.037873 0.246644
O O2 0.747173 0.856060 0.293261
O O3 0.826228 0.151436 0.946356
O O4 0.210677 0.828446 0.281170
O O5 0.203728 0.480054 0.338921
O O6 0.626030 0.507826 0.277027
O O7 0.753729 0.246685 0.415459
O O8 0.497357 0.613074 0.035264
O O9 0.773241 0.797193 0.723046
O O10 0.240119 0.910368 0.677489
O O11 0.213839 0.339928 0.637385
O O12 0.740273 0.435987 0.561280
O O13 0.000000 0.000000 0.500000
O O14 0.368378 0.303154 0.795780
O O15 0.500000 0.000000 0.000000
#
# Coordination Sequence:
#
# PCOD8043368 Si02
#       7
#     2   2   2   2   2   2   2
#     4  10  19  36  61  92 126 173 216 258 315 380
#     4  11  24  42  66  99 134 168 217 270 324 387
#     4  10  24  45  69  95 131 164 212 276 330 384
#     4  11  20  36  60  91 135 177 213 257 312 376
#     4  11  24  48  73  95 122 167 217 269 338 396
#     4  10  21  37  56  92 134 174 214 263 308 372
#     4  11  18  33  61  90 127 178 220 253 306 369
#
# _framework density 23.73659
#
# number of rings (size 3 to 8) (size 9 to 14) (size 15 to 20)
#    0.000    1.429    2.857    3.429    0.000    1.143 
#    0.000    8.571    0.000    0.000    0.000    0.000 
#    0.000    0.000    0.000    0.000    0.000    0.000 
#
# Total GULP energy -173576.387523 kJ/mol
# GULP energy per Si atom -12398.313394 kJ/mol
# Density = 2.368256 g / cm^3
# Si number density = 23.736590 Si / 1000 Ang^3
#
#
#
# Elastic Constant Matrix: (Units=GPa)
#
#
# Indices 1 2 3 4 5 6 
#
# 1 142.1815 55.3836 60.3922 -5.0901 0.1237 20.3082
# 2 55.3836 119.9094 28.9064 -11.0053 -3.6731 18.4251
# 3 60.3922 28.9064 131.9690 11.7745 -14.4272 0.7713
# 4 -5.0901 -11.0053 11.7745 38.5432 0.9999 -9.6754
# 5 0.1237 -3.6731 -14.4272 0.9999 35.4335 -8.2918
# 6 20.3082 18.4251 0.7713 -9.6754 -8.2918 48.5817
#
#
#
# Elastic Compliance Matrix: (Units=1/GPa)
#
#
# Indices 1 2 3 4 5 6 
#
# 1 0.010859 -0.003349 -0.004656 0.001100 -0.003133 -0.003511
# 2 -0.003349 0.010675 -0.000988 0.002368 0.000149 -0.002136
# 3 -0.004656 -0.000988 0.010786 -0.003757 0.004937 0.002244
# 4 0.001100 0.002368 -0.003757 0.029020 -0.001102 0.004293
# 5 -0.003133 0.000149 0.004937 -0.001102 0.031783 0.006380
# 6 -0.003511 -0.002136 0.002244 0.004293 0.006380 0.024770
#
#
# Mechanical properties :
#
#
# Convention : Reuss Voigt Hill
#
# Bulk Modulus (GPa) = 69.76245 75.93604 72.84925
# Shear Modulus (GPa) = 35.54763 41.13684 38.34223
#
# Velocity S-wave (km/s) = 3.87407 4.16752 4.02347
# Velocity P-wave (km/s) = 7.03315 7.43089 7.23476
#
# Compressibility (1/GPa) = 0.01433436
#
# Stress axis : x y z
#
# Youngs Moduli (GPa) = 92.09042 93.68057 92.70862
#
# Poissons Ratio (x) = 0.31370 0.43165
# Poissons Ratio (y) = 0.30837 0.09161
# Poissons Ratio (z) = 0.42877 0.09257
#
# Static dielectric constant tensor:
#      x y z
#    x 4.499040 0.283750 -0.100540 
#    y 0.283750 4.338260 -0.097540 
#    z -0.100540 -0.097540 4.530630 
# 
# 
# High freq. dielectric constant tensor:
#      x y z
#    x 1.945430 0.019180 -0.011450 
#    y 0.019180 1.940500 -0.018390 
#    z -0.011450 -0.018390 1.959830 
# 
# From -- ./inp_files/221781.got.cif
#   From: 2010.06.25/outbox.cif.g09.slc.cpg/sg2_111_cif.got.tgz:221781.got - 2010.06.27 13:26:56.
