data_PCOD8043272
_publ_section_title
;
Structure prediction by ZEFSAII (Michael W. Deem and Ramdas Pophale) SiO2 
 PCOD8043272
Probable space group: P -1
;
_chemical_formula_sum "Si O2"
_cell_formula_units_Z 14
_cell_length_a 11.531655
_cell_length_b 19.052248
_cell_length_c 15.293219
_cell_angle_alpha 24.164163
_cell_angle_beta 152.416959
_cell_angle_gamma 146.008766
_cell_volume 633.147733
_symmetry_space_group_name_H-M "P -1"
_symmetry_group_IT_number 2
_symmetry_cell_setting 'triclinic'
loop_
_space_group_symop_operation_xyz
x,y,z
-x,-y,-z
loop_
_atom_site_type_symbol
_atom_site_label
_atom_site_fract_x
_atom_site_fract_y
_atom_site_fract_z
Si Si1 0.284870 0.523871 0.554817
Si Si2 0.187330 0.658415 0.637007
Si Si3 0.401127 0.371897 0.505095
Si Si4 0.430866 0.370715 0.217184
Si Si5 0.063441 0.850985 0.499701
Si Si6 0.309771 0.880522 0.101382
Si Si7 0.259863 0.031834 0.584816
O O1 0.538135 0.525807 0.661571
O O2 0.369695 0.500843 0.738055
O O3 0.182531 0.712776 0.261000
O O4 0.075590 0.370992 0.558676
O O5 0.414367 0.715854 0.657044
O O6 0.186547 0.808953 0.537426
O O7 0.225280 0.479415 0.913688
O O8 0.500000 0.500000 0.500000
O O9 0.107302 0.318174 0.386757
O O10 0.538954 0.193276 0.796634
O O11 0.287522 0.228677 0.345620
O O12 0.266791 0.903776 0.651671
O O13 0.908219 0.013761 0.198012
O O14 0.506106 0.996270 0.164065
O O15 0.000000 0.000000 0.500000
#
# Coordination Sequence:
#
# PCOD8043272 Si02
#       7
#     2   2   2   2   2   2   2
#     4   9  19  39  61  82 116 157 194 249 293 340
#     4  11  23  38  62  86 119 162 194 248 294 348
#     4  10  19  36  60  91 115 150 203 240 293 353
#     4  10  23  42  59  86 118 156 209 239 290 360
#     4  12  21  37  58  89 119 156 195 238 307 346
#     4   9  21  36  59  87 117 154 191 246 289 352
#     4  11  22  39  63  86 118 159 195 243 302 348
#
# _framework density 22.111743000000001
#
# number of rings (size 3 to 8) (size 9 to 14) (size 15 to 20)
#    0.857    0.857    2.857    1.714    0.000    1.714 
#    0.000    4.286    0.000    0.000    0.000    0.000 
#    0.000    0.000    0.000    0.000    0.000    0.000 
#
# Total GULP energy -173510.554124 kJ/mol
# GULP energy per Si atom -12393.611009 kJ/mol
# Density = 2.206142 g / cm^3
# Si number density = 22.111743 Si / 1000 Ang^3
#
#
#
# Elastic Constant Matrix: (Units=GPa)
#
#
# Indices 1 2 3 4 5 6 
#
# 1 104.6828 29.9846 25.0481 -3.8387 4.7931 -28.8174
# 2 29.9846 138.5829 18.5838 11.5222 4.2747 -43.4938
# 3 25.0481 18.5838 33.0006 9.4046 -0.8168 -6.7674
# 4 -3.8387 11.5222 9.4046 18.8987 -4.4591 -5.2150
# 5 4.7931 4.2747 -0.8168 -4.4591 24.0099 -8.7756
# 6 -28.8174 -43.4938 -6.7674 -5.2150 -8.7756 48.8222
#
#
#
# Elastic Compliance Matrix: (Units=1/GPa)
#
#
# Indices 1 2 3 4 5 6 
#
# 1 0.015754 0.000238 -0.013831 0.013044 0.002194 0.009382
# 2 0.000238 0.010639 -0.003764 -0.001853 0.000898 0.009060
# 3 -0.013831 -0.003764 0.049121 -0.027971 -0.003109 -0.008254
# 4 0.013044 -0.001853 -0.027971 0.078139 0.016194 0.013428
# 5 0.002194 0.000898 -0.003109 0.016194 0.048372 0.012088
# 6 0.009382 0.009060 -0.008254 0.013428 0.012088 0.036554
#
#
# Mechanical properties :
#
#
# Convention : Reuss Voigt Hill
#
# Bulk Modulus (GPa) = 24.50883 47.05547 35.78215
# Shear Modulus (GPa) = 17.42810 31.85615 24.64213
#
# Velocity S-wave (km/s) = 2.81051 3.79976 3.34194
# Velocity P-wave (km/s) = 4.65189 6.37007 5.57754
#
# Compressibility (1/GPa) = 0.04080163
#
# Stress axis : x y z
#
# Youngs Moduli (GPa) = 63.47445 93.99437 20.35771
#
# Poissons Ratio (x) = -0.02240 0.28157
# Poissons Ratio (y) = -0.01512 0.07662
# Poissons Ratio (z) = 0.87792 0.35377
#
# Static dielectric constant tensor:
#      x y z
#    x 4.108350 -0.190210 -0.111710 
#    y -0.190210 4.173810 0.188120 
#    z -0.111710 0.188120 3.534410 
# 
# 
# High freq. dielectric constant tensor:
#      x y z
#    x 1.870830 -0.013600 -0.011100 
#    y -0.013600 1.879850 0.010660 
#    z -0.011100 0.010660 1.826170 
# 
# From -- ./inp_files/522763.got.cif
#   From: 2010.06.25/outbox.cif.g09.slc.cpg/sg2_262_cif.got.tgz:522763.got - 2010.06.27 13:26:56.
