data_PCOD8043825
_publ_section_title
;
Structure prediction by ZEFSAII (Michael W. Deem and Ramdas Pophale) SiO2 
 PCOD8043825
Probable space group: P -1
;
_chemical_formula_sum "Si O2"
_cell_formula_units_Z 14
_cell_length_a 5.156046
_cell_length_b 25.694639
_cell_length_c 6.884052
_cell_angle_alpha 59.950563
_cell_angle_beta 106.625544
_cell_angle_gamma 114.318397
_cell_volume 715.690581
_symmetry_space_group_name_H-M "P -1"
_symmetry_group_IT_number 2
_symmetry_cell_setting 'triclinic'
loop_
_space_group_symop_operation_xyz
x,y,z
-x,-y,-z
loop_
_atom_site_type_symbol
_atom_site_label
_atom_site_fract_x
_atom_site_fract_y
_atom_site_fract_z
Si Si1 0.802702 0.109076 0.124954
Si Si2 0.470305 0.724679 0.050942
Si Si3 0.975209 0.778931 0.772197
Si Si4 0.673314 0.422739 0.712036
Si Si5 0.169159 0.061584 0.039575
Si Si6 0.120390 0.187672 0.726767
Si Si7 0.327083 0.482398 0.795834
O O1 0.883333 0.147275 0.272008
O O2 0.483487 0.059990 0.159885
O O3 0.006793 0.066629 0.197780
O O4 0.849855 0.163069 0.863785
O O5 0.167892 0.735755 0.944880
O O6 0.663423 0.749430 0.855533
O O7 0.417839 0.651244 0.211759
O O8 0.617482 0.761961 0.203044
O O9 0.953391 0.777943 0.537914
O O10 0.453738 0.435195 0.794695
O O11 0.645059 0.454694 0.440608
O O12 0.990794 0.447505 0.826369
O O13 0.204611 0.125197 0.800987
O O14 0.000000 0.000000 0.000000
O O15 0.500000 0.500000 0.000000
#
# Coordination Sequence:
#
# PCOD8043825 Si02
#       7
#     2   2   2   2   2   2   2
#     4   9  19  37  54  80 113 144 187 239 287 339
#     4  11  23  38  57  88 121 146 199 235 282 345
#     4  11  21  38  59  82 116 157 188 238 292 342
#     4  10  22  38  60  89 117 155 189 239 282 337
#     4  10  19  37  60  80 113 151 190 240 291 338
#     4   9  23  36  61  79 118 152 189 239 296 331
#     4  10  21  41  63  85 120 153 191 235 286 333
#
# _framework density 19.561527999999999
#
# number of rings (size 3 to 8) (size 9 to 14) (size 15 to 20)
#    0.857    1.143    1.429    1.714    2.000    2.286 
#    0.000    1.429    0.000    0.000    0.000    0.000 
#    0.000    0.000    0.000    0.000    0.000    0.000 
#
# Total GULP energy -173527.188001 kJ/mol
# GULP energy per Si atom -12394.799143 kJ/mol
# Density = 1.951700 g / cm^3
# Si number density = 19.561528 Si / 1000 Ang^3
#
#
#
# Elastic Constant Matrix: (Units=GPa)
#
#
# Indices 1 2 3 4 5 6 
#
# 1 107.4763 16.1300 14.7379 1.9959 4.9341 -0.1989
# 2 16.1300 117.1846 42.0015 -8.9872 10.2146 -6.3543
# 3 14.7379 42.0015 86.5137 26.4941 7.7018 2.0728
# 4 1.9959 -8.9872 26.4941 15.8351 0.6596 2.3665
# 5 4.9341 10.2146 7.7018 0.6596 18.9084 0.2267
# 6 -0.1989 -6.3543 2.0728 2.3665 0.2267 30.3085
#
#
#
# Elastic Compliance Matrix: (Units=1/GPa)
#
#
# Indices 1 2 3 4 5 6 
#
# 1 0.009657 -0.000435 -0.001768 0.001565 -0.001619 -0.000017
# 2 -0.000435 0.028923 -0.038460 0.080568 -0.002685 0.002421
# 3 -0.001768 -0.038460 0.076867 -0.149772 -0.004827 -0.001602
# 4 0.001565 0.080568 -0.149772 0.359220 0.004553 -0.000937
# 5 -0.001619 -0.002685 -0.004827 0.004553 0.056579 -0.001022
# 6 -0.000017 0.002421 -0.001602 -0.000937 -0.001022 0.033692
#
#
# Mechanical properties :
#
#
# Convention : Reuss Voigt Hill
#
# Bulk Modulus (GPa) = 29.30866 50.76815 40.03841
# Shear Modulus (GPa) = 7.60297 28.89740 18.25019
#
# Velocity S-wave (km/s) = 1.97361 3.84768 3.05776
# Velocity P-wave (km/s) = 4.49543 6.76379 5.74272
#
# Compressibility (1/GPa) = 0.03411960
#
# Stress axis : x y z
#
# Youngs Moduli (GPa) = 103.54708 34.57510 13.00956
#
# Poissons Ratio (x) = 0.01505 0.02301
# Poissons Ratio (y) = 0.04507 0.50034
# Poissons Ratio (z) = 0.18312 1.32975
#
# Static dielectric constant tensor:
#      x y z
#    x 3.738070 0.004300 0.113960 
#    y 0.004300 3.469270 0.178070 
#    z 0.113960 0.178070 4.654600 
# 
# 
# High freq. dielectric constant tensor:
#      x y z
#    x 1.776140 -0.000320 -0.001570 
#    y -0.000320 1.764390 0.004920 
#    z -0.001570 0.004920 1.732890 
# 
# From -- ./inp_files/14032.got.cif
#   From: 2010.06.25/outbox.cif.g09.slc.cpg/sg2_8_cif.got.tgz:14032.got - 2010.06.27 13:26:56.
