data_PCOD8043616
_publ_section_title
;
Structure prediction by ZEFSAII (Michael W. Deem and Ramdas Pophale) SiO2 
 PCOD8043616
Probable space group: P -1
;
_chemical_formula_sum "Si O2"
_cell_formula_units_Z 16
_cell_length_a 21.294037
_cell_length_b 8.949633
_cell_length_c 18.583824
_cell_angle_alpha 141.633762
_cell_angle_beta 29.519875
_cell_angle_gamma 153.263779
_cell_volume 784.679891
_symmetry_space_group_name_H-M "P -1"
_symmetry_group_IT_number 2
_symmetry_cell_setting 'triclinic'
loop_
_space_group_symop_operation_xyz
x,y,z
-x,-y,-z
loop_
_atom_site_type_symbol
_atom_site_label
_atom_site_fract_x
_atom_site_fract_y
_atom_site_fract_z
Si Si1 0.797454 0.281639 0.129377
Si Si2 0.804346 0.035676 0.549810
Si Si3 0.481797 0.201259 0.888584
Si Si4 0.329061 0.786970 0.508361
Si Si5 0.386853 0.528063 0.574667
Si Si6 0.512316 0.887988 0.868340
Si Si7 0.610996 0.805963 0.268896
Si Si8 0.833931 0.468964 0.569285
O O1 0.780271 0.553913 0.254763
O O2 0.693508 0.057528 0.079307
O O3 0.731841 0.038037 0.169855
O O4 0.000000 0.500000 0.000000
O O5 0.846842 0.225985 0.503477
O O6 0.984532 0.157433 0.448407
O O7 0.664831 0.651875 0.518817
O O8 0.713947 0.084034 0.719353
O O9 0.659881 0.373265 0.733294
O O10 0.447415 0.995467 0.915410
O O11 0.500000 0.500000 0.000000
O O12 0.405559 0.633426 0.404813
O O13 0.166354 0.548191 0.524568
O O14 0.490473 0.082694 0.410450
O O15 0.292066 0.942212 0.664015
O O16 0.500000 0.500000 0.500000
O O17 0.393742 0.490956 0.833794
O O18 0.500000 0.000000 0.000000
#
# Coordination Sequence:
#
# PCOD8043616 Si02
#       8
#     2   2   2   2   2   2   2   2
#     4  11  25  43  64  96 126 167 221 270 321 393
#     4  10  21  36  62  96 125 159 222 260 312 386
#     4  11  23  42  66  89 130 177 210 253 328 392
#     4  10  19  36  66  88 124 162 211 269 324 375
#     4  11  18  37  68  93 118 167 217 265 315 386
#     4  11  23  41  65  92 132 174 208 264 329 390
#     4  10  21  40  65  91 125 169 214 263 329 379
#     4  10  20  38  61  94 124 163 210 269 313 379
#
# _framework density 20.390481000000001
#
# number of rings (size 3 to 8) (size 9 to 14) (size 15 to 20)
#    0.000    1.500    5.000    1.500    1.750    0.000 
#    4.500    1.250    0.000    0.000    0.000    0.000 
#    0.000    0.000    0.000    0.000    0.000    0.000 
#
# Total GULP energy -198234.064303 kJ/mol
# GULP energy per Si atom -12389.629019 kJ/mol
# Density = 2.034407 g / cm^3
# Si number density = 20.390481 Si / 1000 Ang^3
#
#
#
# Elastic Constant Matrix: (Units=GPa)
#
#
# Indices 1 2 3 4 5 6 
#
# 1 163.0262 69.5840 77.2130 6.9982 8.0449 20.9133
# 2 69.5840 83.6809 55.3497 12.9145 -7.7621 10.3698
# 3 77.2130 55.3497 119.8100 14.6878 0.9511 10.3936
# 4 6.9982 12.9145 14.6878 39.1738 3.4212 -4.0758
# 5 8.0449 -7.7621 0.9511 3.4212 36.8136 2.6974
# 6 20.9133 10.3698 10.3936 -4.0758 2.6974 47.6380
#
#
#
# Elastic Compliance Matrix: (Units=1/GPa)
#
#
# Indices 1 2 3 4 5 6 
#
# 1 0.011610 -0.007342 -0.004114 0.002009 -0.004004 -0.002203
# 2 -0.007342 0.023201 -0.005281 -0.005147 0.007223 -0.001524
# 3 -0.004114 -0.005281 0.013794 -0.002697 -0.000301 -0.000268
# 4 0.002009 -0.005147 -0.002697 0.028625 -0.004373 0.003523
# 5 -0.004004 0.007223 -0.000301 -0.004373 0.030110 -0.001828
# 6 -0.002203 -0.001524 -0.000268 0.003523 -0.001828 0.022754
#
#
# Mechanical properties :
#
#
# Convention : Reuss Voigt Hill
#
# Bulk Modulus (GPa) = 66.08709 85.64561 75.86635
# Shear Modulus (GPa) = 29.65399 35.68311 32.66855
#
# Velocity S-wave (km/s) = 3.81767 4.18782 4.00703
# Velocity P-wave (km/s) = 7.20513 8.09183 7.66132
#
# Compressibility (1/GPa) = 0.01513155
#
# Stress axis : x y z
#
# Youngs Moduli (GPa) = 86.13331 43.10089 72.49515
#
# Poissons Ratio (x) = 0.31643 0.29824
# Poissons Ratio (y) = 0.63235 0.38287
# Poissons Ratio (z) = 0.35435 0.22763
#
# Static dielectric constant tensor:
#      x y z
#    x 3.590230 0.132540 -0.061480 
#    y 0.132540 3.614320 0.168510 
#    z -0.061480 0.168510 3.733870 
# 
# 
# High freq. dielectric constant tensor:
#      x y z
#    x 1.810450 -0.003960 0.008920 
#    y -0.003960 1.786930 0.013140 
#    z 0.008920 0.013140 1.783050 
# 
# From -- ./inp_files/577627.got.cif
#   From: 2010.06.25/outbox.cif.g09.slc.cpg/sg2_289_cif.got.tgz:577627.got - 2010.06.27 13:26:56.
