data_PCOD8043324
_publ_section_title
;
Structure prediction by ZEFSAII (Michael W. Deem and Ramdas Pophale) SiO2 
 PCOD8043324
Probable space group: P -1
;
_chemical_formula_sum "Si O2"
_cell_formula_units_Z 16
_cell_length_a 18.627831
_cell_length_b 21.700621
_cell_length_c 5.147629
_cell_angle_alpha 70.777688
_cell_angle_beta 96.632210
_cell_angle_gamma 153.177853
_cell_volume 805.200202
_symmetry_space_group_name_H-M "P -1"
_symmetry_group_IT_number 2
_symmetry_cell_setting 'triclinic'
loop_
_space_group_symop_operation_xyz
x,y,z
-x,-y,-z
loop_
_atom_site_type_symbol
_atom_site_label
_atom_site_fract_x
_atom_site_fract_y
_atom_site_fract_z
Si Si1 0.840017 0.417681 0.520003
Si Si2 0.025185 0.964090 0.855616
Si Si3 0.345691 0.783071 0.787215
Si Si4 0.704362 0.740096 0.697281
Si Si5 0.853029 0.692947 0.184413
Si Si6 0.358605 0.449554 0.219907
Si Si7 0.952630 0.283117 0.762395
Si Si8 0.261379 0.863876 0.632057
O O1 0.736010 0.318073 0.354506
O O2 0.000000 0.500000 0.500000
O O3 0.905284 0.545127 0.351042
O O4 0.707693 0.301589 0.865241
O O5 0.877501 0.850912 0.735366
O O6 0.995364 0.866163 0.083604
O O7 0.225396 0.137456 0.592899
O O8 0.000000 0.000000 0.000000
O O9 0.274125 0.797113 0.767067
O O10 0.554060 0.952544 0.616655
O O11 0.630169 0.620521 0.648666
O O12 0.554762 0.637589 0.981598
O O13 0.698920 0.566674 0.509470
O O14 0.952396 0.707305 0.216421
O O15 0.770549 0.634247 0.947695
O O16 0.873103 0.231371 0.519831
O O17 0.803091 0.158828 0.092339
#
# Coordination Sequence:
#
# PCOD8043324 Si02
#       8
#     2   2   2   2   2   2   2   2
#     4  12  21  38  62  91 118 155 203 245 292 352
#     4  10  19  36  61  87 114 150 197 243 286 348
#     4  11  22  38  64  94 118 148 207 258 292 346
#     4   9  20  34  61  90 113 147 198 248 290 335
#     4  11  24  40  58  85 122 156 196 235 295 362
#     4  10  21  38  60  87 117 153 193 244 292 342
#     4  12  24  40  62  86 123 165 197 240 305 363
#     4  11  22  40  63  90 120 157 198 251 304 347
#
# _framework density 19.870837000000002
#
# number of rings (size 3 to 8) (size 9 to 14) (size 15 to 20)
#    0.000    1.250    3.750    2.625    1.750    3.500 
#    0.000    3.750    0.000    0.000    0.000    0.000 
#    0.000    0.000    0.000    0.000    0.000    0.000 
#
# Total GULP energy -198393.996816 kJ/mol
# GULP energy per Si atom -12399.624801 kJ/mol
# Density = 1.982561 g / cm^3
# Si number density = 19.870837 Si / 1000 Ang^3
#
#
#
# Elastic Constant Matrix: (Units=GPa)
#
#
# Indices 1 2 3 4 5 6 
#
# 1 122.6780 21.5353 47.8412 -17.3605 25.6034 -7.6776
# 2 21.5353 71.8816 23.7842 -7.3562 18.6474 -6.8884
# 3 47.8412 23.7842 143.4339 -19.3000 -6.3516 -8.8336
# 4 -17.3605 -7.3562 -19.3000 46.1241 5.0995 3.8516
# 5 25.6034 18.6474 -6.3516 5.0995 68.5692 13.5626
# 6 -7.6776 -6.8884 -8.8336 3.8516 13.5626 28.3964
#
#
#
# Elastic Compliance Matrix: (Units=1/GPa)
#
#
# Indices 1 2 3 4 5 6 
#
# 1 0.011343 -0.000123 -0.003329 0.003120 -0.005582 0.004245
# 2 -0.000123 0.017131 -0.002453 0.001836 -0.006175 0.006060
# 3 -0.003329 -0.002453 0.008830 0.001779 0.002646 -0.000253
# 4 0.003120 0.001836 0.001779 0.024248 -0.003331 0.000144
# 5 -0.005582 -0.006175 0.002646 -0.003331 0.021184 -0.011850
# 6 0.004245 0.006060 -0.000253 0.000144 -0.011850 0.043395
#
#
# Mechanical properties :
#
#
# Convention : Reuss Voigt Hill
#
# Bulk Modulus (GPa) = 39.22411 58.25722 48.74066
# Shear Modulus (GPa) = 34.14388 44.94011 39.54199
#
# Velocity S-wave (km/s) = 4.14972 4.76080 4.46573
# Velocity P-wave (km/s) = 6.53779 7.72023 7.15348
#
# Compressibility (1/GPa) = 0.02549453
#
# Stress axis : x y z
#
# Youngs Moduli (GPa) = 88.15733 58.37467 113.25078
#
# Poissons Ratio (x) = 0.00717 0.37703
# Poissons Ratio (y) = 0.01082 0.27779
# Poissons Ratio (z) = 0.29349 0.14318
#
# Static dielectric constant tensor:
#      x y z
#    x 3.380980 0.017890 0.116900 
#    y 0.017890 3.295380 -0.426830 
#    z 0.116900 -0.426830 4.151030 
# 
# 
# High freq. dielectric constant tensor:
#      x y z
#    x 1.742130 -0.008080 -0.002170 
#    y -0.008080 1.780570 -0.004550 
#    z -0.002170 -0.004550 1.798930 
# 
# From -- ./inp_files/56913.got.cif
#   From: 2010.06.25/outbox.cif.g09.slc.cpg/sg2_29_cif.got.tgz:56913.got - 2010.06.27 13:26:56.
