data_PCOD8043586
_publ_section_title
;
Structure prediction by ZEFSAII (Michael W. Deem and Ramdas Pophale) SiO2 
 PCOD8043586
Probable space group: P -1
;
_chemical_formula_sum "Si O2"
_cell_formula_units_Z 14
_cell_length_a 12.757980
_cell_length_b 19.456586
_cell_length_c 9.072792
_cell_angle_alpha 151.278721
_cell_angle_beta 136.745692
_cell_angle_gamma 48.109167
_cell_volume 738.716541
_symmetry_space_group_name_H-M "P -1"
_symmetry_group_IT_number 2
_symmetry_cell_setting 'triclinic'
loop_
_space_group_symop_operation_xyz
x,y,z
-x,-y,-z
loop_
_atom_site_type_symbol
_atom_site_label
_atom_site_fract_x
_atom_site_fract_y
_atom_site_fract_z
Si Si1 0.440243 0.788504 0.275768
Si Si2 0.196165 0.365391 0.186333
Si Si3 0.689145 0.141525 0.437874
Si Si4 0.348640 0.430365 0.767299
Si Si5 0.345005 0.588798 0.558185
Si Si6 0.612345 0.907033 0.109265
Si Si7 0.840359 0.345707 0.799074
O O1 0.322341 0.763195 0.243462
O O2 0.603750 0.706260 0.334831
O O3 0.448314 0.962012 0.596480
O O4 0.381646 0.728310 0.950293
O O5 0.249773 0.380906 0.437498
O O6 0.246902 0.490552 0.372005
O O7 0.270296 0.210463 0.910831
O O8 0.014643 0.371689 0.002044
O O9 0.827232 0.188511 0.565964
O O10 0.699511 0.973528 0.181329
O O11 0.529679 0.176405 0.250326
O O12 0.500000 0.500000 0.000000
O O13 0.240698 0.538256 0.957000
O O14 0.500000 0.500000 0.500000
O O15 0.244689 0.649527 0.434209
#
# Coordination Sequence:
#
# PCOD8043586 Si02
#       7
#     2   2   2   2   2   2   2
#     4  10  19  36  65  86 108 147 208 246 270 334
#     4  12  23  38  59  90 124 148 189 249 299 349
#     4   9  17  38  63  86 110 150 202 241 278 339
#     4  12  17  37  63  87 109 148 206 241 274 336
#     4  12  23  39  61  84 117 161 199 235 284 355
#     4   9  18  37  65  84 112 148 203 246 282 332
#     4  12  24  35  57  93 124 153 185 243 309 339
#
# _framework density 18.951789000000002
#
# number of rings (size 3 to 8) (size 9 to 14) (size 15 to 20)
#    0.857    0.286    5.714    1.714    0.000    0.571 
#    0.000    3.571    0.000    0.000    0.000    0.000 
#    0.000    0.000    0.000    0.000    0.000    0.000 
#
# Total GULP energy -173479.712953 kJ/mol
# GULP energy per Si atom -12391.408068 kJ/mol
# Density = 1.890865 g / cm^3
# Si number density = 18.951789 Si / 1000 Ang^3
#
#
#
# Elastic Constant Matrix: (Units=GPa)
#
#
# Indices 1 2 3 4 5 6 
#
# 1 50.8664 -3.4714 33.6685 -5.0085 -1.9090 -5.8497
# 2 -3.4714 37.4919 22.5524 -2.1120 -11.8426 -4.8100
# 3 33.6685 22.5524 102.6563 -8.5373 -16.0495 -4.2894
# 4 -5.0085 -2.1120 -8.5373 34.3812 -3.2537 -0.3071
# 5 -1.9090 -11.8426 -16.0495 -3.2537 25.0725 -0.5540
# 6 -5.8497 -4.8100 -4.2894 -0.3071 -0.5540 25.6901
#
#
#
# Elastic Compliance Matrix: (Units=1/GPa)
#
#
# Indices 1 2 3 4 5 6 
#
# 1 0.028819 0.010539 -0.011246 0.002151 0.000400 0.006692
# 2 0.010539 0.038812 -0.009220 0.003013 0.013811 0.008461
# 3 -0.011246 -0.009220 0.016475 0.002406 0.005617 -0.001386
# 4 0.002151 0.003013 0.002406 0.030878 0.007177 0.001979
# 5 0.000400 0.013811 0.005617 0.007177 0.051071 0.004802
# 6 0.006692 0.008461 -0.001386 0.001979 0.004802 0.041929
#
#
# Mechanical properties :
#
#
# Convention : Reuss Voigt Hill
#
# Bulk Modulus (GPa) = 15.56349 32.94597 24.25473
# Shear Modulus (GPa) = 20.05973 26.24642 23.15307
#
# Velocity S-wave (km/s) = 3.25693 3.72547 3.49905
# Velocity P-wave (km/s) = 4.73006 5.99394 5.39911
#
# Compressibility (1/GPa) = 0.06425293
#
# Stress axis : x y z
#
# Youngs Moduli (GPa) = 34.69955 25.76529 60.69647
#
# Poissons Ratio (x) = -0.27155 0.68260
# Poissons Ratio (y) = -0.36571 0.55962
# Poissons Ratio (z) = 0.39023 0.23755
#
# Static dielectric constant tensor:
#      x y z
#    x 3.378780 0.075190 -0.050930 
#    y 0.075190 3.465720 0.115320 
#    z -0.050930 0.115320 3.493330 
# 
# 
# High freq. dielectric constant tensor:
#      x y z
#    x 1.713550 0.008720 -0.006540 
#    y 0.008720 1.733080 0.010190 
#    z -0.006540 0.010190 1.736810 
# 
# From -- ./inp_files/283533.got.cif
#   From: 2010.06.25/outbox.cif.g09.slc.cpg/sg2_142_cif.got.tgz:283533.got - 2010.06.27 13:26:56.
