data_PCOD8043770
_publ_section_title
;
Structure prediction by ZEFSAII (Michael W. Deem and Ramdas Pophale) SiO2 
 PCOD8043770
Probable space group: P -1
;
_chemical_formula_sum "Si O2"
_cell_formula_units_Z 14
_cell_length_a 15.807713
_cell_length_b 16.565164
_cell_length_c 9.547990
_cell_angle_alpha 97.793770
_cell_angle_beta 48.123462
_cell_angle_gamma 140.152581
_cell_volume 731.366302
_symmetry_space_group_name_H-M "P -1"
_symmetry_group_IT_number 2
_symmetry_cell_setting 'triclinic'
loop_
_space_group_symop_operation_xyz
x,y,z
-x,-y,-z
loop_
_atom_site_type_symbol
_atom_site_label
_atom_site_fract_x
_atom_site_fract_y
_atom_site_fract_z
Si Si1 0.847314 0.466608 0.253006
Si Si2 0.841698 0.644049 0.229991
Si Si3 0.299231 0.068438 0.903482
Si Si4 0.811280 0.433340 0.596684
Si Si5 0.310872 0.373106 0.891035
Si Si6 0.016334 0.044871 0.291012
Si Si7 0.523166 0.655917 0.909950
O O1 0.895663 0.583740 0.150426
O O2 0.508972 0.222127 0.575350
O O3 0.968106 0.550712 0.300339
O O4 0.000000 0.500000 0.000000
O O5 0.574632 0.487960 0.588118
O O6 0.791026 0.640451 0.128684
O O7 0.125572 0.871554 0.032075
O O8 0.493272 0.186800 0.858108
O O9 0.082354 0.001523 0.136163
O O10 0.000000 0.500000 0.500000
O O11 0.753345 0.479984 0.752586
O O12 0.405696 0.495321 0.938229
O O13 0.047874 0.140944 0.171313
O O14 0.243790 0.214608 0.201092
O O15 0.688117 0.822538 0.654356
#
# Coordination Sequence:
#
# PCOD8043770 Si02
#       7
#     2   2   2   2   2   2   2
#     4  10  23  42  63  81 123 169 198 248 299 353
#     4  11  22  38  58  91 123 162 198 245 306 355
#     4   9  20  39  61  84 125 152 199 250 294 362
#     4   9  21  43  64  87 116 160 207 249 294 356
#     4  11  22  33  60  93 126 154 200 246 298 378
#     4  10  19  37  58  92 119 159 190 247 320 345
#     4  10  20  36  62  86 124 155 198 252 302 357
#
# _framework density 19.142254000000001
#
# number of rings (size 3 to 8) (size 9 to 14) (size 15 to 20)
#    0.857    1.143    2.857    0.429    2.000    2.286 
#    0.000    0.714    0.000    0.000    0.000    0.000 
#    0.000    0.000    0.000    0.000    0.000    0.000 
#
# Total GULP energy -173543.261708 kJ/mol
# GULP energy per Si atom -12395.947265 kJ/mol
# Density = 1.909869 g / cm^3
# Si number density = 19.142254 Si / 1000 Ang^3
#
#
#
# Elastic Constant Matrix: (Units=GPa)
#
#
# Indices 1 2 3 4 5 6 
#
# 1 94.0725 44.2799 38.4789 8.4172 -0.3090 -23.2454
# 2 44.2799 89.8841 47.7110 13.8707 -2.2278 -25.9187
# 3 38.4789 47.7110 90.9575 22.4463 14.3818 -16.4013
# 4 8.4172 13.8707 22.4463 38.3757 -6.5406 0.2462
# 5 -0.3090 -2.2278 14.3818 -6.5406 25.1228 -5.3951
# 6 -23.2454 -25.9187 -16.4013 0.2462 -5.3951 26.4506
#
#
#
# Elastic Compliance Matrix: (Units=1/GPa)
#
#
# Indices 1 2 3 4 5 6 
#
# 1 0.016130 -0.002710 -0.004693 0.000970 0.004961 0.009613
# 2 -0.002710 0.022256 -0.009256 -0.000339 0.010553 0.015843
# 3 -0.004693 -0.009256 0.023280 -0.012277 -0.017894 -0.002294
# 4 0.000970 -0.000339 -0.012277 0.035803 0.015411 -0.004282
# 5 0.004961 0.010553 -0.017894 0.015411 0.058356 0.015365
# 6 0.009613 0.015843 -0.002294 -0.004282 0.015365 0.063530
#
#
# Mechanical properties :
#
#
# Convention : Reuss Voigt Hill
#
# Bulk Modulus (GPa) = 35.27502 59.53929 47.40715
# Shear Modulus (GPa) = 19.07513 27.61945 23.34729
#
# Velocity S-wave (km/s) = 3.16015 3.80261 3.49617
# Velocity P-wave (km/s) = 5.63766 7.10288 6.41226
#
# Compressibility (1/GPa) = 0.02834867
#
# Stress axis : x y z
#
# Youngs Moduli (GPa) = 61.99601 44.93207 42.95610
#
# Poissons Ratio (x) = 0.12177 0.20158
# Poissons Ratio (y) = 0.16801 0.39759
# Poissons Ratio (z) = 0.29093 0.41588
#
# Static dielectric constant tensor:
#      x y z
#    x 3.242340 0.012570 0.168620 
#    y 0.012570 3.426660 0.088480 
#    z 0.168620 0.088480 3.536380 
# 
# 
# High freq. dielectric constant tensor:
#      x y z
#    x 1.725120 -0.003060 0.013590 
#    y -0.003060 1.745400 0.010020 
#    z 0.013590 0.010020 1.737880 
# 
# From -- ./inp_files/315374.got.cif
#   From: 2010.06.25/outbox.cif.g09.slc.cpg/sg2_158_cif.got.tgz:315374.got - 2010.06.27 13:26:56.
