data_PCOD8043862
_publ_section_title
;
Structure prediction by ZEFSAII (Michael W. Deem and Ramdas Pophale) SiO2 
 PCOD8043862
Probable space group: P -1
;
_chemical_formula_sum "Si O2"
_cell_formula_units_Z 16
_cell_length_a 17.640095
_cell_length_b 8.599770
_cell_length_c 12.220894
_cell_angle_alpha 118.730170
_cell_angle_beta 52.704047
_cell_angle_gamma 149.109805
_cell_volume 753.652610
_symmetry_space_group_name_H-M "P -1"
_symmetry_group_IT_number 2
_symmetry_cell_setting 'triclinic'
loop_
_space_group_symop_operation_xyz
x,y,z
-x,-y,-z
loop_
_atom_site_type_symbol
_atom_site_label
_atom_site_fract_x
_atom_site_fract_y
_atom_site_fract_z
Si Si1 0.880010 0.433674 0.826289
Si Si2 0.804301 0.293951 0.387555
Si Si3 0.257192 0.420203 0.093872
Si Si4 0.438435 0.183333 0.189493
Si Si5 0.493922 0.592733 0.423172
Si Si6 0.613512 0.181410 0.701070
Si Si7 0.707561 0.392104 0.320140
Si Si8 0.970350 0.811120 0.056198
O O1 0.852346 0.569740 0.826281
O O2 0.021963 0.532511 0.680352
O O3 0.712809 0.066120 0.847058
O O4 0.935457 0.568088 0.947575
O O5 0.759179 0.345625 0.548732
O O6 0.818216 0.438175 0.316905
O O7 0.671855 0.941216 0.362429
O O8 0.336901 0.561478 0.192636
O O9 0.395647 0.620009 0.948797
O O10 0.136418 0.066615 0.071578
O O11 0.446050 0.395501 0.297186
O O12 0.417617 0.023610 0.256268
O O13 0.500000 0.500000 0.500000
O O14 0.357997 0.540226 0.530914
O O15 0.446687 0.958660 0.704418
O O16 0.814757 0.624603 0.203552
O O17 0.000000 0.000000 0.000000
#
# Coordination Sequence:
#
# PCOD8043862 Si02
#       8
#     2   2   2   2   2   2   2   2
#     4  10  22  36  61  88 129 157 199 251 310 359
#     4  11  24  40  59  90 131 165 194 245 316 371
#     4  10  21  35  63  92 120 155 208 264 299 343
#     4  11  20  37  62  96 117 156 210 263 295 345
#     4  11  22  37  66  92 118 159 211 247 292 359
#     4  10  19  37  60  87 122 160 202 249 308 352
#     4  11  23  41  62  88 128 165 195 250 314 364
#     4  10  21  37  63  90 120 157 208 252 299 355
#
# _framework density 21.229941
#
# number of rings (size 3 to 8) (size 9 to 14) (size 15 to 20)
#    0.000    1.500    2.500    6.000    3.500    3.500 
#    0.000    3.750    0.000    5.250    0.000    0.000 
#    0.000    0.000    0.000    0.000    0.000    0.000 
#
# Total GULP energy -198377.526664 kJ/mol
# GULP energy per Si atom -12398.595417 kJ/mol
# Density = 2.118162 g / cm^3
# Si number density = 21.229941 Si / 1000 Ang^3
#
#
#
# Elastic Constant Matrix: (Units=GPa)
#
#
# Indices 1 2 3 4 5 6 
#
# 1 64.7676 22.4692 39.4928 -7.2209 -7.9116 6.4352
# 2 22.4692 102.8995 47.1709 15.8720 1.9240 17.8342
# 3 39.4928 47.1709 116.3327 -2.4630 4.5443 18.2961
# 4 -7.2209 15.8720 -2.4630 50.4203 14.8727 -0.1681
# 5 -7.9116 1.9240 4.5443 14.8727 17.5881 -2.1342
# 6 6.4352 17.8342 18.2961 -0.1681 -2.1342 22.1822
#
#
#
# Elastic Compliance Matrix: (Units=1/GPa)
#
#
# Indices 1 2 3 4 5 6 
#
# 1 0.022000 -0.001975 -0.007592 -0.000329 0.012678 0.002685
# 2 -0.001975 0.014130 -0.004158 -0.005730 0.002618 -0.007149
# 3 -0.007592 -0.004158 0.014568 0.004211 -0.011197 -0.007516
# 4 -0.000329 -0.005730 0.004211 0.029322 -0.025526 -0.001005
# 5 0.012678 0.002618 -0.011197 -0.025526 0.088176 0.011743
# 6 0.002685 -0.007149 -0.007516 -0.001005 0.011743 0.057371
#
#
# Mechanical properties :
#
#
# Convention : Reuss Voigt Hill
#
# Bulk Modulus (GPa) = 43.01697 55.80730 49.41213
# Shear Modulus (GPa) = 19.17436 29.69591 24.43513
#
# Velocity S-wave (km/s) = 3.00855 3.74408 3.39628
# Velocity P-wave (km/s) = 5.68989 6.71081 6.22133
#
# Compressibility (1/GPa) = 0.02324664
#
# Stress axis : x y z
#
# Youngs Moduli (GPa) = 45.45551 70.77375 68.64380
#
# Poissons Ratio (x) = 0.13979 0.52115
# Poissons Ratio (y) = 0.08978 0.28542
# Poissons Ratio (z) = 0.34510 0.29428
#
# Static dielectric constant tensor:
#      x y z
#    x 3.495710 0.322690 0.076310 
#    y 0.322690 4.741440 0.511110 
#    z 0.076310 0.511110 4.068190 
# 
# 
# High freq. dielectric constant tensor:
#      x y z
#    x 1.792970 0.018680 0.000770 
#    y 0.018680 1.839850 0.006360 
#    z 0.000770 0.006360 1.844190 
# 
# From -- ./inp_files/336691.got.cif
#   From: 2010.06.25/outbox.cif.g09.slc.cpg/sg2_169_cif.got.tgz:336691.got - 2010.06.27 13:26:56.
