data_PCOD8043623
_publ_section_title
;
Structure prediction by ZEFSAII (Michael W. Deem and Ramdas Pophale) SiO2 
 PCOD8043623
Probable space group: P -1
;
_chemical_formula_sum "Si O2"
_cell_formula_units_Z 16
_cell_length_a 15.039304
_cell_length_b 6.701737
_cell_length_c 12.950769
_cell_angle_alpha 98.580164
_cell_angle_beta 54.857889
_cell_angle_gamma 60.246580
_cell_volume 732.483139
_symmetry_space_group_name_H-M "P -1"
_symmetry_group_IT_number 2
_symmetry_cell_setting 'triclinic'
loop_
_space_group_symop_operation_xyz
x,y,z
-x,-y,-z
loop_
_atom_site_type_symbol
_atom_site_label
_atom_site_fract_x
_atom_site_fract_y
_atom_site_fract_z
Si Si1 0.987793 0.286751 0.468096
Si Si2 0.503879 0.884718 0.878976
Si Si3 0.331893 0.635867 0.603883
Si Si4 0.234247 0.660343 0.236910
Si Si5 0.138898 0.652744 0.886205
Si Si6 0.193780 0.438477 0.063255
Si Si7 0.716636 0.652065 0.535229
Si Si8 0.136928 0.275327 0.717691
O O1 0.902367 0.297115 0.621743
O O2 0.891950 0.370406 0.434535
O O3 0.000000 0.500000 0.500000
O O4 0.166693 0.975866 0.306083
O O5 0.606340 0.548984 0.815802
O O6 0.603136 0.869195 0.722183
O O7 0.500000 0.000000 0.000000
O O8 0.329017 0.085266 0.965352
O O9 0.500000 0.500000 0.500000
O O10 0.287364 0.557203 0.725077
O O11 0.343665 0.475297 0.484204
O O12 0.206058 0.983632 0.702761
O O13 0.253525 0.548633 0.099774
O O14 0.093228 0.506151 0.847651
O O15 0.189169 0.525409 0.957073
O O16 0.000000 0.000000 0.000000
O O17 0.026027 0.569780 0.217168
O O18 0.733393 0.815641 0.456662
#
# Coordination Sequence:
#
# PCOD8043623 Si02
#       8
#     2   2   2   2   2   2   2   2
#     4  10  19  36  66  94 127 166 215 266 322 389
#     4   9  21  40  66  95 128 174 212 268 333 388
#     4  11  26  43  65  97 134 174 224 275 327 392
#     4   9  20  38  61  92 129 165 213 266 319 390
#     4  11  25  42  65  98 132 167 226 274 324 398
#     4  11  21  40  70  89 134 178 209 273 340 382
#     4  10  23  40  67  97 134 170 224 266 329 391
#     4  11  24  41  66  97 129 175 224 264 331 399
#
# _framework density 21.843505
#
# number of rings (size 3 to 8) (size 9 to 14) (size 15 to 20)
#    0.000    1.750    1.250    1.875    5.250    3.000 
#    0.000    0.000    8.250    8.250    0.000    0.000 
#    0.000    0.000    0.000    0.000    0.000    0.000 
#
# Total GULP energy -198271.650990 kJ/mol
# GULP energy per Si atom -12391.978187 kJ/mol
# Density = 2.179379 g / cm^3
# Si number density = 21.843505 Si / 1000 Ang^3
#
#
#
# Elastic Constant Matrix: (Units=GPa)
#
#
# Indices 1 2 3 4 5 6 
#
# 1 128.8211 62.4000 48.4406 8.3628 -9.6688 -15.9788
# 2 62.4000 99.4620 40.0303 17.3248 -3.2708 -2.9667
# 3 48.4406 40.0303 97.9995 9.0385 2.0400 -4.1440
# 4 8.3628 17.3248 9.0385 41.7545 -15.0760 -4.9023
# 5 -9.6688 -3.2708 2.0400 -15.0760 43.7166 4.2612
# 6 -15.9788 -2.9667 -4.1440 -4.9023 4.2612 37.3912
#
#
#
# Elastic Compliance Matrix: (Units=1/GPa)
#
#
# Indices 1 2 3 4 5 6 
#
# 1 0.013210 -0.006999 -0.003789 0.002733 0.003061 0.004680
# 2 -0.006999 0.016440 -0.002786 -0.005817 -0.001947 -0.002536
# 3 -0.003789 -0.002786 0.013419 -0.001852 -0.002279 -0.000336
# 4 0.002733 -0.005817 -0.001852 0.030360 0.010404 0.003296
# 5 0.003061 -0.001947 -0.002279 0.010404 0.027182 -0.000832
# 6 0.004680 -0.002536 -0.000336 0.003296 -0.000832 0.029033
#
#
# Mechanical properties :
#
#
# Convention : Reuss Voigt Hill
#
# Bulk Modulus (GPa) = 62.80669 69.78047 66.29358
# Shear Modulus (GPa) = 30.84549 36.26656 33.55603
#
# Velocity S-wave (km/s) = 3.76189 4.07909 3.92369
# Velocity P-wave (km/s) = 6.90540 7.36208 7.13739
#
# Compressibility (1/GPa) = 0.01592187
#
# Stress axis : x y z
#
# Youngs Moduli (GPa) = 75.69796 60.82800 74.52106
#
# Poissons Ratio (x) = 0.42572 0.28235
# Poissons Ratio (y) = 0.52979 0.20762
# Poissons Ratio (z) = 0.28681 0.16947
#
# Static dielectric constant tensor:
#      x y z
#    x 3.853910 -0.208500 0.060270 
#    y -0.208500 4.154010 0.134160 
#    z 0.060270 0.134160 4.216740 
# 
# 
# High freq. dielectric constant tensor:
#      x y z
#    x 1.850610 -0.019530 0.007510 
#    y -0.019530 1.857190 0.004010 
#    z 0.007510 0.004010 1.866810 
# 
# From -- ./inp_files/525374.got.cif
#   From: 2010.06.25/outbox.cif.g09.slc.cpg/sg2_263_cif.got.tgz:525374.got - 2010.06.27 13:26:56.
