data_PCOD8043659
_publ_section_title
;
Structure prediction by ZEFSAII (Michael W. Deem and Ramdas Pophale) SiO2 
 PCOD8043659
Probable space group: P -1
;
_chemical_formula_sum "Si O2"
_cell_formula_units_Z 16
_cell_length_a 11.994844
_cell_length_b 9.769662
_cell_length_c 17.127340
_cell_angle_alpha 150.518780
_cell_angle_beta 53.997219
_cell_angle_gamma 134.158445
_cell_volume 707.648677
_symmetry_space_group_name_H-M "P -1"
_symmetry_group_IT_number 2
_symmetry_cell_setting 'triclinic'
loop_
_space_group_symop_operation_xyz
x,y,z
-x,-y,-z
loop_
_atom_site_type_symbol
_atom_site_label
_atom_site_fract_x
_atom_site_fract_y
_atom_site_fract_z
Si Si1 0.820387 0.826054 0.505909
Si Si2 0.834679 0.414556 0.850589
Si Si3 0.800667 0.433085 0.467031
Si Si4 0.747394 0.725718 0.909377
Si Si5 0.958363 0.793920 0.721683
Si Si6 0.801604 0.358426 0.165773
Si Si7 0.535750 0.824563 0.328055
Si Si8 0.766173 0.562353 0.117333
O O1 0.785801 0.637010 0.506210
O O2 0.741814 0.584552 0.346160
O O3 0.755956 0.079701 0.670248
O O4 0.000000 0.000000 0.500000
O O5 0.799703 0.665819 0.942718
O O6 0.016683 0.521279 0.833437
O O7 0.756542 0.377216 0.949327
O O8 0.811298 0.600231 0.629183
O O9 0.962699 0.417030 0.386163
O O10 0.653854 0.090221 0.352753
O O11 0.896414 0.880285 0.867644
O O12 0.616932 0.397743 0.767498
O O13 0.700510 0.008614 0.071420
O O14 0.078895 0.104613 0.781300
O O15 0.772883 0.353706 0.082713
O O16 0.616137 0.615224 0.219708
O O17 0.500000 0.000000 0.500000
#
# Coordination Sequence:
#
# PCOD8043659 Si02
#       8
#     2   2   2   2   2   2   2   2
#     4  10  22  39  66  99 139 167 219 286 347 394
#     4  11  24  41  70 105 138 172 231 288 346 401
#     4  10  21  39  66  99 133 178 234 278 337 404
#     4  12  25  41  69  99 143 184 224 280 346 408
#     4  10  19  36  69  99 129 175 232 284 339 397
#     4  11  24  42  71 104 141 173 230 288 349 397
#     4  11  26  45  68  97 144 188 231 274 342 420
#     4  11  25  42  71 102 136 179 232 289 340 407
#
# _framework density 22.61009
#
# number of rings (size 3 to 8) (size 9 to 14) (size 15 to 20)
#    0.000    1.250    2.500    3.750    7.000    1.000 
#    0.000    0.625    0.000    0.000    0.000    0.000 
#    0.000    0.000    0.000    0.000    0.000    0.000 
#
# Total GULP energy -198377.435231 kJ/mol
# GULP energy per Si atom -12398.589702 kJ/mol
# Density = 2.255863 g / cm^3
# Si number density = 22.610090 Si / 1000 Ang^3
#
#
#
# Elastic Constant Matrix: (Units=GPa)
#
#
# Indices 1 2 3 4 5 6 
#
# 1 80.8725 43.4368 29.8416 0.0893 -3.2550 -20.7881
# 2 43.4368 78.0804 39.1670 1.9464 -3.9782 -29.9889
# 3 29.8416 39.1670 154.9214 -15.1105 -0.8450 -17.3101
# 4 0.0893 1.9464 -15.1105 32.6840 -12.7954 -3.9877
# 5 -3.2550 -3.9782 -0.8450 -12.7954 23.9516 4.0876
# 6 -20.7881 -29.9889 -17.3101 -3.9877 4.0876 40.4664
#
#
#
# Elastic Compliance Matrix: (Units=1/GPa)
#
#
# Indices 1 2 3 4 5 6 
#
# 1 0.017978 -0.008543 -0.000955 0.000685 0.000935 0.002468
# 2 -0.008543 0.023661 -0.003180 -0.001483 -0.000124 0.011652
# 3 -0.000955 -0.003180 0.008017 0.004803 0.002046 0.000849
# 4 0.000685 -0.001483 0.004803 0.041837 0.021816 0.003227
# 5 0.000935 -0.000124 0.002046 0.021816 0.053931 -0.002034
# 6 0.002468 0.011652 0.000849 0.003227 -0.002034 0.035502
#
#
# Mechanical properties :
#
#
# Convention : Reuss Voigt Hill
#
# Bulk Modulus (GPa) = 41.15297 59.86279 50.50788
# Shear Modulus (GPa) = 23.32281 32.84901 28.08591
#
# Velocity S-wave (km/s) = 3.21522 3.81576 3.52829
# Velocity P-wave (km/s) = 5.65899 6.77842 6.24384
#
# Compressibility (1/GPa) = 0.02429958
#
# Stress axis : x y z
#
# Youngs Moduli (GPa) = 55.62459 42.26366 124.73091
#
# Poissons Ratio (x) = 0.36107 0.11915
# Poissons Ratio (y) = 0.47522 0.39660
# Poissons Ratio (z) = 0.05314 0.13438
#
# Static dielectric constant tensor:
#      x y z
#    x 3.764990 -0.059250 0.005000 
#    y -0.059250 3.879080 -0.009140 
#    z 0.005000 -0.009140 4.761540 
# 
# 
# High freq. dielectric constant tensor:
#      x y z
#    x 1.863840 -0.016600 0.001680 
#    y -0.016600 1.879530 0.000860 
#    z 0.001680 0.000860 1.914900 
# 
# From -- ./inp_files/567121.got.cif
#   From: 2010.06.25/outbox.cif.g09.slc.cpg/sg2_284_cif.got.tgz:567121.got - 2010.06.27 13:26:56.
