data_PCOD8043686
_publ_section_title
;
Structure prediction by ZEFSAII (Michael W. Deem and Ramdas Pophale) SiO2 
 PCOD8043686
Probable space group: P -1
;
_chemical_formula_sum "Si O2"
_cell_formula_units_Z 16
_cell_length_a 12.117068
_cell_length_b 17.926884
_cell_length_c 9.569623
_cell_angle_alpha 123.769303
_cell_angle_beta 124.241049
_cell_angle_gamma 30.021576
_cell_volume 847.847601
_symmetry_space_group_name_H-M "P -1"
_symmetry_group_IT_number 2
_symmetry_cell_setting 'triclinic'
loop_
_space_group_symop_operation_xyz
x,y,z
-x,-y,-z
loop_
_atom_site_type_symbol
_atom_site_label
_atom_site_fract_x
_atom_site_fract_y
_atom_site_fract_z
Si Si1 0.576798 0.809965 0.345301
Si Si2 0.193275 0.135136 0.457224
Si Si3 0.293445 0.550371 0.567142
Si Si4 0.711834 0.438741 0.751494
Si Si5 0.759524 0.615921 0.517316
Si Si6 0.206536 0.127518 0.787169
Si Si7 0.586854 0.812302 0.854016
Si Si8 0.749265 0.616962 0.999638
O O1 0.719297 0.820407 0.504597
O O2 0.574952 0.739731 0.397130
O O3 0.318899 0.981997 0.315602
O O4 0.700521 0.703039 0.188707
O O5 0.257198 0.104260 0.634638
O O6 0.928932 0.269350 0.377712
O O7 0.505468 0.491123 0.715000
O O8 0.317468 0.519759 0.388217
O O9 0.281136 0.463448 0.547449
O O10 0.717508 0.530768 0.930895
O O11 0.939544 0.259979 0.758058
O O12 0.740200 0.695039 0.714294
O O13 0.000000 0.500000 0.500000
O O14 0.338042 0.972955 0.789890
O O15 0.286969 0.174404 0.967292
O O16 0.569034 0.742181 0.881966
O O17 0.000000 0.500000 0.000000
#
# Coordination Sequence:
#
# PCOD8043686 Si02
#       8
#     2   2   2   2   2   2   2   2
#     4  11  22  34  58  87 117 152 183 245 293 336
#     4  10  19  37  55  87 121 148 188 234 298 342
#     4  10  21  39  60  84 115 156 192 238 284 345
#     4  10  21  38  62  84 114 153 197 236 287 336
#     4  12  22  36  57  92 117 147 196 239 287 340
#     4  10  20  35  57  87 118 147 189 243 288 335
#     4  11  21  35  59  89 117 147 192 244 285 335
#     4  12  20  38  60  88 113 150 200 241 279 340
#
# _framework density 18.871314999999999
#
# number of rings (size 3 to 8) (size 9 to 14) (size 15 to 20)
#    0.000    1.250    6.250    1.500    0.000    0.000 
#    0.000    3.125    0.000    0.000    0.000    0.000 
#    0.000    0.000    0.000    0.000    0.000    0.000 
#
# Total GULP energy -198371.481816 kJ/mol
# GULP energy per Si atom -12398.217614 kJ/mol
# Density = 1.882836 g / cm^3
# Si number density = 18.871315 Si / 1000 Ang^3
#
#
#
# Elastic Constant Matrix: (Units=GPa)
#
#
# Indices 1 2 3 4 5 6 
#
# 1 102.4828 65.0370 28.5978 -1.8700 6.8211 0.1527
# 2 65.0370 135.4589 44.2098 5.1723 9.5456 -0.1973
# 3 28.5978 44.2098 70.1311 15.2125 -4.2586 -2.6220
# 4 -1.8700 5.1723 15.2125 36.0393 -0.1922 -4.2398
# 5 6.8211 9.5456 -4.2586 -0.1922 27.0708 -7.3346
# 6 0.1527 -0.1973 -2.6220 -4.2398 -7.3346 32.0367
#
#
#
# Elastic Compliance Matrix: (Units=1/GPa)
#
#
# Indices 1 2 3 4 5 6 
#
# 1 0.014572 -0.006006 -0.002904 0.002779 -0.002116 -0.000461
# 2 -0.006006 0.012409 -0.005701 0.000141 -0.004106 -0.001283
# 3 -0.002904 -0.005701 0.021259 -0.008015 0.006618 0.002173
# 4 0.002779 0.000141 -0.008015 0.031640 -0.000888 0.003316
# 5 -0.002116 -0.004106 0.006618 -0.000888 0.042716 0.010189
# 6 -0.000461 -0.001283 0.002173 0.003316 0.010189 0.034158
#
#
# Mechanical properties :
#
#
# Convention : Reuss Voigt Hill
#
# Bulk Modulus (GPa) = 52.58554 64.86244 58.72399
# Shear Modulus (GPa) = 25.99893 30.37790 28.18841
#
# Velocity S-wave (km/s) = 3.71576 4.01651 3.86906
# Velocity P-wave (km/s) = 6.80698 7.48033 7.15158
#
# Compressibility (1/GPa) = 0.01901663
#
# Stress axis : x y z
#
# Youngs Moduli (GPa) = 68.62490 80.58868 47.03909
#
# Poissons Ratio (x) = 0.48402 0.13662
# Poissons Ratio (y) = 0.41217 0.26817
# Poissons Ratio (z) = 0.19931 0.45944
#
# Static dielectric constant tensor:
#      x y z
#    x 3.372520 0.208400 -0.145630 
#    y 0.208400 3.961680 0.035250 
#    z -0.145630 0.035250 3.356030 
# 
# 
# High freq. dielectric constant tensor:
#      x y z
#    x 1.704740 0.013530 -0.015970 
#    y 0.013530 1.757280 0.010580 
#    z -0.015970 0.010580 1.715070 
# 
# From -- ./inp_files/226638.got.cif
#   From: 2010.06.25/outbox.cif.g09.slc.cpg/sg2_114_cif.got.tgz:226638.got - 2010.06.27 13:26:56.
