data_PCOD8043451
_publ_section_title
;
Structure prediction by ZEFSAII (Michael W. Deem and Ramdas Pophale) SiO2 
 PCOD8043451
Probable space group: P -1
;
_chemical_formula_sum "Si O2"
_cell_formula_units_Z 12
_cell_length_a 23.960584
_cell_length_b 8.907609
_cell_length_c 11.232842
_cell_angle_alpha 140.843930
_cell_angle_beta 153.307548
_cell_angle_gamma 27.193618
_cell_volume 489.989484
_symmetry_space_group_name_H-M "P -1"
_symmetry_group_IT_number 2
_symmetry_cell_setting 'triclinic'
loop_
_space_group_symop_operation_xyz
x,y,z
-x,-y,-z
loop_
_atom_site_type_symbol
_atom_site_label
_atom_site_fract_x
_atom_site_fract_y
_atom_site_fract_z
Si Si1 0.802611 0.980715 0.493678
Si Si2 0.766963 0.772217 0.652393
Si Si3 0.305517 0.679078 0.268725
Si Si4 0.123076 0.080916 0.853929
Si Si5 0.967293 0.272865 0.437551
Si Si6 0.555083 0.959000 0.943826
O O1 0.949915 0.893818 0.636689
O O2 0.864654 0.657973 0.481755
O O3 0.740838 0.262385 0.642863
O O4 0.636570 0.114084 0.181403
O O5 0.923064 0.385545 0.698346
O O6 0.816296 0.958183 0.797115
O O7 0.594764 0.878582 0.338965
O O8 0.751375 0.881130 0.828503
O O9 0.500000 0.500000 0.500000
O O10 0.287576 0.437691 0.031224
O O11 0.127156 0.080691 0.718431
O O12 0.163154 0.764561 0.790435
O O13 0.500000 0.000000 0.000000
#
# Coordination Sequence:
#
# PCOD8043451 Si02
#       6
#     2   2   2   2   2   2
#     4  11  21  41  63  98 121 154 215 256 301 353
#     4  10  20  35  64  89 119 162 210 247 297 378
#     4  10  19  36  62  94 117 158 204 255 301 354
#     4  10  20  41  61  88 125 170 205 237 315 372
#     4  10  22  40  65  89 126 167 200 256 301 366
#     4  11  20  37  64  93 121 158 205 258 308 356
#
# _framework density 24.490323
#
# number of rings (size 3 to 8) (size 9 to 14) (size 15 to 20)
#    0.000    1.667    5.000    1.000    0.000    1.333 
#    6.000    4.167    0.000    0.000    0.000    0.000 
#    0.000    0.000    0.000    0.000    0.000    0.000 
#
# Total GULP energy -148667.201906 kJ/mol
# GULP energy per Si atom -12388.933492 kJ/mol
# Density = 2.443458 g / cm^3
# Si number density = 24.490323 Si / 1000 Ang^3
#
#
#
# Elastic Constant Matrix: (Units=GPa)
#
#
# Indices 1 2 3 4 5 6 
#
# 1 87.9358 36.1779 18.0840 9.0800 -20.4921 -21.2742
# 2 36.1779 72.9353 9.7089 10.7100 -17.4312 -9.1359
# 3 18.0840 9.7089 91.0370 0.1833 -29.2986 -4.6746
# 4 9.0800 10.7100 0.1833 38.4708 -8.0508 -12.8537
# 5 -20.4921 -17.4312 -29.2986 -8.0508 34.9168 8.5813
# 6 -21.2742 -9.1359 -4.6746 -12.8537 8.5813 41.3553
#
#
#
# Elastic Compliance Matrix: (Units=1/GPa)
#
#
# Indices 1 2 3 4 5 6 
#
# 1 0.016701 -0.006424 -0.000850 0.000945 0.004519 0.006433
# 2 -0.006424 0.018452 0.001226 -0.002749 0.006135 -0.001218
# 3 -0.000850 0.001226 0.015416 0.002495 0.013747 -0.000501
# 4 0.000945 -0.002749 0.002495 0.030639 0.006281 0.008381
# 5 0.004519 0.006135 0.013747 0.006281 0.048020 -0.002778
# 6 0.006433 -0.001218 -0.000501 0.008381 -0.002778 0.030345
#
#
# Mechanical properties :
#
#
# Convention : Reuss Voigt Hill
#
# Bulk Modulus (GPa) = 25.99269 42.20552 34.09910
# Shear Modulus (GPa) = 27.10102 35.47772 31.28937
#
# Velocity S-wave (km/s) = 3.33017 3.81023 3.57826
# Velocity P-wave (km/s) = 5.04214 6.05212 5.57007
#
# Compressibility (1/GPa) = 0.03847236
#
# Stress axis : x y z
#
# Youngs Moduli (GPa) = 59.87542 54.19546 64.86676
#
# Poissons Ratio (x) = 0.34817 0.05513
# Poissons Ratio (y) = 0.38466 -0.07951
# Poissons Ratio (z) = 0.05089 -0.06643
#
# Static dielectric constant tensor:
#      x y z
#    x 4.126220 0.030220 -0.520420 
#    y 0.030220 4.722650 0.244180 
#    z -0.520420 0.244180 4.854480 
# 
# 
# High freq. dielectric constant tensor:
#      x y z
#    x 1.932900 -0.008490 -0.045070 
#    y -0.008490 1.970250 0.008940 
#    z -0.045070 0.008940 1.985180 
# 
# From -- ./inp_files/474443.got.cif
#   From: 2010.06.25/outbox.cif.g09.slc.cpg/sg2_238_cif.got.tgz:474443.got - 2010.06.27 13:26:56.
