data_PCOD8043885
_publ_section_title
;
Structure prediction by ZEFSAII (Michael W. Deem and Ramdas Pophale) SiO2 
 PCOD8043885
Probable space group: P -1
;
_chemical_formula_sum "Si O2"
_cell_formula_units_Z 14
_cell_length_a 12.231536
_cell_length_b 11.985435
_cell_length_c 11.036801
_cell_angle_alpha 84.759462
_cell_angle_beta 66.951783
_cell_angle_gamma 143.524300
_cell_volume 592.905641
_symmetry_space_group_name_H-M "P -1"
_symmetry_group_IT_number 2
_symmetry_cell_setting 'triclinic'
loop_
_space_group_symop_operation_xyz
x,y,z
-x,-y,-z
loop_
_atom_site_type_symbol
_atom_site_label
_atom_site_fract_x
_atom_site_fract_y
_atom_site_fract_z
Si Si1 0.065422 0.868294 0.142379
Si Si2 0.246034 0.190505 0.675502
Si Si3 0.270041 0.505171 0.437552
Si Si4 0.402156 0.806435 0.192871
Si Si5 0.901925 0.033946 0.487531
Si Si6 0.737849 0.437289 0.151813
Si Si7 0.109519 0.592227 0.104579
O O1 0.039171 0.981033 0.147040
O O2 0.923249 0.684906 0.340415
O O3 0.897816 0.685484 0.110281
O O4 0.405975 0.125751 0.963541
O O5 0.500000 0.500000 0.500000
O O6 0.385381 0.234466 0.716643
O O7 0.148836 0.022167 0.628042
O O8 0.266192 0.634478 0.391669
O O9 0.155478 0.340169 0.384775
O O10 0.609493 0.092458 0.101760
O O11 0.134910 0.605811 0.237006
O O12 0.603324 0.826965 0.695731
O O13 0.000000 0.000000 0.500000
O O14 0.876134 0.516820 0.955329
O O15 0.803295 0.391902 0.223949
#
# Coordination Sequence:
#
# PCOD8043885 Si02
#       7
#     2   2   2   2   2   2   2
#     4  10  19  39  66  86 129 167 194 264 315 362
#     4  10  19  37  60  94 129 160 203 252 315 375
#     4  11  22  39  64  94 128 162 213 251 308 385
#     4  10  22  42  62  89 124 164 216 259 307 371
#     4  12  20  36  66  95 125 164 205 254 315 376
#     4  10  19  38  63  90 118 168 208 249 319 369
#     4   9  21  41  62  85 128 165 208 266 311 358
#
# _framework density 23.612525999999999
#
# number of rings (size 3 to 8) (size 9 to 14) (size 15 to 20)
#    0.000    1.714    5.714    0.857    0.000    0.571 
#    7.714   13.571    0.000    0.000    0.000    0.000 
#    0.000    0.000    0.000    0.000    0.000    0.000 
#
# Total GULP energy -173482.536219 kJ/mol
# GULP energy per Si atom -12391.609730 kJ/mol
# Density = 2.355878 g / cm^3
# Si number density = 23.612526 Si / 1000 Ang^3
#
#
#
# Elastic Constant Matrix: (Units=GPa)
#
#
# Indices 1 2 3 4 5 6 
#
# 1 108.7251 19.1202 12.6721 -3.5780 -8.2756 23.5670
# 2 19.1202 121.8306 8.7397 10.0876 5.8470 11.0553
# 3 12.6721 8.7397 29.1715 -1.1352 -8.2156 4.5991
# 4 -3.5780 10.0876 -1.1352 17.7974 -7.1775 -8.3025
# 5 -8.2756 5.8470 -8.2156 -7.1775 45.5066 0.3711
# 6 23.5670 11.0553 4.5991 -8.3025 0.3711 39.7209
#
#
#
# Elastic Compliance Matrix: (Units=1/GPa)
#
#
# Indices 1 2 3 4 5 6 
#
# 1 0.011179 -0.001150 -0.003062 0.000706 0.001787 -0.005827
# 2 -0.001150 0.009860 -0.003222 -0.009079 -0.003461 -0.003554
# 3 -0.003062 -0.003222 0.039164 0.006699 0.007988 -0.000495
# 4 0.000706 -0.009079 0.006699 0.075597 0.014289 0.017000
# 5 0.001787 -0.003461 0.007988 0.014289 0.026426 0.001718
# 6 -0.005827 -0.003554 -0.000495 0.017000 0.001718 0.033217
#
#
# Mechanical properties :
#
#
# Convention : Reuss Voigt Hill
#
# Bulk Modulus (GPa) = 22.05833 37.86569 29.96201
# Shear Modulus (GPa) = 22.18047 35.21799 28.69923
#
# Velocity S-wave (km/s) = 3.06821 3.86618 3.49008
# Velocity P-wave (km/s) = 4.68123 6.00007 5.38121
#
# Compressibility (1/GPa) = 0.04533434
#
# Stress axis : x y z
#
# Youngs Moduli (GPa) = 89.45355 101.41812 25.53363
#
# Poissons Ratio (x) = 0.11666 0.07819
# Poissons Ratio (y) = 0.10289 0.08227
# Poissons Ratio (z) = 0.27392 0.32677
#
# Static dielectric constant tensor:
#      x y z
#    x 4.748980 0.106590 -0.382720 
#    y 0.106590 4.463310 0.142030 
#    z -0.382720 0.142030 3.737410 
# 
# 
# High freq. dielectric constant tensor:
#      x y z
#    x 1.952690 0.011210 -0.025510 
#    y 0.011210 1.941310 0.015330 
#    z -0.025510 0.015330 1.880270 
# 
# From -- ./inp_files/428129.got.cif
#   From: 2010.06.25/outbox.cif.g09.slc.cpg/sg2_215_cif.got.tgz:428129.got - 2010.06.27 13:26:56.
