data_PCOD8043500
_publ_section_title
;
Structure prediction by ZEFSAII (Michael W. Deem and Ramdas Pophale) SiO2 
 PCOD8043500
Probable space group: P -1
;
_chemical_formula_sum "Si O2"
_cell_formula_units_Z 16
_cell_length_a 15.644137
_cell_length_b 14.957084
_cell_length_c 10.631291
_cell_angle_alpha 125.866675
_cell_angle_beta 75.123320
_cell_angle_gamma 151.252241
_cell_volume 729.043194
_symmetry_space_group_name_H-M "P -1"
_symmetry_group_IT_number 2
_symmetry_cell_setting 'triclinic'
loop_
_space_group_symop_operation_xyz
x,y,z
-x,-y,-z
loop_
_atom_site_type_symbol
_atom_site_label
_atom_site_fract_x
_atom_site_fract_y
_atom_site_fract_z
Si Si1 0.320781 0.313753 0.803121
Si Si2 0.794450 0.512492 0.503089
Si Si3 0.459097 0.032867 0.427265
Si Si4 0.156932 0.885840 0.471215
Si Si5 0.603307 0.966649 0.949229
Si Si6 0.166326 0.202118 0.328108
Si Si7 0.569614 0.688714 0.784581
Si Si8 0.763232 0.325940 0.016385
O O1 0.450758 0.542791 0.844754
O O2 0.252988 0.119589 0.602746
O O3 0.500000 0.500000 0.000000
O O4 0.088543 0.110077 0.769319
O O5 0.709249 0.344550 0.518299
O O6 0.587037 0.271643 0.283137
O O7 0.842837 0.697170 0.670315
O O8 0.024982 0.726638 0.525513
O O9 0.500000 0.000000 0.500000
O O10 0.371261 0.048148 0.526384
O O11 0.256305 0.747282 0.176295
O O12 0.986312 0.664377 0.232528
O O13 0.698136 0.957217 0.950254
O O14 0.803281 0.274992 0.064502
O O15 0.482694 0.892939 0.049218
O O16 0.364492 0.440632 0.555982
O O17 0.226647 0.167502 0.189237
#
# Coordination Sequence:
#
# PCOD8043500 Si02
#       8
#     2   2   2   2   2   2   2   2
#     4  11  24  40  60  88 124 160 195 244 305 358
#     4   8  17  36  57  80 117 152 188 236 293 354
#     4  11  22  35  57  90 120 148 190 243 294 349
#     4  10  21  40  62  80 111 162 199 233 289 348
#     4   8  16  33  60  86 111 151 193 243 288 334
#     4   9  19  37  62  88 114 155 200 245 296 351
#     4  10  19  36  63  92 117 146 200 253 294 351
#     4   9  18  37  60  83 116 156 198 233 285 355
#
# _framework density 21.946573999999998
#
# number of rings (size 3 to 8) (size 9 to 14) (size 15 to 20)
#    0.000    2.500    0.000    3.000    0.000    3.000 
#    0.000    5.000    0.000    0.000    0.000    0.000 
#    0.000    0.000    0.000    0.000    0.000    0.000 
#
# Total GULP energy -198343.620606 kJ/mol
# GULP energy per Si atom -12396.476288 kJ/mol
# Density = 2.189662 g / cm^3
# Si number density = 21.946574 Si / 1000 Ang^3
#
#
#
# Elastic Constant Matrix: (Units=GPa)
#
#
# Indices 1 2 3 4 5 6 
#
# 1 94.6864 55.3489 31.4534 -9.1248 -22.9427 -1.4533
# 2 55.3489 100.6717 19.7117 -17.3333 -7.7827 2.1577
# 3 31.4534 19.7117 64.0326 4.3718 -17.1425 -3.8429
# 4 -9.1248 -17.3333 4.3718 10.3581 2.3818 1.6195
# 5 -22.9427 -7.7827 -17.1425 2.3818 24.9115 -1.4913
# 6 -1.4533 2.1577 -3.8429 1.6195 -1.4913 42.7679
#
#
#
# Elastic Compliance Matrix: (Units=1/GPa)
#
#
# Indices 1 2 3 4 5 6 
#
# 1 0.020721 -0.009647 -0.003460 0.000198 0.013751 0.001352
# 2 -0.009647 0.021827 -0.007389 0.034180 -0.010643 -0.003758
# 3 -0.003460 -0.007389 0.026151 -0.030735 0.015698 0.004316
# 4 0.000198 0.034180 -0.030735 0.175159 -0.027759 -0.012080
# 5 0.013751 -0.010643 0.015698 -0.027759 0.063277 0.005672
# 6 0.001352 -0.003758 0.004316 -0.012080 0.005672 0.024661
#
#
# Mechanical properties :
#
#
# Convention : Reuss Voigt Hill
#
# Bulk Modulus (GPa) = 36.09112 52.49096 44.29104
# Shear Modulus (GPa) = 13.08821 25.79925 19.44373
#
# Velocity S-wave (km/s) = 2.44471 3.43235 2.97973
# Velocity P-wave (km/s) = 4.94464 6.29901 5.66247
#
# Compressibility (1/GPa) = 0.02770765
#
# Stress axis : x y z
#
# Youngs Moduli (GPa) = 48.25948 45.81546 38.23930
#
# Poissons Ratio (x) = 0.44198 0.13230
# Poissons Ratio (y) = 0.46556 0.28255
# Poissons Ratio (z) = 0.16697 0.33853
#
# Static dielectric constant tensor:
#      x y z
#    x 4.097990 -0.035160 -0.518910 
#    y -0.035160 4.219270 0.155870 
#    z -0.518910 0.155870 3.903470 
# 
# 
# High freq. dielectric constant tensor:
#      x y z
#    x 1.850450 0.009310 -0.029470 
#    y 0.009310 1.863910 0.002090 
#    z -0.029470 0.002090 1.841840 
# 
# From -- ./inp_files/455875.got.cif
#   From: 2010.06.25/outbox.cif.g09.slc.cpg/sg2_228_cif.got.tgz:455875.got - 2010.06.27 13:26:56.
