data_PCOD8043899
_publ_section_title
;
Structure prediction by ZEFSAII (Michael W. Deem and Ramdas Pophale) SiO2 
 PCOD8043899
Probable space group: P -1
;
_chemical_formula_sum "Si O2"
_cell_formula_units_Z 16
_cell_length_a 15.382921
_cell_length_b 12.734999
_cell_length_c 8.934609
_cell_angle_alpha 77.272414
_cell_angle_beta 149.742452
_cell_angle_gamma 110.333640
_cell_volume 815.107365
_symmetry_space_group_name_H-M "P -1"
_symmetry_group_IT_number 2
_symmetry_cell_setting 'triclinic'
loop_
_space_group_symop_operation_xyz
x,y,z
-x,-y,-z
loop_
_atom_site_type_symbol
_atom_site_label
_atom_site_fract_x
_atom_site_fract_y
_atom_site_fract_z
Si Si1 0.105682 0.247405 0.434514
Si Si2 0.526355 0.510305 0.856581
Si Si3 0.190674 0.718725 0.510596
Si Si4 0.846392 0.499593 0.656467
Si Si5 0.155485 0.269728 0.828569
Si Si6 0.749496 0.868337 0.738086
Si Si7 0.117492 0.876926 0.118088
Si Si8 0.469764 0.262004 0.808238
O O1 0.111180 0.377651 0.394537
O O2 0.080217 0.205541 0.581462
O O3 0.292112 0.231439 0.658243
O O4 0.931872 0.170409 0.107951
O O5 0.341205 0.530863 0.517419
O O6 0.542118 0.396395 0.840970
O O7 0.500000 0.500000 0.000000
O O8 0.700919 0.609400 0.033658
O O9 0.172798 0.591062 0.475765
O O10 0.213023 0.798372 0.372963
O O11 0.010723 0.712899 0.334464
O O12 0.370264 0.772633 0.861437
O O13 0.000000 0.500000 0.000000
O O14 0.257931 0.197102 0.096188
O O15 0.576893 0.804032 0.398105
O O16 0.744988 0.994930 0.724536
O O17 0.933149 0.872592 0.927142
#
# Coordination Sequence:
#
# PCOD8043899 Si02
#       8
#     2   2   2   2   2   2   2   2
#     4  10  19  37  61  82 115 153 188 221 288 347
#     4  11  20  38  58  82 117 153 183 219 286 354
#     4  11  21  35  60  89 115 144 191 238 278 325
#     4  11  20  36  59  88 112 151 185 225 284 348
#     4  11  22  37  57  88 117 145 188 237 277 334
#     4   9  21  38  56  83 113 150 195 233 279 327
#     4   9  19  38  60  79 111 155 193 230 278 341
#     4  10  20  38  59  83 115 155 184 227 283 344
#
# _framework density 19.629318000000001
#
# number of rings (size 3 to 8) (size 9 to 14) (size 15 to 20)
#    0.000    1.750    5.000    0.000    1.750    3.500 
#    2.250    0.000    0.000    3.750    0.000    0.000 
#    0.000    0.000    0.000    0.000    0.000    0.000 
#
# Total GULP energy -198384.640852 kJ/mol
# GULP energy per Si atom -12399.040053 kJ/mol
# Density = 1.958464 g / cm^3
# Si number density = 19.629318 Si / 1000 Ang^3
#
#
#
# Elastic Constant Matrix: (Units=GPa)
#
#
# Indices 1 2 3 4 5 6 
#
# 1 67.0613 46.4559 43.5241 6.3011 -22.7981 4.2034
# 2 46.4559 118.4336 61.4415 20.4687 -20.5343 -6.6882
# 3 43.5241 61.4415 161.6478 0.5204 -29.4043 1.2029
# 4 6.3011 20.4687 0.5204 28.6464 -8.4876 -3.0068
# 5 -22.7981 -20.5343 -29.4043 -8.4876 37.7435 0.9645
# 6 4.2034 -6.6882 1.2029 -3.0068 0.9645 20.7855
#
#
#
# Elastic Compliance Matrix: (Units=1/GPa)
#
#
# Indices 1 2 3 4 5 6 
#
# 1 0.025495 -0.008117 -0.001858 0.002457 0.010287 -0.007782
# 2 -0.008117 0.015221 -0.003951 -0.008988 -0.001863 0.005554
# 3 -0.001858 -0.003951 0.009054 0.004382 0.004792 -0.001008
# 4 0.002457 -0.008988 0.004382 0.043853 0.009812 0.002246
# 5 0.010287 -0.001863 0.004792 0.009812 0.037719 -0.003288
# 6 -0.007782 0.005554 -0.001008 0.002246 -0.003288 0.052007
#
#
# Mechanical properties :
#
#
# Convention : Reuss Voigt Hill
#
# Bulk Modulus (GPa) = 45.62653 72.22063 58.92358
# Shear Modulus (GPa) = 22.88252 30.48315 26.68284
#
# Velocity S-wave (km/s) = 3.41799 3.94501 3.69092
# Velocity P-wave (km/s) = 6.23469 7.59098 6.94602
#
# Compressibility (1/GPa) = 0.02191707
#
# Stress axis : x y z
#
# Youngs Moduli (GPa) = 39.22387 65.69731 110.45337
#
# Poissons Ratio (x) = 0.53326 0.20523
# Poissons Ratio (y) = 0.31838 0.43644
# Poissons Ratio (z) = 0.07288 0.25959
#
# Static dielectric constant tensor:
#      x y z
#    x 3.487720 -0.099600 -0.139900 
#    y -0.099600 3.675740 -0.019270 
#    z -0.139900 -0.019270 4.003970 
# 
# 
# High freq. dielectric constant tensor:
#      x y z
#    x 1.737040 -0.007960 -0.016100 
#    y -0.007960 1.758450 -0.000920 
#    z -0.016100 -0.000920 1.781070 
# 
# From -- ./inp_files/201929.got.cif
#   From: 2010.06.25/outbox.cif.g09.slc.cpg/sg2_101_cif.got.tgz:201929.got - 2010.06.27 13:26:56.
