data_PCOD8043177
_publ_section_title
;
Structure prediction by ZEFSAII (Michael W. Deem and Ramdas Pophale) SiO2 
 PCOD8043177
Probable space group: P -1
;
_chemical_formula_sum "Si O2"
_cell_formula_units_Z 16
_cell_length_a 8.080792
_cell_length_b 12.855417
_cell_length_c 9.289850
_cell_angle_alpha 58.472087
_cell_angle_beta 101.635592
_cell_angle_gamma 107.157272
_cell_volume 784.652341
_symmetry_space_group_name_H-M "P -1"
_symmetry_group_IT_number 2
_symmetry_cell_setting 'triclinic'
loop_
_space_group_symop_operation_xyz
x,y,z
-x,-y,-z
loop_
_atom_site_type_symbol
_atom_site_label
_atom_site_fract_x
_atom_site_fract_y
_atom_site_fract_z
Si Si1 0.717848 0.532506 0.224752
Si Si2 0.087531 0.144390 0.897187
Si Si3 0.087780 0.654557 0.186454
Si Si4 0.364702 0.840281 0.957110
Si Si5 0.703938 0.538580 0.531397
Si Si6 0.377668 0.119276 0.763627
Si Si7 0.638840 0.749309 0.903179
Si Si8 0.416233 0.302261 0.388105
O O1 0.770156 0.597678 0.344892
O O2 0.608015 0.390567 0.324198
O O3 0.911455 0.555939 0.171364
O O4 0.598364 0.606261 0.059871
O O5 0.214700 0.166238 0.766006
O O6 0.951532 0.234345 0.796992
O O7 0.188215 0.176124 0.043160
O O8 0.000000 0.000000 0.000000
O O9 0.192953 0.727831 0.016396
O O10 0.209323 0.578137 0.344568
O O11 0.464846 0.848598 0.120187
O O12 0.477960 0.810263 0.866135
O O13 0.317392 0.972476 0.822823
O O14 0.500000 0.500000 0.500000
O O15 0.722675 0.629348 0.607898
O O16 0.443830 0.191115 0.576119
O O17 0.670223 0.753863 0.734886
#
# Coordination Sequence:
#
# PCOD8043177 Si02
#       8
#     2   2   2   2   2   2   2   2
#     4  10  21  37  59  86 120 157 204 246 299 352
#     4  10  20  41  63  90 118 153 204 250 302 355
#     4  11  20  34  65  90 116 150 204 256 294 351
#     4  10  19  36  59  87 111 157 211 244 298 352
#     4  10  20  36  59  87 119 154 200 248 295 357
#     4  10  21  36  62  86 116 158 200 252 296 361
#     4  10  22  38  60  87 117 165 202 248 300 364
#     4  11  21  39  58  85 127 161 198 248 306 354
#
# _framework density 20.391195
#
# number of rings (size 3 to 8) (size 9 to 14) (size 15 to 20)
#    0.000    1.750    1.250    6.000    0.000    0.500 
#    0.000    6.250    0.000    0.000    0.000    0.000 
#    0.000    0.000    0.000    0.000    0.000    0.000 
#
# Total GULP energy -198259.055528 kJ/mol
# GULP energy per Si atom -12391.190970 kJ/mol
# Density = 2.034478 g / cm^3
# Si number density = 20.391195 Si / 1000 Ang^3
#
#
#
# Elastic Constant Matrix: (Units=GPa)
#
#
# Indices 1 2 3 4 5 6 
#
# 1 91.6414 35.4347 25.6507 -5.9599 4.4665 -15.5431
# 2 35.4347 69.4534 60.6814 12.8859 4.6881 -10.7012
# 3 25.6507 60.6814 121.0935 0.6937 -1.6733 -7.9836
# 4 -5.9599 12.8859 0.6937 36.4321 -6.7835 -1.9298
# 5 4.4665 4.6881 -1.6733 -6.7835 24.4359 -15.4308
# 6 -15.5431 -10.7012 -7.9836 -1.9298 -15.4308 37.9847
#
#
#
# Elastic Compliance Matrix: (Units=1/GPa)
#
#
# Indices 1 2 3 4 5 6 
#
# 1 0.015932 -0.011506 0.002870 0.008091 0.005984 0.006723
# 2 -0.011506 0.039514 -0.017726 -0.018414 -0.014379 -0.004078
# 3 0.002870 -0.017726 0.016844 0.008213 0.008604 0.003634
# 4 0.008091 -0.018414 0.008213 0.039334 0.019775 0.009881
# 5 0.005984 -0.014379 0.008604 0.019775 0.066488 0.028220
# 6 0.006723 -0.004078 0.003634 0.009881 0.028220 0.040658
#
#
# Mechanical properties :
#
#
# Convention : Reuss Voigt Hill
#
# Bulk Modulus (GPa) = 51.10357 58.41356 54.75856
# Shear Modulus (GPa) = 17.98461 30.46530 24.22496
#
# Velocity S-wave (km/s) = 2.97304 3.86948 3.45049
# Velocity P-wave (km/s) = 6.07464 6.97656 6.54117
#
# Compressibility (1/GPa) = 0.01956811
#
# Stress axis : x y z
#
# Youngs Moduli (GPa) = 62.76506 25.30764 59.36819
#
# Poissons Ratio (x) = 0.29118 -0.17040
# Poissons Ratio (y) = 0.72215 1.05234
# Poissons Ratio (z) = -0.18015 0.44860
#
# Static dielectric constant tensor:
#      x y z
#    x 3.926890 -0.271580 -0.293630 
#    y -0.271580 3.840220 -0.095790 
#    z -0.293630 -0.095790 3.783960 
# 
# 
# High freq. dielectric constant tensor:
#      x y z
#    x 1.794500 -0.011280 -0.015310 
#    y -0.011280 1.782100 -0.024990 
#    z -0.015310 -0.024990 1.787290 
# 
# From -- ./inp_files/175227.got.cif
#   From: 2010.06.25/outbox.cif.g09.slc.cpg/sg2_88_cif.got.tgz:175227.got - 2010.06.27 13:26:56.
