data_PCOD8043487
_publ_section_title
;
Structure prediction by ZEFSAII (Michael W. Deem and Ramdas Pophale) SiO2 
 PCOD8043487
Probable space group: P -1
;
_chemical_formula_sum "Si O2"
_cell_formula_units_Z 16
_cell_length_a 9.482835
_cell_length_b 9.207449
_cell_length_c 23.830900
_cell_angle_alpha 55.106405
_cell_angle_beta 136.884007
_cell_angle_gamma 88.907847
_cell_volume 731.561840
_symmetry_space_group_name_H-M "P -1"
_symmetry_group_IT_number 2
_symmetry_cell_setting 'triclinic'
loop_
_space_group_symop_operation_xyz
x,y,z
-x,-y,-z
loop_
_atom_site_type_symbol
_atom_site_label
_atom_site_fract_x
_atom_site_fract_y
_atom_site_fract_z
Si Si1 0.265555 0.893422 0.203317
Si Si2 0.810095 0.010411 0.125234
Si Si3 0.780082 0.280289 0.460551
Si Si4 0.562608 0.818567 0.657834
Si Si5 0.840596 0.902373 0.281154
Si Si6 0.888820 0.642424 0.154386
Si Si7 0.856612 0.750096 0.001111
Si Si8 0.199050 0.299419 0.521864
O O1 0.413115 0.606437 0.289865
O O2 0.564968 0.808037 0.334241
O O3 0.986724 0.051452 0.134480
O O4 0.107243 0.097621 0.058943
O O5 0.898208 0.971087 0.225031
O O6 0.944605 0.729589 0.204919
O O7 0.417170 0.285843 0.939666
O O8 0.731771 0.124054 0.451399
O O9 0.951445 0.137640 0.602115
O O10 0.994879 0.263854 0.487756
O O11 0.784524 0.690438 0.693547
O O12 0.404049 0.109850 0.567233
O O13 0.803638 0.589609 0.829259
O O14 0.957020 0.622121 0.367293
O O15 0.456257 0.157135 0.130696
O O16 0.795901 0.832655 0.031725
#
# Coordination Sequence:
#
# PCOD8043487 Si02
#       8
#     2   2   2   2   2   2   2   2
#     4  11  19  36  63  91 113 153 208 242 283 349
#     4  10  19  36  63  88 116 155 202 244 288 345
#     4  11  20  37  60  87 123 152 197 245 294 349
#     4  10  22  38  61  87 125 153 190 247 311 340
#     4  10  20  39  65  84 116 158 205 238 287 347
#     4   8  19  37  57  87 119 148 193 249 289 339
#     4   9  18  38  62  85 112 156 197 250 279 344
#     4  11  22  37  59  91 123 154 190 252 298 351
#
# _framework density 21.871013999999999
#
# number of rings (size 3 to 8) (size 9 to 14) (size 15 to 20)
#    0.750    1.250    3.750    1.125    0.000    4.500 
#    2.250    1.250    0.000    0.000    0.000    0.000 
#    0.000    0.000    0.000    0.000    0.000    0.000 
#
# Total GULP energy -198312.046873 kJ/mol
# GULP energy per Si atom -12394.502930 kJ/mol
# Density = 2.182124 g / cm^3
# Si number density = 21.871014 Si / 1000 Ang^3
#
#
#
# Elastic Constant Matrix: (Units=GPa)
#
#
# Indices 1 2 3 4 5 6 
#
# 1 97.7196 -8.6917 21.6528 9.4868 9.1738 0.1947
# 2 -8.6917 55.6362 25.7781 -4.7672 2.6545 -7.3286
# 3 21.6528 25.7781 78.9723 14.9477 10.1291 3.9172
# 4 9.4868 -4.7672 14.9477 17.6990 -4.8373 8.2987
# 5 9.1738 2.6545 10.1291 -4.8373 27.9769 0.0437
# 6 0.1947 -7.3286 3.9172 8.2987 0.0437 20.1153
#
#
#
# Elastic Compliance Matrix: (Units=1/GPa)
#
#
# Indices 1 2 3 4 5 6 
#
# 1 0.012219 0.003515 -0.002950 -0.006356 -0.004378 0.004369
# 2 0.003515 0.026463 -0.013078 0.014334 0.003540 0.006233
# 3 -0.002950 -0.013078 0.023949 -0.025732 -0.010914 0.001239
# 4 -0.006356 0.014334 -0.025732 0.109919 0.029101 -0.035116
# 5 -0.004378 0.003540 -0.010914 0.029101 0.045840 -0.008648
# 6 0.004369 0.006233 0.001239 -0.035116 -0.008648 0.066207
#
#
# Mechanical properties :
#
#
# Convention : Reuss Voigt Hill
#
# Bulk Modulus (GPa) = 26.59148 34.42295 30.50722
# Shear Modulus (GPa) = 15.52039 26.06417 20.79228
#
# Velocity S-wave (km/s) = 2.66678 3.45588 3.08665
# Velocity P-wave (km/s) = 4.65479 5.63004 5.16548
#
# Compressibility (1/GPa) = 0.03760603
#
# Stress axis : x y z
#
# Youngs Moduli (GPa) = 81.83955 37.78867 41.75508
#
# Poissons Ratio (x) = -0.13284 0.12317
# Poissons Ratio (y) = -0.28769 0.54608
# Poissons Ratio (z) = 0.24140 0.49421
#
# Static dielectric constant tensor:
#      x y z
#    x 3.793910 -0.191830 0.211210 
#    y -0.191830 3.502280 0.140550 
#    z 0.211210 0.140550 3.935040 
# 
# 
# High freq. dielectric constant tensor:
#      x y z
#    x 1.852870 -0.015180 0.021110 
#    y -0.015180 1.828470 0.021540 
#    z 0.021110 0.021540 1.855080 
# 
# From -- ./inp_files/616653.got.cif
#   From: 2010.06.25/outbox.cif.g09.slc.cpg/sg2_309_cif.got.tgz:616653.got - 2010.06.27 13:26:56.
