data_PCOD8043827
_publ_section_title
;
Structure prediction by ZEFSAII (Michael W. Deem and Ramdas Pophale) SiO2 
 PCOD8043827
Probable space group: P -1
;
_chemical_formula_sum "Si O2"
_cell_formula_units_Z 14
_cell_length_a 9.488373
_cell_length_b 6.879160
_cell_length_c 18.503594
_cell_angle_alpha 123.218967
_cell_angle_beta 44.427739
_cell_angle_gamma 127.653596
_cell_volume 655.649220
_symmetry_space_group_name_H-M "P -1"
_symmetry_group_IT_number 2
_symmetry_cell_setting 'triclinic'
loop_
_space_group_symop_operation_xyz
x,y,z
-x,-y,-z
loop_
_atom_site_type_symbol
_atom_site_label
_atom_site_fract_x
_atom_site_fract_y
_atom_site_fract_z
Si Si1 0.092658 0.415344 0.261304
Si Si2 0.784655 0.678248 0.007353
Si Si3 0.773920 0.833664 0.712213
Si Si4 0.483629 0.293693 0.360468
Si Si5 0.176513 0.942006 0.824125
Si Si6 0.819333 0.732059 0.407425
Si Si7 0.592324 0.230752 0.899429
O O1 0.204639 0.373418 0.284232
O O2 0.274515 0.577994 0.172628
O O3 0.946130 0.144481 0.224904
O O4 0.939271 0.566635 0.367707
O O5 0.659260 0.822067 0.034351
O O6 0.783649 0.768642 0.109889
O O7 0.666030 0.377047 0.979395
O O8 0.029904 0.766613 0.906153
O O9 0.642479 0.686012 0.661162
O O10 0.641765 0.980099 0.831239
O O11 0.012994 0.020155 0.639913
O O12 0.593236 0.090310 0.266845
O O13 0.660534 0.568171 0.369291
O O14 0.314680 0.189686 0.466779
#
# Coordination Sequence:
#
# PCOD8043827 Si02
#       7
#     2   2   2   2   2   2   2
#     4   9  20  36  55  84 114 137 183 230 271 329
#     4   9  16  32  58  75 105 150 183 220 276 318
#     4  11  20  37  59  84 113 145 178 230 278 323
#     4  10  19  37  60  82 109 148 187 220 274 333
#     4   9  17  33  56  79 107 148 183 223 273 325
#     4   9  21  39  57  82 113 145 182 226 271 331
#     4   9  18  34  56  81 108 145 183 224 271 327
#
# _framework density 21.352879999999999
#
# number of rings (size 3 to 8) (size 9 to 14) (size 15 to 20)
#    0.000    2.571    1.429    1.286    0.000    0.571 
#    2.571   13.571    0.000    0.000    0.000    0.000 
#    0.000    0.000    0.000    0.000    0.000    0.000 
#
# Total GULP energy -173547.046647 kJ/mol
# GULP energy per Si atom -12396.217618 kJ/mol
# Density = 2.130428 g / cm^3
# Si number density = 21.352880 Si / 1000 Ang^3
#
#
#
# Elastic Constant Matrix: (Units=GPa)
#
#
# Indices 1 2 3 4 5 6 
#
# 1 90.3312 31.8497 23.6961 -1.3483 10.2301 4.1970
# 2 31.8497 44.4844 16.0769 6.6774 1.8046 -3.1244
# 3 23.6961 16.0769 118.1893 11.7446 -9.1985 1.8008
# 4 -1.3483 6.6774 11.7446 16.2715 8.9930 3.1257
# 5 10.2301 1.8046 -9.1985 8.9930 33.4692 1.1355
# 6 4.1970 -3.1244 1.8008 3.1257 1.1355 24.5435
#
#
#
# Elastic Compliance Matrix: (Units=1/GPa)
#
#
# Indices 1 2 3 4 5 6 
#
# 1 0.019374 -0.015057 -0.004416 0.018361 -0.011029 -0.006734
# 2 -0.015057 0.036834 0.000927 -0.023866 0.008950 0.009821
# 3 -0.004416 0.000927 0.011153 -0.013449 0.007931 0.001401
# 4 0.018361 -0.023866 -0.013449 0.105526 -0.035800 -0.016974
# 5 -0.011029 0.008950 0.007931 -0.035800 0.044398 0.004949
# 6 -0.006734 0.009821 0.001401 -0.016974 0.004949 0.044976
#
#
# Mechanical properties :
#
#
# Convention : Reuss Voigt Hill
#
# Bulk Modulus (GPa) = 33.03818 44.02781 38.53300
# Shear Modulus (GPa) = 16.15811 26.94900 21.55355
#
# Velocity S-wave (km/s) = 2.75384 3.55643 3.18055
# Velocity P-wave (km/s) = 5.06138 6.12602 5.61897
#
# Compressibility (1/GPa) = 0.03026801
#
# Stress axis : x y z
#
# Youngs Moduli (GPa) = 51.61658 27.14878 89.66400
#
# Poissons Ratio (x) = 0.40877 0.39600
# Poissons Ratio (y) = 0.77717 -0.08310
# Poissons Ratio (z) = 0.22796 -0.02516
#
# Static dielectric constant tensor:
#      x y z
#    x 3.886160 0.509870 -0.067610 
#    y 0.509870 3.366790 0.236000 
#    z -0.067610 0.236000 4.201630 
# 
# 
# High freq. dielectric constant tensor:
#      x y z
#    x 1.832500 0.045410 -0.009080 
#    y 0.045410 1.789700 0.015220 
#    z -0.009080 0.015220 1.856470 
# 
# From -- ./inp_files/90950.got.cif
#   From: 2010.06.25/outbox.cif.g09.slc.cpg/sg2_46_cif.got.tgz:90950.got - 2010.06.27 13:26:56.
