data_PCOD8043080
_publ_section_title
;
Structure prediction by ZEFSAII (Michael W. Deem and Ramdas Pophale) SiO2 
 PCOD8043080
Probable space group: P -1
;
_chemical_formula_sum "Si O2"
_cell_formula_units_Z 16
_cell_length_a 16.999535
_cell_length_b 5.197803
_cell_length_c 11.671132
_cell_angle_alpha 103.126697
_cell_angle_beta 113.890797
_cell_angle_gamma 97.099114
_cell_volume 890.951777
_symmetry_space_group_name_H-M "P -1"
_symmetry_group_IT_number 2
_symmetry_cell_setting 'triclinic'
loop_
_space_group_symop_operation_xyz
x,y,z
-x,-y,-z
loop_
_atom_site_type_symbol
_atom_site_label
_atom_site_fract_x
_atom_site_fract_y
_atom_site_fract_z
Si Si1 0.801179 0.834770 0.021338
Si Si2 0.976200 0.700319 0.099062
Si Si3 0.729034 0.032261 0.448220
Si Si4 0.846279 0.445898 0.174081
Si Si5 0.395460 0.935865 0.431376
Si Si6 0.197547 0.450397 0.593464
Si Si7 0.146703 0.106416 0.329007
Si Si8 0.302963 0.318309 0.277630
O O1 0.723550 0.772932 0.876699
O O2 0.896281 0.827144 0.018207
O O3 0.781447 0.607468 0.087733
O O4 0.805012 0.126392 0.107936
O O5 0.943628 0.532575 0.180501
O O6 0.058953 0.949023 0.198169
O O7 0.000000 0.500000 0.000000
O O8 0.634983 0.016601 0.451996
O O9 0.746451 0.252813 0.380368
O O10 0.732312 0.738691 0.366752
O O11 0.804227 0.105793 0.601342
O O12 0.856715 0.530702 0.321578
O O13 0.356044 0.628622 0.337987
O O14 0.500000 0.000000 0.500000
O O15 0.365314 0.135116 0.343953
O O16 0.127702 0.313253 0.437945
O O17 0.214231 0.286755 0.296859
#
# Coordination Sequence:
#
# PCOD8043080 Si02
#       8
#     2   2   2   2   2   2   2   2
#     4  10  23  38  56  79 117 152 202 228 285 324
#     4  10  23  37  54  82 119 154 201 243 278 326
#     4   9  19  35  55  83 110 148 180 224 299 338
#     4  10  22  38  53  83 108 157 208 238 269 325
#     4  11  21  37  61  95 120 138 179 234 295 358
#     4  10  19  36  58  76 115 151 199 234 280 329
#     4   9  21  34  56  81 115 152 194 231 291 323
#     4  11  21  37  59  86 120 153 180 229 293 352
#
# _framework density 17.958323
#
# number of rings (size 3 to 8) (size 9 to 14) (size 15 to 20)
#    1.500    0.500    1.250    2.625    3.500    3.500 
#    0.000    1.250    0.000    0.000    0.000   17.500 
#    0.000    0.000    0.000    0.000    0.000    0.000 
#
# Total GULP energy -198256.601674 kJ/mol
# GULP energy per Si atom -12391.037605 kJ/mol
# Density = 1.791745 g / cm^3
# Si number density = 17.958323 Si / 1000 Ang^3
#
#
#
# Elastic Constant Matrix: (Units=GPa)
#
#
# Indices 1 2 3 4 5 6 
#
# 1 67.2414 -3.9724 23.1288 7.6919 -11.7907 -3.3800
# 2 -3.9724 30.3599 -21.6614 12.1971 -28.0469 -36.2596
# 3 23.1288 -21.6614 56.2210 13.1934 -26.8016 -13.7938
# 4 7.6919 12.1971 13.1934 28.9227 -1.2951 -3.1864
# 5 -11.7907 -28.0469 -26.8016 -1.2951 20.3426 -7.0684
# 6 -3.3800 -36.2596 -13.7938 -3.1864 -7.0684 15.0671
#
#
#
# Elastic Compliance Matrix: (Units=1/GPa)
#
#
# Indices 1 2 3 4 5 6 
#
# 1 0.017452 0.000063 -0.005839 -0.001985 0.002141 -0.000695
# 2 0.000063 0.001362 -0.008730 0.001644 -0.013137 -0.010516
# 3 -0.005839 -0.008730 0.012743 -0.002103 -0.003132 -0.012567
# 4 -0.001985 0.001644 -0.002103 0.036858 0.004722 0.011597
# 5 0.002141 -0.013137 -0.003132 0.004722 0.020303 -0.023478
# 6 -0.000695 -0.010516 -0.012567 0.011597 -0.023478 0.020840
#
#
# Mechanical properties :
#
#
# Convention : Reuss Voigt Hill
#
# Bulk Modulus (GPa) = 393.06419 16.53470 204.79945
# Shear Modulus (GPa) = 35.86383 23.28831 29.57607
#
# Velocity S-wave (km/s) = 4.47369 3.60501 4.06264
# Velocity P-wave (km/s) = 15.68554 5.15320 11.67458
#
# Compressibility (1/GPa) = 0.00254411
#
# Stress axis : x y z
#
# Youngs Moduli (GPa) = 57.30157 734.33637 78.47639
#
# Poissons Ratio (x) = -0.04624 0.45823
# Poissons Ratio (y) = -0.00361 0.68508
# Poissons Ratio (z) = 0.33459 6.41059
#
# Static dielectric constant tensor:
#      x y z
#    x 3.057610 -0.065750 -0.155470 
#    y -0.065750 3.401770 -0.025820 
#    z -0.155470 -0.025820 3.071720 
# 
# 
# High freq. dielectric constant tensor:
#      x y z
#    x 1.665790 -0.005910 -0.020390 
#    y -0.005910 1.713940 0.000860 
#    z -0.020390 0.000860 1.673270 
# 
# From -- ./inp_files/458926.got.cif
#   From: 2010.06.25/outbox.cif.g09.slc.cpg/sg2_230_cif.got.tgz:458926.got - 2010.06.27 13:26:56.
