data_PCOD8043241
_publ_section_title
;
Structure prediction by ZEFSAII (Michael W. Deem and Ramdas Pophale) SiO2 
 PCOD8043241
Probable space group: P -1
;
_chemical_formula_sum "Si O2"
_cell_formula_units_Z 16
_cell_length_a 21.121602
_cell_length_b 11.531867
_cell_length_c 8.924207
_cell_angle_alpha 78.921428
_cell_angle_beta 41.786205
_cell_angle_gamma 47.701216
_cell_volume 833.484559
_symmetry_space_group_name_H-M "P -1"
_symmetry_group_IT_number 2
_symmetry_cell_setting 'triclinic'
loop_
_space_group_symop_operation_xyz
x,y,z
-x,-y,-z
loop_
_atom_site_type_symbol
_atom_site_label
_atom_site_fract_x
_atom_site_fract_y
_atom_site_fract_z
Si Si1 0.462761 0.205763 0.417506
Si Si2 0.747003 0.286935 0.799574
Si Si3 0.891081 0.219632 0.101646
Si Si4 0.247877 0.265271 0.995664
Si Si5 0.467873 0.459405 0.417617
Si Si6 0.234244 0.512645 0.491821
Si Si7 0.015384 0.837466 0.368431
Si Si8 0.072631 0.546632 0.508604
O O1 0.324216 0.281476 0.741549
O O2 0.509527 0.277952 0.407427
O O3 0.389228 0.307057 0.358292
O O4 0.624809 0.969551 0.159637
O O5 0.711635 0.432550 0.719233
O O6 0.836200 0.237269 0.806873
O O7 0.854514 0.078096 0.583671
O O8 0.574952 0.404969 0.110051
O O9 0.713755 0.343110 0.366983
O O10 0.900203 0.305490 0.198066
O O11 0.941161 0.239798 0.858967
O O12 0.000000 0.000000 0.000000
O O13 0.214449 0.355045 0.196387
O O14 0.071620 0.399936 0.215822
O O15 0.500000 0.500000 0.500000
O O16 0.155954 0.489487 0.534497
O O17 0.988068 0.747155 0.535444
#
# Coordination Sequence:
#
# PCOD8043241 Si02
#       8
#     2   2   2   2   2   2   2   2
#     4  10  23  40  59  87 121 153 193 251 295 339
#     4  10  20  35  59  88 119 159 193 233 291 362
#     4  11  21  36  53  86 127 158 185 238 297 348
#     4  10  22  42  63  82 113 159 206 241 290 348
#     4  11  22  37  62  87 120 158 196 232 293 365
#     4  10  22  37  61  88 124 149 193 251 299 344
#     4  10  19  36  60  86 121 155 195 238 290 356
#     4  10  21  38  65  85 107 158 206 242 288 349
#
# _framework density 19.196517
#
# number of rings (size 3 to 8) (size 9 to 14) (size 15 to 20)
#    0.000    1.750    2.500    2.250    1.750    4.000 
#    2.250    0.000    0.000    0.000    0.000    0.000 
#    0.000    0.000    0.000    0.000    0.000    0.000 
#
# Total GULP energy -198387.064286 kJ/mol
# GULP energy per Si atom -12399.191518 kJ/mol
# Density = 1.915283 g / cm^3
# Si number density = 19.196517 Si / 1000 Ang^3
#
#
#
# Elastic Constant Matrix: (Units=GPa)
#
#
# Indices 1 2 3 4 5 6 
#
# 1 140.5983 39.8564 52.5884 1.7196 16.6468 8.3047
# 2 39.8564 87.3528 37.0215 9.3613 8.9162 4.2196
# 3 52.5884 37.0215 121.1634 -1.8737 6.0553 1.1515
# 4 1.7196 9.3613 -1.8737 33.8659 3.1172 2.4371
# 5 16.6468 8.9162 6.0553 3.1172 21.4402 -3.0460
# 6 8.3047 4.2196 1.1515 2.4371 -3.0460 28.8143
#
#
#
# Elastic Compliance Matrix: (Units=1/GPa)
#
#
# Indices 1 2 3 4 5 6 
#
# 1 0.009933 -0.002465 -0.003199 0.000808 -0.006343 -0.003113
# 2 -0.002465 0.014752 -0.003338 -0.003775 -0.002915 -0.001305
# 3 -0.003199 -0.003338 0.010638 0.001535 0.000778 0.000938
# 4 0.000808 -0.003775 0.001535 0.031229 -0.004436 -0.002852
# 5 -0.006343 -0.002915 0.000778 -0.004436 0.054390 0.008349
# 6 -0.003113 -0.001305 0.000938 -0.002852 0.008349 0.036880
#
#
# Mechanical properties :
#
#
# Convention : Reuss Voigt Hill
#
# Bulk Modulus (GPa) = 57.74007 67.56078 62.65042
# Shear Modulus (GPa) = 27.53332 31.46730 29.50031
#
# Velocity S-wave (km/s) = 3.79131 4.05312 3.92440
# Velocity P-wave (km/s) = 7.02204 7.56138 7.29669
#
# Compressibility (1/GPa) = 0.01731900
#
# Stress axis : x y z
#
# Youngs Moduli (GPa) = 100.67748 67.78552 94.00646
#
# Poissons Ratio (x) = 0.16709 0.30071
# Poissons Ratio (y) = 0.24817 0.31379
# Poissons Ratio (z) = 0.32205 0.22627
#
# Static dielectric constant tensor:
#      x y z
#    x 3.648140 0.119480 0.149930 
#    y 0.119480 3.512460 0.007180 
#    z 0.149930 0.007180 3.598820 
# 
# 
# High freq. dielectric constant tensor:
#      x y z
#    x 1.744080 0.007500 0.010170 
#    y 0.007500 1.747400 0.001500 
#    z 0.010170 0.001500 1.753340 
# 
# From -- ./inp_files/180098.got.cif
#   From: 2010.06.25/outbox.cif.g09.slc.cpg/sg2_91_cif.got.tgz:180098.got - 2010.06.27 13:26:56.
