data_PCOD8043685
_publ_section_title
;
Structure prediction by ZEFSAII (Michael W. Deem and Ramdas Pophale) SiO2 
 PCOD8043685
Probable space group: P -1
;
_chemical_formula_sum "Si O2"
_cell_formula_units_Z 16
_cell_length_a 4.939519
_cell_length_b 23.431253
_cell_length_c 11.719308
_cell_angle_alpha 138.507377
_cell_angle_beta 109.925729
_cell_angle_gamma 77.280164
_cell_volume 843.496922
_symmetry_space_group_name_H-M "P -1"
_symmetry_group_IT_number 2
_symmetry_cell_setting 'triclinic'
loop_
_space_group_symop_operation_xyz
x,y,z
-x,-y,-z
loop_
_atom_site_type_symbol
_atom_site_label
_atom_site_fract_x
_atom_site_fract_y
_atom_site_fract_z
Si Si1 0.390012 0.290378 0.575411
Si Si2 0.640028 0.083214 0.024546
Si Si3 0.132539 0.454397 0.183741
Si Si4 0.725573 0.896683 0.783326
Si Si5 0.568308 0.244565 0.126082
Si Si6 0.428040 0.633324 0.050032
Si Si7 0.982199 0.306936 0.086109
Si Si8 0.778270 0.347183 0.518835
O O1 0.406341 0.186919 0.427093
O O2 0.400280 0.326611 0.758710
O O3 0.660292 0.331632 0.606006
O O4 0.100094 0.316074 0.509885
O O5 0.625265 0.982753 0.833676
O O6 0.374830 0.102137 0.097573
O O7 0.627060 0.143825 0.002034
O O8 0.929524 0.105030 0.171263
O O9 0.229837 0.552867 0.364657
O O10 0.111671 0.406334 0.233493
O O11 0.352547 0.406724 0.064876
O O12 0.812569 0.442671 0.061665
O O13 0.821117 0.292440 0.160761
O O14 0.571139 0.292855 0.320719
O O15 0.252558 0.246561 0.026528
O O16 0.253458 0.708968 0.074114
#
# Coordination Sequence:
#
# PCOD8043685 Si02
#       8
#     2   2   2   2   2   2   2   2
#     4  12  22  38  60  85 118 144 187 235 283 343
#     4  10  20  34  59  85 118 143 171 225 287 352
#     4  10  22  42  51  85 110 152 203 225 284 315
#     4  10  19  37  55  87 119 140 175 219 295 348
#     4  12  20  37  59  84 115 142 190 231 281 338
#     4  10  22  41  57  77 109 164 193 227 275 325
#     4  10  22  39  56  77 110 160 193 225 271 328
#     4  12  25  34  58  91 112 145 188 242 291 325
#
# _framework density 18.968653
#
# number of rings (size 3 to 8) (size 9 to 14) (size 15 to 20)
#    0.750    0.500    3.750    3.000    0.000    4.000 
#    0.000    0.000    0.000    1.500    0.000    0.000 
#    0.000    0.000    0.000    0.000    0.000    0.000 
#
# Total GULP energy -198312.606230 kJ/mol
# GULP energy per Si atom -12394.537889 kJ/mol
# Density = 1.892548 g / cm^3
# Si number density = 18.968653 Si / 1000 Ang^3
#
#
#
# Elastic Constant Matrix: (Units=GPa)
#
#
# Indices 1 2 3 4 5 6 
#
# 1 108.9197 33.4336 16.4142 8.4125 -0.7835 4.7896
# 2 33.4336 117.9249 41.0834 26.1560 -3.3795 11.9841
# 3 16.4142 41.0834 30.4645 16.6200 -0.7821 7.9265
# 4 8.4125 26.1560 16.6200 26.9030 -2.4747 3.5482
# 5 -0.7835 -3.3795 -0.7821 -2.4747 17.5441 -0.0593
# 6 4.7896 11.9841 7.9265 3.5482 -0.0593 24.6033
#
#
#
# Elastic Compliance Matrix: (Units=1/GPa)
#
#
# Indices 1 2 3 4 5 6 
#
# 1 0.010210 -0.001883 -0.003318 0.000706 0.000044 -0.000103
# 2 -0.001883 0.016625 -0.019242 -0.003387 0.001779 -0.001040
# 3 -0.003318 -0.019242 0.078464 -0.027634 -0.004293 -0.011286
# 4 0.000706 -0.003387 -0.027634 0.057612 0.006281 0.002122
# 5 0.000044 0.001779 -0.004293 0.006281 0.058038 -0.000258
# 6 -0.000103 -0.001040 -0.011286 0.002122 -0.000258 0.044501
#
#
# Mechanical properties :
#
#
# Convention : Reuss Voigt Hill
#
# Bulk Modulus (GPa) = 17.72676 48.79682 33.26179
# Shear Modulus (GPa) = 15.00867 24.90193 19.95530
#
# Velocity S-wave (km/s) = 2.81594 3.62718 3.24700
# Velocity P-wave (km/s) = 4.46523 6.58200 5.62410
#
# Compressibility (1/GPa) = 0.05641188
#
# Stress axis : x y z
#
# Youngs Moduli (GPa) = 97.94723 60.14892 12.74469
#
# Poissons Ratio (x) = 0.11329 0.04229
# Poissons Ratio (y) = 0.18448 0.24523
# Poissons Ratio (z) = 0.32503 1.15737
#
# Static dielectric constant tensor:
#      x y z
#    x 3.649700 0.021540 0.114830 
#    y 0.021540 3.588290 0.232230 
#    z 0.114830 0.232230 3.114490 
# 
# 
# High freq. dielectric constant tensor:
#      x y z
#    x 1.764220 0.000110 0.006420 
#    y 0.000110 1.736160 0.016570 
#    z 0.006420 0.016570 1.688930 
# 
# From -- ./inp_files/370882.got.cif
#   From: 2010.06.25/outbox.cif.g09.slc.cpg/sg2_186_cif.got.tgz:370882.got - 2010.06.27 13:26:56.
