data_PCOD8043386
_publ_section_title
;
Structure prediction by ZEFSAII (Michael W. Deem and Ramdas Pophale) SiO2 
 PCOD8043386
Probable space group: P -1
;
_chemical_formula_sum "Si O2"
_cell_formula_units_Z 14
_cell_length_a 13.238828
_cell_length_b 23.115694
_cell_length_c 16.625500
_cell_angle_alpha 162.078387
_cell_angle_beta 25.140387
_cell_angle_gamma 156.416922
_cell_volume 603.073915
_symmetry_space_group_name_H-M "P -1"
_symmetry_group_IT_number 2
_symmetry_cell_setting 'triclinic'
loop_
_space_group_symop_operation_xyz
x,y,z
-x,-y,-z
loop_
_atom_site_type_symbol
_atom_site_label
_atom_site_fract_x
_atom_site_fract_y
_atom_site_fract_z
Si Si1 0.426145 0.681339 0.262598
Si Si2 0.449630 0.650321 0.022175
Si Si3 0.455933 0.808829 0.833440
Si Si4 0.662640 0.728084 0.719378
Si Si5 0.992736 0.782957 0.243596
Si Si6 0.850636 0.612580 0.573826
Si Si7 0.315725 0.864095 0.264282
O O1 0.116150 0.604617 0.400505
O O2 0.578981 0.888612 0.477125
O O3 0.500000 0.500000 0.000000
O O4 0.501816 0.739720 0.192543
O O5 0.286374 0.402538 0.819207
O O6 0.736392 0.712645 0.857493
O O7 0.283837 0.751098 0.224281
O O8 0.714320 0.863137 0.777725
O O9 0.388873 0.614451 0.565909
O O10 0.210930 0.746147 0.987093
O O11 0.500000 0.000000 0.000000
O O12 0.500000 0.500000 0.500000
O O13 0.903924 0.733342 0.607708
O O14 0.512216 0.805639 0.993863
O O15 0.043416 0.783950 0.304792
O O16 0.000000 0.000000 0.500000
#
# Coordination Sequence:
#
# PCOD8043386 Si02
#       7
#     2   2   2   2   2   2   2
#     4  12  26  46  67  96 146 182 227 282 339 414
#     4  11  23  44  70  96 132 179 232 284 341 404
#     4  10  19  36  62 101 134 169 222 277 342 398
#     4   8  18  38  65  95 133 167 220 281 331 395
#     4  11  21  39  66 100 137 175 223 288 339 401
#     4  10  22  43  68  92 134 178 226 279 340 400
#     4  10  23  41  69 100 134 184 230 273 346 407
#
# _framework density 23.214400000000001
#
# number of rings (size 3 to 8) (size 9 to 14) (size 15 to 20)
#    0.000    1.714    1.429    2.571    0.000    4.000 
#    5.143    1.429    0.000    0.000    0.000    0.000 
#    0.000    0.000    0.000    0.000    0.000    0.000 
#
# Total GULP energy -173458.056327 kJ/mol
# GULP energy per Si atom -12389.861166 kJ/mol
# Density = 2.316156 g / cm^3
# Si number density = 23.214400 Si / 1000 Ang^3
#
#
#
# Elastic Constant Matrix: (Units=GPa)
#
#
# Indices 1 2 3 4 5 6 
#
# 1 112.6247 20.1257 25.0254 -2.3434 -9.8943 -17.5619
# 2 20.1257 50.4334 12.1986 0.2760 0.2928 -9.0798
# 3 25.0254 12.1986 99.0110 14.0137 5.4210 -5.8820
# 4 -2.3434 0.2760 14.0137 35.1683 -6.4719 -3.0845
# 5 -9.8943 0.2928 5.4210 -6.4719 49.2400 5.4441
# 6 -17.5619 -9.0798 -5.8820 -3.0845 5.4441 39.0867
#
#
#
# Elastic Compliance Matrix: (Units=1/GPa)
#
#
# Indices 1 2 3 4 5 6 
#
# 1 0.010846 -0.003064 -0.002644 0.002565 0.002425 0.003628
# 2 -0.003064 0.022137 -0.001754 0.000477 -0.000897 0.003665
# 3 -0.002644 -0.001754 0.011890 -0.005358 -0.002548 0.000126
# 4 0.002565 0.000477 -0.005358 0.031863 0.005040 0.002270
# 5 0.002425 -0.000897 -0.002548 0.005040 0.021984 -0.002166
# 6 0.003628 0.003665 0.000126 0.002270 -0.002166 0.028565
#
#
# Mechanical properties :
#
#
# Convention : Reuss Voigt Hill
#
# Bulk Modulus (GPa) = 33.38914 41.86316 37.62615
# Shear Modulus (GPa) = 32.85323 38.34697 35.60010
#
# Velocity S-wave (km/s) = 3.76601 4.06872 3.92029
# Velocity P-wave (km/s) = 5.77274 6.33601 6.06093
#
# Compressibility (1/GPa) = 0.02994986
#
# Stress axis : x y z
#
# Youngs Moduli (GPa) = 92.19819 45.17277 84.10685
#
# Poissons Ratio (x) = 0.13839 0.22240
# Poissons Ratio (y) = 0.28245 0.14751
# Poissons Ratio (z) = 0.24379 0.07923
#
# Static dielectric constant tensor:
#      x y z
#    x 4.809970 -0.177780 -0.083310 
#    y -0.177780 3.630060 -0.078440 
#    z -0.083310 -0.078440 4.487430 
# 
# 
# High freq. dielectric constant tensor:
#      x y z
#    x 1.936030 -0.014720 0.000010 
#    y -0.014720 1.874230 -0.002000 
#    z 0.000010 -0.002000 1.939830 
# 
# From -- ./inp_files/205371.got.cif
#   From: 2010.06.25/outbox.cif.g09.slc.cpg/sg2_103_cif.got.tgz:205371.got - 2010.06.27 13:26:56.
