data_PCOD8043372
_publ_section_title
;
Structure prediction by ZEFSAII (Michael W. Deem and Ramdas Pophale) SiO2 
 PCOD8043372
Probable space group: P -1
;
_chemical_formula_sum "Si O2"
_cell_formula_units_Z 16
_cell_length_a 9.121044
_cell_length_b 9.144899
_cell_length_c 15.638809
_cell_angle_alpha 136.817758
_cell_angle_beta 76.469738
_cell_angle_gamma 117.392076
_cell_volume 781.434206
_symmetry_space_group_name_H-M "P -1"
_symmetry_group_IT_number 2
_symmetry_cell_setting 'triclinic'
loop_
_space_group_symop_operation_xyz
x,y,z
-x,-y,-z
loop_
_atom_site_type_symbol
_atom_site_label
_atom_site_fract_x
_atom_site_fract_y
_atom_site_fract_z
Si Si1 0.194758 0.781826 0.243296
Si Si2 0.906986 0.837996 0.203430
Si Si3 0.545111 0.965900 0.884052
Si Si4 0.634556 0.427362 0.988895
Si Si5 0.480175 0.734046 0.625992
Si Si6 0.883200 0.035979 0.931775
Si Si7 0.971132 0.639763 0.799243
Si Si8 0.866635 0.289605 0.375411
O O1 0.041625 0.825943 0.245295
O O2 0.135449 0.640668 0.282127
O O3 0.358531 0.034288 0.333118
O O4 0.231267 0.591220 0.102662
O O5 0.735274 0.595269 0.126152
O O6 0.865264 0.057639 0.322140
O O7 0.955174 0.860300 0.106143
O O8 0.454642 0.739554 0.736219
O O9 0.735694 0.005939 0.874645
O O10 0.515249 0.167757 0.926528
O O11 0.500000 0.000000 0.000000
O O12 0.500000 0.500000 0.000000
O O13 0.500000 0.500000 0.500000
O O14 0.317172 0.722511 0.595053
O O15 0.853386 0.778198 0.863502
O O16 0.897212 0.220696 0.083556
O O17 0.078649 0.666823 0.711930
O O18 0.000000 0.500000 0.500000
#
# Coordination Sequence:
#
# PCOD8043372 Si02
#       8
#     2   2   2   2   2   2   2   2
#     4  11  21  39  64  96 125 165 211 268 318 378
#     4  11  19  38  63  89 122 163 204 253 319 379
#     4  11  23  38  61  93 130 162 209 258 323 377
#     4  11  22  34  57  92 131 162 204 263 318 376
#     4  11  24  44  67  93 127 172 213 264 322 386
#     4  10  19  36  61  93 123 163 197 254 321 378
#     4  10  22  36  65  93 126 159 213 260 312 378
#     4  11  25  44  64  86 125 173 217 256 317 385
#
# _framework density 20.475172000000001
#
# number of rings (size 3 to 8) (size 9 to 14) (size 15 to 20)
#    0.000    1.250    3.750    4.125    3.500    0.000 
#    0.000    4.375    0.000    0.000    0.000    0.000 
#    0.000    0.000    0.000    0.000    0.000    0.000 
#
# Total GULP energy -198218.526777 kJ/mol
# GULP energy per Si atom -12388.657924 kJ/mol
# Density = 2.042857 g / cm^3
# Si number density = 20.475172 Si / 1000 Ang^3
#
#
#
# Elastic Constant Matrix: (Units=GPa)
#
#
# Indices 1 2 3 4 5 6 
#
# 1 151.4799 25.2432 48.5484 22.3164 -0.3193 -19.8850
# 2 25.2432 87.2729 28.6938 15.0362 -9.7945 -12.3342
# 3 48.5484 28.6938 121.1352 21.7500 0.0631 -4.7206
# 4 22.3164 15.0362 21.7500 33.5053 -1.3746 -0.2687
# 5 -0.3193 -9.7945 0.0631 -1.3746 35.0209 7.3276
# 6 -19.8850 -12.3342 -4.7206 -0.2687 7.3276 29.4927
#
#
#
# Elastic Compliance Matrix: (Units=1/GPa)
#
#
# Indices 1 2 3 4 5 6 
#
# 1 0.008807 -0.000375 -0.002483 -0.004096 -0.001371 0.005687
# 2 -0.000375 0.014009 -0.002192 -0.004463 0.002798 0.004519
# 3 -0.002483 -0.002192 0.010495 -0.004209 -0.000655 -0.000787
# 4 -0.004096 -0.004463 -0.004209 0.037320 0.001292 -0.005283
# 5 -0.001371 0.002798 -0.000655 0.001292 0.030953 -0.007538
# 6 0.005687 0.004519 -0.000787 -0.005283 -0.007538 0.041330
#
#
# Mechanical properties :
#
#
# Convention : Reuss Voigt Hill
#
# Bulk Modulus (GPa) = 43.08413 62.76210 52.92312
# Shear Modulus (GPa) = 31.10397 36.76398 33.93398
#
# Velocity S-wave (km/s) = 3.90180 4.24198 4.07544
# Velocity P-wave (km/s) = 6.43324 7.39674 6.93175
#
# Compressibility (1/GPa) = 0.02321040
#
# Stress axis : x y z
#
# Youngs Moduli (GPa) = 113.54673 71.38196 95.28444
#
# Poissons Ratio (x) = 0.02680 0.23658
# Poissons Ratio (y) = 0.04263 0.20886
# Poissons Ratio (z) = 0.28192 0.15647
#
# Static dielectric constant tensor:
#      x y z
#    x 3.942650 0.089430 -0.105420 
#    y 0.089430 3.755380 0.168980 
#    z -0.105420 0.168980 3.705290 
# 
# 
# High freq. dielectric constant tensor:
#      x y z
#    x 1.810540 -0.013130 -0.001190 
#    y -0.013130 1.792470 0.014660 
#    z -0.001190 0.014660 1.787660 
# 
# From -- ./inp_files/243049.got.cif
#   From: 2010.06.25/outbox.cif.g09.slc.cpg/sg2_122_cif.got.tgz:243049.got - 2010.06.27 13:26:56.
