data_PCOD8043738
_publ_section_title
;
Structure prediction by ZEFSAII (Michael W. Deem and Ramdas Pophale) SiO2 
 PCOD8043738
Probable space group: P -1
;
_chemical_formula_sum "Si O2"
_cell_formula_units_Z 14
_cell_length_a 11.336652
_cell_length_b 10.365285
_cell_length_c 8.688062
_cell_angle_alpha 128.089562
_cell_angle_beta 116.729333
_cell_angle_gamma 71.942428
_cell_volume 716.877738
_symmetry_space_group_name_H-M "P -1"
_symmetry_group_IT_number 2
_symmetry_cell_setting 'triclinic'
loop_
_space_group_symop_operation_xyz
x,y,z
-x,-y,-z
loop_
_atom_site_type_symbol
_atom_site_label
_atom_site_fract_x
_atom_site_fract_y
_atom_site_fract_z
Si Si1 0.275752 0.110886 0.845477
Si Si2 0.329065 0.616658 0.085158
Si Si3 0.182365 0.834400 0.403287
Si Si4 0.503280 0.313270 0.042902
Si Si5 0.950675 0.672159 0.022274
Si Si6 0.925273 0.381474 0.255406
Si Si7 0.759177 0.213033 0.268678
O O1 0.423960 0.152599 0.918555
O O2 0.197913 0.279095 0.976957
O O3 0.212414 0.024753 0.593621
O O4 0.275194 0.979813 0.889451
O O5 0.282966 0.755898 0.280312
O O6 0.435971 0.701404 0.103073
O O7 0.402750 0.470063 0.113851
O O8 0.204432 0.546656 0.863441
O O9 0.192857 0.730538 0.493127
O O10 0.034606 0.821593 0.245040
O O11 0.626606 0.324750 0.239493
O O12 0.000000 0.500000 0.000000
O O13 0.964606 0.674051 0.846691
O O14 0.872553 0.234861 0.222485
O O15 0.000000 0.500000 0.500000
#
# Coordination Sequence:
#
# PCOD8043738 Si02
#       7
#     2   2   2   2   2   2   2
#     4  10  21  35  58  83 115 151 182 231 285 334
#     4   9  20  37  60  84 110 149 192 235 271 332
#     4   9  20  36  54  86 112 144 185 232 280 330
#     4  10  19  37  58  79 114 153 191 227 276 326
#     4  11  21  37  61  82 112 147 189 231 283 337
#     4  10  20  37  59  83 113 143 187 237 280 330
#     4   9  21  35  56  80 118 145 187 229 277 333
#
# _framework density 19.529133000000002
#
# number of rings (size 3 to 8) (size 9 to 14) (size 15 to 20)
#    0.857    1.429    0.000    3.429    0.000    1.714 
#    0.000    2.857    0.000    0.000    0.000    0.000 
#    0.000    0.000    0.000    0.000    0.000    0.000 
#
# Total GULP energy -173439.051672 kJ/mol
# GULP energy per Si atom -12388.503691 kJ/mol
# Density = 1.948468 g / cm^3
# Si number density = 19.529133 Si / 1000 Ang^3
#
#
#
# Elastic Constant Matrix: (Units=GPa)
#
#
# Indices 1 2 3 4 5 6 
#
# 1 119.6858 33.0222 44.5895 5.6821 -10.8539 12.1364
# 2 33.0222 74.2349 22.0221 -3.0022 -8.4599 4.2509
# 3 44.5895 22.0221 101.4955 -7.2807 -10.6290 4.1111
# 4 5.6821 -3.0022 -7.2807 23.2110 4.1673 1.0264
# 5 -10.8539 -8.4599 -10.6290 4.1673 25.0851 4.3245
# 6 12.1364 4.2509 4.1111 1.0264 4.3245 38.4974
#
#
#
# Elastic Compliance Matrix: (Units=1/GPa)
#
#
# Indices 1 2 3 4 5 6 
#
# 1 0.011835 -0.003625 -0.004295 -0.005200 0.003481 -0.003124
# 2 -0.003625 0.015970 -0.001373 0.002013 0.003051 -0.000870
# 3 -0.004295 -0.001373 0.012607 0.004421 0.002324 -0.000220
# 4 -0.005200 0.002013 0.004421 0.047354 -0.007658 0.000543
# 5 0.003481 0.003051 0.002324 -0.007658 0.045798 -0.006623
# 6 -0.003124 -0.000870 -0.000220 0.000543 -0.006623 0.027810
#
#
# Mechanical properties :
#
#
# Convention : Reuss Voigt Hill
#
# Bulk Modulus (GPa) = 45.81906 54.96487 50.39197
# Shear Modulus (GPa) = 26.70454 30.41085 28.55770
#
# Velocity S-wave (km/s) = 3.70188 3.95042 3.82817
# Velocity P-wave (km/s) = 6.46411 7.00100 6.73790
#
# Compressibility (1/GPa) = 0.02182498
#
# Stress axis : x y z
#
# Youngs Moduli (GPa) = 84.49665 62.61871 79.32262
#
# Poissons Ratio (x) = 0.22700 0.34066
# Poissons Ratio (y) = 0.30632 0.10893
# Poissons Ratio (z) = 0.36289 0.08599
#
# Static dielectric constant tensor:
#      x y z
#    x 3.733060 0.141800 0.038750 
#    y 0.141800 3.397290 -0.206350 
#    z 0.038750 -0.206350 3.380100 
# 
# 
# High freq. dielectric constant tensor:
#      x y z
#    x 1.779280 0.011840 0.002550 
#    y 0.011840 1.742730 -0.012610 
#    z 0.002550 -0.012610 1.740490 
# 
# From -- ./inp_files/260743.got.cif
#   From: 2010.06.25/outbox.cif.g09.slc.cpg/sg2_131_cif.got.tgz:260743.got - 2010.06.27 13:26:56.
