data_PCOD8043954
_publ_section_title
;
Structure prediction by ZEFSAII (Michael W. Deem and Ramdas Pophale) SiO2 
 PCOD8043954
Probable space group: P -1
;
_chemical_formula_sum "Si O2"
_cell_formula_units_Z 14
_cell_length_a 19.177176
_cell_length_b 7.135336
_cell_length_c 9.625754
_cell_angle_alpha 112.495613
_cell_angle_beta 37.155770
_cell_angle_gamma 122.742160
_cell_volume 666.084824
_symmetry_space_group_name_H-M "P -1"
_symmetry_group_IT_number 2
_symmetry_cell_setting 'triclinic'
loop_
_space_group_symop_operation_xyz
x,y,z
-x,-y,-z
loop_
_atom_site_type_symbol
_atom_site_label
_atom_site_fract_x
_atom_site_fract_y
_atom_site_fract_z
Si Si1 0.174089 0.066138 0.119864
Si Si2 0.724734 0.985779 0.339303
Si Si3 0.987727 0.687255 0.477399
Si Si4 0.547650 0.304379 0.359852
Si Si5 0.333862 0.437059 0.512784
Si Si6 0.227186 0.572184 0.468432
Si Si7 0.606058 0.481900 0.036198
O O1 0.074629 0.178281 0.295734
O O2 0.309858 0.251052 0.009643
O O3 0.124688 0.863136 0.252385
O O4 0.187738 0.967962 0.922212
O O5 0.577910 0.930018 0.512358
O O6 0.777521 0.197942 0.415927
O O7 0.735945 0.786406 0.350693
O O8 0.901153 0.577428 0.449945
O O9 0.000000 0.500000 0.500000
O O10 0.500000 0.500000 0.500000
O O11 0.632469 0.343840 0.376229
O O12 0.626560 0.353072 0.104082
O O13 0.235605 0.440028 0.554717
O O14 0.459652 0.439029 0.239132
O O15 0.351271 0.622592 0.190830
#
# Coordination Sequence:
#
# PCOD8043954 Si02
#       7
#     2   2   2   2   2   2   2
#     4  10  19  42  68  80 113 166 198 233 303 358
#     4  10  20  37  61  92 123 153 193 240 301 353
#     4  10  25  44  61  84 115 157 210 249 290 354
#     4   8  15  33  60  85 122 159 190 220 290 367
#     4  10  19  37  61  91 128 155 190 242 293 355
#     4  11  24  35  58  94 121 150 206 250 289 341
#     4   9  17  38  61  88 122 162 193 233 293 361
#
# _framework density 21.018345
#
# number of rings (size 3 to 8) (size 9 to 14) (size 15 to 20)
#    0.000    2.571    4.286    0.429    0.000    8.000 
#    0.000    4.286    0.000    0.000    0.000    0.000 
#    0.000    0.000    0.000    0.000    0.000    0.000 
#
# Total GULP energy -173534.978778 kJ/mol
# GULP energy per Si atom -12395.355627 kJ/mol
# Density = 2.097051 g / cm^3
# Si number density = 21.018345 Si / 1000 Ang^3
#
#
#
# Elastic Constant Matrix: (Units=GPa)
#
#
# Indices 1 2 3 4 5 6 
#
# 1 99.9541 30.9637 30.8989 -0.2166 17.6881 -5.6979
# 2 30.9637 87.1582 50.1471 -11.1622 8.5509 -0.9020
# 3 30.8989 50.1471 98.1364 -19.7542 20.9403 4.2396
# 4 -0.2166 -11.1622 -19.7542 26.7256 11.0418 10.2565
# 5 17.6881 8.5509 20.9403 11.0418 30.3685 -2.2957
# 6 -5.6979 -0.9020 4.2396 10.2565 -2.2957 33.5039
#
#
#
# Elastic Compliance Matrix: (Units=1/GPa)
#
#
# Indices 1 2 3 4 5 6 
#
# 1 0.012446 -0.003119 -0.001935 -0.001907 -0.004148 0.002577
# 2 -0.003119 0.017242 -0.009357 -0.002409 0.004453 0.002160
# 3 -0.001935 -0.009357 0.032833 0.043080 -0.036083 -0.020396
# 4 -0.001907 -0.002409 0.043080 0.116635 -0.073847 -0.046606
# 5 -0.004148 0.004453 -0.036083 -0.073847 0.088290 0.032637
# 6 0.002577 0.002160 -0.020396 -0.046606 0.032637 0.049428
#
#
# Mechanical properties :
#
#
# Convention : Reuss Voigt Hill
#
# Bulk Modulus (GPa) = 29.67437 56.58535 43.12986
# Shear Modulus (GPa) = 14.00845 29.66888 21.83867
#
# Velocity S-wave (km/s) = 2.58444 3.76116 3.22689
# Velocity P-wave (km/s) = 4.80154 6.77068 5.86928
#
# Compressibility (1/GPa) = 0.03369911
#
# Stress axis : x y z
#
# Youngs Moduli (GPa) = 80.34870 57.99826 30.45730
#
# Poissons Ratio (x) = 0.18088 0.05893
# Poissons Ratio (y) = 0.25058 0.28499
# Poissons Ratio (z) = 0.15547 0.54269
#
# Static dielectric constant tensor:
#      x y z
#    x 3.973320 0.200520 0.385430 
#    y 0.200520 3.657100 -0.139160 
#    z 0.385430 -0.139160 4.128100 
# 
# 
# High freq. dielectric constant tensor:
#      x y z
#    x 1.802000 0.012810 0.018630 
#    y 0.012810 1.809360 -0.009590 
#    z 0.018630 -0.009590 1.830080 
# 
# From -- ./inp_files/339781.got.cif
#   From: 2010.06.25/outbox.cif.g09.slc.cpg/sg2_170_cif.got.tgz:339781.got - 2010.06.27 13:26:56.
