data_PCOD8043510
_publ_section_title
;
Structure prediction by ZEFSAII (Michael W. Deem and Ramdas Pophale) SiO2 
 PCOD8043510
Probable space group: P -1
;
_chemical_formula_sum "Si O2"
_cell_formula_units_Z 14
_cell_length_a 11.435640
_cell_length_b 11.565896
_cell_length_c 8.934959
_cell_angle_alpha 141.577779
_cell_angle_beta 91.977307
_cell_angle_gamma 106.130131
_cell_volume 639.475053
_symmetry_space_group_name_H-M "P -1"
_symmetry_group_IT_number 2
_symmetry_cell_setting 'triclinic'
loop_
_space_group_symop_operation_xyz
x,y,z
-x,-y,-z
loop_
_atom_site_type_symbol
_atom_site_label
_atom_site_fract_x
_atom_site_fract_y
_atom_site_fract_z
Si Si1 0.889691 0.702247 0.763790
Si Si2 0.025078 0.810694 0.362924
Si Si3 0.713270 0.228175 0.201865
Si Si4 0.527051 0.369530 0.239666
Si Si5 0.754055 0.939519 0.142909
Si Si6 0.138030 0.833030 0.095103
Si Si7 0.799030 0.710066 0.452616
O O1 0.806112 0.447790 0.514740
O O2 0.892912 0.782057 0.676776
O O3 0.828740 0.807809 0.976958
O O4 0.040083 0.777980 0.893726
O O5 0.055539 0.704514 0.110719
O O6 0.884666 0.648569 0.276358
O O7 0.158031 0.891363 0.554860
O O8 0.000000 0.000000 0.500000
O O9 0.565609 0.206192 0.160628
O O10 0.723424 0.042089 0.100208
O O11 0.757000 0.234553 0.034259
O O12 0.500000 0.500000 0.500000
O O13 0.650263 0.522072 0.291227
O O14 0.397375 0.237434 0.993479
O O15 0.211861 0.084968 0.395147
#
# Coordination Sequence:
#
# PCOD8043510 Si02
#       7
#     2   2   2   2   2   2   2
#     4  11  20  37  65  95 127 155 209 261 320 353
#     4  10  22  38  66  90 129 174 204 248 320 367
#     4  11  23  37  65 100 121 161 214 261 311 369
#     4  11  22  40  63  95 127 161 208 263 319 368
#     4  12  21  42  67  92 132 162 205 265 309 371
#     4  11  20  39  62  94 131 162 210 259 305 376
#     4  10  19  36  63  93 121 165 203 253 316 363
#
# _framework density 21.892956000000002
#
# number of rings (size 3 to 8) (size 9 to 14) (size 15 to 20)
#    0.000    1.143    7.143    2.143    0.000    1.143 
#    0.000   10.000    0.000    0.000    0.000    0.000 
#    0.000    0.000    0.000    0.000    0.000    0.000 
#
# Total GULP energy -173463.407584 kJ/mol
# GULP energy per Si atom -12390.243399 kJ/mol
# Density = 2.184313 g / cm^3
# Si number density = 21.892956 Si / 1000 Ang^3
#
#
#
# Elastic Constant Matrix: (Units=GPa)
#
#
# Indices 1 2 3 4 5 6 
#
# 1 121.2310 23.6207 25.9721 -11.2338 -1.0009 13.3508
# 2 23.6207 63.4107 2.7538 -17.3660 4.5685 22.4926
# 3 25.9721 2.7538 41.5382 -4.9799 -7.0600 7.8220
# 4 -11.2338 -17.3660 -4.9799 23.7750 9.3924 -3.6524
# 5 -1.0009 4.5685 -7.0600 9.3924 35.9559 2.9039
# 6 13.3508 22.4926 7.8220 -3.6524 2.9039 26.6693
#
#
#
# Elastic Compliance Matrix: (Units=1/GPa)
#
#
# Indices 1 2 3 4 5 6 
#
# 1 0.010332 -0.002747 -0.006089 0.001885 -0.000995 -0.000703
# 2 -0.002747 0.031030 0.005373 0.021699 -0.006802 -0.022659
# 3 -0.006089 0.005373 0.030833 0.003897 0.005035 -0.010541
# 4 0.001885 0.021699 0.003897 0.065378 -0.018255 -0.009446
# 5 -0.000995 -0.006802 0.005035 -0.018255 0.034527 -0.001501
# 6 -0.000703 -0.022659 -0.010541 -0.009446 -0.001501 0.058920
#
#
# Mechanical properties :
#
#
# Convention : Reuss Voigt Hill
#
# Bulk Modulus (GPa) = 15.32120 36.76366 26.04243
# Shear Modulus (GPa) = 19.25274 28.86892 24.06083
#
# Velocity S-wave (km/s) = 2.96869 3.63525 3.31875
# Velocity P-wave (km/s) = 4.33177 5.86932 5.15816
#
# Compressibility (1/GPa) = 0.06526902
#
# Stress axis : x y z
#
# Youngs Moduli (GPa) = 96.78367 32.22672 32.43264
#
# Poissons Ratio (x) = 0.08853 0.19748
# Poissons Ratio (y) = 0.26587 -0.17425
# Poissons Ratio (z) = 0.58930 -0.17314
#
# Static dielectric constant tensor:
#      x y z
#    x 4.197650 0.152700 -0.066310 
#    y 0.152700 4.013780 -0.060340 
#    z -0.066310 -0.060340 3.882070 
# 
# 
# High freq. dielectric constant tensor:
#      x y z
#    x 1.871800 0.009220 -0.011670 
#    y 0.009220 1.848750 0.014130 
#    z -0.011670 0.014130 1.841140 
# 
# From -- ./inp_files/255977.got.cif
#   From: 2010.06.25/outbox.cif.g09.slc.cpg/sg2_128_cif.got.tgz:255977.got - 2010.06.27 13:26:56.
