data_PCOD8043002
_publ_section_title
;
Structure prediction by ZEFSAII (Michael W. Deem and Ramdas Pophale) SiO2 
 PCOD8043002
Probable space group: P -1
;
_chemical_formula_sum "Si O2"
_cell_formula_units_Z 14
_cell_length_a 10.303882
_cell_length_b 16.385256
_cell_length_c 8.710025
_cell_angle_alpha 59.026963
_cell_angle_beta 56.354530
_cell_angle_gamma 36.046407
_cell_volume 713.660946
_symmetry_space_group_name_H-M "P -1"
_symmetry_group_IT_number 2
_symmetry_cell_setting 'triclinic'
loop_
_space_group_symop_operation_xyz
x,y,z
-x,-y,-z
loop_
_atom_site_type_symbol
_atom_site_label
_atom_site_fract_x
_atom_site_fract_y
_atom_site_fract_z
Si Si1 0.836982 0.487771 0.558911
Si Si2 0.408743 0.038909 0.270658
Si Si3 0.268029 0.988211 0.697238
Si Si4 0.503505 0.308888 0.175471
Si Si5 0.021849 0.500098 0.163186
Si Si6 0.186521 0.205128 0.958722
Si Si7 0.893879 0.252608 0.865755
O O1 0.583909 0.618495 0.668768
O O2 0.920677 0.344300 0.682098
O O3 0.000000 0.500000 0.500000
O O4 0.859841 0.491078 0.356542
O O5 0.541215 0.057811 0.265929
O O6 0.228036 0.170112 0.146850
O O7 0.275787 0.030725 0.482528
O O8 0.576690 0.900101 0.189978
O O9 0.308790 0.858187 0.772347
O O10 0.016929 0.120538 0.802912
O O11 0.288591 0.370143 0.157221
O O12 0.630199 0.340540 0.978182
O O13 0.000000 0.500000 0.000000
O O14 0.937337 0.640084 0.139837
O O15 0.020463 0.198707 0.001229
#
# Coordination Sequence:
#
# PCOD8043002 Si02
#       7
#     2   2   2   2   2   2   2
#     4  10  21  37  59  84 113 151 196 229 281 350
#     4   9  20  34  60  85 112 151 194 244 275 336
#     4  10  21  35  61  84 117 149 200 230 289 333
#     4  11  22  39  60  86 119 154 189 234 294 345
#     4  11  23  36  61  86 116 144 199 243 283 334
#     4  10  19  36  55  85 117 147 193 236 289 331
#     4  11  22  38  59  86 120 154 190 234 291 348
#
# _framework density 19.617158
#
# number of rings (size 3 to 8) (size 9 to 14) (size 15 to 20)
#    0.000    1.714    2.857    2.571   12.000    0.000 
#    0.000    2.857    0.000    0.000    0.000    0.000 
#    0.000    0.000    0.000    0.000    0.000    0.000 
#
# Total GULP energy -173539.455544 kJ/mol
# GULP energy per Si atom -12395.675396 kJ/mol
# Density = 1.957251 g / cm^3
# Si number density = 19.617158 Si / 1000 Ang^3
#
#
#
# Elastic Constant Matrix: (Units=GPa)
#
#
# Indices 1 2 3 4 5 6 
#
# 1 37.0291 19.5731 48.0682 10.6812 4.2933 -2.7584
# 2 19.5731 113.4112 47.0231 5.4344 -9.1628 5.4316
# 3 48.0682 47.0231 150.1278 14.7150 8.0124 -8.7991
# 4 10.6812 5.4344 14.7150 31.5154 1.9922 -5.1834
# 5 4.2933 -9.1628 8.0124 1.9922 34.8110 1.6509
# 6 -2.7584 5.4316 -8.7991 -5.1834 1.6509 19.4269
#
#
#
# Elastic Compliance Matrix: (Units=1/GPa)
#
#
# Indices 1 2 3 4 5 6 
#
# 1 0.049671 -0.002454 -0.014076 -0.009820 -0.002922 -0.001009
# 2 -0.002454 0.011218 -0.003204 -0.000785 0.004299 -0.005511
# 3 -0.014076 -0.003204 0.012537 0.000414 -0.002248 0.004877
# 4 -0.009820 -0.000785 0.000414 0.036567 -0.001606 0.008906
# 5 -0.002922 0.004299 -0.002248 -0.001606 0.031098 -0.005706
# 6 -0.001009 -0.005511 0.004877 0.008906 -0.005706 0.057942
#
#
# Mechanical properties :
#
#
# Convention : Reuss Voigt Hill
#
# Bulk Modulus (GPa) = 29.44659 58.87742 44.16200
# Shear Modulus (GPa) = 20.01438 29.54424 24.77931
#
# Velocity S-wave (km/s) = 3.19760 3.88498 3.55793
# Velocity P-wave (km/s) = 5.35500 7.08537 6.28007
#
# Compressibility (1/GPa) = 0.03395979
#
# Stress axis : x y z
#
# Youngs Moduli (GPa) = 20.13231 89.14165 79.76679
#
# Poissons Ratio (x) = 0.21871 1.12280
# Poissons Ratio (y) = 0.04939 0.25554
# Poissons Ratio (z) = 0.28338 0.28558
#
# Static dielectric constant tensor:
#      x y z
#    x 3.258560 0.171580 0.160640 
#    y 0.171580 3.723680 0.115430 
#    z 0.160640 0.115430 4.086320 
# 
# 
# High freq. dielectric constant tensor:
#      x y z
#    x 1.726310 0.017460 0.005720 
#    y 0.017460 1.776720 0.005880 
#    z 0.005720 0.005880 1.773180 
# 
# From -- ./inp_files/153889.got.cif
#   From: 2010.06.25/outbox.cif.g09.slc.cpg/sg2_77_cif.got.tgz:153889.got - 2010.06.27 13:26:56.
