data_PCOD8043096
_publ_section_title
;
Structure prediction by ZEFSAII (Michael W. Deem and Ramdas Pophale) SiO2 
 PCOD8043096
Probable space group: P -1
;
_chemical_formula_sum "Si O2"
_cell_formula_units_Z 16
_cell_length_a 12.510365
_cell_length_b 15.103467
_cell_length_c 16.451797
_cell_angle_alpha 24.481788
_cell_angle_beta 37.710932
_cell_angle_gamma 39.451413
_cell_volume 771.086893
_symmetry_space_group_name_H-M "P -1"
_symmetry_group_IT_number 2
_symmetry_cell_setting 'triclinic'
loop_
_space_group_symop_operation_xyz
x,y,z
-x,-y,-z
loop_
_atom_site_type_symbol
_atom_site_label
_atom_site_fract_x
_atom_site_fract_y
_atom_site_fract_z
Si Si1 0.923950 0.854306 0.603822
Si Si2 0.937077 0.838493 0.342290
Si Si3 0.760947 0.925392 0.088902
Si Si4 0.330670 0.264999 0.531819
Si Si5 0.434776 0.664805 0.221207
Si Si6 0.162657 0.574869 0.569635
Si Si7 0.719436 0.132471 0.353833
Si Si8 0.191414 0.465710 0.956074
O O1 0.088487 0.680949 0.610728
O O2 0.803514 0.983729 0.500624
O O3 0.784321 0.746857 0.826246
O O4 0.000000 0.000000 0.500000
O O5 0.839928 0.706276 0.448136
O O6 0.030977 0.666999 0.496815
O O7 0.788176 0.029132 0.313048
O O8 0.069543 0.959853 0.111590
O O9 0.692503 0.897650 0.244437
O O10 0.810954 0.685808 0.218111
O O11 0.606493 0.087388 0.995243
O O12 0.340992 0.506797 0.353505
O O13 0.506608 0.164005 0.458913
O O14 0.351044 0.648906 0.374813
O O15 0.647762 0.570319 0.176360
O O16 0.791800 0.351728 0.140879
O O17 0.000000 0.500000 0.000000
#
# Coordination Sequence:
#
# PCOD8043096 Si02
#       8
#     2   2   2   2   2   2   2   2
#     4  11  21  38  62  84 108 148 194 236 287 341
#     4  10  20  34  57  85 115 151 189 229 280 338
#     4  10  19  36  58  82 118 150 186 228 283 334
#     4  10  20  34  57  85 115 151 189 229 280 338
#     4   9  21  38  57  83 119 148 188 235 282 335
#     4   9  21  38  57  83 119 148 188 235 282 335
#     4  10  21  38  56  82 118 146 185 240 286 334
#     4  11  21  38  62  84 108 148 194 236 287 341
#
# _framework density 20.749931
#
# number of rings (size 3 to 8) (size 9 to 14) (size 15 to 20)
#    0.000    2.000    1.250    2.250    0.000    5.500 
#    0.000    1.250    2.750    8.250    0.000    0.000 
#    0.000    0.000    0.000    0.000    0.000    0.000 
#
# Total GULP energy -198319.199685 kJ/mol
# GULP energy per Si atom -12394.949980 kJ/mol
# Density = 2.070270 g / cm^3
# Si number density = 20.749931 Si / 1000 Ang^3
#
#
#
# Elastic Constant Matrix: (Units=GPa)
#
#
# Indices 1 2 3 4 5 6 
#
# 1 67.4498 24.7670 26.0704 3.1003 -17.0045 -4.3601
# 2 24.7670 98.2020 27.9881 1.8647 -16.9600 -9.0693
# 3 26.0704 27.9881 110.6968 -9.4931 -14.0695 -6.5848
# 4 3.1003 1.8647 -9.4931 40.2839 -3.9238 -0.7804
# 5 -17.0045 -16.9600 -14.0695 -3.9238 21.2780 1.5011
# 6 -4.3601 -9.0693 -6.5848 -0.7804 1.5011 21.2628
#
#
#
# Elastic Compliance Matrix: (Units=1/GPa)
#
#
# Indices 1 2 3 4 5 6 
#
# 1 0.019777 -0.001979 -0.002578 -0.000814 0.012265 0.001517
# 2 -0.001979 0.012762 -0.001604 -0.000033 0.007240 0.004029
# 3 -0.002578 -0.001604 0.011013 0.003337 0.004418 0.002009
# 4 -0.000814 -0.000033 0.003337 0.026313 0.006285 0.001375
# 5 0.012265 0.007240 0.004418 0.006285 0.066473 0.002509
# 6 0.001517 0.004029 0.002009 0.001375 0.002509 0.049555
#
#
# Mechanical properties :
#
#
# Convention : Reuss Voigt Hill
#
# Bulk Modulus (GPa) = 32.01933 48.22219 40.12076
# Shear Modulus (GPa) = 23.96636 29.73315 26.84976
#
# Velocity S-wave (km/s) = 3.40223 3.78951 3.60108
# Velocity P-wave (km/s) = 5.55861 6.51439 6.05539
#
# Compressibility (1/GPa) = 0.03123114
#
# Stress axis : x y z
#
# Youngs Moduli (GPa) = 50.56478 78.35511 90.79833
#
# Poissons Ratio (x) = 0.15508 0.23406
# Poissons Ratio (y) = 0.10008 0.14561
# Poissons Ratio (z) = 0.13035 0.12565
#
# Static dielectric constant tensor:
#      x y z
#    x 3.372090 0.009680 -0.016100 
#    y 0.009680 4.306780 0.209290 
#    z -0.016100 0.209290 4.050230 
# 
# 
# High freq. dielectric constant tensor:
#      x y z
#    x 1.783610 -0.004580 -0.005160 
#    y -0.004580 1.831250 0.004830 
#    z -0.005160 0.004830 1.824620 
# 
# From -- ./inp_files/521289.got.cif
#   From: 2010.06.25/outbox.cif.g09.slc.cpg/sg2_261_cif.got.tgz:521289.got - 2010.06.27 13:26:56.
