data_PCOD8043238
_publ_section_title
;
Structure prediction by ZEFSAII (Michael W. Deem and Ramdas Pophale) SiO2 
 PCOD8043238
Probable space group: P -1
;
_chemical_formula_sum "Si O2"
_cell_formula_units_Z 14
_cell_length_a 16.519976
_cell_length_b 8.266895
_cell_length_c 11.058530
_cell_angle_alpha 108.760692
_cell_angle_beta 38.869805
_cell_angle_gamma 133.002612
_cell_volume 616.771816
_symmetry_space_group_name_H-M "P -1"
_symmetry_group_IT_number 2
_symmetry_cell_setting 'triclinic'
loop_
_space_group_symop_operation_xyz
x,y,z
-x,-y,-z
loop_
_atom_site_type_symbol
_atom_site_label
_atom_site_fract_x
_atom_site_fract_y
_atom_site_fract_z
Si Si1 0.593265 0.512463 0.513213
Si Si2 0.304463 0.092468 0.914101
Si Si3 0.336862 0.985585 0.102525
Si Si4 0.666182 0.261740 0.232097
Si Si5 0.007720 0.995487 0.845329
Si Si6 0.054830 0.439644 0.216300
Si Si7 0.359920 0.959606 0.325262
O O1 0.500000 0.500000 0.500000
O O2 0.662180 0.383117 0.379311
O O3 0.775857 0.799826 0.401544
O O4 0.451928 0.373647 0.758142
O O5 0.368914 0.971370 0.753033
O O6 0.291569 0.079731 0.072649
O O7 0.099113 0.944965 0.070637
O O8 0.183334 0.682578 0.210023
O O9 0.330752 0.055162 0.263149
O O10 0.545672 0.120386 0.859400
O O11 0.505818 0.179090 0.304814
O O12 0.873770 0.464796 0.980891
O O13 0.918474 0.736908 0.831676
O O14 0.000000 0.000000 0.000000
O O15 0.835818 0.278442 0.441082
#
# Coordination Sequence:
#
# PCOD8043238 Si02
#       7
#     2   2   2   2   2   2   2
#     4  12  22  38  60  83 120 161 191 234 294 352
#     4  10  23  38  56  86 121 147 199 244 286 338
#     4   9  21  40  61  91 114 144 198 250 283 346
#     4  10  22  37  59  92 115 148 200 242 282 349
#     4  12  23  38  56  83 120 160 192 231 293 352
#     4  10  19  36  60  86 114 152 193 233 289 350
#     4   9  18  36  66  86 113 151 190 240 301 335
#
# _framework density 22.698830000000001
#
# number of rings (size 3 to 8) (size 9 to 14) (size 15 to 20)
#    0.000    2.000    2.857    1.714    0.000    6.286 
#    0.000    0.714    0.000   24.000    0.000    0.000 
#    0.000    0.000    0.000    0.000    0.000    0.000 
#
# Total GULP energy -173458.618594 kJ/mol
# GULP energy per Si atom -12389.901328 kJ/mol
# Density = 2.264717 g / cm^3
# Si number density = 22.698830 Si / 1000 Ang^3
#
#
#
# Elastic Constant Matrix: (Units=GPa)
#
#
# Indices 1 2 3 4 5 6 
#
# 1 133.6870 19.0073 43.2102 -16.5546 6.0335 -5.2043
# 2 19.0073 65.4959 19.0756 -17.7453 3.1357 -4.5154
# 3 43.2102 19.0756 147.9423 -33.5741 -7.9354 6.4977
# 4 -16.5546 -17.7453 -33.5741 31.3354 -3.3644 1.7136
# 5 6.0335 3.1357 -7.9354 -3.3644 32.1380 -2.4092
# 6 -5.2043 -4.5154 6.4977 1.7136 -2.4092 19.2721
#
#
#
# Elastic Compliance Matrix: (Units=1/GPa)
#
#
# Indices 1 2 3 4 5 6 
#
# 1 0.008735 -0.001313 -0.002360 0.001011 -0.001799 0.002532
# 2 -0.001313 0.018467 0.000027 0.009592 -0.000314 0.003071
# 3 -0.002360 0.000027 0.010185 0.010326 0.003697 -0.004521
# 4 0.001011 0.009592 0.010326 0.049871 0.006299 -0.004608
# 5 -0.001799 -0.000314 0.003697 0.006299 0.033190 0.001783
# 6 0.002532 0.003071 -0.004521 -0.004608 0.001783 0.055449
#
#
# Mechanical properties :
#
#
# Convention : Reuss Voigt Hill
#
# Bulk Modulus (GPa) = 33.22772 56.63461 44.93116
# Shear Modulus (GPa) = 25.87730 34.27124 30.07427
#
# Velocity S-wave (km/s) = 3.38009 3.88986 3.64390
# Velocity P-wave (km/s) = 5.46842 6.72156 6.12711
#
# Compressibility (1/GPa) = 0.03009535
#
# Stress axis : x y z
#
# Youngs Moduli (GPa) = 114.48727 54.15152 98.17885
#
# Poissons Ratio (x) = 0.07110 0.23172
# Poissons Ratio (y) = 0.15031 -0.00269
# Poissons Ratio (z) = 0.27022 -0.00149
#
# Static dielectric constant tensor:
#      x y z
#    x 4.022770 0.063650 0.022410 
#    y 0.063650 3.933770 -0.068970 
#    z 0.022410 -0.068970 4.259500 
# 
# 
# High freq. dielectric constant tensor:
#      x y z
#    x 1.876720 -0.002420 -0.005660 
#    y -0.002420 1.871070 -0.008770 
#    z -0.005660 -0.008770 1.909830 
# 
# From -- ./inp_files/462189.got.cif
#   From: 2010.06.25/outbox.cif.g09.slc.cpg/sg2_232_cif.got.tgz:462189.got - 2010.06.27 13:26:56.
