data_PCOD8043448
_publ_section_title
;
Structure prediction by ZEFSAII (Michael W. Deem and Ramdas Pophale) SiO2 
 PCOD8043448
Probable space group: P -1
;
_chemical_formula_sum "Si O2"
_cell_formula_units_Z 16
_cell_length_a 13.712026
_cell_length_b 8.966828
_cell_length_c 11.724675
_cell_angle_alpha 140.214655
_cell_angle_beta 56.178379
_cell_angle_gamma 102.219031
_cell_volume 700.224821
_symmetry_space_group_name_H-M "P -1"
_symmetry_group_IT_number 2
_symmetry_cell_setting 'triclinic'
loop_
_space_group_symop_operation_xyz
x,y,z
-x,-y,-z
loop_
_atom_site_type_symbol
_atom_site_label
_atom_site_fract_x
_atom_site_fract_y
_atom_site_fract_z
Si Si1 0.678300 0.066016 0.884080
Si Si2 0.079173 0.405695 0.508912
Si Si3 0.628963 0.036719 0.311311
Si Si4 0.828293 0.530160 0.180401
Si Si5 0.383697 0.374317 0.775830
Si Si6 0.531864 0.801128 0.707815
Si Si7 0.006086 0.728688 0.295257
Si Si8 0.230134 0.669749 0.685664
O O1 0.822244 0.894126 0.735505
O O2 0.640424 0.909998 0.721707
O O3 0.670584 0.326000 0.984320
O O4 0.577838 0.132031 0.088807
O O5 0.979612 0.439197 0.697829
O O6 0.165410 0.567592 0.568363
O O7 0.000000 0.500000 0.500000
O O8 0.539089 0.238859 0.584417
O O9 0.540136 0.068291 0.280664
O O10 0.760696 0.073313 0.217170
O O11 0.669262 0.751317 0.163755
O O12 0.676514 0.667617 0.331557
O O13 0.876841 0.739675 0.320570
O O14 0.849038 0.308702 0.132307
O O15 0.884983 0.406870 0.948557
O O16 0.617737 0.497065 0.481180
O O17 0.000000 0.000000 0.500000
#
# Coordination Sequence:
#
# PCOD8043448 Si02
#       8
#     2   2   2   2   2   2   2   2
#     4  10  21  37  63  91 125 168 210 264 325 387
#     4  10  23  41  66  96 128 168 225 276 323 382
#     4  11  22  35  60  94 131 164 202 260 322 396
#     4  10  21  39  64  91 127 173 219 265 326 391
#     4  11  22  37  58  93 132 164 206 257 327 391
#     4  10  19  36  62  93 125 166 209 259 323 393
#     4  10  22  41  65  92 123 172 225 271 322 383
#     4  10  19  39  66  94 127 175 213 262 331 398
#
# _framework density 22.849803999999999
#
# number of rings (size 3 to 8) (size 9 to 14) (size 15 to 20)
#    0.000    1.750    2.500    1.875    0.000    2.500 
#    0.000    0.000    0.000    9.750    0.000    0.000 
#    0.000    0.000    0.000    0.000    0.000    0.000 
#
# Total GULP energy -198211.320861 kJ/mol
# GULP energy per Si atom -12388.207554 kJ/mol
# Density = 2.279780 g / cm^3
# Si number density = 22.849804 Si / 1000 Ang^3
#
#
#
# Elastic Constant Matrix: (Units=GPa)
#
#
# Indices 1 2 3 4 5 6 
#
# 1 91.4587 58.9552 21.8651 1.9996 7.4060 -4.8349
# 2 58.9552 173.4555 43.0677 9.9579 6.4116 6.7305
# 3 21.8651 43.0677 65.8157 2.4613 3.3669 2.7037
# 4 1.9996 9.9579 2.4613 37.9544 0.8340 -1.1445
# 5 7.4060 6.4116 3.3669 0.8340 26.8994 -3.3025
# 6 -4.8349 6.7305 2.7037 -1.1445 -3.3025 38.3421
#
#
#
# Elastic Compliance Matrix: (Units=1/GPa)
#
#
# Indices 1 2 3 4 5 6 
#
# 1 0.014641 -0.004557 -0.001890 0.000678 -0.002411 0.002592
# 2 -0.004557 0.008464 -0.003857 -0.001777 -0.000456 -0.001881
# 3 -0.001890 -0.003857 0.018439 -0.000091 -0.000982 -0.000949
# 4 0.000678 -0.001777 -0.000091 0.026829 -0.000440 0.001167
# 5 -0.002411 -0.000456 -0.000982 -0.000440 0.038471 0.003146
# 6 0.002592 -0.001881 -0.000949 0.001167 0.003146 0.027111
#
#
# Mechanical properties :
#
#
# Convention : Reuss Voigt Hill
#
# Bulk Modulus (GPa) = 47.77063 64.27842 56.02452
# Shear Modulus (GPa) = 30.95189 34.42864 32.69027
#
# Velocity S-wave (km/s) = 3.68446 3.88588 3.78651
# Velocity P-wave (km/s) = 6.24916 6.95164 6.60974
#
# Compressibility (1/GPa) = 0.02093336
#
# Stress axis : x y z
#
# Youngs Moduli (GPa) = 68.30171 118.15144 54.23388
#
# Poissons Ratio (x) = 0.53845 0.10252
# Poissons Ratio (y) = 0.31127 0.20920
# Poissons Ratio (z) = 0.12911 0.45575
#
# Static dielectric constant tensor:
#      x y z
#    x 4.296050 0.312070 0.014310 
#    y 0.312070 4.299940 -0.224100 
#    z 0.014310 -0.224100 4.082590 
# 
# 
# High freq. dielectric constant tensor:
#      x y z
#    x 1.904370 0.020200 0.002520 
#    y 0.020200 1.911560 -0.018370 
#    z 0.002520 -0.018370 1.880200 
# 
# From -- ./inp_files/448319.got.cif
#   From: 2010.06.25/outbox.cif.g09.slc.cpg/sg2_225_cif.got.tgz:448319.got - 2010.06.27 13:26:56.
