data_PCOD8043957
_publ_section_title
;
Structure prediction by ZEFSAII (Michael W. Deem and Ramdas Pophale) SiO2 
 PCOD8043957
Probable space group: P -1
;
_chemical_formula_sum "Si O2"
_cell_formula_units_Z 16
_cell_length_a 15.068694
_cell_length_b 10.968192
_cell_length_c 11.153841
_cell_angle_alpha 59.985770
_cell_angle_beta 144.730363
_cell_angle_gamma 98.412337
_cell_volume 784.926669
_symmetry_space_group_name_H-M "P -1"
_symmetry_group_IT_number 2
_symmetry_cell_setting 'triclinic'
loop_
_space_group_symop_operation_xyz
x,y,z
-x,-y,-z
loop_
_atom_site_type_symbol
_atom_site_label
_atom_site_fract_x
_atom_site_fract_y
_atom_site_fract_z
Si Si1 0.327699 0.633796 0.667126
Si Si2 0.566143 0.735085 0.396371
Si Si3 0.172414 0.480540 0.003293
Si Si4 0.689553 0.896060 0.045215
Si Si5 0.036706 0.359982 0.700895
Si Si6 0.817758 0.799230 0.494905
Si Si7 0.438371 0.581046 0.160527
Si Si8 0.354469 0.863228 0.741382
O O1 0.389208 0.586309 0.620588
O O2 0.285769 0.815295 0.569378
O O3 0.150052 0.629601 0.493219
O O4 0.500000 0.500000 0.000000
O O5 0.703821 0.653839 0.696612
O O6 0.657628 0.768260 0.366872
O O7 0.495575 0.616075 0.335427
O O8 0.399323 0.909528 0.170365
O O9 0.276631 0.548547 0.009347
O O10 0.102541 0.390297 0.884711
O O11 0.008188 0.635794 0.814449
O O12 0.811410 0.813480 0.103045
O O13 0.810357 0.839994 0.326126
O O14 0.543374 0.843464 0.925541
O O15 0.000000 0.500000 0.500000
O O16 0.794302 0.950889 0.474496
O O17 0.374793 0.741444 0.930144
#
# Coordination Sequence:
#
# PCOD8043957 Si02
#       8
#     2   2   2   2   2   2   2   2
#     4  10  22  35  59  90 123 158 194 257 308 352
#     4  11  23  43  61  90 128 165 202 243 312 366
#     4  12  26  37  63  94 125 165 200 252 305 364
#     4  11  21  39  68  88 122 162 205 255 297 360
#     4  12  22  39  61  93 124 155 212 254 299 360
#     4  11  21  39  64  91 120 161 206 257 296 355
#     4  11  20  39  60  87 128 162 201 243 308 367
#     4  10  19  37  61  92 119 157 205 251 304 353
#
# _framework density 20.384070000000001
#
# number of rings (size 3 to 8) (size 9 to 14) (size 15 to 20)
#    0.000    1.000    3.750    6.000    0.000    2.000 
#    0.000    0.000    0.000    4.500    0.000    0.000 
#    0.000    0.000    0.000    0.000    0.000    0.000 
#
# Total GULP energy -198416.721586 kJ/mol
# GULP energy per Si atom -12401.045099 kJ/mol
# Density = 2.033768 g / cm^3
# Si number density = 20.384070 Si / 1000 Ang^3
#
#
#
# Elastic Constant Matrix: (Units=GPa)
#
#
# Indices 1 2 3 4 5 6 
#
# 1 60.2927 49.5153 37.7533 -3.0048 24.0641 -14.5269
# 2 49.5153 156.2223 58.4574 8.6284 15.7362 -27.4361
# 3 37.7533 58.4574 101.6507 -1.3112 7.5912 -18.9100
# 4 -3.0048 8.6284 -1.3112 37.2483 -1.2527 10.9854
# 5 24.0641 15.7362 7.5912 -1.2527 43.3819 -1.2482
# 6 -14.5269 -27.4361 -18.9100 10.9854 -1.2482 32.7355
#
#
#
# Elastic Compliance Matrix: (Units=1/GPa)
#
#
# Indices 1 2 3 4 5 6 
#
# 1 0.032497 -0.005525 -0.006914 0.001799 -0.014627 0.004635
# 2 -0.005525 0.010682 -0.002936 -0.004935 -0.000253 0.006451
# 3 -0.006914 -0.002936 0.014462 -0.000163 0.002451 0.002974
# 4 0.001799 -0.004935 -0.000163 0.032376 0.001346 -0.014245
# 5 -0.014627 -0.000253 0.002451 0.001346 0.030735 -0.004567
# 6 0.004635 0.006451 0.002974 -0.014245 -0.004567 0.044336
#
#
# Mechanical properties :
#
#
# Convention : Reuss Voigt Hill
#
# Bulk Modulus (GPa) = 37.18709 67.73530 52.46120
# Shear Modulus (GPa) = 24.41405 34.16913 29.29159
#
# Velocity S-wave (km/s) = 3.46454 4.09866 3.79487
# Velocity P-wave (km/s) = 5.85550 7.46327 6.70773
#
# Compressibility (1/GPa) = 0.02689106
#
# Stress axis : x y z
#
# Youngs Moduli (GPa) = 30.77228 93.61783 69.14706
#
# Poissons Ratio (x) = 0.51720 0.47812
# Poissons Ratio (y) = 0.17000 0.20299
# Poissons Ratio (z) = 0.21277 0.27482
#
# Static dielectric constant tensor:
#      x y z
#    x 3.599540 -0.356100 0.175050 
#    y -0.356100 4.305900 0.001910 
#    z 0.175050 0.001910 3.502700 
# 
# 
# High freq. dielectric constant tensor:
#      x y z
#    x 1.785420 -0.015090 0.020030 
#    y -0.015090 1.816280 0.002740 
#    z 0.020030 0.002740 1.780590 
# 
# From -- ./inp_files/235292.got.cif
#   From: 2010.06.25/outbox.cif.g09.slc.cpg/sg2_118_cif.got.tgz:235292.got - 2010.06.27 13:26:56.
