data_PCOD8043867
_publ_section_title
;
Structure prediction by ZEFSAII (Michael W. Deem and Ramdas Pophale) SiO2 
 PCOD8043867
Probable space group: P -1
;
_chemical_formula_sum "Si O2"
_cell_formula_units_Z 16
_cell_length_a 11.538215
_cell_length_b 14.238147
_cell_length_c 13.575747
_cell_angle_alpha 99.971725
_cell_angle_beta 148.459031
_cell_angle_gamma 59.798824
_cell_volume 831.761847
_symmetry_space_group_name_H-M "P -1"
_symmetry_group_IT_number 2
_symmetry_cell_setting 'triclinic'
loop_
_space_group_symop_operation_xyz
x,y,z
-x,-y,-z
loop_
_atom_site_type_symbol
_atom_site_label
_atom_site_fract_x
_atom_site_fract_y
_atom_site_fract_z
Si Si1 0.752624 0.398996 0.876661
Si Si2 0.801504 0.252629 0.072934
Si Si3 0.727894 0.716559 0.291891
Si Si4 0.139119 0.593229 0.744054
Si Si5 0.888139 0.558815 0.735278
Si Si6 0.181851 0.757104 0.275265
Si Si7 0.123502 0.966704 0.973217
Si Si8 0.898677 0.355409 0.633292
O O1 0.751464 0.320807 0.946189
O O2 0.899658 0.303110 0.871273
O O3 0.415180 0.535745 0.632824
O O4 0.945547 0.434881 0.054697
O O5 0.452196 0.329516 0.870430
O O6 0.997352 0.096815 0.174763
O O7 0.983326 0.266163 0.282625
O O8 0.495255 0.853243 0.211314
O O9 0.028184 0.607511 0.555628
O O10 0.828522 0.733795 0.264862
O O11 0.005790 0.552289 0.711087
O O12 0.500000 0.500000 0.000000
O O13 0.530534 0.686925 0.506364
O O14 0.948381 0.427370 0.760400
O O15 0.109559 0.740221 0.329174
O O16 0.982979 0.909799 0.140765
O O17 0.000000 0.000000 0.000000
#
# Coordination Sequence:
#
# PCOD8043867 Si02
#       8
#     2   2   2   2   2   2   2   2
#     4  10  19  37  60  88 114 142 189 240 289 331
#     4   9  20  35  59  86 112 141 186 236 284 329
#     4  10  21  37  56  83 118 151 183 229 288 329
#     4  11  20  34  60  91 117 141 184 239 294 340
#     4  10  21  36  59  88 114 147 188 239 290 327
#     4  11  22  39  56  83 115 155 196 226 272 337
#     4  10  20  41  62  77 115 149 190 238 276 335
#     4  11  23  35  57  84 118 153 186 232 281 341
#
# _framework density 19.236276
#
# number of rings (size 3 to 8) (size 9 to 14) (size 15 to 20)
#    0.750    1.000    1.250    6.000    0.000    4.000 
#    2.250    1.875    0.000    0.750    0.000    0.000 
#    0.000    0.000    0.000    0.000    0.000    0.000 
#
# Total GULP energy -198274.323669 kJ/mol
# GULP energy per Si atom -12392.145229 kJ/mol
# Density = 1.919249 g / cm^3
# Si number density = 19.236276 Si / 1000 Ang^3
#
#
#
# Elastic Constant Matrix: (Units=GPa)
#
#
# Indices 1 2 3 4 5 6 
#
# 1 75.7077 1.2764 29.1470 -8.6752 -1.9996 23.5678
# 2 1.2764 68.8464 30.0858 -1.8113 -8.0378 17.6629
# 3 29.1470 30.0858 70.0776 7.9529 4.9137 8.4568
# 4 -8.6752 -1.8113 7.9529 33.0257 -4.4496 -2.4746
# 5 -1.9996 -8.0378 4.9137 -4.4496 22.2422 -1.3597
# 6 23.5678 17.6629 8.4568 -2.4746 -1.3597 28.6842
#
#
#
# Elastic Compliance Matrix: (Units=1/GPa)
#
#
# Indices 1 2 3 4 5 6 
#
# 1 0.031455 0.017491 -0.019674 0.013741 0.014475 -0.028943
# 2 0.017491 0.032509 -0.020709 0.011903 0.018664 -0.026372
# 3 -0.019674 -0.020709 0.032289 -0.015267 -0.018388 0.017208
# 4 0.013741 0.011903 -0.015267 0.039662 0.016237 -0.009927
# 5 0.014475 0.018664 -0.018388 0.016237 0.059476 -0.013745
# 6 -0.028943 -0.026372 0.017208 -0.009927 -0.013745 0.068301
#
#
# Mechanical properties :
#
#
# Convention : Reuss Voigt Hill
#
# Bulk Modulus (GPa) = 19.81384 37.29446 28.55415
# Shear Modulus (GPa) = 15.32341 27.06523 21.19432
#
# Velocity S-wave (km/s) = 2.82545 3.75505 3.32292
# Velocity P-wave (km/s) = 4.57896 6.18306 5.44045
#
# Compressibility (1/GPa) = 0.05046976
#
# Stress axis : x y z
#
# Youngs Moduli (GPa) = 31.79133 30.76100 30.97046
#
# Poissons Ratio (x) = -0.53805 0.60931
# Poissons Ratio (y) = -0.55607 0.64136
# Poissons Ratio (z) = 0.62546 0.63702
#
# Static dielectric constant tensor:
#      x y z
#    x 3.502670 -0.096850 0.053960 
#    y -0.096850 3.778140 0.250550 
#    z 0.053960 0.250550 3.345680 
# 
# 
# High freq. dielectric constant tensor:
#      x y z
#    x 1.752640 -0.001350 0.007610 
#    y -0.001350 1.750380 0.014000 
#    z 0.007610 0.014000 1.726760 
# 
# From -- ./inp_files/521612.got.cif
#   From: 2010.06.25/outbox.cif.g09.slc.cpg/sg2_261_cif.got.tgz:521612.got - 2010.06.27 13:26:56.
