data_PCOD8043476
_publ_section_title
;
Structure prediction by ZEFSAII (Michael W. Deem and Ramdas Pophale) SiO2 
 PCOD8043476
Probable space group: P -1
;
_chemical_formula_sum "Si O2"
_cell_formula_units_Z 16
_cell_length_a 16.920181
_cell_length_b 5.153330
_cell_length_c 16.154368
_cell_angle_alpha 109.795192
_cell_angle_beta 35.709775
_cell_angle_gamma 108.098298
_cell_volume 771.947332
_symmetry_space_group_name_H-M "P -1"
_symmetry_group_IT_number 2
_symmetry_cell_setting 'triclinic'
loop_
_space_group_symop_operation_xyz
x,y,z
-x,-y,-z
loop_
_atom_site_type_symbol
_atom_site_label
_atom_site_fract_x
_atom_site_fract_y
_atom_site_fract_z
Si Si1 0.399943 0.033199 0.709602
Si Si2 0.659311 0.829700 0.399229
Si Si3 0.288411 0.830726 0.935010
Si Si4 0.546783 0.538239 0.722743
Si Si5 0.936008 0.364519 0.782368
Si Si6 0.233690 0.549256 0.600648
Si Si7 0.578214 0.718439 0.899461
Si Si8 0.826034 0.789402 0.807287
O O1 0.337040 0.209517 0.707870
O O2 0.482134 0.232231 0.726090
O O3 0.501437 0.818162 0.560899
O O4 0.279518 0.868467 0.846601
O O5 0.733818 0.582838 0.352108
O O6 0.734653 0.123643 0.389454
O O7 0.440754 0.760023 0.815517
O O8 0.175506 0.606729 0.045249
O O9 0.270878 0.125304 0.025726
O O10 0.680036 0.595899 0.558702
O O11 0.588597 0.582111 0.786381
O O12 0.893526 0.513641 0.749718
O O13 0.076179 0.497482 0.710324
O O14 0.941965 0.038914 0.719809
O O15 0.734582 0.755165 0.799585
O O16 0.500000 0.500000 0.000000
O O17 0.500000 0.000000 0.000000
#
# Coordination Sequence:
#
# PCOD8043476 Si02
#       8
#     2   2   2   2   2   2   2   2
#     4  10  21  37  60  95 121 160 196 257 315 355
#     4  10  23  38  63  87 128 154 205 254 306 359
#     4  10  19  36  63  86 119 159 201 242 305 358
#     4  11  23  37  66  92 124 155 206 256 298 364
#     4  10  22  40  63  81 126 169 198 242 306 367
#     4  11  23  43  61  92 118 166 206 249 301 359
#     4  12  22  37  60  98 127 151 201 255 304 348
#     4  10  21  39  60  86 121 167 196 240 309 359
#
# _framework density 20.726800999999998
#
# number of rings (size 3 to 8) (size 9 to 14) (size 15 to 20)
#    0.750    0.750    2.500    3.750    1.750    1.500 
#    0.000    2.500    0.000    0.000    0.000    0.000 
#    0.000    0.000    0.000    0.000    0.000    0.000 
#
# Total GULP energy -198305.733867 kJ/mol
# GULP energy per Si atom -12394.108367 kJ/mol
# Density = 2.067963 g / cm^3
# Si number density = 20.726801 Si / 1000 Ang^3
#
#
#
# Elastic Constant Matrix: (Units=GPa)
#
#
# Indices 1 2 3 4 5 6 
#
# 1 107.1315 10.6325 48.6263 -11.4949 2.2288 -11.0362
# 2 10.6325 73.7350 15.5724 -13.9549 0.3265 -15.0444
# 3 48.6263 15.5724 76.5123 -14.5311 4.7291 2.2207
# 4 -11.4949 -13.9549 -14.5311 23.6691 1.2276 -1.2219
# 5 2.2288 0.3265 4.7291 1.2276 27.6644 -2.2976
# 6 -11.0362 -15.0444 2.2207 -1.2219 -2.2976 36.7986
#
#
#
# Elastic Compliance Matrix: (Units=1/GPa)
#
#
# Indices 1 2 3 4 5 6 
#
# 1 0.014078 0.001439 -0.008986 0.002414 0.000733 0.005479
# 2 0.001439 0.017428 -0.002901 0.009588 0.000420 0.008076
# 3 -0.008986 -0.002901 0.021023 0.006751 -0.003563 -0.005148
# 4 0.002414 0.009588 0.006751 0.053693 -0.003362 0.005809
# 5 0.000733 0.000420 -0.003563 -0.003362 0.037075 0.002810
# 6 0.005479 0.008076 -0.005148 0.005809 0.002810 0.032799
#
#
# Mechanical properties :
#
#
# Convention : Reuss Voigt Hill
#
# Bulk Modulus (GPa) = 31.61234 45.22681 38.41958
# Shear Modulus (GPa) = 24.09208 29.79626 26.94417
#
# Velocity S-wave (km/s) = 3.41304 3.79565 3.60942
# Velocity P-wave (km/s) = 5.55129 6.40914 5.99558
#
# Compressibility (1/GPa) = 0.03163321
#
# Stress axis : x y z
#
# Youngs Moduli (GPa) = 71.03105 57.37937 47.56689
#
# Poissons Ratio (x) = -0.08258 0.42744
# Poissons Ratio (y) = -0.10222 0.13799
# Poissons Ratio (z) = 0.63829 0.16646
#
# Static dielectric constant tensor:
#      x y z
#    x 3.933040 -0.079150 0.285850 
#    y -0.079150 3.664230 -0.110710 
#    z 0.285850 -0.110710 3.679010 
# 
# 
# High freq. dielectric constant tensor:
#      x y z
#    x 1.807070 -0.010530 0.011610 
#    y -0.010530 1.818400 -0.011470 
#    z 0.011610 -0.011470 1.785980 
# 
# From -- ./inp_files/525854.got.cif
#   From: 2010.06.25/outbox.cif.g09.slc.cpg/sg2_263_cif.got.tgz:525854.got - 2010.06.27 13:26:56.
