data_PCOD8043159
_publ_section_title
;
Structure prediction by ZEFSAII (Michael W. Deem and Ramdas Pophale) SiO2 
 PCOD8043159
Probable space group: P -1
;
_chemical_formula_sum "Si O2"
_cell_formula_units_Z 16
_cell_length_a 14.098459
_cell_length_b 7.649910
_cell_length_c 14.870214
_cell_angle_alpha 84.170736
_cell_angle_beta 132.504181
_cell_angle_gamma 60.400717
_cell_volume 754.687075
_symmetry_space_group_name_H-M "P -1"
_symmetry_group_IT_number 2
_symmetry_cell_setting 'triclinic'
loop_
_space_group_symop_operation_xyz
x,y,z
-x,-y,-z
loop_
_atom_site_type_symbol
_atom_site_label
_atom_site_fract_x
_atom_site_fract_y
_atom_site_fract_z
Si Si1 0.283592 0.722983 0.111561
Si Si2 0.944843 0.837121 0.919749
Si Si3 0.182594 0.632052 0.535532
Si Si4 0.768334 0.686423 0.755186
Si Si5 0.329145 0.871279 0.614904
Si Si6 0.351161 0.195877 0.525622
Si Si7 0.283991 0.913370 0.782835
Si Si8 0.468414 0.366028 0.882570
O O1 0.449699 0.407050 0.265433
O O2 0.363138 0.739244 0.073428
O O3 0.250012 0.882457 0.168446
O O4 0.070855 0.852531 0.945518
O O5 0.883517 0.751654 0.814954
O O6 0.085553 0.615285 0.100193
O O7 0.194759 0.833426 0.526953
O O8 0.296583 0.421900 0.537468
O O9 0.298658 0.441543 0.710769
O O10 0.954090 0.809613 0.375746
O O11 0.700524 0.695478 0.613899
O O12 0.587567 0.908086 0.697856
O O13 0.349669 0.921101 0.728190
O O14 0.240291 0.129451 0.488679
O O15 0.340473 0.649190 0.836698
O O16 0.408757 0.871673 0.949037
#
# Coordination Sequence:
#
# PCOD8043159 Si02
#       8
#     2   2   2   2   2   2   2   2
#     4   9  18  33  59  87 110 149 193 235 286 348
#     4  10  19  36  59  82 114 150 193 238 284 345
#     4  10  21  38  62  85 116 158 191 239 291 344
#     4  10  22  38  54  81 119 151 187 241 291 335
#     4  10  20  40  59  83 120 152 187 241 292 339
#     4  11  23  40  56  84 118 154 189 239 290 346
#     4   9  19  36  60  88 115 153 194 239 290 346
#     4   9  18  35  60  86 119 149 190 243 292 338
#
# _framework density 21.200838999999998
#
# number of rings (size 3 to 8) (size 9 to 14) (size 15 to 20)
#    0.000    2.500    1.250    3.000    1.750    1.500 
#    2.250    3.750    0.000    0.000    0.000    0.000 
#    0.000    0.000    0.000    0.000    0.000    0.000 
#
# Total GULP energy -198214.040056 kJ/mol
# GULP energy per Si atom -12388.377504 kJ/mol
# Density = 2.115259 g / cm^3
# Si number density = 21.200839 Si / 1000 Ang^3
#
#
#
# Elastic Constant Matrix: (Units=GPa)
#
#
# Indices 1 2 3 4 5 6 
#
# 1 36.0512 11.5892 16.6493 -6.7770 -5.1076 -4.5228
# 2 11.5892 70.5382 31.1242 0.9947 -3.5518 -18.6073
# 3 16.6493 31.1242 107.5056 1.8069 3.4154 -17.7869
# 4 -6.7770 0.9947 1.8069 24.1263 -7.1344 6.3726
# 5 -5.1076 -3.5518 3.4154 -7.1344 19.5395 -0.4775
# 6 -4.5228 -18.6073 -17.7869 6.3726 -0.4775 28.4305
#
#
#
# Elastic Compliance Matrix: (Units=1/GPa)
#
#
# Indices 1 2 3 4 5 6 
#
# 1 0.036627 -0.003834 -0.005990 0.016624 0.015899 -0.003890
# 2 -0.003834 0.019231 -0.003160 -0.003966 0.001864 0.010920
# 3 -0.005990 -0.003160 0.012435 -0.005938 -0.006336 0.005983
# 4 0.016624 -0.003966 -0.005938 0.058645 0.025675 -0.016380
# 5 0.015899 0.001864 -0.006336 0.025675 0.066036 -0.004860
# 6 -0.003890 0.010920 0.005983 -0.016380 -0.004860 0.049035
#
#
# Mechanical properties :
#
#
# Convention : Reuss Voigt Hill
#
# Bulk Modulus (GPa) = 23.62682 36.98001 30.30342
# Shear Modulus (GPa) = 17.72497 24.73476 21.22987
#
# Velocity S-wave (km/s) = 2.89459 3.41939 3.16787
# Velocity P-wave (km/s) = 4.72652 5.75067 5.26356
#
# Compressibility (1/GPa) = 0.04232479
#
# Stress axis : x y z
#
# Youngs Moduli (GPa) = 27.30225 51.99847 80.41575
#
# Poissons Ratio (x) = 0.19939 0.48172
# Poissons Ratio (y) = 0.10469 0.25409
# Poissons Ratio (z) = 0.16355 0.16430
#
# Static dielectric constant tensor:
#      x y z
#    x 3.562740 -0.135700 0.037070 
#    y -0.135700 3.762740 -0.041990 
#    z 0.037070 -0.041990 3.889070 
# 
# 
# High freq. dielectric constant tensor:
#      x y z
#    x 1.806370 -0.014930 0.007460 
#    y -0.014930 1.830360 -0.007260 
#    z 0.007460 -0.007260 1.824050 
# 
# From -- ./inp_files/407101.got.cif
#   From: 2010.06.25/outbox.cif.g09.slc.cpg/sg2_204_cif.got.tgz:407101.got - 2010.06.27 13:26:56.
