data_PCOD8043202
_publ_section_title
;
Structure prediction by ZEFSAII (Michael W. Deem and Ramdas Pophale) SiO2 
 PCOD8043202
Probable space group: P -1
;
_chemical_formula_sum "Si O2"
_cell_formula_units_Z 16
_cell_length_a 11.772266
_cell_length_b 15.104666
_cell_length_c 14.801760
_cell_angle_alpha 29.215403
_cell_angle_beta 49.261655
_cell_angle_gamma 70.504618
_cell_volume 749.743680
_symmetry_space_group_name_H-M "P -1"
_symmetry_group_IT_number 2
_symmetry_cell_setting 'triclinic'
loop_
_space_group_symop_operation_xyz
x,y,z
-x,-y,-z
loop_
_atom_site_type_symbol
_atom_site_label
_atom_site_fract_x
_atom_site_fract_y
_atom_site_fract_z
Si Si1 0.739004 0.921209 0.270598
Si Si2 0.494609 0.268636 0.122849
Si Si3 0.797332 0.682525 0.716667
Si Si4 0.831997 0.085304 0.270660
Si Si5 0.095562 0.627122 0.659197
Si Si6 0.515350 0.035806 0.743540
Si Si7 0.909444 0.692489 0.373523
Si Si8 0.188853 0.702628 0.338540
O O1 0.535184 0.836237 0.411745
O O2 0.745510 0.710385 0.477300
O O3 0.787292 0.075652 0.196591
O O4 0.898704 0.068046 0.979528
O O5 0.372717 0.364240 0.088564
O O6 0.366379 0.036455 0.460947
O O7 0.533646 0.194953 0.074277
O O8 0.699902 0.471708 0.882254
O O9 0.947361 0.681067 0.699026
O O10 0.908480 0.937760 0.382360
O O11 0.992322 0.356190 0.973939
O O12 0.258487 0.777627 0.516709
O O13 0.197226 0.712142 0.433204
O O14 0.381845 0.948794 0.979823
O O15 0.808090 0.499693 0.519059
O O16 0.984963 0.634710 0.471542
#
# Coordination Sequence:
#
# PCOD8043202 Si02
#       8
#     2   2   2   2   2   2   2   2
#     4  10  19  36  59  92 117 153 204 262 297 350
#     4   9  22  44  62  97 115 159 212 261 307 349
#     4   9  22  42  67  92 118 158 210 262 304 360
#     4  10  21  40  66  90 118 155 213 256 300 358
#     4  12  23  41  63  90 130 170 195 249 317 370
#     4  11  25  39  58  90 134 165 201 241 312 383
#     4   9  19  34  63  90 113 152 213 258 297 349
#     4  10  21  38  61  90 121 163 204 252 308 359
#
# _framework density 21.340629
#
# number of rings (size 3 to 8) (size 9 to 14) (size 15 to 20)
#    0.750    1.250    1.250    1.875    5.250    3.000 
#    2.250    0.625    0.000    0.000    0.000    0.000 
#    0.000    0.000    0.000    0.000    0.000    0.000 
#
# Total GULP energy -198322.727898 kJ/mol
# GULP energy per Si atom -12395.170494 kJ/mol
# Density = 2.129206 g / cm^3
# Si number density = 21.340629 Si / 1000 Ang^3
#
#
#
# Elastic Constant Matrix: (Units=GPa)
#
#
# Indices 1 2 3 4 5 6 
#
# 1 119.0748 37.9446 21.5746 -16.8121 -20.5087 -19.7085
# 2 37.9446 80.6375 15.2651 0.3706 -0.6879 -12.4469
# 3 21.5746 15.2651 42.7974 -6.5246 0.4406 -15.3352
# 4 -16.8121 0.3706 -6.5246 32.0142 -2.0740 1.5963
# 5 -20.5087 -0.6879 0.4406 -2.0740 24.7478 2.3275
# 6 -19.7085 -12.4469 -15.3352 1.5963 2.3275 23.1453
#
#
#
# Elastic Compliance Matrix: (Units=1/GPa)
#
#
# Indices 1 2 3 4 5 6 
#
# 1 0.014830 -0.005509 -0.002106 0.007890 0.012224 0.006496
# 2 -0.005509 0.015888 -0.002366 -0.004015 -0.004703 0.003036
# 3 -0.002106 -0.002366 0.032666 0.004404 -0.003778 0.018654
# 4 0.007890 -0.004015 0.004404 0.036709 0.009046 0.004036
# 5 0.012224 -0.004703 -0.003778 0.009046 0.051270 -0.000403
# 6 0.006496 0.003036 0.018654 0.004036 -0.000403 0.062491
#
#
# Mechanical properties :
#
#
# Convention : Reuss Voigt Hill
#
# Bulk Modulus (GPa) = 23.02979 43.56426 33.29702
# Shear Modulus (GPa) = 20.13780 27.16315 23.65047
#
# Velocity S-wave (km/s) = 3.07520 3.57155 3.33263
# Velocity P-wave (km/s) = 4.83984 6.12095 5.51771
#
# Compressibility (1/GPa) = 0.04342202
#
# Stress axis : x y z
#
# Youngs Moduli (GPa) = 67.43170 62.93983 30.61310
#
# Poissons Ratio (x) = 0.34672 0.06448
# Poissons Ratio (y) = 0.37147 0.07243
# Poissons Ratio (z) = 0.14202 0.14891
#
# Static dielectric constant tensor:
#      x y z
#    x 3.732650 -0.263710 0.174420 
#    y -0.263710 3.780440 0.022960 
#    z 0.174420 0.022960 3.679870 
# 
# 
# High freq. dielectric constant tensor:
#      x y z
#    x 1.813200 -0.014570 0.010580 
#    y -0.014570 1.837810 0.007670 
#    z 0.010580 0.007670 1.830800 
# 
# From -- ./inp_files/521304.got.cif
#   From: 2010.06.25/outbox.cif.g09.slc.cpg/sg2_261_cif.got.tgz:521304.got - 2010.06.27 13:26:56.
