data_PCOD8043235
_publ_section_title
;
Structure prediction by ZEFSAII (Michael W. Deem and Ramdas Pophale) SiO2 
 PCOD8043235
Probable space group: P -1
;
_chemical_formula_sum "Si O2"
_cell_formula_units_Z 14
_cell_length_a 7.324269
_cell_length_b 21.148612
_cell_length_c 10.757357
_cell_angle_alpha 144.723146
_cell_angle_beta 44.269221
_cell_angle_gamma 137.190244
_cell_volume 624.145681
_symmetry_space_group_name_H-M "P -1"
_symmetry_group_IT_number 2
_symmetry_cell_setting 'triclinic'
loop_
_space_group_symop_operation_xyz
x,y,z
-x,-y,-z
loop_
_atom_site_type_symbol
_atom_site_label
_atom_site_fract_x
_atom_site_fract_y
_atom_site_fract_z
Si Si1 0.791438 0.844261 0.920938
Si Si2 0.968435 0.769247 0.456645
Si Si3 0.837084 0.970463 0.774351
Si Si4 0.535379 0.463102 0.686625
Si Si5 0.932627 0.399973 0.216254
Si Si6 0.330181 0.860618 0.007980
Si Si7 0.354959 0.660202 0.991685
O O1 0.923480 0.798755 0.668336
O O2 0.659506 0.737206 0.910225
O O3 0.534319 0.883790 0.065445
O O4 0.031169 0.950650 0.041515
O O5 0.695862 0.662532 0.368463
O O6 0.004177 0.882044 0.530221
O O7 0.249286 0.739580 0.263828
O O8 0.840003 0.049607 0.777801
O O9 0.518072 0.886048 0.831105
O O10 0.712484 0.453481 0.464297
O O11 0.373180 0.550237 0.879016
O O12 0.748274 0.511847 0.776252
O O13 0.885003 0.386794 0.071877
O O14 0.886516 0.274155 0.102054
#
# Coordination Sequence:
#
# PCOD8043235 Si02
#       7
#     2   2   2   2   2   2   2
#     4  10  21  40  59  86 117 152 198 236 289 347
#     4  11  22  39  60  90 120 151 198 240 282 359
#     4  10  19  36  60  85 118 153 190 241 293 336
#     4  11  21  40  60  88 119 154 198 238 288 350
#     4  10  21  38  63  85 116 156 197 241 287 347
#     4   9  17  35  58  85 111 149 194 239 282 343
#     4  11  23  40  61  86 122 155 190 243 295 336
#
# _framework density 22.43066
#
# number of rings (size 3 to 8) (size 9 to 14) (size 15 to 20)
#    0.000    1.714    4.286    3.429    0.000    1.143 
#    0.000   10.000    0.000    0.000    0.000    0.000 
#    0.000    0.000    0.000    0.000    0.000    0.000 
#
# Total GULP energy -173553.376641 kJ/mol
# GULP energy per Si atom -12396.669760 kJ/mol
# Density = 2.237961 g / cm^3
# Si number density = 22.430660 Si / 1000 Ang^3
#
#
#
# Elastic Constant Matrix: (Units=GPa)
#
#
# Indices 1 2 3 4 5 6 
#
# 1 70.2399 14.8577 48.4728 8.2514 -16.1029 -9.4269
# 2 14.8577 44.8330 33.0080 15.1341 -1.7090 6.3852
# 3 48.4728 33.0080 118.0448 15.1978 -24.1671 -6.1185
# 4 8.2514 15.1341 15.1978 30.0733 -6.9010 -4.1464
# 5 -16.1029 -1.7090 -24.1671 -6.9010 28.8689 14.3454
# 6 -9.4269 6.3852 -6.1185 -4.1464 14.3454 22.4075
#
#
#
# Elastic Compliance Matrix: (Units=1/GPa)
#
#
# Indices 1 2 3 4 5 6 
#
# 1 0.021087 -0.002745 -0.007084 0.000656 0.002831 0.006029
# 2 -0.002745 0.037053 -0.008484 -0.016345 -0.002746 -0.015296
# 3 -0.007084 -0.008484 0.015633 0.000244 0.010013 -0.002659
# 4 0.000656 -0.016345 0.000244 0.043713 0.005203 0.009758
# 5 0.002831 -0.002746 0.010013 0.005203 0.062863 -0.034574
# 6 0.006029 -0.015296 -0.002659 0.009758 -0.034574 0.074737
#
#
# Mechanical properties :
#
#
# Convention : Reuss Voigt Hill
#
# Bulk Modulus (GPa) = 26.92042 47.31051 37.11547
# Shear Modulus (GPa) = 16.44221 25.38856 20.91538
#
# Velocity S-wave (km/s) = 2.71038 3.36798 3.05691
# Velocity P-wave (km/s) = 4.67146 6.02180 5.38909
#
# Compressibility (1/GPa) = 0.03714652
#
# Stress axis : x y z
#
# Youngs Moduli (GPa) = 47.42211 26.98872 63.96556
#
# Poissons Ratio (x) = 0.07409 0.45313
# Poissons Ratio (y) = 0.13018 0.54270
# Poissons Ratio (z) = 0.33594 0.22898
#
# Static dielectric constant tensor:
#      x y z
#    x 3.980450 0.007990 -0.264150 
#    y 0.007990 4.069850 0.374320 
#    z -0.264150 0.374320 4.042140 
# 
# 
# High freq. dielectric constant tensor:
#      x y z
#    x 1.871960 0.003910 -0.014680 
#    y 0.003910 1.884070 0.023930 
#    z -0.014680 0.023930 1.866350 
# 
# From -- ./inp_files/406368.got.cif
#   From: 2010.06.25/outbox.cif.g09.slc.cpg/sg2_204_cif.got.tgz:406368.got - 2010.06.27 13:26:56.
