data_PCOD8043228
_publ_section_title
;
Structure prediction by ZEFSAII (Michael W. Deem and Ramdas Pophale) SiO2 
 PCOD8043228
Probable space group: P -1
;
_chemical_formula_sum "Si O2"
_cell_formula_units_Z 16
_cell_length_a 14.444174
_cell_length_b 12.155218
_cell_length_c 21.159086
_cell_angle_alpha 150.400898
_cell_angle_beta 151.129852
_cell_angle_gamma 48.609589
_cell_volume 803.863798
_symmetry_space_group_name_H-M "P -1"
_symmetry_group_IT_number 2
_symmetry_cell_setting 'triclinic'
loop_
_space_group_symop_operation_xyz
x,y,z
-x,-y,-z
loop_
_atom_site_type_symbol
_atom_site_label
_atom_site_fract_x
_atom_site_fract_y
_atom_site_fract_z
Si Si1 0.502661 0.089683 0.670404
Si Si2 0.617738 0.454130 0.456606
Si Si3 0.872084 0.755138 0.262595
Si Si4 0.655593 0.889973 0.777663
Si Si5 0.115360 0.516510 0.977488
Si Si6 0.927583 0.415753 0.228018
Si Si7 0.709404 0.432182 0.759629
Si Si8 0.575492 0.496290 0.114312
O O1 0.726010 0.247486 0.848702
O O2 0.377539 0.256027 0.694400
O O3 0.525667 0.971754 0.691139
O O4 0.362591 0.862421 0.428321
O O5 0.708582 0.675317 0.672711
O O6 0.486845 0.204357 0.291552
O O7 0.476435 0.498466 0.340457
O O8 0.821389 0.442863 0.538589
O O9 0.866073 0.520719 0.180699
O O10 0.965929 0.731692 0.238588
O O11 0.632299 0.724909 0.090589
O O12 0.000000 0.000000 0.500000
O O13 0.868392 0.126150 0.040955
O O14 0.230053 0.469630 0.084159
O O15 0.911157 0.560013 0.897781
O O16 0.789104 0.452589 0.221490
O O17 0.500000 0.500000 0.000000
#
# Coordination Sequence:
#
# PCOD8043228 Si02
#       8
#     2   2   2   2   2   2   2   2
#     4  10  19  36  60  84 116 144 192 244 291 334
#     4  10  24  33  53  83 116 159 189 229 287 352
#     4  10  22  33  62  91 115 146 191 247 298 329
#     4  10  20  35  52  82 122 148 190 240 287 342
#     4  10  21  39  59  87 113 150 193 239 288 339
#     4  11  21  34  55  84 119 148 185 236 302 332
#     4  10  23  38  59  83 119 154 193 230 282 353
#     4   9  18  33  51  87 116 140 183 239 289 340
#
# _framework density 19.903869
#
# number of rings (size 3 to 8) (size 9 to 14) (size 15 to 20)
#    0.000    2.000    3.750    0.750   10.500    2.000 
#    0.000    0.000    0.000    3.750    0.000    0.000 
#    0.000    0.000    0.000    0.000    0.000    0.000 
#
# Total GULP energy -198276.763528 kJ/mol
# GULP energy per Si atom -12392.297720 kJ/mol
# Density = 1.985857 g / cm^3
# Si number density = 19.903869 Si / 1000 Ang^3
#
#
#
# Elastic Constant Matrix: (Units=GPa)
#
#
# Indices 1 2 3 4 5 6 
#
# 1 97.9371 48.0352 51.2457 -8.5287 3.1924 -10.0256
# 2 48.0352 62.3143 37.8562 -8.7121 11.3547 -7.8005
# 3 51.2457 37.8562 96.1446 5.4488 2.4336 0.5950
# 4 -8.5287 -8.7121 5.4488 35.0899 -5.8524 10.2610
# 5 3.1924 11.3547 2.4336 -5.8524 36.3081 -6.1048
# 6 -10.0256 -7.8005 0.5950 10.2610 -6.1048 24.2136
#
#
#
# Elastic Compliance Matrix: (Units=1/GPa)
#
#
# Indices 1 2 3 4 5 6 
#
# 1 0.019361 -0.010804 -0.006300 0.002203 0.003222 0.004569
# 2 -0.010804 0.030265 -0.006223 0.004114 -0.007117 0.001892
# 3 -0.006300 -0.006223 0.016493 -0.004746 0.000129 -0.002975
# 4 0.002203 0.004114 -0.004746 0.034622 0.002451 -0.011700
# 5 0.003222 -0.007117 0.000129 0.002451 0.030842 0.005775
# 6 0.004569 0.001892 -0.002975 -0.011700 0.005775 0.050288
#
#
# Mechanical properties :
#
#
# Convention : Reuss Voigt Hill
#
# Bulk Modulus (GPa) = 51.37343 58.96333 55.16838
# Shear Modulus (GPa) = 21.27536 27.07290 24.17413
#
# Velocity S-wave (km/s) = 3.27296 3.69207 3.48881
# Velocity P-wave (km/s) = 6.33639 6.91835 6.63375
#
# Compressibility (1/GPa) = 0.01946531
#
# Stress axis : x y z
#
# Youngs Moduli (GPa) = 51.65060 33.04115 60.63096
#
# Poissons Ratio (x) = 0.35698 0.38198
# Poissons Ratio (y) = 0.55805 0.37729
# Poissons Ratio (z) = 0.32540 0.20561
#
# Static dielectric constant tensor:
#      x y z
#    x 3.950250 -0.243920 0.210240 
#    y -0.243920 3.325220 0.167130 
#    z 0.210240 0.167130 3.818570 
# 
# 
# High freq. dielectric constant tensor:
#      x y z
#    x 1.775770 -0.014660 0.020740 
#    y -0.014660 1.734590 0.011770 
#    z 0.020740 0.011770 1.775940 
# 
# From -- ./inp_files/523843.got.cif
#   From: 2010.06.25/outbox.cif.g09.slc.cpg/sg2_262_cif.got.tgz:523843.got - 2010.06.27 13:26:56.
