data_PCOD8043045
_publ_section_title
;
Structure prediction by ZEFSAII (Michael W. Deem and Ramdas Pophale) SiO2 
 PCOD8043045
Probable space group: P -1
;
_chemical_formula_sum "Si O2"
_cell_formula_units_Z 12
_cell_length_a 14.360259
_cell_length_b 9.031636
_cell_length_c 8.956346
_cell_angle_alpha 66.440170
_cell_angle_beta 124.238573
_cell_angle_gamma 140.700910
_cell_volume 606.811326
_symmetry_space_group_name_H-M "P -1"
_symmetry_group_IT_number 2
_symmetry_cell_setting 'triclinic'
loop_
_space_group_symop_operation_xyz
x,y,z
-x,-y,-z
loop_
_atom_site_type_symbol
_atom_site_label
_atom_site_fract_x
_atom_site_fract_y
_atom_site_fract_z
Si Si1 0.026186 0.444418 0.702027
Si Si2 0.342049 0.928549 0.943248
Si Si3 0.358858 0.313365 0.833101
Si Si4 0.829485 0.342578 0.824835
Si Si5 0.199369 0.344943 0.448155
Si Si6 0.957429 0.860793 0.315428
O O1 0.185270 0.687929 0.820952
O O2 0.050534 0.278497 0.766944
O O3 0.000000 0.500000 0.500000
O O4 0.861142 0.292576 0.713232
O O5 0.368145 0.143289 0.843288
O O6 0.315870 0.888064 0.116032
O O7 0.500000 0.000000 0.000000
O O8 0.359723 0.438926 0.640625
O O9 0.189118 0.162169 0.831412
O O10 0.500000 0.500000 0.000000
O O11 0.768364 0.462745 0.696519
O O12 0.000000 0.500000 0.000000
O O13 0.063086 0.243258 0.495513
O O14 0.128492 0.134675 0.356675
#
# Coordination Sequence:
#
# PCOD8043045 Si02
#       6
#     2   2   2   2   2   2
#     4  11  18  35  62  90 111 150 196 240 290 345
#     4  11  24  40  57  85 121 158 193 246 295 343
#     4  10  19  36  57  80 114 159 191 232 293 351
#     4  10  21  37  60  89 121 150 198 246 287 346
#     4   9  18  36  58  85 117 151 192 240 289 340
#     4   9  17  31  61  84 114 145 193 233 295 334
#
# _framework density 19.775504999999999
#
# number of rings (size 3 to 8) (size 9 to 14) (size 15 to 20)
#    1.000    1.000    1.667    4.000    0.000    0.000 
#    0.000   13.333    0.000    0.000    0.000    0.000 
#    0.000    0.000    0.000    0.000    0.000    0.000 
#
# Total GULP energy -148669.439209 kJ/mol
# GULP energy per Si atom -12389.119934 kJ/mol
# Density = 1.973050 g / cm^3
# Si number density = 19.775505 Si / 1000 Ang^3
#
#
#
# Elastic Constant Matrix: (Units=GPa)
#
#
# Indices 1 2 3 4 5 6 
#
# 1 131.6163 39.4218 44.5474 -3.9032 -1.4863 -11.9098
# 2 39.4218 60.2530 38.4472 11.2659 5.0729 -18.5181
# 3 44.5474 38.4472 109.1037 -0.1323 16.1684 -4.1667
# 4 -3.9032 11.2659 -0.1323 40.5809 -2.5671 -4.1936
# 5 -1.4863 5.0729 16.1684 -2.5671 36.1694 -4.8367
# 6 -11.9098 -18.5181 -4.1667 -4.1936 -4.8367 41.5459
#
#
#
# Elastic Compliance Matrix: (Units=1/GPa)
#
#
# Indices 1 2 3 4 5 6 
#
# 1 0.010347 -0.005605 -0.002614 0.002795 0.002685 0.000801
# 2 -0.005605 0.029837 -0.007832 -0.007811 -0.000117 0.010105
# 3 -0.002614 -0.007832 0.013678 0.001271 -0.005485 -0.003379
# 4 0.002795 -0.007811 0.001271 0.027304 0.002648 0.000512
# 5 0.002685 -0.000117 -0.005485 0.002648 0.030954 0.004038
# 6 0.000801 0.010105 -0.003379 0.000512 0.004038 0.028986
#
#
# Mechanical properties :
#
#
# Convention : Reuss Voigt Hill
#
# Bulk Modulus (GPa) = 45.95289 60.64511 53.29900
# Shear Modulus (GPa) = 27.70677 35.56302 31.63489
#
# Velocity S-wave (km/s) = 3.74714 4.24528 4.00397
# Velocity P-wave (km/s) = 6.48145 7.40022 6.95602
#
# Compressibility (1/GPa) = 0.02176142
#
# Stress axis : x y z
#
# Youngs Moduli (GPa) = 96.64854 33.51504 73.10969
#
# Poissons Ratio (x) = 0.18784 0.19108
# Poissons Ratio (y) = 0.54167 0.57262
# Poissons Ratio (z) = 0.25260 0.26250
#
# Static dielectric constant tensor:
#      x y z
#    x 3.761650 -0.096000 -0.087730 
#    y -0.096000 3.359850 -0.155400 
#    z -0.087730 -0.155400 3.618340 
# 
# 
# High freq. dielectric constant tensor:
#      x y z
#    x 1.762990 -0.025620 0.006570 
#    y -0.025620 1.745150 -0.000910 
#    z 0.006570 -0.000910 1.768920 
# 
# From -- ./inp_files/159821.got.cif
#   From: 2010.06.25/outbox.cif.g09.slc.cpg/sg2_80_cif.got.tgz:159821.got - 2010.06.27 13:26:56.
