data_PCOD8043998
_publ_section_title
;
Structure prediction by ZEFSAII (Michael W. Deem and Ramdas Pophale) SiO2 
 PCOD8043998
Probable space group: P -1
;
_chemical_formula_sum "Si O2"
_cell_formula_units_Z 10
_cell_length_a 6.891216
_cell_length_b 13.992432
_cell_length_c 11.217951
_cell_angle_alpha 146.694729
_cell_angle_beta 115.646485
_cell_angle_gamma 53.097240
_cell_volume 469.055379
_symmetry_space_group_name_H-M "P -1"
_symmetry_group_IT_number 2
_symmetry_cell_setting 'triclinic'
loop_
_space_group_symop_operation_xyz
x,y,z
-x,-y,-z
loop_
_atom_site_type_symbol
_atom_site_label
_atom_site_fract_x
_atom_site_fract_y
_atom_site_fract_z
Si Si1 0.641712 0.678705 0.679560
Si Si2 0.502251 0.821260 0.165961
Si Si3 0.676928 0.450326 0.674761
Si Si4 0.884466 0.924255 0.488859
Si Si5 0.760715 0.978017 0.928368
O O1 0.765442 0.541675 0.685277
O O2 0.565096 0.562700 0.442349
O O3 0.823896 0.752370 0.746228
O O4 0.390420 0.874425 0.852001
O O5 0.737574 0.827661 0.286076
O O6 0.292425 0.889159 0.281458
O O7 0.397117 0.967013 0.177013
O O8 0.590816 0.594298 0.916446
O O9 0.902744 0.238870 0.543649
O O10 0.000000 0.000000 0.500000
O O11 0.000000 0.000000 0.000000
#
# Coordination Sequence:
#
# PCOD8043998 Si02
#       5
#     2   2   2   2   2
#     4   9  20  37  60  90 122 152 192 243 295 357
#     4  10  23  39  59  89 117 153 206 240 288 362
#     4  10  20  40  63  89 123 156 194 246 299 349
#     4  11  23  41  61  83 120 162 198 247 295 342
#     4  10  19  37  62  88 120 156 193 241 298 352
#
# _framework density 21.319444000000001
#
# number of rings (size 3 to 8) (size 9 to 14) (size 15 to 20)
#    0.000    2.000    0.000    3.000    0.000    4.000 
#    0.000   28.000    0.000    0.000    0.000    0.000 
#    0.000    0.000    0.000    0.000    0.000    0.000 
#
# Total GULP energy -124020.198124 kJ/mol
# GULP energy per Si atom -12402.019812 kJ/mol
# Density = 2.127092 g / cm^3
# Si number density = 21.319444 Si / 1000 Ang^3
#
#
#
# Elastic Constant Matrix: (Units=GPa)
#
#
# Indices 1 2 3 4 5 6 
#
# 1 141.0389 36.6696 43.8294 5.1094 13.1461 10.7260
# 2 36.6696 102.7197 13.8738 3.2741 9.0295 3.3194
# 3 43.8294 13.8738 102.1846 -17.8254 -5.0379 -1.8312
# 4 5.1094 3.2741 -17.8254 31.4693 9.2272 3.9520
# 5 13.1461 9.0295 -5.0379 9.2272 29.1039 7.1592
# 6 10.7260 3.3194 -1.8312 3.9520 7.1592 24.9411
#
#
#
# Elastic Compliance Matrix: (Units=1/GPa)
#
#
# Indices 1 2 3 4 5 6 
#
# 1 0.009701 -0.002427 -0.004489 -0.002664 -0.002838 -0.002942
# 2 -0.002427 0.010895 -0.000626 -0.000449 -0.002320 0.000285
# 3 -0.004489 -0.000626 0.013234 0.007607 0.001789 0.001266
# 4 -0.002664 -0.000449 0.007607 0.039559 -0.009441 -0.001794
# 5 -0.002838 -0.002320 0.001789 -0.009441 0.041842 -0.008854
# 6 -0.002942 0.000285 0.001266 -0.001794 -0.008854 0.044241
#
#
# Mechanical properties :
#
#
# Convention : Reuss Voigt Hill
#
# Bulk Modulus (GPa) = 53.34226 59.40987 56.37606
# Shear Modulus (GPa) = 27.65417 33.87423 30.76420
#
# Velocity S-wave (km/s) = 3.60548 3.99041 3.80282
# Velocity P-wave (km/s) = 6.51210 7.01129 6.76630
#
# Compressibility (1/GPa) = 0.01874686
#
# Stress axis : x y z
#
# Youngs Moduli (GPa) = 103.08225 91.78227 75.56124
#
# Poissons Ratio (x) = 0.22280 0.33917
# Poissons Ratio (y) = 0.25023 0.04728
# Poissons Ratio (z) = 0.46270 0.05743
#
# Static dielectric constant tensor:
#      x y z
#    x 3.877040 0.182620 0.076730 
#    y 0.182620 3.903850 -0.007000 
#    z 0.076730 -0.007000 4.101950 
# 
# 
# High freq. dielectric constant tensor:
#      x y z
#    x 1.828050 0.003850 0.002030 
#    y 0.003850 1.834720 -0.006790 
#    z 0.002030 -0.006790 1.849530 
# 
# From -- ./inp_files/20426.got.cif
#   From: 2010.06.25/outbox.cif.g09.slc.cpg/sg2_11_cif.got.tgz:20426.got - 2010.06.27 13:26:56.
