data_PCOD8043593
_publ_section_title
;
Structure prediction by ZEFSAII (Michael W. Deem and Ramdas Pophale) SiO2 
 PCOD8043593
Probable space group: P -1
;
_chemical_formula_sum "Si O2"
_cell_formula_units_Z 16
_cell_length_a 8.770099
_cell_length_b 12.672275
_cell_length_c 10.965392
_cell_angle_alpha 84.126790
_cell_angle_beta 68.600010
_cell_angle_gamma 126.428613
_cell_volume 826.022873
_symmetry_space_group_name_H-M "P -1"
_symmetry_group_IT_number 2
_symmetry_cell_setting 'triclinic'
loop_
_space_group_symop_operation_xyz
x,y,z
-x,-y,-z
loop_
_atom_site_type_symbol
_atom_site_label
_atom_site_fract_x
_atom_site_fract_y
_atom_site_fract_z
Si Si1 0.596108 0.577255 0.834001
Si Si2 0.225464 0.042677 0.567398
Si Si3 0.133855 0.300396 0.610541
Si Si4 0.413470 0.791030 0.355486
Si Si5 0.518020 0.406923 0.649411
Si Si6 0.050499 0.759471 0.577564
Si Si7 0.357018 0.942670 0.168121
Si Si8 0.281638 0.134726 0.276257
O O1 0.469086 0.467711 0.767602
O O2 0.583197 0.699491 0.820522
O O3 0.852130 0.646622 0.743170
O O4 0.500000 0.500000 0.000000
O O5 0.388738 0.139704 0.616696
O O6 0.313140 0.140844 0.410859
O O7 0.231981 0.918176 0.562900
O O8 0.974829 0.969822 0.681028
O O9 0.293146 0.295472 0.645436
O O10 0.277603 0.468931 0.515157
O O11 0.058802 0.221738 0.508050
O O12 0.898884 0.211729 0.761825
O O13 0.406347 0.672766 0.305954
O O14 0.175973 0.709005 0.501950
O O15 0.471358 0.912074 0.233471
O O16 0.379729 0.073246 0.191722
O O17 0.500000 0.000000 0.000000
#
# Coordination Sequence:
#
# PCOD8043593 Si02
#       8
#     2   2   2   2   2   2   2   2
#     4  10  23  40  58  83 118 159 197 231 288 354
#     4  10  19  36  65  90 111 145 204 246 287 332
#     4   9  19  40  59  87 115 152 202 235 286 347
#     4  11  22  35  62  93 118 146 195 250 291 347
#     4  10  22  37  64  89 112 155 202 243 284 344
#     4   9  19  37  60  87 116 151 191 247 292 333
#     4  11  24  41  58  87 125 157 186 242 309 347
#     4  10  21  38  64  83 113 157 195 242 287 344
#
# _framework density 19.369923
#
# number of rings (size 3 to 8) (size 9 to 14) (size 15 to 20)
#    0.000    2.000    2.500    1.125   10.500    4.500 
#    4.500    1.250    0.000    1.500    0.000    0.000 
#    0.000    0.000    0.000    0.000    0.000    0.000 
#
# Total GULP energy -198226.223675 kJ/mol
# GULP energy per Si atom -12389.138980 kJ/mol
# Density = 1.932584 g / cm^3
# Si number density = 19.369923 Si / 1000 Ang^3
#
#
#
# Elastic Constant Matrix: (Units=GPa)
#
#
# Indices 1 2 3 4 5 6 
#
# 1 106.4297 59.2498 58.3143 2.5028 8.5951 -13.7376
# 2 59.2498 90.8487 46.1226 0.5822 3.4371 -20.4532
# 3 58.3143 46.1226 150.4267 -9.1693 -2.9263 -9.4533
# 4 2.5028 0.5822 -9.1693 20.7799 -1.5029 -3.2233
# 5 8.5951 3.4371 -2.9263 -1.5029 18.1811 -1.1536
# 6 -13.7376 -20.4532 -9.4533 -3.2233 -1.1536 38.3487
#
#
#
# Elastic Compliance Matrix: (Units=1/GPa)
#
#
# Indices 1 2 3 4 5 6 
#
# 1 0.017484 -0.008836 -0.004498 -0.004425 -0.007695 -0.000162
# 2 -0.008836 0.019263 -0.002002 0.000731 0.000699 0.006698
# 3 -0.004498 -0.002002 0.009416 0.005107 0.004456 0.000205
# 4 -0.004425 0.000731 0.005107 0.052147 0.007383 0.004669
# 5 -0.007695 0.000699 0.004456 0.007383 0.059908 0.001137
# 6 -0.000162 0.006698 0.000205 0.004669 0.001137 0.030068
#
#
# Mechanical properties :
#
#
# Convention : Reuss Voigt Hill
#
# Bulk Modulus (GPa) = 64.55306 75.00873 69.78089
# Shear Modulus (GPa) = 22.30921 27.72984 25.01952
#
# Velocity S-wave (km/s) = 3.39742 3.78774 3.59788
# Velocity P-wave (km/s) = 6.98489 7.61168 7.30501
#
# Compressibility (1/GPa) = 0.01549113
#
# Stress axis : x y z
#
# Youngs Moduli (GPa) = 57.19426 51.91272 106.19968
#
# Poissons Ratio (x) = 0.45871 0.47771
# Poissons Ratio (y) = 0.50537 0.21260
# Poissons Ratio (z) = 0.25727 0.10392
#
# Static dielectric constant tensor:
#      x y z
#    x 3.624700 -0.070610 -0.037880 
#    y -0.070610 3.687290 -0.101490 
#    z -0.037880 -0.101490 3.344890 
# 
# 
# High freq. dielectric constant tensor:
#      x y z
#    x 1.749550 -0.007380 0.000570 
#    y -0.007380 1.763420 -0.004180 
#    z 0.000570 -0.004180 1.725410 
# 
# From -- ./inp_files/389984.got.cif
#   From: 2010.06.25/outbox.cif.g09.slc.cpg/sg2_195_cif.got.tgz:389984.got - 2010.06.27 13:26:56.
