data_PCOD8043089
_publ_section_title
;
Structure prediction by ZEFSAII (Michael W. Deem and Ramdas Pophale) SiO2 
 PCOD8043089
Probable space group: P -1
;
_chemical_formula_sum "Si O2"
_cell_formula_units_Z 16
_cell_length_a 20.217623
_cell_length_b 13.967700
_cell_length_c 11.305116
_cell_angle_alpha 52.063390
_cell_angle_beta 34.212076
_cell_angle_gamma 28.274110
_cell_volume 769.189105
_symmetry_space_group_name_H-M "P -1"
_symmetry_group_IT_number 2
_symmetry_cell_setting 'triclinic'
loop_
_space_group_symop_operation_xyz
x,y,z
-x,-y,-z
loop_
_atom_site_type_symbol
_atom_site_label
_atom_site_fract_x
_atom_site_fract_y
_atom_site_fract_z
Si Si1 0.786707 0.170933 0.058988
Si Si2 0.030860 0.115893 0.374680
Si Si3 0.532706 0.022085 0.565431
Si Si4 0.147883 0.016856 0.538742
Si Si5 0.390378 0.429161 0.887201
Si Si6 0.073889 0.190293 0.752413
Si Si7 0.529211 0.173488 0.110745
Si Si8 0.389469 0.377339 0.405727
O O1 0.664421 0.384282 0.145953
O O2 0.607472 0.267782 0.165393
O O3 0.877374 0.993053 0.151135
O O4 0.988598 0.041984 0.780825
O O5 0.815811 0.364068 0.454665
O O6 0.000000 0.000000 0.500000
O O7 0.085248 0.116911 0.424939
O O8 0.231426 0.982404 0.097916
O O9 0.398429 0.264783 0.579889
O O10 0.500000 0.000000 0.500000
O O11 0.782202 0.838913 0.366156
O O12 0.454273 0.988638 0.800792
O O13 0.400165 0.757091 0.365368
O O14 0.115843 0.155047 0.574590
O O15 0.427592 0.320202 0.033807
O O16 0.176895 0.558499 0.040511
O O17 0.372119 0.339112 0.327765
#
# Coordination Sequence:
#
# PCOD8043089 Si02
#       8
#     2   2   2   2   2   2   2   2
#     4  10  20  33  54  82 112 145 181 224 277 332
#     4  11  22  35  57  88 116 146 184 224 277 337
#     4   9  21  41  60  80 108 146 191 232 273 328
#     4  10  20  34  53  83 114 143 181 223 273 330
#     4  10  20  34  54  81 112 143 178 227 278 325
#     4  10  21  37  56  80 109 144 186 227 275 330
#     4  10  21  37  56  81 112 146 190 230 270 329
#     4  10  19  36  58  80 113 150 182 230 279 318
#
# _framework density 20.801127000000001
#
# number of rings (size 3 to 8) (size 9 to 14) (size 15 to 20)
#    0.000    2.000    0.000    5.250    0.000    4.500 
#    0.000   11.250    0.000    0.000    0.000    0.000 
#    0.000    0.000    0.000    0.000    0.000    0.000 
#
# Total GULP energy -198313.289488 kJ/mol
# GULP energy per Si atom -12394.580593 kJ/mol
# Density = 2.075378 g / cm^3
# Si number density = 20.801127 Si / 1000 Ang^3
#
#
#
# Elastic Constant Matrix: (Units=GPa)
#
#
# Indices 1 2 3 4 5 6 
#
# 1 71.2400 17.4425 17.5160 7.4365 -24.4975 -7.7513
# 2 17.4425 117.3401 59.3405 19.4110 -28.1253 -7.1960
# 3 17.5160 59.3405 100.2015 11.5410 -30.4926 6.1752
# 4 7.4365 19.4110 11.5410 37.3247 1.9049 -4.9592
# 5 -24.4975 -28.1253 -30.4926 1.9049 33.7923 2.6520
# 6 -7.7513 -7.1960 6.1752 -4.9592 2.6520 24.0752
#
#
#
# Elastic Compliance Matrix: (Units=1/GPa)
#
#
# Indices 1 2 3 4 5 6 
#
# 1 0.020214 0.001700 0.001071 -0.005621 0.017062 0.003705
# 2 0.001700 0.014426 -0.006098 -0.005767 0.007718 0.004385
# 3 0.001071 -0.006098 0.018534 -0.004605 0.013364 -0.008653
# 4 -0.005621 -0.005767 -0.004605 0.033966 -0.015443 0.006345
# 5 0.017062 0.007718 0.013364 -0.015443 0.061755 -0.005611
# 6 0.003705 0.004385 -0.008653 0.006345 -0.005611 0.048184
#
#
# Mechanical properties :
#
#
# Convention : Reuss Voigt Hill
#
# Bulk Modulus (GPa) = 21.49561 53.04219 37.26890
# Shear Modulus (GPa) = 22.80591 32.00395 27.40493
#
# Velocity S-wave (km/s) = 3.31475 3.92671 3.63364
# Velocity P-wave (km/s) = 5.00064 6.79071 5.96323
#
# Compressibility (1/GPa) = 0.04652112
#
# Stress axis : x y z
#
# Youngs Moduli (GPa) = 49.46954 69.31861 53.95349
#
# Poissons Ratio (x) = -0.11786 -0.05777
# Poissons Ratio (y) = -0.08411 0.32901
# Poissons Ratio (z) = -0.05297 0.42270
#
# Static dielectric constant tensor:
#      x y z
#    x 3.662870 -0.162010 -0.201960 
#    y -0.162010 3.957640 -0.036510 
#    z -0.201960 -0.036510 3.925710 
# 
# 
# High freq. dielectric constant tensor:
#      x y z
#    x 1.804230 -0.018470 -0.014980 
#    y -0.018470 1.814360 0.003270 
#    z -0.014980 0.003270 1.808330 
# 
# From -- ./inp_files/456059.got.cif
#   From: 2010.06.25/outbox.cif.g09.slc.cpg/sg2_229_cif.got.tgz:456059.got - 2010.06.27 13:26:56.
