data_PCOD8043142
_publ_section_title
;
Structure prediction by ZEFSAII (Michael W. Deem and Ramdas Pophale) SiO2 
 PCOD8043142
Probable space group: P -1
;
_chemical_formula_sum "Si O2"
_cell_formula_units_Z 12
_cell_length_a 11.972619
_cell_length_b 8.842234
_cell_length_c 14.404872
_cell_angle_alpha 72.064038
_cell_angle_beta 20.053919
_cell_angle_gamma 72.784266
_cell_volume 497.400225
_symmetry_space_group_name_H-M "P -1"
_symmetry_group_IT_number 2
_symmetry_cell_setting 'triclinic'
loop_
_space_group_symop_operation_xyz
x,y,z
-x,-y,-z
loop_
_atom_site_type_symbol
_atom_site_label
_atom_site_fract_x
_atom_site_fract_y
_atom_site_fract_z
Si Si1 0.130039 0.019704 0.998368
Si Si2 0.132553 0.271006 0.219861
Si Si3 0.115941 0.676388 0.395169
Si Si4 0.885874 0.336392 0.080104
Si Si5 0.266834 0.443241 0.610508
Si Si6 0.879256 0.949691 0.398613
O O1 0.507583 0.974660 0.714301
O O2 0.059055 0.207154 0.036240
O O3 0.932554 0.929273 0.249900
O O4 0.000000 0.000000 0.000000
O O5 0.063365 0.255389 0.386283
O O6 0.881815 0.404287 0.352827
O O7 0.084541 0.099621 0.244010
O O8 0.493613 0.325442 0.902272
O O9 0.000000 0.500000 0.500000
O O10 0.016263 0.788311 0.366437
O O11 0.490749 0.333654 0.387910
O O12 0.000000 0.500000 0.000000
O O13 0.996028 0.326004 0.887669
O O14 0.500000 0.500000 0.500000
#
# Coordination Sequence:
#
# PCOD8043142 Si02
#       6
#     2   2   2   2   2   2
#     4  12  26  43  68 105 145 184 224 284 355 415
#     4  12  24  46  75 102 137 187 237 287 342 418
#     4  12  28  48  71 104 138 181 236 297 357 406
#     4  10  19  36  58  91 130 171 216 262 321 400
#     4  10  20  35  63  99 131 166 216 274 327 392
#     4  12  25  48  72 101 139 187 239 286 340 423
#
# _framework density 24.125440999999999
#
# number of rings (size 3 to 8) (size 9 to 14) (size 15 to 20)
#    0.000    0.667    0.000   10.000    0.000    4.000 
#    0.000    0.000    0.000    0.000    0.000    0.000 
#    0.000    0.000    0.000    0.000    0.000    0.000 
#
# Total GULP energy -148785.788998 kJ/mol
# GULP energy per Si atom -12398.815750 kJ/mol
# Density = 2.407053 g / cm^3
# Si number density = 24.125441 Si / 1000 Ang^3
#
#
#
# Elastic Constant Matrix: (Units=GPa)
#
#
# Indices 1 2 3 4 5 6 
#
# 1 102.4208 42.1686 28.9348 -3.0017 19.8946 -19.2935
# 2 42.1686 112.4217 48.0513 14.2842 -3.2281 -41.8658
# 3 28.9348 48.0513 183.1529 11.8027 21.0033 -5.0830
# 4 -3.0017 14.2842 11.8027 36.0501 -5.1065 2.1056
# 5 19.8946 -3.2281 21.0033 -5.1065 54.6121 -0.1683
# 6 -19.2935 -41.8658 -5.0830 2.1056 -0.1683 46.2662
#
#
#
# Elastic Compliance Matrix: (Units=1/GPa)
#
#
# Indices 1 2 3 4 5 6 
#
# 1 0.012996 -0.004816 -0.000388 0.002408 -0.004642 0.000893
# 2 -0.004816 0.018890 -0.003752 -0.007009 0.003705 0.015005
# 3 -0.000388 -0.003752 0.006815 -0.001012 -0.002805 -0.002772
# 4 0.002408 -0.007009 -0.001012 0.031740 0.002045 -0.006887
# 5 -0.004642 0.003705 -0.002805 0.002045 0.021494 0.001094
# 6 0.000893 0.015005 -0.002772 -0.006887 0.001094 0.035577
#
#
# Mechanical properties :
#
#
# Convention : Reuss Voigt Hill
#
# Bulk Modulus (GPa) = 48.09771 70.70055 59.39913
# Shear Modulus (GPa) = 32.81807 45.97507 39.39657
#
# Velocity S-wave (km/s) = 3.69224 4.37013 4.04541
# Velocity P-wave (km/s) = 6.17711 7.40494 6.81871
#
# Compressibility (1/GPa) = 0.02079101
#
# Stress axis : x y z
#
# Youngs Moduli (GPa) = 76.94433 52.93798 146.72519
#
# Poissons Ratio (x) = 0.25494 0.05689
# Poissons Ratio (y) = 0.37055 0.55049
# Poissons Ratio (z) = 0.02984 0.19861
#
# Static dielectric constant tensor:
#      x y z
#    x 5.849870 -2.993440 -1.582410 
#    y -2.993440 9.065540 1.703980 
#    z -1.582410 1.703980 2.828080 
# 
# 
# High freq. dielectric constant tensor:
#      x y z
#    x 1.952950 -0.008360 0.019840 
#    y -0.008360 1.974380 0.005390 
#    z 0.019840 0.005390 1.983690 
# 
# From -- ./inp_files/361066.got.cif
#   From: 2010.06.25/outbox.cif.g09.slc.cpg/sg2_181_cif.got.tgz:361066.got - 2010.06.27 13:26:56.
