data_PCOD8043010
_publ_section_title
;
Structure prediction by ZEFSAII (Michael W. Deem and Ramdas Pophale) SiO2 
 PCOD8043010
Probable space group: P -1
;
_chemical_formula_sum "Si O2"
_cell_formula_units_Z 16
_cell_length_a 9.743669
_cell_length_b 15.475652
_cell_length_c 10.263351
_cell_angle_alpha 118.219009
_cell_angle_beta 42.220148
_cell_angle_gamma 96.610305
_cell_volume 841.060036
_symmetry_space_group_name_H-M "P -1"
_symmetry_group_IT_number 2
_symmetry_cell_setting 'triclinic'
loop_
_space_group_symop_operation_xyz
x,y,z
-x,-y,-z
loop_
_atom_site_type_symbol
_atom_site_label
_atom_site_fract_x
_atom_site_fract_y
_atom_site_fract_z
Si Si1 0.065585 0.866568 0.096624
Si Si2 0.812939 0.384826 0.771447
Si Si3 0.299236 0.379388 0.410368
Si Si4 0.533588 0.285174 0.435536
Si Si5 0.331157 0.941846 0.440692
Si Si6 0.640541 0.848822 0.383464
Si Si7 0.395786 0.550154 0.314256
Si Si8 0.687180 0.213078 0.868577
O O1 0.146975 0.833329 0.162221
O O2 0.898086 0.810200 0.132062
O O3 0.264090 0.825444 0.825492
O O4 0.926380 0.995837 0.283800
O O5 0.745494 0.413987 0.691273
O O6 0.793979 0.273952 0.741397
O O7 0.062618 0.376131 0.605050
O O8 0.651751 0.474703 0.047474
O O9 0.433197 0.362779 0.439676
O O10 0.276005 0.492355 0.448225
O O11 0.439539 0.287910 0.144125
O O12 0.355898 0.242937 0.586566
O O13 0.612176 0.345896 0.532008
O O14 0.477662 0.855482 0.382078
O O15 0.337707 0.883811 0.259342
O O16 0.432804 0.032817 0.413810
#
# Coordination Sequence:
#
# PCOD8043010 Si02
#       8
#     2   2   2   2   2   2   2   2
#     4   9  20  35  52  79 109 140 175 218 255 310
#     4  10  21  38  56  81 104 140 177 216 264 319
#     4  10  22  37  54  83 107 134 180 220 259 319
#     4  11  21  36  56  81 106 142 175 216 265 314
#     4   9  19  38  53  77 111 142 171 224 258 300
#     4   9  20  36  52  78 110 137 180 216 254 316
#     4  10  22  37  57  78 109 137 175 220 265 314
#     4  10  19  36  56  78 109 139 177 215 263 310
#
# _framework density 19.023612
#
# number of rings (size 3 to 8) (size 9 to 14) (size 15 to 20)
#    0.750    1.500    0.000    2.625    0.000    3.000 
#    2.250    1.250    0.000    0.000    0.000    0.000 
#    0.000    0.000    0.000    0.000    0.000    0.000 
#
# Total GULP energy -198321.079414 kJ/mol
# GULP energy per Si atom -12395.067463 kJ/mol
# Density = 1.898031 g / cm^3
# Si number density = 19.023612 Si / 1000 Ang^3
#
#
#
# Elastic Constant Matrix: (Units=GPa)
#
#
# Indices 1 2 3 4 5 6 
#
# 1 78.2355 19.6107 30.6453 5.3695 -5.8013 -4.4016
# 2 19.6107 56.1838 1.8670 -8.3039 10.2663 3.1856
# 3 30.6453 1.8670 53.5822 1.4006 -2.7692 6.7071
# 4 5.3695 -8.3039 1.4006 25.3655 7.1935 1.2052
# 5 -5.8013 10.2663 -2.7692 7.1935 30.7083 -1.1672
# 6 -4.4016 3.1856 6.7071 1.2052 -1.1672 25.3548
#
#
#
# Elastic Compliance Matrix: (Units=1/GPa)
#
#
# Indices 1 2 3 4 5 6 
#
# 1 0.022909 -0.011618 -0.013124 -0.011246 0.010039 0.009905
# 2 -0.011618 0.027142 0.005571 0.015613 -0.014740 -0.008321
# 3 -0.013124 0.005571 0.026995 0.004567 -0.003376 -0.010492
# 4 -0.011246 0.015613 0.004567 0.052622 -0.019583 -0.008525
# 5 0.010039 -0.014740 -0.003376 -0.019583 0.043955 0.007442
# 6 0.009905 -0.008321 -0.010492 -0.008525 0.007442 0.045729
#
#
# Mechanical properties :
#
#
# Convention : Reuss Voigt Hill
#
# Bulk Modulus (GPa) = 25.83901 32.47194 29.15548
# Shear Modulus (GPa) = 18.47789 25.34429 21.91109
#
# Velocity S-wave (km/s) = 3.11997 3.65397 3.39748
# Velocity P-wave (km/s) = 5.15665 5.90832 5.54524
#
# Compressibility (1/GPa) = 0.03870117
#
# Stress axis : x y z
#
# Youngs Moduli (GPa) = 43.65165 36.84384 37.04456
#
# Poissons Ratio (x) = 0.42806 0.48619
# Poissons Ratio (y) = 0.50715 -0.20637
# Poissons Ratio (z) = 0.57290 -0.20525
#
# Static dielectric constant tensor:
#      x y z
#    x 3.387090 -0.115440 -0.063980 
#    y -0.115440 3.369700 0.029580 
#    z -0.063980 0.029580 3.400400 
# 
# 
# High freq. dielectric constant tensor:
#      x y z
#    x 1.745380 -0.009680 -0.002880 
#    y -0.009680 1.735070 0.001710 
#    z -0.002880 0.001710 1.728270 
# 
# From -- ./inp_files/215427.got.cif
#   From: 2010.06.25/outbox.cif.g09.slc.cpg/sg2_108_cif.got.tgz:215427.got - 2010.06.27 13:26:56.
