data_PCOD8043847
_publ_section_title
;
Structure prediction by ZEFSAII (Michael W. Deem and Ramdas Pophale) SiO2 
 PCOD8043847
Probable space group: P -1
;
_chemical_formula_sum "Si O2"
_cell_formula_units_Z 14
_cell_length_a 10.247885
_cell_length_b 8.236758
_cell_length_c 14.217458
_cell_angle_alpha 50.239883
_cell_angle_beta 131.463512
_cell_angle_gamma 116.800803
_cell_volume 690.549124
_symmetry_space_group_name_H-M "P -1"
_symmetry_group_IT_number 2
_symmetry_cell_setting 'triclinic'
loop_
_space_group_symop_operation_xyz
x,y,z
-x,-y,-z
loop_
_atom_site_type_symbol
_atom_site_label
_atom_site_fract_x
_atom_site_fract_y
_atom_site_fract_z
Si Si1 0.042946 0.417980 0.770719
Si Si2 0.151842 0.870577 0.578764
Si Si3 0.852188 0.340913 0.526330
Si Si4 0.493123 0.142504 0.651651
Si Si5 0.505493 0.561938 0.623836
Si Si6 0.864110 0.423459 0.885841
Si Si7 0.187295 0.015759 0.036998
O O1 0.136406 0.633541 0.699661
O O2 0.894893 0.313782 0.667594
O O3 0.942888 0.457954 0.805925
O O4 0.198956 0.252346 0.911840
O O5 0.140600 0.866193 0.460342
O O6 0.331473 0.982458 0.656073
O O7 0.000000 0.000000 0.500000
O O8 0.658814 0.429950 0.387245
O O9 0.000000 0.500000 0.500000
O O10 0.477297 0.350415 0.628934
O O11 0.495929 0.220205 0.516807
O O12 0.662974 0.013671 0.803807
O O13 0.691421 0.557244 0.767196
O O14 0.809154 0.174336 0.967526
O O15 0.000000 0.500000 0.000000
O O16 0.000000 0.000000 0.000000
#
# Coordination Sequence:
#
# PCOD8043847 Si02
#       7
#     2   2   2   2   2   2   2
#     4  10  21  39  58  83 126 162 188 242 302 345
#     4  11  23  38  60  88 115 151 204 251 291 352
#     4  10  21  37  60  86 117 154 191 239 298 352
#     4  10  20  36  61  88 115 154 199 242 290 352
#     4  10  19  37  60  85 119 152 191 247 300 341
#     4  10  21  37  63  92 119 155 200 242 285 351
#     4   9  19  35  56  83 119 156 190 234 294 346
#
# _framework density 20.273721999999999
#
# number of rings (size 3 to 8) (size 9 to 14) (size 15 to 20)
#    0.000    2.000    0.000    6.000    0.000    5.714 
#    0.000    1.429    0.000    9.429    0.000    0.000 
#    0.000    0.000    0.000    0.000    0.000    0.000 
#
# Total GULP energy -173486.146753 kJ/mol
# GULP energy per Si atom -12391.867625 kJ/mol
# Density = 2.022758 g / cm^3
# Si number density = 20.273722 Si / 1000 Ang^3
#
#
#
# Elastic Constant Matrix: (Units=GPa)
#
#
# Indices 1 2 3 4 5 6 
#
# 1 117.2505 39.7392 67.9023 11.0550 24.3800 -2.1693
# 2 39.7392 96.8493 77.2582 0.1430 10.5603 13.7041
# 3 67.9023 77.2582 161.2899 3.7650 32.2741 0.2070
# 4 11.0550 0.1430 3.7650 44.1439 0.6504 -3.2894
# 5 24.3800 10.5603 32.2741 0.6504 40.0784 4.7460
# 6 -2.1693 13.7041 0.2070 -3.2894 4.7460 35.5673
#
#
#
# Elastic Compliance Matrix: (Units=1/GPa)
#
#
# Indices 1 2 3 4 5 6 
#
# 1 0.012369 -0.002414 -0.003068 -0.002605 -0.004621 0.002078
# 2 -0.002414 0.019241 -0.009148 0.000651 0.004711 -0.008076
# 3 -0.003068 -0.009148 0.013244 0.000082 -0.006885 0.004187
# 4 -0.002605 0.000651 0.000082 0.023408 0.000772 0.001652
# 5 -0.004621 0.004711 -0.006885 0.000772 0.032807 -0.006363
# 6 0.002078 -0.008076 0.004187 0.001652 -0.006363 0.032332
#
#
# Mechanical properties :
#
#
# Convention : Reuss Voigt Hill
#
# Bulk Modulus (GPa) = 64.12629 82.79879 73.46254
# Shear Modulus (GPa) = 29.78711 36.65725 33.22218
#
# Velocity S-wave (km/s) = 3.83723 4.25681 4.05246
# Velocity P-wave (km/s) = 7.16459 8.06782 7.62958
#
# Compressibility (1/GPa) = 0.01559423
#
# Stress axis : x y z
#
# Youngs Moduli (GPa) = 80.84999 51.97151 75.50631
#
# Poissons Ratio (x) = 0.12546 0.23165
# Poissons Ratio (y) = 0.19517 0.69072
# Poissons Ratio (z) = 0.24805 0.47543
#
# Static dielectric constant tensor:
#      x y z
#    x 3.656980 -0.123440 -0.028540 
#    y -0.123440 4.151800 -0.225740 
#    z -0.028540 -0.225740 4.264970 
# 
# 
# High freq. dielectric constant tensor:
#      x y z
#    x 1.784610 0.000510 0.018220 
#    y 0.000510 1.797050 -0.000770 
#    z 0.018220 -0.000770 1.785710 
# 
# From -- ./inp_files/512841.got.cif
#   From: 2010.06.25/outbox.cif.g09.slc.cpg/sg2_257_cif.got.tgz:512841.got - 2010.06.27 13:26:56.
