data_PCOD8043193
_publ_section_title
;
Structure prediction by ZEFSAII (Michael W. Deem and Ramdas Pophale) SiO2 
 PCOD8043193
Probable space group: P -1
;
_chemical_formula_sum "Si O2"
_cell_formula_units_Z 16
_cell_length_a 19.460277
_cell_length_b 9.563371
_cell_length_c 10.231442
_cell_angle_alpha 36.108655
_cell_angle_beta 148.713827
_cell_angle_gamma 138.435130
_cell_volume 572.259339
_symmetry_space_group_name_H-M "P -1"
_symmetry_group_IT_number 2
_symmetry_cell_setting 'triclinic'
loop_
_space_group_symop_operation_xyz
x,y,z
-x,-y,-z
loop_
_atom_site_type_symbol
_atom_site_label
_atom_site_fract_x
_atom_site_fract_y
_atom_site_fract_z
Si Si1 0.396881 0.849125 0.846272
Si Si2 0.377210 0.174246 0.320680
Si Si3 0.658784 0.113419 0.776652
Si Si4 0.855923 0.665643 0.049098
Si Si5 0.127524 0.260440 0.395428
Si Si6 0.574502 0.629081 0.146496
Si Si7 0.921000 0.371054 0.147414
Si Si8 0.123590 0.909176 0.439423
O O1 0.245996 0.761851 0.725077
O O2 0.382937 0.011855 0.576737
O O3 0.462485 0.614876 0.091946
O O4 0.500000 0.000000 0.000000
O O5 0.311181 0.998176 0.229851
O O6 0.280871 0.365669 0.060775
O O7 0.535711 0.276345 0.447028
O O8 0.795895 0.249263 0.952211
O O9 0.605816 0.911827 0.948628
O O10 0.891061 0.421045 0.216183
O O11 0.838785 0.844190 0.768097
O O12 0.981170 0.760122 0.274327
O O13 0.277936 0.425824 0.533701
O O14 0.043586 0.366684 0.065314
O O15 0.127493 0.985859 0.545149
O O16 0.051502 0.247581 0.422183
O O17 0.500000 0.500000 0.000000
#
# Coordination Sequence:
#
# PCOD8043193 Si02
#       8
#     2   2   2   2   2   2   2   2
#     4  10  19  36  59  90 120 155 197 246 302 352
#     4   9  20  36  61  86 115 160 197 241 295 358
#     4  10  22  41  59  88 122 162 196 248 303 354
#     4   9  18  33  56  89 114 152 197 245 290 347
#     4  10  21  37  60  91 119 157 199 249 292 362
#     4  11  25  39  61  89 121 160 204 248 301 357
#     4  10  22  36  62  92 120 154 202 247 301 354
#     4   9  17  33  57  83 120 153 194 242 295 347
#
# _framework density 27.959349
#
# number of rings (size 3 to 8) (size 9 to 14) (size 15 to 20)
#    0.000    2.250    1.250    0.750    7.000    3.000 
#    0.000    2.500    0.000    1.500    0.000    0.000 
#    0.000    0.000    0.000    0.000    0.000    0.000 
#
# Total GULP energy -198314.890720 kJ/mol
# GULP energy per Si atom -12394.680670 kJ/mol
# Density = 2.789571 g / cm^3
# Si number density = 27.959349 Si / 1000 Ang^3
#
#
#
# Elastic Constant Matrix: (Units=GPa)
#
#
# Indices 1 2 3 4 5 6 
#
# 1 217.7348 70.8100 98.2343 7.3282 46.1643 -34.9133
# 2 70.8100 106.2535 53.2341 10.3701 41.3451 -37.6721
# 3 98.2343 53.2341 157.1442 7.1852 44.8568 -22.4161
# 4 7.3282 10.3701 7.1852 58.0847 -3.1669 5.8277
# 5 46.1643 41.3451 44.8568 -3.1669 60.8078 -4.5673
# 6 -34.9133 -37.6721 -22.4161 5.8277 -4.5673 50.3311
#
#
#
# Elastic Compliance Matrix: (Units=1/GPa)
#
#
# Indices 1 2 3 4 5 6 
#
# 1 0.007359 -0.001674 -0.003093 -0.000594 -0.002021 0.002360
# 2 -0.001674 0.020701 -0.000403 -0.005452 -0.011761 0.013718
# 3 -0.003093 -0.000403 0.010099 -0.001223 -0.004759 0.001761
# 4 -0.000594 -0.005452 -0.001223 0.019399 0.005562 -0.006779
# 5 -0.002021 -0.011761 -0.004759 0.005562 0.029001 -0.010337
# 6 0.002360 0.013718 0.001761 -0.006779 -0.010337 0.032404
#
#
# Mechanical properties :
#
#
# Convention : Reuss Voigt Hill
#
# Bulk Modulus (GPa) = 35.94482 102.85437 69.39960
# Shear Modulus (GPa) = 36.08125 51.10167 43.59146
#
# Velocity S-wave (km/s) = 3.59624 4.27981 3.95283
# Velocity P-wave (km/s) = 5.48889 7.82875 6.76082
#
# Compressibility (1/GPa) = 0.02782042
#
# Stress axis : x y z
#
# Youngs Moduli (GPa) = 135.88092 48.30699 99.01885
#
# Poissons Ratio (x) = 0.08085 0.30623
# Poissons Ratio (y) = 0.22741 0.03992
# Poissons Ratio (z) = 0.42024 0.01948
#
# Static dielectric constant tensor:
#      x y z
#    x 5.890750 -0.323420 0.348060 
#    y -0.323420 4.674790 -0.633970 
#    z 0.348060 -0.633970 5.879470 
# 
# 
# High freq. dielectric constant tensor:
#      x y z
#    x 2.171740 0.020950 0.000760 
#    y 0.020950 2.156600 -0.037830 
#    z 0.000760 -0.037830 2.160160 
# 
# From -- ./inp_files/259832.got.cif
#   From: 2010.06.25/outbox.cif.g09.slc.cpg/sg2_130_cif.got.tgz:259832.got - 2010.06.27 13:26:56.
