data_PCOD8043479
_publ_section_title
;
Structure prediction by ZEFSAII (Michael W. Deem and Ramdas Pophale) SiO2 
 PCOD8043479
Probable space group: P -1
;
_chemical_formula_sum "Si O2"
_cell_formula_units_Z 14
_cell_length_a 18.384601
_cell_length_b 8.786216
_cell_length_c 9.732051
_cell_angle_alpha 148.578032
_cell_angle_beta 54.556697
_cell_angle_gamma 126.767027
_cell_volume 647.474631
_symmetry_space_group_name_H-M "P -1"
_symmetry_group_IT_number 2
_symmetry_cell_setting 'triclinic'
loop_
_space_group_symop_operation_xyz
x,y,z
-x,-y,-z
loop_
_atom_site_type_symbol
_atom_site_label
_atom_site_fract_x
_atom_site_fract_y
_atom_site_fract_z
Si Si1 0.685001 0.513998 0.226692
Si Si2 0.930151 0.113329 0.887384
Si Si3 0.398983 0.850675 0.711489
Si Si4 0.608996 0.095249 0.745230
Si Si5 0.022030 0.470583 0.611178
Si Si6 0.399518 0.490247 0.156927
Si Si7 0.115274 0.530117 0.017979
O O1 0.663659 0.403290 0.320329
O O2 0.793268 0.571539 0.122797
O O3 0.659157 0.826504 0.467029
O O4 0.627632 0.247268 0.989953
O O5 0.911220 0.755779 0.627425
O O6 0.963075 0.750470 0.172330
O O7 0.919520 0.224769 0.142657
O O8 0.863109 0.215193 0.929240
O O9 0.406553 0.693634 0.439049
O O10 0.500104 0.963376 0.751520
O O11 0.352117 0.136170 0.963806
O O12 0.650128 0.353167 0.784821
O O13 0.000000 0.500000 0.500000
O O14 0.925322 0.351434 0.707490
O O15 0.500000 0.500000 0.000000
#
# Coordination Sequence:
#
# PCOD8043479 Si02
#       7
#     2   2   2   2   2   2   2
#     4  12  24  36  59  88 124 146 197 250 282 341
#     4   9  20  38  63  79 113 151 193 222 288 351
#     4  11  21  39  61  86 113 159 200 237 284 352
#     4  11  22  38  59  85 118 158 191 241 299 334
#     4  10  19  36  63  87 110 143 192 234 283 340
#     4  10  20  39  63  79 111 156 203 233 287 355
#     4   9  23  37  61  83 115 155 191 227 293 337
#
# _framework density 21.622468999999999
#
# number of rings (size 3 to 8) (size 9 to 14) (size 15 to 20)
#    0.857    0.857    0.000    6.857    2.000    0.000 
#    0.000    4.286    0.000    0.000    0.000    0.000 
#    0.000    0.000    0.000    0.000    0.000    0.000 
#
# Total GULP energy -173509.121180 kJ/mol
# GULP energy per Si atom -12393.508656 kJ/mol
# Density = 2.157326 g / cm^3
# Si number density = 21.622469 Si / 1000 Ang^3
#
#
#
# Elastic Constant Matrix: (Units=GPa)
#
#
# Indices 1 2 3 4 5 6 
#
# 1 67.4607 -19.8045 -0.0349 -6.6334 -5.0924 38.5167
# 2 -19.8045 336.0119 225.7905 27.2089 -46.0094 -336.6426
# 3 -0.0349 225.7905 281.5497 27.1745 -39.7601 -228.9330
# 4 -6.6334 27.2089 27.1745 39.3072 -24.1441 -28.8735
# 5 -5.0924 -46.0094 -39.7601 -24.1441 37.7475 51.5054
# 6 38.5167 -336.6426 -228.9330 -28.8735 51.5054 372.0402
#
#
#
# Elastic Compliance Matrix: (Units=1/GPa)
#
#
# Indices 1 2 3 4 5 6 
#
# 1 0.021827 -0.009733 -0.002290 0.010626 0.014010 -0.013591
# 2 -0.009733 0.039060 -0.003649 -0.006084 -0.009039 0.034885
# 3 -0.002290 -0.003649 0.008123 -0.002183 -0.000005 0.001765
# 4 0.010626 -0.006084 -0.002183 0.047441 0.034379 -0.009026
# 5 0.014010 -0.009039 -0.000005 0.034379 0.060229 -0.015302
# 6 -0.013591 0.034885 0.001765 -0.009026 -0.015302 0.038165
#
#
# Mechanical properties :
#
#
# Convention : Reuss Voigt Hill
#
# Bulk Modulus (GPa) = 26.54930 121.88051 74.21490
# Shear Modulus (GPa) = 19.32414 121.75705 70.54059
#
# Velocity S-wave (km/s) = 2.99274 7.51217 5.71792
# Velocity P-wave (km/s) = 4.92414 11.47752 8.83121
#
# Compressibility (1/GPa) = 0.03766578
#
# Stress axis : x y z
#
# Youngs Moduli (GPa) = 45.81503 25.60150 123.10915
#
# Poissons Ratio (x) = 0.24918 0.28187
# Poissons Ratio (y) = 0.44593 0.44926
# Poissons Ratio (z) = 0.10490 0.09343
#
# Static dielectric constant tensor:
#      x y z
#    x 3.707330 -0.461140 -0.168650 
#    y -0.461140 3.908700 0.211060 
#    z -0.168650 0.211060 4.060180 
# 
# 
# High freq. dielectric constant tensor:
#      x y z
#    x 1.831510 -0.033760 -0.002140 
#    y -0.033760 1.829060 0.001710 
#    z -0.002140 0.001710 1.864600 
# 
# From -- ./inp_files/227547.got.cif
#   From: 2010.06.25/outbox.cif.g09.slc.cpg/sg2_114_cif.got.tgz:227547.got - 2010.06.27 13:26:56.
