data_PCOD8043419
_publ_section_title
;
Structure prediction by ZEFSAII (Michael W. Deem and Ramdas Pophale) SiO2 
 PCOD8043419
Probable space group: P -1
;
_chemical_formula_sum "Si O2"
_cell_formula_units_Z 16
_cell_length_a 8.618474
_cell_length_b 8.683257
_cell_length_c 18.140574
_cell_angle_alpha 56.034102
_cell_angle_beta 48.714794
_cell_angle_gamma 50.801264
_cell_volume 766.798325
_symmetry_space_group_name_H-M "P -1"
_symmetry_group_IT_number 2
_symmetry_cell_setting 'triclinic'
loop_
_space_group_symop_operation_xyz
x,y,z
-x,-y,-z
loop_
_atom_site_type_symbol
_atom_site_label
_atom_site_fract_x
_atom_site_fract_y
_atom_site_fract_z
Si Si1 0.539009 0.485315 0.578322
Si Si2 0.729254 0.791962 0.484846
Si Si3 0.481893 0.106675 0.714932
Si Si4 0.852049 0.942649 0.881448
Si Si5 0.706381 0.383126 0.237256
Si Si6 0.042338 0.256040 0.716559
Si Si7 0.379634 0.170333 0.890991
Si Si8 0.296264 0.299442 0.327137
O O1 0.500000 0.500000 0.500000
O O2 0.709710 0.585764 0.518022
O O3 0.627346 0.244226 0.636740
O O4 0.316818 0.600221 0.670494
O O5 0.913205 0.811483 0.366008
O O6 0.823137 0.748929 0.550545
O O7 0.500000 0.000000 0.500000
O O8 0.283248 0.214301 0.688562
O O9 0.365494 0.101005 0.830570
O O10 0.652182 0.878214 0.700887
O O11 0.037753 0.767545 0.821107
O O12 0.622690 0.021077 0.886293
O O13 0.820414 0.851789 0.993888
O O14 0.927634 0.123768 0.826899
O O15 0.649673 0.598180 0.158268
O O16 0.532765 0.298862 0.280501
O O17 0.870837 0.493027 0.715294
#
# Coordination Sequence:
#
# PCOD8043419 Si02
#       8
#     2   2   2   2   2   2   2   2
#     4  10  19  36  62  89 127 160 197 251 307 358
#     4  11  20  39  65  91 124 171 207 245 307 375
#     4  11  23  41  61  90 129 161 200 267 307 359
#     4  11  22  42  68  90 118 167 210 257 319 371
#     4  10  20  39  67  88 122 165 207 252 307 378
#     4  12  22  38  65  90 124 168 209 250 308 372
#     4  10  24  42  64  93 124 153 214 269 311 370
#     4  11  22  39  60  94 126 163 210 247 302 378
#
# _framework density 20.865984000000001
#
# number of rings (size 3 to 8) (size 9 to 14) (size 15 to 20)
#    0.000    1.250    5.000    1.500    0.000    2.500 
#    0.000    1.250    0.000    0.000    0.000    0.000 
#    0.000    0.000    0.000    0.000    0.000    0.000 
#
# Total GULP energy -198363.953948 kJ/mol
# GULP energy per Si atom -12397.747122 kJ/mol
# Density = 2.081849 g / cm^3
# Si number density = 20.865984 Si / 1000 Ang^3
#
#
#
# Elastic Constant Matrix: (Units=GPa)
#
#
# Indices 1 2 3 4 5 6 
#
# 1 27.3206 22.7266 16.0620 3.4035 3.5177 6.1977
# 2 22.7266 138.7418 47.4169 13.2347 7.8226 10.3837
# 3 16.0620 47.4169 136.9865 -3.8362 9.4298 11.2178
# 4 3.4035 13.2347 -3.8362 29.5670 0.4974 -1.8518
# 5 3.5177 7.8226 9.4298 0.4974 29.1767 1.3263
# 6 6.1977 10.3837 11.2178 -1.8518 1.3263 34.8659
#
#
#
# Elastic Compliance Matrix: (Units=1/GPa)
#
#
# Indices 1 2 3 4 5 6 
#
# 1 0.044847 -0.005499 -0.002811 -0.003365 -0.002716 -0.005505
# 2 -0.005499 0.009524 -0.002603 -0.004027 -0.000926 -0.001200
# 3 -0.002811 -0.002603 0.008838 0.002580 -0.001802 -0.001363
# 4 -0.003365 -0.004027 0.002580 0.036530 -0.000104 0.002911
# 5 -0.002716 -0.000926 -0.001802 -0.000104 0.035434 -0.000015
# 6 -0.005505 -0.001200 -0.001363 0.002911 -0.000015 0.030611
#
#
# Mechanical properties :
#
#
# Convention : Reuss Voigt Hill
#
# Bulk Modulus (GPa) = 24.16423 52.82888 38.49655
# Shear Modulus (GPa) = 24.82532 33.17816 29.00174
#
# Velocity S-wave (km/s) = 3.45302 3.99188 3.73219
# Velocity P-wave (km/s) = 5.24439 6.82788 6.08784
#
# Compressibility (1/GPa) = 0.04138349
#
# Stress axis : x y z
#
# Youngs Moduli (GPa) = 22.29779 104.99610 113.14203
#
# Poissons Ratio (x) = 0.57740 0.31808
# Poissons Ratio (y) = 0.12262 0.29447
# Poissons Ratio (z) = 0.06269 0.27327
#
# Static dielectric constant tensor:
#      x y z
#    x 3.456650 0.157730 0.095240 
#    y 0.157730 3.899870 -0.114530 
#    z 0.095240 -0.114530 4.206380 
# 
# 
# High freq. dielectric constant tensor:
#      x y z
#    x 1.783350 0.007440 0.006250 
#    y 0.007440 1.830780 -0.006770 
#    z 0.006250 -0.006770 1.830540 
# 
# From -- ./inp_files/201075.got.cif
#   From: 2010.06.25/outbox.cif.g09.slc.cpg/sg2_101_cif.got.tgz:201075.got - 2010.06.27 13:26:56.
