data_PCOD8043776
_publ_section_title
;
Structure prediction by ZEFSAII (Michael W. Deem and Ramdas Pophale) SiO2 
 PCOD8043776
Probable space group: P -1
;
_chemical_formula_sum "Si O2"
_cell_formula_units_Z 14
_cell_length_a 6.717836
_cell_length_b 19.191035
_cell_length_c 14.493200
_cell_angle_alpha 31.639206
_cell_angle_beta 114.139902
_cell_angle_gamma 93.081404
_cell_volume 705.247832
_symmetry_space_group_name_H-M "P -1"
_symmetry_group_IT_number 2
_symmetry_cell_setting 'triclinic'
loop_
_space_group_symop_operation_xyz
x,y,z
-x,-y,-z
loop_
_atom_site_type_symbol
_atom_site_label
_atom_site_fract_x
_atom_site_fract_y
_atom_site_fract_z
Si Si1 0.689070 0.658636 0.645399
Si Si2 0.266087 0.484699 0.000121
Si Si3 0.556678 0.134539 0.366278
Si Si4 0.203469 0.996844 0.257426
Si Si5 0.390870 0.724342 0.158768
Si Si6 0.609649 0.773006 0.962036
Si Si7 0.224864 0.485317 0.372777
O O1 0.731242 0.522631 0.879698
O O2 0.398900 0.838341 0.407509
O O3 0.662623 0.618893 0.581875
O O4 0.964916 0.647770 0.722961
O O5 0.311219 0.318565 0.154473
O O6 0.500000 0.500000 0.000000
O O7 0.801532 0.054900 0.578099
O O8 0.602412 0.168588 0.231228
O O9 0.500000 0.000000 0.500000
O O10 0.322825 0.099045 0.156810
O O11 0.886059 0.106385 0.040676
O O12 0.321063 0.600445 0.259468
O O13 0.636388 0.644235 0.369307
O O14 0.473230 0.769003 0.031885
O O15 0.896158 0.589233 0.201878
#
# Coordination Sequence:
#
# PCOD8043776 Si02
#       7
#     2   2   2   2   2   2   2
#     4  10  21  38  59  79 124 151 182 244 299 333
#     4  10  21  36  58  90 117 151 197 234 291 361
#     4   9  18  35  58  84 116 149 188 236 296 342
#     4   9  21  37  53  85 118 150 184 239 293 343
#     4  10  22  37  57  85 114 149 205 236 273 345
#     4  10  19  37  59  79 113 152 196 238 285 337
#     4  10  21  38  59  83 112 155 193 242 288 330
#
# _framework density 19.851175999999999
#
# number of rings (size 3 to 8) (size 9 to 14) (size 15 to 20)
#    0.000    2.286    1.429    0.429    2.000    3.429 
#    0.000    0.714    0.000    0.000    0.000    0.000 
#    0.000    0.000    0.000    0.000    0.000    0.000 
#
# Total GULP energy -173435.320985 kJ/mol
# GULP energy per Si atom -12388.237213 kJ/mol
# Density = 1.980599 g / cm^3
# Si number density = 19.851176 Si / 1000 Ang^3
#
#
#
# Elastic Constant Matrix: (Units=GPa)
#
#
# Indices 1 2 3 4 5 6 
#
# 1 95.5260 36.5566 41.5554 6.6604 2.4208 -18.1703
# 2 36.5566 99.1022 46.7622 -2.8508 1.4183 -23.9304
# 3 41.5554 46.7622 111.6016 -1.1243 5.8046 -10.8293
# 4 6.6604 -2.8508 -1.1243 30.0615 -11.1214 -1.6357
# 5 2.4208 1.4183 5.8046 -11.1214 24.0455 6.5785
# 6 -18.1703 -23.9304 -10.8293 -1.6357 6.5785 22.7145
#
#
#
# Elastic Compliance Matrix: (Units=1/GPa)
#
#
# Indices 1 2 3 4 5 6 
#
# 1 0.015073 -0.001413 -0.003807 -0.005158 -0.005641 0.010017
# 2 -0.001413 0.016600 -0.004785 0.001350 -0.003188 0.015097
# 3 -0.003807 -0.004785 0.012314 0.000091 -0.001803 -0.001687
# 4 -0.005158 0.001350 0.000091 0.042187 0.021532 -0.005858
# 5 -0.005641 -0.003188 -0.001803 0.021532 0.059410 -0.024386
# 6 0.010017 0.015097 -0.001687 -0.005858 -0.024386 0.073779
#
#
# Mechanical properties :
#
#
# Convention : Reuss Voigt Hill
#
# Bulk Modulus (GPa) = 41.70668 61.77537 51.74102
# Shear Modulus (GPa) = 20.21311 27.45466 23.83389
#
# Velocity S-wave (km/s) = 3.19444 3.72294 3.46877
# Velocity P-wave (km/s) = 5.88738 7.04749 6.49339
#
# Compressibility (1/GPa) = 0.02397697
#
# Stress axis : x y z
#
# Youngs Moduli (GPa) = 66.34377 60.24265 81.20781
#
# Poissons Ratio (x) = 0.08509 0.30918
# Poissons Ratio (y) = 0.09371 0.38858
# Poissons Ratio (z) = 0.25259 0.28826
#
# Static dielectric constant tensor:
#      x y z
#    x 3.369930 -0.159760 0.061300 
#    y -0.159760 3.564680 0.101910 
#    z 0.061300 0.101910 4.040810 
# 
# 
# High freq. dielectric constant tensor:
#      x y z
#    x 1.751730 -0.018160 0.003340 
#    y -0.018160 1.766560 0.004560 
#    z 0.003340 0.004560 1.786410 
# 
# From -- ./inp_files/37532.got.cif
#   From: 2010.06.25/outbox.cif.g09.slc.cpg/sg2_19_cif.got.tgz:37532.got - 2010.06.27 13:26:56.
