data_PCOD8043502
_publ_section_title
;
Structure prediction by ZEFSAII (Michael W. Deem and Ramdas Pophale) SiO2 
 PCOD8043502
Probable space group: P -1
;
_chemical_formula_sum "Si O2"
_cell_formula_units_Z 16
_cell_length_a 17.805102
_cell_length_b 20.506060
_cell_length_c 5.302660
_cell_angle_alpha 90.054886
_cell_angle_beta 107.390515
_cell_angle_gamma 28.254115
_cell_volume 712.051643
_symmetry_space_group_name_H-M "P -1"
_symmetry_group_IT_number 2
_symmetry_cell_setting 'triclinic'
loop_
_space_group_symop_operation_xyz
x,y,z
-x,-y,-z
loop_
_atom_site_type_symbol
_atom_site_label
_atom_site_fract_x
_atom_site_fract_y
_atom_site_fract_z
Si Si1 0.385010 0.231503 0.136466
Si Si2 0.802979 0.879063 0.053905
Si Si3 0.780111 0.050783 0.031687
Si Si4 0.195221 0.169208 0.444429
Si Si5 0.338223 0.206041 0.589400
Si Si6 0.461815 0.742410 0.710176
Si Si7 0.236470 0.692671 0.485920
Si Si8 0.370002 0.523095 0.119266
O O1 0.264073 0.302174 0.267215
O O2 0.406055 0.293026 0.157172
O O3 0.602992 0.029827 0.354955
O O4 0.263944 0.302084 0.763714
O O5 0.764262 0.985038 0.014331
O O6 0.926492 0.760168 0.425461
O O7 0.926506 0.759746 0.930012
O O8 0.583802 0.009210 0.835451
O O9 0.014000 0.895527 0.264555
O O10 0.676583 0.157601 0.179248
O O11 0.674219 0.159841 0.676936
O O12 0.234483 0.215351 0.484872
O O13 0.621893 0.560977 0.871793
O O14 0.252644 0.636221 0.251677
O O15 0.399629 0.625573 0.649869
O O16 0.253615 0.634935 0.751661
#
# Coordination Sequence:
#
# PCOD8043502 Si02
#       8
#     2   2   2   2   2   2   2   2
#     4  10  16  27  39  69 106 140 166 223 273 320
#     4  10  16  27  39  69 106 140 166 223 273 320
#     4  12  21  35  58  86 118 147 178 240 291 326
#     4  10  16  25  41  63 107 151 173 207 277 335
#     4  10  16  25  41  63 107 151 173 207 277 335
#     4  12  21  35  58  86 118 147 178 240 291 326
#     4  10  23  43  62  82 113 152 191 228 273 341
#     4  10  23  43  62  82 113 152 191 228 273 341
#
# _framework density 22.470279999999999
#
# number of rings (size 3 to 8) (size 9 to 14) (size 15 to 20)
#    0.000    1.500    5.000    5.250    0.000    1.000 
#    0.000    0.000    0.000    0.000    0.000    0.000 
#    0.000   34.000    0.000    0.000    0.000    0.000 
#
# Total GULP energy -198365.057445 kJ/mol
# GULP energy per Si atom -12397.816090 kJ/mol
# Density = 2.241914 g / cm^3
# Si number density = 22.470280 Si / 1000 Ang^3
#
#
#
# Elastic Constant Matrix: (Units=GPa)
#
#
# Indices 1 2 3 4 5 6 
#
# 1 53.1025 25.1814 17.6101 11.8161 -16.4893 24.4064
# 2 25.1814 70.5406 48.0305 41.3046 -24.1075 0.2851
# 3 17.6101 48.0305 93.0903 52.4332 -33.5144 -12.0307
# 4 11.8161 41.3046 52.4332 49.3742 -19.3465 -12.0315
# 5 -16.4893 -24.1075 -33.5144 -19.3465 19.2393 -2.7636
# 6 24.4064 0.2851 -12.0307 -12.0315 -2.7636 25.1806
#
#
#
# Elastic Compliance Matrix: (Units=1/GPa)
#
#
# Indices 1 2 3 4 5 6 
#
# 1 0.062696 -0.002936 -0.001650 -0.022217 0.014709 -0.070524
# 2 -0.002936 0.034945 0.004249 -0.025727 0.022028 -0.005394
# 3 -0.001650 0.004249 0.051315 -0.023506 0.072944 0.022843
# 4 -0.022217 -0.025727 -0.023506 0.084508 0.000078 0.050982
# 5 0.014709 0.022028 0.072944 0.000078 0.225819 0.045166
# 6 -0.070524 -0.005394 0.022843 0.050982 0.045166 0.148360
#
#
# Mechanical properties :
#
#
# Convention : Reuss Voigt Hill
#
# Bulk Modulus (GPa) = 6.74392 44.26415 25.50404
# Shear Modulus (GPa) = 7.60172 27.15292 17.37732
#
# Velocity S-wave (km/s) = 1.84129 3.47997 2.78393
# Velocity P-wave (km/s) = 2.74377 5.99071 4.65923
#
# Compressibility (1/GPa) = 0.14828172
#
# Stress axis : x y z
#
# Youngs Moduli (GPa) = 15.94999 28.61619 19.48734
#
# Poissons Ratio (x) = 0.08403 0.03216
# Poissons Ratio (y) = 0.04684 -0.08281
# Poissons Ratio (z) = 0.02632 -0.12160
#
# Static dielectric constant tensor:
#      x y z
#    x 4.009410 -0.317380 -0.469430 
#    y -0.317380 4.462660 1.292600 
#    z -0.469430 1.292600 4.983590 
# 
# 
# High freq. dielectric constant tensor:
#      x y z
#    x 1.885660 0.000360 -0.014560 
#    y 0.000360 1.868310 0.048910 
#    z -0.014560 0.048910 1.883020 
# 
# From -- ./inp_files/112407.got.cif
#   From: 2010.06.25/outbox.cif.g09.slc.cpg/sg2_57_cif.got.tgz:112407.got - 2010.06.27 13:26:56.
