data_PCOD8043515
_publ_section_title
;
Structure prediction by ZEFSAII (Michael W. Deem and Ramdas Pophale) SiO2 
 PCOD8043515
Probable space group: P -1
;
_chemical_formula_sum "Si O2"
_cell_formula_units_Z 16
_cell_length_a 5.326579
_cell_length_b 19.880162
_cell_length_c 7.343061
_cell_angle_alpha 83.372980
_cell_angle_beta 124.511672
_cell_angle_gamma 105.249350
_cell_volume 617.621892
_symmetry_space_group_name_H-M "P -1"
_symmetry_group_IT_number 2
_symmetry_cell_setting 'triclinic'
loop_
_space_group_symop_operation_xyz
x,y,z
-x,-y,-z
loop_
_atom_site_type_symbol
_atom_site_label
_atom_site_fract_x
_atom_site_fract_y
_atom_site_fract_z
Si Si1 0.028870 0.923224 0.364188
Si Si2 0.760261 0.781276 0.759058
Si Si3 0.295707 0.720459 0.265004
Si Si4 0.183238 0.226721 0.777413
Si Si5 0.750543 0.927371 0.640601
Si Si6 0.182764 0.574659 0.863845
Si Si7 0.164649 0.719452 0.713813
Si Si8 0.098818 0.423798 0.858968
O O1 0.382940 0.914417 0.547265
O O2 0.833039 0.855555 0.197663
O O3 0.818858 0.927101 0.453524
O O4 0.062811 0.995025 0.238922
O O5 0.543612 0.764286 0.494246
O O6 0.885381 0.865164 0.802324
O O7 0.543416 0.753867 0.857781
O O8 0.030767 0.740468 0.843871
O O9 0.465786 0.725150 0.134917
O O10 0.994664 0.755678 0.117191
O O11 0.170628 0.640730 0.309067
O O12 0.969644 0.247366 0.522783
O O13 0.106376 0.635885 0.688884
O O14 0.071092 0.498746 0.742946
O O15 0.559207 0.588536 0.045879
O O16 0.969617 0.574159 0.954786
#
# Coordination Sequence:
#
# PCOD8043515 Si02
#       8
#     2   2   2   2   2   2   2   2
#     4  10  16  25  41  65 102 133 154 180 219 278
#     4  10  17  30  45  74 104 123 149 187 235 289
#     4  10  18  30  49  68  96 126 149 191 242 278
#     4  10  17  30  45  74 104 123 149 187 235 289
#     4  10  16  25  41  65 102 133 154 180 219 278
#     4  10  21  37  53  69  90 120 162 204 236 273
#     4  10  18  30  49  68  96 126 149 191 242 278
#     4  10  21  37  53  69  90 120 162 204 236 273
#
# _framework density 25.905816999999999
#
# number of rings (size 3 to 8) (size 9 to 14) (size 15 to 20)
#    0.000    2.000    5.000    1.500    0.000    0.000 
#    0.000    5.000    0.000    0.000    0.000    0.000 
#    0.000   34.000    0.000    0.000    0.000    0.000 
#
# Total GULP energy -198255.896795 kJ/mol
# GULP energy per Si atom -12390.993550 kJ/mol
# Density = 2.584685 g / cm^3
# Si number density = 25.905817 Si / 1000 Ang^3
#
#
#
# Elastic Constant Matrix: (Units=GPa)
#
#
# Indices 1 2 3 4 5 6 
#
# 1 197.1747 35.5491 30.8438 -11.9885 17.8945 2.0154
# 2 35.5491 247.8329 17.5215 -10.2203 13.9264 0.0081
# 3 30.8438 17.5215 60.3461 -7.0417 15.7877 -0.6419
# 4 -11.9885 -10.2203 -7.0417 17.6113 2.8152 9.9906
# 5 17.8945 13.9264 15.7877 2.8152 35.2121 -0.4331
# 6 2.0154 0.0081 -0.6419 9.9906 -0.4331 42.1589
#
#
#
# Elastic Compliance Matrix: (Units=1/GPa)
#
#
# Indices 1 2 3 4 5 6 
#
# 1 0.005914 -0.000413 -0.001802 0.004201 -0.002386 -0.001330
# 2 -0.000413 0.004318 -0.000319 0.002715 -0.001579 -0.000646
# 3 -0.001802 -0.000319 0.021094 0.009608 -0.009208 -0.001964
# 4 0.004201 0.002715 0.009608 0.077874 -0.013972 -0.018653
# 5 -0.002386 -0.001579 -0.009208 -0.013972 0.035527 0.003650
# 6 -0.001330 -0.000646 -0.001964 -0.018653 0.003650 0.028211
#
#
# Mechanical properties :
#
#
# Convention : Reuss Voigt Hill
#
# Bulk Modulus (GPa) = 38.08682 74.79807 56.44244
# Shear Modulus (GPa) = 26.77244 47.09241 36.93242
#
# Velocity S-wave (km/s) = 3.21822 4.26823 3.77986
# Velocity P-wave (km/s) = 5.34259 7.29562 6.39411
#
# Compressibility (1/GPa) = 0.02625580
#
# Stress axis : x y z
#
# Youngs Moduli (GPa) = 169.09957 231.61045 47.40640
#
# Poissons Ratio (x) = 0.09577 0.08544
# Poissons Ratio (y) = 0.06992 0.01513
# Poissons Ratio (z) = 0.30476 0.07391
#
# Static dielectric constant tensor:
#      x y z
#    x 6.582390 -0.116400 0.349340 
#    y -0.116400 5.280400 0.003220 
#    z 0.349340 0.003220 4.236000 
# 
# 
# High freq. dielectric constant tensor:
#      x y z
#    x 2.091500 0.000210 0.011780 
#    y 0.000210 2.052740 -0.004370 
#    z 0.011780 -0.004370 2.012180 
# 
# From -- ./inp_files/104056.got.cif
#   From: 2010.06.25/outbox.cif.g09.slc.cpg/sg2_53_cif.got.tgz:104056.got - 2010.06.27 13:26:56.
