data_PCOD8043667
_publ_section_title
;
Structure prediction by ZEFSAII (Michael W. Deem and Ramdas Pophale) SiO2 
 PCOD8043667
Probable space group: P -1
;
_chemical_formula_sum "Si O2"
_cell_formula_units_Z 16
_cell_length_a 13.472103
_cell_length_b 13.768856
_cell_length_c 15.224432
_cell_angle_alpha 93.844822
_cell_angle_beta 83.207516
_cell_angle_gamma 21.173888
_cell_volume 880.408027
_symmetry_space_group_name_H-M "P -1"
_symmetry_group_IT_number 2
_symmetry_cell_setting 'triclinic'
loop_
_space_group_symop_operation_xyz
x,y,z
-x,-y,-z
loop_
_atom_site_type_symbol
_atom_site_label
_atom_site_fract_x
_atom_site_fract_y
_atom_site_fract_z
Si Si1 0.589154 0.766504 0.798867
Si Si2 0.766382 0.898343 0.631570
Si Si3 0.810921 0.092667 0.416691
Si Si4 0.797385 0.920509 0.306424
Si Si5 0.926641 0.194999 0.442304
Si Si6 0.689208 0.726863 0.962989
Si Si7 0.622306 0.831272 0.162575
Si Si8 0.593553 0.801224 0.483809
O O1 0.533981 0.795212 0.911933
O O2 0.913104 0.415717 0.715562
O O3 0.302100 0.994666 0.780782
O O4 0.632680 0.844174 0.796921
O O5 0.929274 0.851449 0.635249
O O6 0.028104 0.569462 0.585833
O O7 0.482029 0.138878 0.743668
O O8 0.601539 0.068312 0.565716
O O9 0.980848 0.040327 0.379520
O O10 0.438942 0.448911 0.482573
O O11 0.892811 0.943898 0.319007
O O12 0.919824 0.944948 0.486753
O O13 0.502023 0.157759 0.410572
O O14 0.047871 0.415951 0.874525
O O15 0.657800 0.724355 0.068513
O O16 0.500000 0.000000 0.000000
O O17 0.500000 0.000000 0.500000
#
# Coordination Sequence:
#
# PCOD8043667 Si02
#       8
#     2   2   2   2   2   2   2   2
#     4  11  21  34  54  78 107 141 180 217 258 322
#     4  12  22  36  54  78 107 145 182 220 261 311
#     4  10  20  35  55  73 106 143 183 225 258 305
#     4  12  20  34  52  77 109 147 178 212 261 315
#     4  10  19  37  54  75 102 143 187 225 259 299
#     4   9  20  38  57  75 104 139 180 226 268 308
#     4  10  21  37  56  79 107 139 180 226 266 310
#     4  12  24  35  46  76 116 152 177 203 256 318
#
# _framework density 18.173390999999999
#
# number of rings (size 3 to 8) (size 9 to 14) (size 15 to 20)
#    0.000    1.250    3.750    3.375    3.500    0.000 
#    0.000    0.000    0.000    0.000    0.000    1.750 
#    0.000    0.500    0.000    0.000    0.000    0.000 
#
# Total GULP energy -198224.146861 kJ/mol
# GULP energy per Si atom -12389.009179 kJ/mol
# Density = 1.813203 g / cm^3
# Si number density = 18.173391 Si / 1000 Ang^3
#
#
#
# Elastic Constant Matrix: (Units=GPa)
#
#
# Indices 1 2 3 4 5 6 
#
# 1 95.1404 11.8114 54.0585 -13.3852 16.3812 0.7799
# 2 11.8114 96.2216 30.5090 -5.8231 9.4005 -8.0581
# 3 54.0585 30.5090 72.8824 -0.0980 17.4002 0.5611
# 4 -13.3852 -5.8231 -0.0980 24.9454 -9.8768 7.7799
# 5 16.3812 9.4005 17.4002 -9.8768 21.6579 -6.0381
# 6 0.7799 -8.0581 0.5611 7.7799 -6.0381 22.7182
#
#
#
# Elastic Compliance Matrix: (Units=1/GPa)
#
#
# Indices 1 2 3 4 5 6 
#
# 1 0.022286 0.003501 -0.018465 0.014654 0.002164 -0.003511
# 2 0.003501 0.013060 -0.008430 0.004337 0.001443 0.003619
# 3 -0.018465 -0.008430 0.035832 -0.019193 -0.020506 -0.002119
# 4 0.014654 0.004337 -0.019193 0.064034 0.028041 -0.012967
# 5 0.002164 0.001443 -0.020506 0.028041 0.076420 0.011653
# 6 -0.003511 0.003619 -0.002119 -0.012967 0.011653 0.053012
#
#
# Mechanical properties :
#
#
# Convention : Reuss Voigt Hill
#
# Bulk Modulus (GPa) = 41.00258 50.77802 45.89030
# Shear Modulus (GPa) = 15.64634 25.05534 20.35084
#
# Velocity S-wave (km/s) = 2.93737 3.71709 3.34999
# Velocity P-wave (km/s) = 5.84081 6.81351 6.34582
#
# Compressibility (1/GPa) = 0.02438871
#
# Stress axis : x y z
#
# Youngs Moduli (GPa) = 44.87116 76.56684 27.90816
#
# Poissons Ratio (x) = -0.26803 0.51533
# Poissons Ratio (y) = -0.15708 0.23527
# Poissons Ratio (z) = 0.82856 0.64547
#
# Static dielectric constant tensor:
#      x y z
#    x 3.466840 -0.151810 0.437920 
#    y -0.151810 3.380320 -0.231330 
#    z 0.437920 -0.231330 3.753730 
# 
# 
# High freq. dielectric constant tensor:
#      x y z
#    x 1.674420 -0.006040 0.031060 
#    y -0.006040 1.731850 -0.001630 
#    z 0.031060 -0.001630 1.677160 
# 
# From -- ./inp_files/533764.got.cif
#   From: 2010.06.25/outbox.cif.g09.slc.cpg/sg2_267_cif.got.tgz:533764.got - 2010.06.27 13:26:56.
