data_PCOD8043949
_publ_section_title
;
Structure prediction by ZEFSAII (Michael W. Deem and Ramdas Pophale) SiO2 
 PCOD8043949
Probable space group: P -1
;
_chemical_formula_sum "Si O2"
_cell_formula_units_Z 14
_cell_length_a 16.925217
_cell_length_b 19.664808
_cell_length_c 8.670711
_cell_angle_alpha 131.925916
_cell_angle_beta 38.814706
_cell_angle_gamma 158.251857
_cell_volume 650.787987
_symmetry_space_group_name_H-M "P -1"
_symmetry_group_IT_number 2
_symmetry_cell_setting 'triclinic'
loop_
_space_group_symop_operation_xyz
x,y,z
-x,-y,-z
loop_
_atom_site_type_symbol
_atom_site_label
_atom_site_fract_x
_atom_site_fract_y
_atom_site_fract_z
Si Si1 0.725886 0.774440 0.248813
Si Si2 0.320951 0.187795 0.961340
Si Si3 0.064303 0.738477 0.226155
Si Si4 0.359596 0.666089 0.820010
Si Si5 0.400717 0.422994 0.361248
Si Si6 0.426111 0.903331 0.160304
Si Si7 0.289408 0.682375 0.274397
O O1 0.630819 0.743849 0.178583
O O2 0.619358 0.778218 0.542755
O O3 0.610221 0.601090 0.196735
O O4 0.034727 0.965444 0.081198
O O5 0.516760 0.226813 0.747747
O O6 0.374131 0.300156 0.175806
O O7 0.213234 0.839800 0.319689
O O8 0.893074 0.537450 0.185986
O O9 0.882149 0.710516 0.435483
O O10 0.279921 0.872029 0.962804
O O11 0.397297 0.797414 0.926130
O O12 0.319178 0.627932 0.008035
O O13 0.500000 0.500000 0.500000
O O14 0.366690 0.833189 0.320023
O O15 0.000000 0.500000 0.500000
#
# Coordination Sequence:
#
# PCOD8043949 Si02
#       7
#     2   2   2   2   2   2   2
#     4  10  23  40  65  93 119 170 200 254 310 355
#     4  11  23  42  62  92 131 155 208 255 303 368
#     4  10  19  37  61  90 117 154 209 244 298 367
#     4   9  20  38  63  88 118 160 202 248 303 365
#     4  11  24  38  65  93 124 161 205 256 305 364
#     4   9  21  36  60  89 118 159 200 252 299 357
#     4  10  24  40  62  89 124 161 198 256 306 358
#
# _framework density 21.512383
#
# number of rings (size 3 to 8) (size 9 to 14) (size 15 to 20)
#    0.857    1.143    0.000    3.429    6.000    1.143 
#    0.000    2.143    0.000    0.000    0.000    0.000 
#    0.000    0.000    0.000    0.000    0.000    0.000 
#
# Total GULP energy -173515.634285 kJ/mol
# GULP energy per Si atom -12393.973877 kJ/mol
# Density = 2.146342 g / cm^3
# Si number density = 21.512383 Si / 1000 Ang^3
#
#
#
# Elastic Constant Matrix: (Units=GPa)
#
#
# Indices 1 2 3 4 5 6 
#
# 1 153.0545 39.3911 44.3796 -34.8219 -5.8294 11.5118
# 2 39.3911 67.3033 20.2899 -30.3126 -0.8442 3.6205
# 3 44.3796 20.2899 83.0564 -25.9943 2.8867 14.3119
# 4 -34.8219 -30.3126 -25.9943 42.8368 -0.2608 1.9338
# 5 -5.8294 -0.8442 2.8867 -0.2608 34.9178 -8.1732
# 6 11.5118 3.6205 14.3119 1.9338 -8.1732 26.8442
#
#
#
# Elastic Compliance Matrix: (Units=1/GPa)
#
#
# Indices 1 2 3 4 5 6 
#
# 1 0.009087 -0.002562 -0.002642 0.004071 0.001221 -0.002064
# 2 -0.002562 0.022997 0.001180 0.015080 -0.000783 -0.003957
# 3 -0.002642 0.001180 0.018442 0.010345 -0.004423 -0.010950
# 4 0.004071 0.015080 0.010345 0.044186 -0.002586 -0.013266
# 5 0.001221 -0.000783 -0.004423 -0.002586 0.031944 0.011852
# 6 -0.002064 -0.003957 -0.010950 -0.013266 0.011852 0.049073
#
#
# Mechanical properties :
#
#
# Convention : Reuss Voigt Hill
#
# Bulk Modulus (GPa) = 23.54194 56.83725 40.18959
# Shear Modulus (GPa) = 25.26043 34.21001 29.73522
#
# Velocity S-wave (km/s) = 3.43042 3.99212 3.72188
# Velocity P-wave (km/s) = 5.16310 6.90850 6.09856
#
# Compressibility (1/GPa) = 0.04247738
#
# Stress axis : x y z
#
# Youngs Moduli (GPa) = 110.04563 43.48396 54.22385
#
# Poissons Ratio (x) = 0.11140 0.14327
# Poissons Ratio (y) = 0.28193 -0.06397
# Poissons Ratio (z) = 0.29076 -0.05130
#
# Static dielectric constant tensor:
#      x y z
#    x 3.880680 -0.079120 0.015490 
#    y -0.079120 3.760990 -0.186260 
#    z 0.015490 -0.186260 3.643040 
# 
# 
# High freq. dielectric constant tensor:
#      x y z
#    x 1.852860 -0.005340 -0.003750 
#    y -0.005340 1.841120 -0.024250 
#    z -0.003750 -0.024250 1.824730 
# 
# From -- ./inp_files/337781.got.cif
#   From: 2010.06.25/outbox.cif.g09.slc.cpg/sg2_169_cif.got.tgz:337781.got - 2010.06.27 13:26:56.
