data_PCOD8043154
_publ_section_title
;
Structure prediction by ZEFSAII (Michael W. Deem and Ramdas Pophale) SiO2 
 PCOD8043154
Probable space group: P -1
;
_chemical_formula_sum "Si O2"
_cell_formula_units_Z 12
_cell_length_a 8.434116
_cell_length_b 13.642562
_cell_length_c 9.887190
_cell_angle_alpha 111.648640
_cell_angle_beta 126.833194
_cell_angle_gamma 40.894997
_cell_volume 588.363454
_symmetry_space_group_name_H-M "P -1"
_symmetry_group_IT_number 2
_symmetry_cell_setting 'triclinic'
loop_
_space_group_symop_operation_xyz
x,y,z
-x,-y,-z
loop_
_atom_site_type_symbol
_atom_site_label
_atom_site_fract_x
_atom_site_fract_y
_atom_site_fract_z
Si Si1 0.609075 0.954179 0.380621
Si Si2 0.673739 0.507516 0.994561
Si Si3 0.727281 0.408290 0.686235
Si Si4 0.345580 0.228877 0.188443
Si Si5 0.328423 0.252389 0.886351
Si Si6 0.157508 0.830522 0.511408
O O1 0.539825 0.869003 0.228641
O O2 0.950973 0.841474 0.510281
O O3 0.500000 0.000000 0.500000
O O4 0.461342 0.098624 0.285554
O O5 0.562118 0.669980 0.036056
O O6 0.013259 0.372655 0.122442
O O7 0.500000 0.500000 0.000000
O O8 0.587747 0.495728 0.798897
O O9 0.500000 0.500000 0.500000
O O10 0.827705 0.245707 0.657647
O O11 0.986612 0.386452 0.771307
O O12 0.522535 0.270955 0.321185
O O13 0.402746 0.175531 0.033819
O O14 0.000000 0.000000 0.500000
#
# Coordination Sequence:
#
# PCOD8043154 Si02
#       6
#     2   2   2   2   2   2
#     4  10  22  38  60  92 118 144 192 247 290 333
#     4  11  24  38  57  89 118 150 196 246 289 330
#     4  10  19  36  59  81 111 153 193 229 280 350
#     4  10  20  40  62  83 116 159 192 228 287 357
#     4  10  21  39  59  82 117 158 193 229 288 357
#     4   9  19  35  58  83 111 150 190 225 278 347
#
# _framework density 20.395557
#
# number of rings (size 3 to 8) (size 9 to 14) (size 15 to 20)
#    0.000    2.000    0.000    4.500    0.000    8.000 
#    0.000    4.167    0.000    0.000    0.000    0.000 
#    0.000    0.000    0.000    0.000    0.000    0.000 
#
# Total GULP energy -148668.482584 kJ/mol
# GULP energy per Si atom -12389.040215 kJ/mol
# Density = 2.034914 g / cm^3
# Si number density = 20.395557 Si / 1000 Ang^3
#
#
#
# Elastic Constant Matrix: (Units=GPa)
#
#
# Indices 1 2 3 4 5 6 
#
# 1 135.2057 56.1229 88.9617 18.1392 -7.0162 2.5418
# 2 56.1229 82.6269 58.6133 21.6669 -5.4720 8.8585
# 3 88.9617 58.6133 155.3773 20.4126 -4.5422 -2.3913
# 4 18.1392 21.6669 20.4126 51.7294 -3.6970 4.9490
# 5 -7.0162 -5.4720 -4.5422 -3.6970 37.7398 -0.5804
# 6 2.5418 8.8585 -2.3913 4.9490 -0.5804 30.4504
#
#
#
# Elastic Compliance Matrix: (Units=1/GPa)
#
#
# Indices 1 2 3 4 5 6 
#
# 1 0.013230 -0.004783 -0.005701 -0.000302 0.001049 -0.000091
# 2 -0.004783 0.020233 -0.004348 -0.004525 0.001000 -0.005074
# 3 -0.005701 -0.004348 0.011506 -0.001014 -0.000362 0.002802
# 4 -0.000302 -0.004525 -0.001014 0.022044 0.001290 -0.002296
# 5 0.001049 0.001000 -0.000362 0.001290 0.026918 -0.000103
# 6 -0.000091 -0.005074 0.002802 -0.002296 -0.000103 0.034915
#
#
# Mechanical properties :
#
#
# Convention : Reuss Voigt Hill
#
# Bulk Modulus (GPa) = 65.34631 86.73397 76.04014
# Shear Modulus (GPa) = 30.55992 35.28471 32.92231
#
# Velocity S-wave (km/s) = 3.87507 4.16386 4.02206
# Velocity P-wave (km/s) = 7.22015 8.10773 7.67678
#
# Compressibility (1/GPa) = 0.01530308
#
# Stress axis : x y z
#
# Youngs Moduli (GPa) = 75.58820 49.42524 86.90866
#
# Poissons Ratio (x) = 0.23641 0.49550
# Poissons Ratio (y) = 0.36155 0.37790
# Poissons Ratio (z) = 0.43095 0.21491
#
# Static dielectric constant tensor:
#      x y z
#    x 3.681660 -0.019320 0.465910 
#    y -0.019320 4.081830 0.349200 
#    z 0.465910 0.349200 4.313160 
# 
# 
# High freq. dielectric constant tensor:
#      x y z
#    x 1.777620 0.003770 0.024200 
#    y 0.003770 1.804600 0.010470 
#    z 0.024200 0.010470 1.808670 
# 
# From -- ./inp_files/156850.got.cif
#   From: 2010.06.25/outbox.cif.g09.slc.cpg/sg2_79_cif.got.tgz:156850.got - 2010.06.27 13:26:56.
