data_PCOD8043457
_publ_section_title
;
Structure prediction by ZEFSAII (Michael W. Deem and Ramdas Pophale) SiO2 
 PCOD8043457
Probable space group: P -1
;
_chemical_formula_sum "Si O2"
_cell_formula_units_Z 14
_cell_length_a 17.343989
_cell_length_b 17.722992
_cell_length_c 11.110979
_cell_angle_alpha 136.914572
_cell_angle_beta 30.606489
_cell_angle_gamma 157.657138
_cell_volume 621.749175
_symmetry_space_group_name_H-M "P -1"
_symmetry_group_IT_number 2
_symmetry_cell_setting 'triclinic'
loop_
_space_group_symop_operation_xyz
x,y,z
-x,-y,-z
loop_
_atom_site_type_symbol
_atom_site_label
_atom_site_fract_x
_atom_site_fract_y
_atom_site_fract_z
Si Si1 0.156610 0.797835 0.364797
Si Si2 0.719428 0.797458 0.995990
Si Si3 0.738763 0.909440 0.541480
Si Si4 0.719356 0.025994 0.928459
Si Si5 0.299429 0.980458 0.775483
Si Si6 0.188193 0.332310 0.105460
Si Si7 0.877113 0.545444 0.217202
O O1 0.003273 0.714807 0.601131
O O2 0.905589 0.611249 0.390153
O O3 0.318781 0.009964 0.353635
O O4 0.398625 0.854940 0.113000
O O5 0.796063 0.786084 0.007536
O O6 0.504247 0.581785 0.962329
O O7 0.994190 0.985120 0.758228
O O8 0.589521 0.840711 0.239201
O O9 0.456989 0.657620 0.610898
O O10 0.809306 0.977202 0.667453
O O11 0.940137 0.265195 0.899000
O O12 0.702632 0.986348 0.044392
O O13 0.970142 0.754757 0.911408
O O14 0.500000 0.000000 0.500000
O O15 0.000000 0.500000 0.000000
#
# Coordination Sequence:
#
# PCOD8043457 Si02
#       7
#     2   2   2   2   2   2   2
#     4  10  19  36  62  96 128 159 218 272 316 379
#     4  10  25  45  69  93 129 180 224 269 325 388
#     4  10  21  40  64  93 128 167 220 271 315 385
#     4  11  22  38  60  98 132 161 211 273 326 385
#     4  12  26  43  66  98 139 174 214 271 335 393
#     4  10  23  46  69  95 130 175 227 268 320 395
#     4  11  19  34  65  96 125 173 217 262 326 381
#
# _framework density 22.517118
#
# number of rings (size 3 to 8) (size 9 to 14) (size 15 to 20)
#    0.000    1.429    4.286    1.286    0.000   10.286 
#    0.000    1.429    0.000    0.000    0.000    0.000 
#    0.000    0.000    0.000    0.000    0.000    0.000 
#
# Total GULP energy -173578.068900 kJ/mol
# GULP energy per Si atom -12398.433493 kJ/mol
# Density = 2.246587 g / cm^3
# Si number density = 22.517118 Si / 1000 Ang^3
#
#
#
# Elastic Constant Matrix: (Units=GPa)
#
#
# Indices 1 2 3 4 5 6 
#
# 1 102.5795 28.6133 37.2015 1.7389 -6.7020 16.5204
# 2 28.6133 116.6502 34.0749 -12.7820 -12.1363 4.6126
# 3 37.2015 34.0749 77.8129 -2.4028 -8.5887 -4.0047
# 4 1.7389 -12.7820 -2.4028 34.7217 -3.4986 -3.9839
# 5 -6.7020 -12.1363 -8.5887 -3.4986 35.9979 8.2498
# 6 16.5204 4.6126 -4.0047 -3.9839 8.2498 31.8102
#
#
#
# Elastic Compliance Matrix: (Units=1/GPa)
#
#
# Indices 1 2 3 4 5 6 
#
# 1 0.014055 -0.001217 -0.006444 -0.002366 0.002472 -0.008872
# 2 -0.001217 0.010812 -0.003758 0.003911 0.003309 -0.001778
# 3 -0.006444 -0.003758 0.017979 0.000939 0.000507 0.006141
# 4 -0.002366 0.003911 0.000939 0.031192 0.003253 0.003843
# 5 0.002472 0.003309 0.000507 0.003253 0.031990 -0.009589
# 6 -0.008872 -0.001778 0.006141 0.003843 -0.009589 0.040043
#
#
# Mechanical properties :
#
#
# Convention : Reuss Voigt Hill
#
# Bulk Modulus (GPa) = 49.97860 55.20242 52.59051
# Shear Modulus (GPa) = 28.47733 33.64952 31.06342
#
# Velocity S-wave (km/s) = 3.56012 3.86994 3.71825
# Velocity P-wave (km/s) = 6.25646 6.67364 6.46841
#
# Compressibility (1/GPa) = 0.02000856
#
# Stress axis : x y z
#
# Youngs Moduli (GPa) = 71.14805 92.48929 55.62104
#
# Poissons Ratio (x) = 0.11252 0.35840
# Poissons Ratio (y) = 0.08656 0.20905
# Poissons Ratio (z) = 0.45845 0.34762
#
# Static dielectric constant tensor:
#      x y z
#    x 3.919670 0.164780 -0.041270 
#    y 0.164780 4.208950 0.026330 
#    z -0.041270 0.026330 4.051580 
# 
# 
# High freq. dielectric constant tensor:
#      x y z
#    x 1.871140 0.014710 -0.001140 
#    y 0.014710 1.892290 0.005500 
#    z -0.001140 0.005500 1.886050 
# 
# From -- ./inp_files/81476.got.cif
#   From: 2010.06.25/outbox.cif.g09.slc.cpg/sg2_41_cif.got.tgz:81476.got - 2010.06.27 13:26:56.
