data_PCOD8043041
_publ_section_title
;
Structure prediction by ZEFSAII (Michael W. Deem and Ramdas Pophale) SiO2 
 PCOD8043041
Probable space group: P -1
;
_chemical_formula_sum "Si O2"
_cell_formula_units_Z 10
_cell_length_a 23.431303
_cell_length_b 11.635925
_cell_length_c 5.195790
_cell_angle_alpha 83.758103
_cell_angle_beta 85.207598
_cell_angle_gamma 155.955581
_cell_volume 511.979131
_symmetry_space_group_name_H-M "P -1"
_symmetry_group_IT_number 2
_symmetry_cell_setting 'triclinic'
loop_
_space_group_symop_operation_xyz
x,y,z
-x,-y,-z
loop_
_atom_site_type_symbol
_atom_site_label
_atom_site_fract_x
_atom_site_fract_y
_atom_site_fract_z
Si Si1 0.434287 0.232227 0.830040
Si Si2 0.093408 0.009791 0.899504
Si Si3 0.371041 0.375378 0.843124
Si Si4 0.778707 0.385993 0.938923
Si Si5 0.809635 0.569503 0.374095
O O1 0.351594 0.200921 0.894635
O O2 0.516058 0.371561 0.490184
O O3 0.561160 0.452829 0.953613
O O4 0.298045 0.882860 0.994680
O O5 0.198479 0.103238 0.940938
O O6 0.203096 0.315133 0.655682
O O7 0.967639 0.723499 0.809825
O O8 0.995171 0.882935 0.204237
O O9 0.736403 0.384596 0.709279
O O10 0.714297 0.333193 0.228004
#
# Coordination Sequence:
#
# PCOD8043041 Si02
#       5
#     2   2   2   2   2
#     4  10  22  39  54  79 113 138 181 220 271 308
#     4   9  21  35  61  77 109 141 185 209 272 315
#     4  10  22  38  57  77 108 149 173 221 268 323
#     4  10  19  36  57  79 111 139 175 229 257 313
#     4   9  20  34  58  81 110 136 177 225 264 312
#
# _framework density 19.532048
#
# number of rings (size 3 to 8) (size 9 to 14) (size 15 to 20)
#    1.200    1.200    0.000    1.800    2.800    0.800 
#    0.000    7.000    0.000    0.000    0.000    0.000 
#    0.000    0.000    0.000    0.000    0.000    0.000 
#
# Total GULP energy -123959.793548 kJ/mol
# GULP energy per Si atom -12395.979355 kJ/mol
# Density = 1.948759 g / cm^3
# Si number density = 19.532048 Si / 1000 Ang^3
#
#
#
# Elastic Constant Matrix: (Units=GPa)
#
#
# Indices 1 2 3 4 5 6 
#
# 1 49.8162 27.7114 15.3280 -4.7387 14.6883 -8.3223
# 2 27.7114 74.4979 28.7703 6.8093 22.4097 -22.5643
# 3 15.3280 28.7703 71.2333 20.7190 31.1089 -4.7796
# 4 -4.7387 6.8093 20.7190 29.0562 0.6902 11.6218
# 5 14.6883 22.4097 31.1089 0.6902 28.8901 -9.3451
# 6 -8.3223 -22.5643 -4.7796 11.6218 -9.3451 28.5283
#
#
#
# Elastic Compliance Matrix: (Units=1/GPa)
#
#
# Indices 1 2 3 4 5 6 
#
# 1 0.029134 -0.011898 -0.004549 0.014400 -0.003878 -0.008811
# 2 -0.011898 0.029791 0.004133 -0.021753 -0.012751 0.025470
# 3 -0.004549 0.004133 0.043295 -0.035242 -0.043681 0.009243
# 4 0.014400 -0.021753 -0.035242 0.083188 0.031806 -0.042380
# 5 -0.003878 -0.012751 -0.043681 0.031806 0.092351 -0.001240
# 6 -0.008811 0.025470 0.009243 -0.042380 -0.001240 0.071035
#
#
# Mechanical properties :
#
#
# Convention : Reuss Voigt Hill
#
# Bulk Modulus (GPa) = 12.88819 37.68521 25.28670
# Shear Modulus (GPa) = 12.52228 25.54412 19.03320
#
# Velocity S-wave (km/s) = 2.53477 3.62028 3.12502
# Velocity P-wave (km/s) = 3.89610 6.06722 5.09857
#
# Compressibility (1/GPa) = 0.07759040
#
# Stress axis : x y z
#
# Youngs Moduli (GPa) = 34.32461 33.56666 23.09714
#
# Poissons Ratio (x) = 0.39939 0.10508
# Poissons Ratio (y) = 0.40841 -0.09545
# Poissons Ratio (z) = 0.15615 -0.13872
#
# Static dielectric constant tensor:
#      x y z
#    x 3.391290 -0.106160 0.169450 
#    y -0.106160 3.389470 0.212130 
#    z 0.169450 0.212130 3.401190 
# 
# 
# High freq. dielectric constant tensor:
#      x y z
#    x 1.751430 -0.010530 0.019380 
#    y -0.010530 1.753210 0.016660 
#    z 0.019380 0.016660 1.752040 
# 
# From -- ./inp_files/491.got.cif
#   From: 2010.06.25/outbox.cif.g09.slc.cpg/sg2_1_cif.got.tgz:491.got - 2010.06.27 13:26:56.
