data_PCOD8043354
_publ_section_title
;
Structure prediction by ZEFSAII (Michael W. Deem and Ramdas Pophale) SiO2 
 PCOD8043354
Probable space group: P -1
;
_chemical_formula_sum "Si O2"
_cell_formula_units_Z 16
_cell_length_a 13.978826
_cell_length_b 14.293408
_cell_length_c 12.740159
_cell_angle_alpha 99.461683
_cell_angle_beta 51.709719
_cell_angle_gamma 143.355234
_cell_volume 839.284569
_symmetry_space_group_name_H-M "P -1"
_symmetry_group_IT_number 2
_symmetry_cell_setting 'triclinic'
loop_
_space_group_symop_operation_xyz
x,y,z
-x,-y,-z
loop_
_atom_site_type_symbol
_atom_site_label
_atom_site_fract_x
_atom_site_fract_y
_atom_site_fract_z
Si Si1 0.296827 0.929104 0.067625
Si Si2 0.183408 0.174303 0.765235
Si Si3 0.381409 0.504800 0.017591
Si Si4 0.545780 0.135268 0.725225
Si Si5 0.092368 0.916836 0.874712
Si Si6 0.834354 0.971019 0.763543
Si Si7 0.878707 0.557190 0.633473
Si Si8 0.186330 0.366414 0.515924
O O1 0.329966 0.936779 0.921463
O O2 0.385268 0.101204 0.061316
O O3 0.500000 0.000000 0.000000
O O4 0.976260 0.689032 0.289852
O O5 0.498521 0.434929 0.621164
O O6 0.179691 0.057803 0.757403
O O7 0.079136 0.124164 0.711404
O O8 0.965169 0.071854 0.973840
O O9 0.211134 0.452418 0.202272
O O10 0.182022 0.332837 0.026042
O O11 0.500000 0.500000 0.000000
O O12 0.648358 0.746996 0.825346
O O13 0.705713 0.338469 0.702094
O O14 0.781526 0.223161 0.549125
O O15 0.357371 0.031417 0.732874
O O16 0.014981 0.144620 0.575181
O O17 0.805105 0.570444 0.586035
#
# Coordination Sequence:
#
# PCOD8043354 Si02
#       8
#     2   2   2   2   2   2   2   2
#     4  10  19  36  61  90 112 150 193 248 290 342
#     4  11  19  37  57  92 113 152 202 243 290 346
#     4  12  23  39  58  86 122 164 190 239 299 350
#     4  11  20  38  62  88 112 154 201 246 288 340
#     4  11  22  34  62  83 124 152 196 248 290 343
#     4  10  21  37  60  84 121 150 192 241 297 348
#     4  11  21  36  62  88 113 151 206 240 285 355
#     4  10  20  32  62  85 117 144 193 252 285 343
#
# _framework density 19.063856000000001
#
# number of rings (size 3 to 8) (size 9 to 14) (size 15 to 20)
#    0.750    0.500    6.250    1.125    0.000    0.500 
#    0.000    2.500    2.750    1.500    0.000    0.000 
#    0.000    0.000    0.000    0.000    0.000    0.000 
#
# Total GULP energy -198255.329141 kJ/mol
# GULP energy per Si atom -12390.958071 kJ/mol
# Density = 1.902047 g / cm^3
# Si number density = 19.063856 Si / 1000 Ang^3
#
#
#
# Elastic Constant Matrix: (Units=GPa)
#
#
# Indices 1 2 3 4 5 6 
#
# 1 100.9488 17.9948 9.2367 -7.3275 -11.3298 4.4954
# 2 17.9948 66.2702 4.8615 -15.1251 -5.1393 1.0392
# 3 9.2367 4.8615 56.1821 -10.8845 3.4905 -3.5388
# 4 -7.3275 -15.1251 -10.8845 27.0236 2.3391 1.5864
# 5 -11.3298 -5.1393 3.4905 2.3391 31.1764 -7.2026
# 6 4.4954 1.0392 -3.5388 1.5864 -7.2026 25.3589
#
#
#
# Elastic Compliance Matrix: (Units=1/GPa)
#
#
# Indices 1 2 3 4 5 6 
#
# 1 0.010987 -0.002410 -0.001752 0.000692 0.003474 -0.001150
# 2 -0.002410 0.017987 0.000590 0.009577 0.001192 -0.000488
# 3 -0.001752 0.000590 0.019883 0.008020 -0.002971 0.001715
# 4 0.000692 0.009577 0.008020 0.046256 -0.003283 -0.003222
# 5 0.003474 0.001192 -0.002971 -0.003283 0.036293 0.009434
# 6 -0.001150 -0.000488 0.001715 -0.003222 0.009434 0.042778
#
#
# Mechanical properties :
#
#
# Convention : Reuss Voigt Hill
#
# Bulk Modulus (GPa) = 23.97293 31.95413 27.96353
# Shear Modulus (GPa) = 25.61065 29.46565 27.53815
#
# Velocity S-wave (km/s) = 3.66924 3.93571 3.80481
# Velocity P-wave (km/s) = 5.52752 6.11973 5.83115
#
# Compressibility (1/GPa) = 0.04171372
#
# Stress axis : x y z
#
# Youngs Moduli (GPa) = 91.01505 55.59696 50.29506
#
# Poissons Ratio (x) = 0.13397 0.08813
# Poissons Ratio (y) = 0.21931 -0.02969
# Poissons Ratio (z) = 0.15947 -0.03282
#
# Static dielectric constant tensor:
#      x y z
#    x 3.703070 -0.133100 -0.002750 
#    y -0.133100 3.163520 -0.178920 
#    z -0.002750 -0.178920 3.717110 
# 
# 
# High freq. dielectric constant tensor:
#      x y z
#    x 1.760780 -0.005400 -0.001790 
#    y -0.005400 1.697000 -0.018360 
#    z -0.001790 -0.018360 1.744240 
# 
# From -- ./inp_files/401776.got.cif
#   From: 2010.06.25/outbox.cif.g09.slc.cpg/sg2_201_cif.got.tgz:401776.got - 2010.06.27 13:26:56.
