data_PCOD8043489
_publ_section_title
;
Structure prediction by ZEFSAII (Michael W. Deem and Ramdas Pophale) SiO2 
 PCOD8043489
Probable space group: P -1
;
_chemical_formula_sum "Si O2"
_cell_formula_units_Z 16
_cell_length_a 26.372416
_cell_length_b 9.720428
_cell_length_c 5.126363
_cell_angle_alpha 92.778299
_cell_angle_beta 66.163422
_cell_angle_gamma 134.260956
_cell_volume 804.287586
_symmetry_space_group_name_H-M "P -1"
_symmetry_group_IT_number 2
_symmetry_cell_setting 'triclinic'
loop_
_space_group_symop_operation_xyz
x,y,z
-x,-y,-z
loop_
_atom_site_type_symbol
_atom_site_label
_atom_site_fract_x
_atom_site_fract_y
_atom_site_fract_z
Si Si1 0.183669 0.077561 0.810962
Si Si2 0.977644 0.369583 0.783723
Si Si3 0.420415 0.731779 0.870109
Si Si4 0.903192 0.799367 0.115719
Si Si5 0.476089 0.127083 0.834553
Si Si6 0.445921 0.367686 0.849479
Si Si7 0.063880 0.242996 0.456933
Si Si8 0.290736 0.275338 0.109749
O O1 0.139154 0.142429 0.899294
O O2 0.219258 0.114055 0.452923
O O3 0.256258 0.207053 0.882903
O O4 0.119591 0.841051 0.006455
O O5 0.000000 0.500000 0.500000
O O6 0.023900 0.308907 0.654065
O O7 0.000000 0.500000 0.000000
O O8 0.450316 0.750749 0.518397
O O9 0.413254 0.882839 0.929972
O O10 0.484892 0.789487 0.950934
O O11 0.330717 0.500236 0.087045
O O12 0.869098 0.682824 0.455262
O O13 0.890417 0.655779 0.908405
O O14 0.000000 0.000000 0.000000
O O15 0.422567 0.163274 0.888346
O O16 0.500000 0.500000 0.500000
O O17 0.500000 0.500000 0.000000
O O18 0.360721 0.291027 0.006576
O O19 0.000000 0.000000 0.500000
#
# Coordination Sequence:
#
# PCOD8043489 Si02
#       8
#     2   2   2   2   2   2   2   2
#     4  12  25  41  64  96 129 166 204 285 332 377
#     4  12  25  41  67  97 127 167 219 268 328 398
#     4  10  20  36  61  95 115 161 200 266 315 360
#     4  10  19  36  67  89 115 152 220 256 307 374
#     4  10  19  36  63  88 124 152 216 264 292 356
#     4  12  21  38  64  93 122 176 223 252 294 392
#     4  10  19  36  67  91 113 150 212 264 296 371
#     4  12  24  38  63  95 133 161 216 263 340 378
#
# _framework density 19.893383
#
# number of rings (size 3 to 8) (size 9 to 14) (size 15 to 20)
#    0.000    1.000    5.000    3.750    3.500    0.000 
#    0.000    0.000   16.500    0.000    0.000    0.000 
#    0.000    0.000    0.000    0.000    0.000    0.000 
#
# Total GULP energy -198273.751402 kJ/mol
# GULP energy per Si atom -12392.109463 kJ/mol
# Density = 1.984811 g / cm^3
# Si number density = 19.893383 Si / 1000 Ang^3
#
#
#
# Elastic Constant Matrix: (Units=GPa)
#
#
# Indices 1 2 3 4 5 6 
#
# 1 129.0337 50.7838 37.6384 11.3123 9.3675 -9.7957
# 2 50.7838 111.1371 34.1043 2.4301 3.6943 -16.5116
# 3 37.6384 34.1043 117.8758 11.8909 21.9898 -2.4950
# 4 11.3123 2.4301 11.8909 40.8740 3.0575 4.6142
# 5 9.3675 3.6943 21.9898 3.0575 41.3788 3.6054
# 6 -9.7957 -16.5116 -2.4950 4.6142 3.6054 31.2401
#
#
#
# Elastic Compliance Matrix: (Units=1/GPa)
#
#
# Indices 1 2 3 4 5 6 
#
# 1 0.010116 -0.003805 -0.001689 -0.002171 -0.001020 0.001464
# 2 -0.003805 0.012160 -0.002346 0.000415 0.000563 0.004920
# 3 -0.001689 -0.002346 0.010857 -0.002176 -0.005017 -0.000002
# 4 -0.002171 0.000415 -0.002176 0.026179 0.000070 -0.004510
# 5 -0.001020 0.000563 -0.005017 0.000070 0.027321 -0.003586
# 6 0.001464 0.004920 -0.000002 -0.004510 -0.003586 0.036150
#
#
# Mechanical properties :
#
#
# Convention : Reuss Voigt Hill
#
# Bulk Modulus (GPa) = 57.29812 67.01108 62.15460
# Shear Modulus (GPa) = 34.65519 38.39994 36.52756
#
# Velocity S-wave (km/s) = 4.17831 4.39827 4.28970
# Velocity P-wave (km/s) = 7.22100 7.71695 7.47309
#
# Compressibility (1/GPa) = 0.01745258
#
# Stress axis : x y z
#
# Youngs Moduli (GPa) = 98.85655 82.23877 92.10790
#
# Poissons Ratio (x) = 0.31293 0.15555
# Poissons Ratio (y) = 0.37617 0.21607
# Poissons Ratio (z) = 0.16695 0.19292
#
# Static dielectric constant tensor:
#      x y z
#    x 3.063260 -0.520070 -0.885610 
#    y -0.520070 3.610550 -0.204970 
#    z -0.885610 -0.204970 2.235980 
# 
# 
# High freq. dielectric constant tensor:
#      x y z
#    x 1.778560 -0.014720 0.029000 
#    y -0.014720 1.757960 0.021570 
#    z 0.029000 0.021570 1.791830 
# 
# From -- ./inp_files/126297.got.cif
#   From: 2010.06.25/outbox.cif.g09.slc.cpg/sg2_64_cif.got.tgz:126297.got - 2010.06.27 13:26:56.
