data_PCOD8043197
_publ_section_title
;
Structure prediction by ZEFSAII (Michael W. Deem and Ramdas Pophale) SiO2 
 PCOD8043197
Probable space group: P -1
;
_chemical_formula_sum "Si O2"
_cell_formula_units_Z 16
_cell_length_a 9.943289
_cell_length_b 11.414288
_cell_length_c 15.260483
_cell_angle_alpha 83.521887
_cell_angle_beta 34.674318
_cell_angle_gamma 66.385662
_cell_volume 821.199873
_symmetry_space_group_name_H-M "P -1"
_symmetry_group_IT_number 2
_symmetry_cell_setting 'triclinic'
loop_
_space_group_symop_operation_xyz
x,y,z
-x,-y,-z
loop_
_atom_site_type_symbol
_atom_site_label
_atom_site_fract_x
_atom_site_fract_y
_atom_site_fract_z
Si Si1 0.710023 0.811823 0.737507
Si Si2 0.445075 0.823596 0.300917
Si Si3 0.956815 0.872750 0.443118
Si Si4 0.103518 0.928876 0.043836
Si Si5 0.616050 0.651033 0.389845
Si Si6 0.787316 0.854029 0.348433
Si Si7 0.294989 0.105838 0.981647
Si Si8 0.936731 0.336092 0.284167
O O1 0.825563 0.806490 0.579443
O O2 0.959727 0.683100 0.669217
O O3 0.612492 0.961183 0.827615
O O4 0.436019 0.802606 0.872764
O O5 0.573269 0.689686 0.306729
O O6 0.703793 0.825717 0.118594
O O7 0.270389 0.815220 0.314287
O O8 0.242136 0.957955 0.459675
O O9 0.975944 0.822091 0.337051
O O10 0.936992 0.865681 0.180565
O O11 0.072438 0.057780 0.106911
O O12 0.000000 0.000000 0.000000
O O13 0.727375 0.732805 0.377162
O O14 0.856011 0.486794 0.280929
O O15 0.325819 0.681338 0.584507
O O16 0.500000 0.000000 0.500000
O O17 0.211379 0.217428 0.093629
#
# Coordination Sequence:
#
# PCOD8043197 Si02
#       8
#     2   2   2   2   2   2   2   2
#     4   9  20  37  61  87 117 151 196 253 293 344
#     4  10  19  36  59  91 116 155 193 251 292 350
#     4  10  20  34  61  90 120 146 199 250 298 344
#     4  10  21  36  58  91 122 146 194 249 304 346
#     4  11  24  39  62  84 124 160 204 238 302 355
#     4  12  22  36  62  90 119 155 196 246 299 361
#     4   9  21  33  64  86 114 148 203 244 296 344
#     4  11  22  41  59  87 118 164 201 245 291 360
#
# _framework density 19.483684
#
# number of rings (size 3 to 8) (size 9 to 14) (size 15 to 20)
#    0.750    1.000    2.500    2.625    1.750    0.500 
#    0.000    1.250    2.750    0.000    0.000    0.000 
#    0.000    0.000    0.000    0.000    0.000    0.000 
#
# Total GULP energy -198261.942464 kJ/mol
# GULP energy per Si atom -12391.371404 kJ/mol
# Density = 1.943934 g / cm^3
# Si number density = 19.483684 Si / 1000 Ang^3
#
#
#
# Elastic Constant Matrix: (Units=GPa)
#
#
# Indices 1 2 3 4 5 6 
#
# 1 117.4239 47.8732 12.3445 -3.6402 2.1497 -11.2231
# 2 47.8732 115.2069 27.4736 -17.4494 0.4053 -15.1887
# 3 12.3445 27.4736 54.1519 -16.9251 0.1674 -3.0420
# 4 -3.6402 -17.4494 -16.9251 21.7256 0.4135 -4.7411
# 5 2.1497 0.4053 0.1674 0.4135 24.5059 -5.9805
# 6 -11.2231 -15.1887 -3.0420 -4.7411 -5.9805 35.6138
#
#
#
# Elastic Compliance Matrix: (Units=1/GPa)
#
#
# Indices 1 2 3 4 5 6 
#
# 1 0.010400 -0.004322 -0.000780 -0.002109 -0.000558 0.000993
# 2 -0.004322 0.013171 -0.002577 0.009013 0.001360 0.005463
# 3 -0.000780 -0.002577 0.026028 0.018823 0.000460 0.003461
# 4 -0.002109 0.009013 0.018823 0.070717 0.002273 0.014583
# 5 -0.000558 0.001360 0.000460 0.002273 0.042724 0.007921
# 6 0.000993 0.005463 0.003461 0.014583 0.007921 0.034289
#
#
# Mechanical properties :
#
#
# Convention : Reuss Voigt Hill
#
# Bulk Modulus (GPa) = 29.20474 51.35170 40.27822
# Shear Modulus (GPa) = 22.31125 29.64183 25.97654
#
# Velocity S-wave (km/s) = 3.38764 3.90470 3.65532
# Velocity P-wave (km/s) = 5.50666 6.83684 6.20749
#
# Compressibility (1/GPa) = 0.03424102
#
# Stress axis : x y z
#
# Youngs Moduli (GPa) = 96.15370 75.92204 38.42032
#
# Poissons Ratio (x) = 0.32816 0.02995
# Poissons Ratio (y) = 0.41560 0.09902
# Poissons Ratio (z) = 0.07496 0.19568
#
# Static dielectric constant tensor:
#      x y z
#    x 3.537210 -0.069630 -0.070580 
#    y -0.069630 3.445590 -0.263660 
#    z -0.070580 -0.263660 3.439920 
# 
# 
# High freq. dielectric constant tensor:
#      x y z
#    x 1.755100 -0.016230 -0.006650 
#    y -0.016230 1.738300 -0.029870 
#    z -0.006650 -0.029870 1.745290 
# 
# From -- ./inp_files/500392.got.cif
#   From: 2010.06.25/outbox.cif.g09.slc.cpg/sg2_251_cif.got.tgz:500392.got - 2010.06.27 13:26:56.
