data_PCOD8043729
_publ_section_title
;
Structure prediction by ZEFSAII (Michael W. Deem and Ramdas Pophale) SiO2 
 PCOD8043729
Probable space group: P -1
;
_chemical_formula_sum "Si O2"
_cell_formula_units_Z 16
_cell_length_a 9.740642
_cell_length_b 14.607688
_cell_length_c 11.686215
_cell_angle_alpha 148.545362
_cell_angle_beta 74.055718
_cell_angle_gamma 92.000884
_cell_volume 765.584650
_symmetry_space_group_name_H-M "P -1"
_symmetry_group_IT_number 2
_symmetry_cell_setting 'triclinic'
loop_
_space_group_symop_operation_xyz
x,y,z
-x,-y,-z
loop_
_atom_site_type_symbol
_atom_site_label
_atom_site_fract_x
_atom_site_fract_y
_atom_site_fract_z
Si Si1 0.351334 0.952202 0.807823
Si Si2 0.176109 0.264410 0.670339
Si Si3 0.840015 0.381644 0.821851
Si Si4 0.740806 0.350734 0.570668
Si Si5 0.579971 0.398696 0.061156
Si Si6 0.666461 0.628484 0.457944
Si Si7 0.476356 0.956710 0.331135
Si Si8 0.186561 0.399203 0.365426
O O1 0.227353 0.851404 0.715582
O O2 0.500977 0.816992 0.707603
O O3 0.416719 0.966942 0.684249
O O4 0.253261 0.166958 0.104065
O O5 0.213222 0.332158 0.611439
O O6 0.007867 0.256468 0.703058
O O7 0.295102 0.053359 0.443703
O O8 0.194677 0.396873 0.909937
O O9 0.854315 0.333753 0.632687
O O10 0.707990 0.331213 0.860138
O O11 0.567824 0.404685 0.722626
O O12 0.743358 0.510813 0.652275
O O13 0.644750 0.441603 0.212709
O O14 0.488912 0.259454 0.939655
O O15 0.753706 0.554844 0.478650
O O16 0.500000 0.000000 0.500000
O O17 0.000000 0.500000 0.500000
#
# Coordination Sequence:
#
# PCOD8043729 Si02
#       8
#     2   2   2   2   2   2   2   2
#     4  10  23  42  63  92 120 164 210 248 312 364
#     4   9  20  35  59  85 124 166 195 246 315 361
#     4  10  19  37  57  88 126 161 196 251 311 369
#     4  11  22  40  64  90 122 159 209 252 310 362
#     4  10  20  36  61  89 120 163 207 245 307 361
#     4   9  21  43  61  87 124 163 209 250 303 372
#     4  11  20  37  60  94 123 158 208 249 298 371
#     4  12  25  43  65  92 122 163 208 263 310 357
#
# _framework density 20.899061
#
# number of rings (size 3 to 8) (size 9 to 14) (size 15 to 20)
#    0.000    1.750    1.250    3.750    0.000    3.000 
#    6.750    0.000    0.000    0.000    0.000    0.000 
#    0.000    0.000    0.000    0.000    0.000    0.000 
#
# Total GULP energy -198222.760857 kJ/mol
# GULP energy per Si atom -12388.922554 kJ/mol
# Density = 2.085149 g / cm^3
# Si number density = 20.899061 Si / 1000 Ang^3
#
#
#
# Elastic Constant Matrix: (Units=GPa)
#
#
# Indices 1 2 3 4 5 6 
#
# 1 96.0036 39.4731 37.3364 -4.0934 7.4854 -3.6416
# 2 39.4731 89.5866 35.7568 -7.4449 15.7580 -15.0961
# 3 37.3364 35.7568 93.7475 -1.7730 15.1596 -7.1466
# 4 -4.0934 -7.4449 -1.7730 21.5456 3.0148 9.0247
# 5 7.4854 15.7580 15.1596 3.0148 35.8173 -4.4169
# 6 -3.6416 -15.0961 -7.1466 9.0247 -4.4169 29.6565
#
#
#
# Elastic Compliance Matrix: (Units=1/GPa)
#
#
# Indices 1 2 3 4 5 6 
#
# 1 0.013876 -0.004889 -0.003876 0.001425 0.000516 -0.002076
# 2 -0.004889 0.016531 -0.003160 0.002835 -0.004471 0.005524
# 3 -0.003876 -0.003160 0.014057 -0.000564 -0.003586 0.000940
# 4 0.001425 0.002835 -0.000564 0.055729 -0.008054 -0.016676
# 5 0.000516 -0.004471 -0.003586 -0.008054 0.032494 0.004214
# 6 -0.002076 0.005524 0.000940 -0.016676 0.004214 0.042205
#
#
# Mechanical properties :
#
#
# Convention : Reuss Voigt Hill
#
# Bulk Modulus (GPa) = 48.51371 56.05225 52.28298
# Shear Modulus (GPa) = 24.31751 28.52198 26.41974
#
# Velocity S-wave (km/s) = 3.41481 3.69826 3.55936
# Velocity P-wave (km/s) = 6.22990 6.71676 6.47791
#
# Compressibility (1/GPa) = 0.02061273
#
# Stress axis : x y z
#
# Youngs Moduli (GPa) = 72.06864 60.49358 71.13905
#
# Poissons Ratio (x) = 0.29574 0.27575
# Poissons Ratio (y) = 0.35232 0.22482
# Poissons Ratio (z) = 0.27935 0.19118
#
# Static dielectric constant tensor:
#      x y z
#    x 3.815330 -0.012870 0.016880 
#    y -0.012870 3.502050 0.050630 
#    z 0.016880 0.050630 3.883450 
# 
# 
# High freq. dielectric constant tensor:
#      x y z
#    x 1.824290 -0.002200 0.006140 
#    y -0.002200 1.798530 -0.003320 
#    z 0.006140 -0.003320 1.820900 
# 
# From -- ./inp_files/379272.got.cif
#   From: 2010.06.25/outbox.cif.g09.slc.cpg/sg2_190_cif.got.tgz:379272.got - 2010.06.27 13:26:56.
