data_PCOD8043482
_publ_section_title
;
Structure prediction by ZEFSAII (Michael W. Deem and Ramdas Pophale) SiO2 
 PCOD8043482
Probable space group: P -1
;
_chemical_formula_sum "Si O2"
_cell_formula_units_Z 16
_cell_length_a 22.236676
_cell_length_b 15.483659
_cell_length_c 18.463904
_cell_angle_alpha 33.181998
_cell_angle_beta 17.052039
_cell_angle_gamma 25.439638
_cell_volume 782.992536
_symmetry_space_group_name_H-M "P -1"
_symmetry_group_IT_number 2
_symmetry_cell_setting 'triclinic'
loop_
_space_group_symop_operation_xyz
x,y,z
-x,-y,-z
loop_
_atom_site_type_symbol
_atom_site_label
_atom_site_fract_x
_atom_site_fract_y
_atom_site_fract_z
Si Si1 0.793436 0.819734 0.699094
Si Si2 0.399036 0.524337 0.179554
Si Si3 0.640618 0.556113 0.007296
Si Si4 0.447955 0.479173 0.655730
Si Si5 0.149948 0.776470 0.515853
Si Si6 0.388053 0.878283 0.702945
Si Si7 0.729039 0.757325 0.980464
Si Si8 0.792709 0.209822 0.161110
O O1 0.780805 0.807858 0.807601
O O2 0.086756 0.728727 0.399945
O O3 0.714966 0.698703 0.833341
O O4 0.563056 0.060772 0.776342
O O5 0.587145 0.553393 0.986431
O O6 0.432334 0.330362 0.309271
O O7 0.500000 0.500000 0.000000
O O8 0.374789 0.623810 0.306011
O O9 0.859553 0.330707 0.948574
O O10 0.500000 0.500000 0.500000
O O11 0.707701 0.262776 0.543204
O O12 0.363152 0.668988 0.670121
O O13 0.221086 0.455004 0.932194
O O14 0.953962 0.726743 0.792528
O O15 0.000000 0.000000 0.500000
O O16 0.378930 0.832093 0.660041
O O17 0.500000 0.000000 0.500000
O O18 0.084474 0.005061 0.992382
#
# Coordination Sequence:
#
# PCOD8043482 Si02
#       8
#     2   2   2   2   2   2   2   2
#     4  11  20  36  63  93 121 159 214 251 307 387
#     4  11  25  39  59  93 127 158 202 273 329 362
#     4  10  19  36  63  87 121 159 203 263 308 376
#     4  11  25  40  59  94 139 169 202 270 326 374
#     4  11  19  37  64  93 119 161 216 251 303 385
#     4  10  21  40  68  85 109 167 220 257 304 381
#     4  11  21  35  65  94 120 170 210 252 311 388
#     4   9  20  39  60  87 117 159 215 254 302 376
#
# _framework density 20.434422000000001
#
# number of rings (size 3 to 8) (size 9 to 14) (size 15 to 20)
#    0.000    1.500    5.000    1.500    0.000    2.000 
#    0.000    1.250    0.000    0.000    0.000    0.000 
#    0.000    0.000    0.000    0.000    0.000    0.000 
#
# Total GULP energy -198259.405808 kJ/mol
# GULP energy per Si atom -12391.212863 kJ/mol
# Density = 2.038791 g / cm^3
# Si number density = 20.434422 Si / 1000 Ang^3
#
#
#
# Elastic Constant Matrix: (Units=GPa)
#
#
# Indices 1 2 3 4 5 6 
#
# 1 126.2772 30.3164 36.0670 -4.5711 4.8413 11.4881
# 2 30.3164 61.6942 16.8102 -0.3148 -7.3645 13.6872
# 3 36.0670 16.8102 73.6933 4.8372 -4.1806 2.9486
# 4 -4.5711 -0.3148 4.8372 33.3878 11.4131 -9.3712
# 5 4.8413 -7.3645 -4.1806 11.4131 31.3276 -6.2690
# 6 11.4881 13.6872 2.9486 -9.3712 -6.2690 33.5583
#
#
#
# Elastic Compliance Matrix: (Units=1/GPa)
#
#
# Indices 1 2 3 4 5 6 
#
# 1 0.010715 -0.004201 -0.004715 0.003323 -0.004785 -0.001506
# 2 -0.004201 0.020967 -0.001886 -0.003906 0.005340 -0.007041
# 3 -0.004715 -0.001886 0.016819 -0.004417 0.004232 0.000463
# 4 0.003323 -0.003906 -0.004417 0.038368 -0.014218 0.008902
# 5 -0.004785 0.005340 0.004232 -0.014218 0.040185 0.002625
# 6 -0.001506 -0.007041 0.000463 0.008902 0.002625 0.036122
#
#
# Mechanical properties :
#
#
# Convention : Reuss Voigt Hill
#
# Bulk Modulus (GPa) = 37.17816 47.56132 42.36974
# Shear Modulus (GPa) = 25.80709 31.55279 28.67994
#
# Velocity S-wave (km/s) = 3.55762 3.93377 3.75041
# Velocity P-wave (km/s) = 5.92528 6.63011 6.28758
#
# Compressibility (1/GPa) = 0.02689751
#
# Stress axis : x y z
#
# Youngs Moduli (GPa) = 93.32599 47.69484 59.45603
#
# Poissons Ratio (x) = 0.20035 0.28035
# Poissons Ratio (y) = 0.39202 0.11212
# Poissons Ratio (z) = 0.44006 0.08994
#
# Static dielectric constant tensor:
#      x y z
#    x 3.972290 -0.450460 -0.596880 
#    y -0.450460 4.953690 0.946320 
#    z -0.596880 0.946320 3.838370 
# 
# 
# High freq. dielectric constant tensor:
#      x y z
#    x 1.792630 0.020450 -0.030030 
#    y 0.020450 1.800930 0.014790 
#    z -0.030030 0.014790 1.777110 
# 
# From -- ./inp_files/578180.got.cif
#   From: 2010.06.25/outbox.cif.g09.slc.cpg/sg2_290_cif.got.tgz:578180.got - 2010.06.27 13:26:56.
