data_PCOD8043505
_publ_section_title
;
Structure prediction by ZEFSAII (Michael W. Deem and Ramdas Pophale) SiO2 
 PCOD8043505
Probable space group: P -1
;
_chemical_formula_sum "Si O2"
_cell_formula_units_Z 16
_cell_length_a 8.593443
_cell_length_b 14.150502
_cell_length_c 14.913861
_cell_angle_alpha 59.550159
_cell_angle_beta 90.215621
_cell_angle_gamma 138.621091
_cell_volume 775.779643
_symmetry_space_group_name_H-M "P -1"
_symmetry_group_IT_number 2
_symmetry_cell_setting 'triclinic'
loop_
_space_group_symop_operation_xyz
x,y,z
-x,-y,-z
loop_
_atom_site_type_symbol
_atom_site_label
_atom_site_fract_x
_atom_site_fract_y
_atom_site_fract_z
Si Si1 0.781243 0.465371 0.545371
Si Si2 0.198382 0.925420 0.285717
Si Si3 0.855233 0.041040 0.921607
Si Si4 0.901817 0.975564 0.293361
Si Si5 0.508625 0.348862 0.783121
Si Si6 0.115069 0.690267 0.887408
Si Si7 0.760787 0.638154 0.790755
Si Si8 0.944487 0.762923 0.982909
O O1 0.468574 0.272518 0.577027
O O2 0.706360 0.407710 0.679131
O O3 0.000000 0.500000 0.500000
O O4 0.937945 0.678241 0.428894
O O5 0.266496 0.963272 0.160305
O O6 0.094553 0.980890 0.293708
O O7 0.527161 0.094311 0.251452
O O8 0.183717 0.191101 0.814011
O O9 0.927570 0.155573 0.954980
O O10 0.593188 0.789709 0.066183
O O11 0.009003 0.117695 0.309291
O O12 0.950947 0.066914 0.154896
O O13 0.712604 0.574695 0.716702
O O14 0.897549 0.613869 0.850043
O O15 0.000000 0.500000 0.000000
O O16 0.097476 0.747738 0.951371
O O17 0.429774 0.471520 0.911918
#
# Coordination Sequence:
#
# PCOD8043505 Si02
#       8
#     2   2   2   2   2   2   2   2
#     4  12  25  43  63  90 127 171 208 251 312 378
#     4  12  24  38  64  93 126 166 207 255 310 374
#     4  10  19  37  65  96 120 158 211 264 303 357
#     4  11  20  40  63  89 123 163 211 248 311 374
#     4  10  20  40  67  92 124 160 210 256 311 364
#     4  11  21  36  56  94 132 161 205 256 315 366
#     4  10  21  37  64  90 119 166 206 258 309 365
#     4  10  19  36  63  92 124 161 207 258 313 362
#
# _framework density 20.624410999999998
#
# number of rings (size 3 to 8) (size 9 to 14) (size 15 to 20)
#    0.000    1.250    2.500    7.125    0.000    0.500 
#    2.250    3.125    0.000    0.000    0.000    0.000 
#    0.000    0.000    0.000    0.000    0.000    0.000 
#
# Total GULP energy -198370.236649 kJ/mol
# GULP energy per Si atom -12398.139791 kJ/mol
# Density = 2.057747 g / cm^3
# Si number density = 20.624411 Si / 1000 Ang^3
#
#
#
# Elastic Constant Matrix: (Units=GPa)
#
#
# Indices 1 2 3 4 5 6 
#
# 1 137.6698 41.7693 35.9978 -12.6656 -14.8290 -18.7659
# 2 41.7693 112.2616 34.9755 -19.5081 -9.8169 -17.8264
# 3 35.9978 34.9755 78.6869 -18.3112 -9.0557 -7.3881
# 4 -12.6656 -19.5081 -18.3112 40.6460 -3.1182 -1.5418
# 5 -14.8290 -9.8169 -9.0557 -3.1182 38.7897 -2.2372
# 6 -18.7659 -17.8264 -7.3881 -1.5418 -2.2372 33.8696
#
#
#
# Elastic Compliance Matrix: (Units=1/GPa)
#
#
# Indices 1 2 3 4 5 6 
#
# 1 0.009411 -0.001547 -0.002562 0.001418 0.002959 0.004101
# 2 -0.001547 0.012226 -0.002900 0.004472 0.002491 0.005313
# 3 -0.002562 -0.002900 0.016924 0.005691 0.002763 0.001187
# 4 0.001418 0.004472 0.005691 0.030433 0.005804 0.006150
# 5 0.002959 0.002491 0.002763 0.005804 0.028984 0.005732
# 6 0.004101 0.005313 0.001187 0.006150 0.005732 0.035511
#
#
# Mechanical properties :
#
#
# Convention : Reuss Voigt Hill
#
# Bulk Modulus (GPa) = 40.74679 61.56706 51.15693
# Shear Modulus (GPa) = 32.11544 37.05279 34.58411
#
# Velocity S-wave (km/s) = 3.95036 4.24317 4.09938
# Velocity P-wave (km/s) = 6.37233 7.34318 6.87492
#
# Compressibility (1/GPa) = 0.02454181
#
# Stress axis : x y z
#
# Youngs Moduli (GPa) = 106.25493 81.79608 59.08872
#
# Poissons Ratio (x) = 0.12653 0.15140
# Poissons Ratio (y) = 0.16437 0.17137
# Poissons Ratio (z) = 0.27225 0.23723
#
# Static dielectric constant tensor:
#      x y z
#    x 3.886700 -0.121040 -0.080980 
#    y -0.121040 3.899370 -0.227740 
#    z -0.080980 -0.227740 3.554700 
# 
# 
# High freq. dielectric constant tensor:
#      x y z
#    x 1.804950 -0.011780 -0.011790 
#    y -0.011780 1.821590 -0.020150 
#    z -0.011790 -0.020150 1.781670 
# 
# From -- ./inp_files/504067.got.cif
#   From: 2010.06.25/outbox.cif.g09.slc.cpg/sg2_253_cif.got.tgz:504067.got - 2010.06.27 13:26:56.
