data_PCOD8043790
_publ_section_title
;
Structure prediction by ZEFSAII (Michael W. Deem and Ramdas Pophale) SiO2 
 PCOD8043790
Probable space group: P -1
;
_chemical_formula_sum "Si O2"
_cell_formula_units_Z 16
_cell_length_a 11.255978
_cell_length_b 12.340816
_cell_length_c 8.832537
_cell_angle_alpha 133.500440
_cell_angle_beta 86.878838
_cell_angle_gamma 83.591228
_cell_volume 869.609354
_symmetry_space_group_name_H-M "P -1"
_symmetry_group_IT_number 2
_symmetry_cell_setting 'triclinic'
loop_
_space_group_symop_operation_xyz
x,y,z
-x,-y,-z
loop_
_atom_site_type_symbol
_atom_site_label
_atom_site_fract_x
_atom_site_fract_y
_atom_site_fract_z
Si Si1 0.555561 0.536490 0.690443
Si Si2 0.744969 0.633020 0.584422
Si Si3 0.058249 0.199669 0.165510
Si Si4 0.620697 0.223497 0.547952
Si Si5 0.442165 0.074892 0.229986
Si Si6 0.370020 0.797770 0.120582
Si Si7 0.838182 0.124779 0.244934
Si Si8 0.182234 0.689153 0.853738
O O1 0.500000 0.500000 0.500000
O O2 0.684835 0.581877 0.691955
O O3 0.569878 0.396869 0.670069
O O4 0.470408 0.679522 0.910420
O O5 0.872870 0.671845 0.660053
O O6 0.656012 0.771177 0.642645
O O7 0.772706 0.493225 0.329656
O O8 0.977145 0.153033 0.266234
O O9 0.965450 0.264815 0.096489
O O10 0.156806 0.053274 0.962620
O O11 0.551272 0.109438 0.357002
O O12 0.600615 0.209371 0.712350
O O13 0.764646 0.170908 0.448830
O O14 0.371079 0.965683 0.220891
O O15 0.500000 0.000000 0.000000
O O16 0.237656 0.755601 0.061584
O O17 0.765017 0.231964 0.219959
#
# Coordination Sequence:
#
# PCOD8043790 Si02
#       8
#     2   2   2   2   2   2   2   2
#     4  12  20  39  60  89 115 158 195 236 286 351
#     4  12  20  33  65  88 113 143 204 249 281 326
#     4   9  20  35  61  90 107 145 206 255 277 329
#     4  12  23  39  57  89 124 153 187 240 305 353
#     4  12  23  37  61  85 118 154 200 238 283 352
#     4  12  24  37  57  88 124 157 186 240 301 350
#     4   9  19  37  62  81 116 146 202 242 291 336
#     4  10  19  37  59  84 112 150 200 237 284 339
#
# _framework density 18.399066999999999
#
# number of rings (size 3 to 8) (size 9 to 14) (size 15 to 20)
#    0.750    0.250    5.000    3.375    0.000    0.000 
#    0.000    0.625    0.000    1.500    0.000    0.000 
#    0.000    0.000    0.000    0.000    0.000    0.000 
#
# Total GULP energy -198363.568887 kJ/mol
# GULP energy per Si atom -12397.723055 kJ/mol
# Density = 1.835719 g / cm^3
# Si number density = 18.399067 Si / 1000 Ang^3
#
#
#
# Elastic Constant Matrix: (Units=GPa)
#
#
# Indices 1 2 3 4 5 6 
#
# 1 92.3911 26.6373 36.9435 2.2900 18.4249 0.5874
# 2 26.6373 110.5350 54.7127 11.8606 7.6762 -4.0249
# 3 36.9435 54.7127 94.3979 5.8284 9.6394 -4.5518
# 4 2.2900 11.8606 5.8284 37.3672 -4.4493 -1.8463
# 5 18.4249 7.6762 9.6394 -4.4493 32.1619 7.8685
# 6 0.5874 -4.0249 -4.5518 -1.8463 7.8685 22.6666
#
#
#
# Elastic Compliance Matrix: (Units=1/GPa)
#
#
# Indices 1 2 3 4 5 6 
#
# 1 0.014162 -0.000653 -0.004352 -0.000766 -0.007007 0.001013
# 2 -0.000653 0.013126 -0.006959 -0.003149 -0.001397 0.001179
# 3 -0.004352 -0.006959 0.016627 -0.000164 -0.001520 0.002730
# 4 -0.000766 -0.003149 -0.000164 0.028449 0.005189 -0.000056
# 5 -0.007007 -0.001397 -0.001520 0.005189 0.039998 -0.013834
# 6 0.001013 0.001179 0.002730 -0.000056 -0.013834 0.049647
#
#
# Mechanical properties :
#
#
# Convention : Reuss Voigt Hill
#
# Bulk Modulus (GPa) = 50.03062 59.32344 54.67703
# Shear Modulus (GPa) = 25.96062 30.37448 28.16755
#
# Velocity S-wave (km/s) = 3.76037 4.06750 3.91695
# Velocity P-wave (km/s) = 6.79005 7.37374 7.08791
#
# Compressibility (1/GPa) = 0.01998776
#
# Stress axis : x y z
#
# Youngs Moduli (GPa) = 70.61170 76.18178 60.14312
#
# Poissons Ratio (x) = 0.04973 0.26177
# Poissons Ratio (y) = 0.04609 0.41851
# Poissons Ratio (z) = 0.30733 0.53012
#
# Static dielectric constant tensor:
#      x y z
#    x 3.501870 0.070030 0.141520 
#    y 0.070030 3.373430 0.301490 
#    z 0.141520 0.301490 3.408900 
# 
# 
# High freq. dielectric constant tensor:
#      x y z
#    x 1.718020 -0.001340 0.002910 
#    y -0.001340 1.702310 0.035180 
#    z 0.002910 0.035180 1.702340 
# 
# From -- ./inp_files/260644.got.cif
#   From: 2010.06.25/outbox.cif.g09.slc.cpg/sg2_131_cif.got.tgz:260644.got - 2010.06.27 13:26:56.
