data_PCOD8043973
_publ_section_title
;
Structure prediction by ZEFSAII (Michael W. Deem and Ramdas Pophale) SiO2 
 PCOD8043973
Probable space group: P -1
;
_chemical_formula_sum "Si O2"
_cell_formula_units_Z 16
_cell_length_a 7.955132
_cell_length_b 9.466138
_cell_length_c 20.600725
_cell_angle_alpha 143.567519
_cell_angle_beta 110.818976
_cell_angle_gamma 81.030323
_cell_volume 837.176643
_symmetry_space_group_name_H-M "P -1"
_symmetry_group_IT_number 2
_symmetry_cell_setting 'triclinic'
loop_
_space_group_symop_operation_xyz
x,y,z
-x,-y,-z
loop_
_atom_site_type_symbol
_atom_site_label
_atom_site_fract_x
_atom_site_fract_y
_atom_site_fract_z
Si Si1 0.028971 0.668541 0.918377
Si Si2 0.287243 0.519038 0.547456
Si Si3 0.367632 0.942404 0.618805
Si Si4 0.709132 0.248589 0.709226
Si Si5 0.060751 0.160554 0.164934
Si Si6 0.094300 0.177563 0.741190
Si Si7 0.035981 0.774850 0.683015
Si Si8 0.379791 0.616219 0.388759
O O1 0.157511 0.472160 0.870766
O O2 0.813118 0.525761 0.847728
O O3 0.054928 0.775140 0.888079
O O4 0.088594 0.885033 0.058746
O O5 0.394371 0.765714 0.616634
O O6 0.152003 0.578628 0.606295
O O7 0.424064 0.382746 0.551920
O O8 0.174469 0.333651 0.409610
O O9 0.285781 0.778254 0.484234
O O10 0.567977 0.121185 0.698325
O O11 0.217762 0.099210 0.672696
O O12 0.592805 0.253120 0.629083
O O13 0.874893 0.108417 0.666179
O O14 0.261042 0.341486 0.263690
O O15 0.947047 0.182666 0.222254
O O16 0.120399 0.036801 0.758564
#
# Coordination Sequence:
#
# PCOD8043973 Si02
#       8
#     2   2   2   2   2   2   2   2
#     4   8  20  40  56  82 113 149 199 233 272 344
#     4  10  22  35  53  87 121 146 189 231 280 354
#     4  11  20  35  58  83 118 150 182 237 290 335
#     4   9  21  38  54  85 115 151 187 236 283 334
#     4  10  19  37  62  80 110 155 191 231 285 330
#     4   9  21  37  55  85 114 149 190 232 283 339
#     4  10  20  36  56  83 118 153 186 230 288 343
#     4  11  21  34  56  89 111 150 192 230 290 339
#
# _framework density 19.111858000000002
#
# number of rings (size 3 to 8) (size 9 to 14) (size 15 to 20)
#    0.750    1.500    1.250    1.500    1.750    2.000 
#    0.000    1.250    0.000    7.500    0.000    0.000 
#    0.000    0.000    0.000    0.000    0.000    0.000 
#
# Total GULP energy -198293.061981 kJ/mol
# GULP energy per Si atom -12393.316374 kJ/mol
# Density = 1.906836 g / cm^3
# Si number density = 19.111858 Si / 1000 Ang^3
#
#
#
# Elastic Constant Matrix: (Units=GPa)
#
#
# Indices 1 2 3 4 5 6 
#
# 1 99.6758 27.0768 30.3730 0.3480 -14.8562 7.6591
# 2 27.0768 47.0702 8.2186 0.0407 -16.3563 6.0644
# 3 30.3730 8.2186 101.4905 9.1755 -17.6341 10.1528
# 4 0.3480 0.0407 9.1755 31.1610 -0.4332 -4.1262
# 5 -14.8562 -16.3563 -17.6341 -0.4332 23.2481 0.9192
# 6 7.6591 6.0644 10.1528 -4.1262 0.9192 21.5487
#
#
#
# Elastic Compliance Matrix: (Units=1/GPa)
#
#
# Indices 1 2 3 4 5 6 
#
# 1 0.012986 -0.006146 -0.002988 0.000576 0.001776 -0.001444
# 2 -0.006146 0.033551 0.004504 -0.002411 0.023478 -0.010843
# 3 -0.002988 0.004504 0.013703 -0.004916 0.011883 -0.008110
# 4 0.000576 -0.002411 -0.004916 0.034747 -0.004791 0.009648
# 5 0.001776 0.023478 0.011883 -0.004791 0.070254 -0.016752
# 6 -0.001444 -0.010843 -0.008110 0.009648 -0.016752 0.056354
#
#
# Mechanical properties :
#
#
# Convention : Reuss Voigt Hill
#
# Bulk Modulus (GPa) = 19.61476 42.17481 30.89478
# Shear Modulus (GPa) = 20.17371 27.36278 23.76824
#
# Velocity S-wave (km/s) = 3.25246 3.78791 3.53035
# Velocity P-wave (km/s) = 4.93863 6.42233 5.72872
#
# Compressibility (1/GPa) = 0.05098202
#
# Stress axis : x y z
#
# Youngs Moduli (GPa) = 77.00546 29.80518 72.97705
#
# Poissons Ratio (x) = 0.18318 0.21803
# Poissons Ratio (y) = 0.47326 -0.32871
# Poissons Ratio (z) = 0.23007 -0.13425
#
# Static dielectric constant tensor:
#      x y z
#    x 3.265620 0.123820 -0.121610 
#    y 0.123820 3.579340 0.171130 
#    z -0.121610 0.171130 3.402310 
# 
# 
# High freq. dielectric constant tensor:
#      x y z
#    x 1.720940 0.013030 -0.008460 
#    y 0.013030 1.752300 0.015940 
#    z -0.008460 0.015940 1.726940 
# 
# From -- ./inp_files/557687.got.cif
#   From: 2010.06.25/outbox.cif.g09.slc.cpg/sg2_279_cif.got.tgz:557687.got - 2010.06.27 13:26:56.
