data_PCOD8043621
_publ_section_title
;
Structure prediction by ZEFSAII (Michael W. Deem and Ramdas Pophale) SiO2 
 PCOD8043621
Probable space group: P -1
;
_chemical_formula_sum "Si O2"
_cell_formula_units_Z 16
_cell_length_a 12.021036
_cell_length_b 13.460155
_cell_length_c 8.888709
_cell_angle_alpha 72.843063
_cell_angle_beta 128.559971
_cell_angle_gamma 134.618633
_cell_volume 773.709218
_symmetry_space_group_name_H-M "P -1"
_symmetry_group_IT_number 2
_symmetry_cell_setting 'triclinic'
loop_
_space_group_symop_operation_xyz
x,y,z
-x,-y,-z
loop_
_atom_site_type_symbol
_atom_site_label
_atom_site_fract_x
_atom_site_fract_y
_atom_site_fract_z
Si Si1 0.230571 0.671103 0.454477
Si Si2 0.175670 0.869298 0.357208
Si Si3 0.475238 0.621263 0.085189
Si Si4 0.161199 0.633195 0.767923
Si Si5 0.664624 0.841304 0.670111
Si Si6 0.224319 0.105880 0.605926
Si Si7 0.303769 0.921735 0.780648
Si Si8 0.734045 0.691192 0.998017
O O1 0.221606 0.786907 0.340930
O O2 0.198398 0.651878 0.613448
O O3 0.429000 0.714953 0.548517
O O4 0.051372 0.518072 0.295135
O O5 0.296743 0.924697 0.591361
O O6 0.259668 0.008891 0.268271
O O7 0.937065 0.762581 0.223510
O O8 0.655646 0.735133 0.298642
O O9 0.355566 0.455301 0.096859
O O10 0.331582 0.646789 0.972718
O O11 0.568400 0.655227 0.983686
O O12 0.164627 0.752814 0.782546
O O13 0.730845 0.872792 0.540732
O O14 0.774935 0.801771 0.861438
O O15 0.259735 0.014401 0.761580
O O16 0.000000 0.000000 0.500000
O O17 0.500000 0.000000 0.000000
#
# Coordination Sequence:
#
# PCOD8043621 Si02
#       8
#     2   2   2   2   2   2   2   2
#     4  10  20  37  62  93 121 162 206 261 312 359
#     4  10  21  37  59  92 126 157 209 264 306 364
#     4  11  21  39  66  92 127 162 213 260 306 376
#     4  10  19  36  66  92 122 159 210 258 307 368
#     4  11  23  40  61  91 129 165 209 256 311 376
#     4  11  25  44  63  92 130 167 206 258 317 378
#     4  10  20  37  64  91 123 164 208 249 314 375
#     4  11  23  39  66  96 122 166 213 258 315 366
#
# _framework density 20.679603
#
# number of rings (size 3 to 8) (size 9 to 14) (size 15 to 20)
#    0.000    1.500    3.750    2.250    0.000    1.500 
#    0.000    3.125    0.000    0.000    0.000    0.000 
#    0.000    0.000    0.000    0.000    0.000    0.000 
#
# Total GULP energy -198219.152386 kJ/mol
# GULP energy per Si atom -12388.697024 kJ/mol
# Density = 2.063254 g / cm^3
# Si number density = 20.679603 Si / 1000 Ang^3
#
#
#
# Elastic Constant Matrix: (Units=GPa)
#
#
# Indices 1 2 3 4 5 6 
#
# 1 60.3709 27.6421 31.3417 -2.6391 10.8526 1.0455
# 2 27.6421 119.5874 53.8692 0.8762 -5.3921 -19.3531
# 3 31.3417 53.8692 112.1297 8.2874 16.8568 -6.9997
# 4 -2.6391 0.8762 8.2874 36.4460 -5.7497 12.3973
# 5 10.8526 -5.3921 16.8568 -5.7497 24.5847 7.1557
# 6 1.0455 -19.3531 -6.9997 12.3973 7.1557 37.0400
#
#
#
# Elastic Compliance Matrix: (Units=1/GPa)
#
#
# Indices 1 2 3 4 5 6 
#
# 1 0.021637 -0.004315 -0.003310 0.002355 -0.006816 -0.002962
# 2 -0.004315 0.013105 -0.006064 0.000601 0.007884 0.004099
# 3 -0.003310 -0.006064 0.015736 -0.007620 -0.013937 0.005142
# 4 0.002355 0.000601 -0.007620 0.038178 0.018343 -0.017514
# 5 -0.006816 0.007884 -0.013937 0.018343 0.064166 -0.016858
# 6 -0.002962 0.004099 0.005142 -0.017514 -0.016858 0.039314
#
#
# Mechanical properties :
#
#
# Convention : Reuss Voigt Hill
#
# Bulk Modulus (GPa) = 43.28496 57.53267 50.40881
# Shear Modulus (GPa) = 22.00578 31.56313 26.78446
#
# Velocity S-wave (km/s) = 3.26564 3.91102 3.60281
# Velocity P-wave (km/s) = 5.93261 6.94810 6.46034
#
# Compressibility (1/GPa) = 0.02310271
#
# Stress axis : x y z
#
# Youngs Moduli (GPa) = 46.21624 76.30486 63.54933
#
# Poissons Ratio (x) = 0.32922 0.21032
# Poissons Ratio (y) = 0.19940 0.38535
# Poissons Ratio (z) = 0.15295 0.46270
#
# Static dielectric constant tensor:
#      x y z
#    x 3.597170 -0.521270 0.248630 
#    y -0.521270 4.222260 0.127560 
#    z 0.248630 0.127560 3.669100 
# 
# 
# High freq. dielectric constant tensor:
#      x y z
#    x 1.784680 -0.027900 0.026070 
#    y -0.027900 1.827550 0.011920 
#    z 0.026070 0.011920 1.804010 
# 
# From -- ./inp_files/272713.got.cif
#   From: 2010.06.25/outbox.cif.g09.slc.cpg/sg2_137_cif.got.tgz:272713.got - 2010.06.27 13:26:56.
