data_PCOD8043021
_publ_section_title
;
Structure prediction by ZEFSAII (Michael W. Deem and Ramdas Pophale) SiO2 
 PCOD8043021
Probable space group: P -1
;
_chemical_formula_sum "Si O2"
_cell_formula_units_Z 16
_cell_length_a 10.439832
_cell_length_b 11.998027
_cell_length_c 15.003960
_cell_angle_alpha 50.654778
_cell_angle_beta 110.451588
_cell_angle_gamma 68.891222
_cell_volume 812.051164
_symmetry_space_group_name_H-M "P -1"
_symmetry_group_IT_number 2
_symmetry_cell_setting 'triclinic'
loop_
_space_group_symop_operation_xyz
x,y,z
-x,-y,-z
loop_
_atom_site_type_symbol
_atom_site_label
_atom_site_fract_x
_atom_site_fract_y
_atom_site_fract_z
Si Si1 0.125955 0.880269 0.185182
Si Si2 0.987694 0.796586 0.530919
Si Si3 0.454546 0.364285 0.507506
Si Si4 0.329088 0.674054 0.587080
Si Si5 0.209733 0.363485 0.182725
Si Si6 0.245959 0.658453 0.027289
Si Si7 0.105193 0.819685 0.721505
Si Si8 0.333769 0.157432 0.505601
O O1 0.217441 0.638377 0.343801
O O2 0.345347 0.804887 0.282870
O O3 0.952240 0.063325 0.130338
O O4 0.000000 0.000000 0.000000
O O5 0.837776 0.778071 0.499674
O O6 0.169940 0.661490 0.561340
O O7 0.126815 0.685435 0.715385
O O8 0.824913 0.078201 0.347362
O O9 0.547128 0.400655 0.437673
O O10 0.408479 0.245364 0.520745
O O11 0.513007 0.493161 0.800920
O O12 0.163739 0.950402 0.428433
O O13 0.203318 0.285572 0.314801
O O14 0.443416 0.129556 0.306503
O O15 0.193156 0.545336 0.110509
O O16 0.000000 0.500000 0.000000
O O17 0.262692 0.639755 0.933800
#
# Coordination Sequence:
#
# PCOD8043021 Si02
#       8
#     2   2   2   2   2   2   2   2
#     4  11  21  36  61  88 108 141 201 248 286 329
#     4   9  20  37  56  80 122 159 184 228 278 347
#     4  11  22  37  62  85 111 152 190 246 286 336
#     4  10  19  36  56  83 111 154 192 225 284 330
#     4  11  23  32  57  85 119 157 182 232 294 337
#     4  12  20  35  60  86 112 149 195 243 277 335
#     4   9  20  35  55  80 120 150 200 220 274 340
#     4  11  22  39  54  84 126 147 188 234 291 346
#
# _framework density 19.703192999999999
#
# number of rings (size 3 to 8) (size 9 to 14) (size 15 to 20)
#    0.750    0.750    3.750    2.250    1.750    0.500 
#    2.250    0.000    0.000    7.500    0.000    0.000 
#    0.000    0.000    0.000    0.000    0.000    0.000 
#
# Total GULP energy -198224.936594 kJ/mol
# GULP energy per Si atom -12389.058537 kJ/mol
# Density = 1.965835 g / cm^3
# Si number density = 19.703193 Si / 1000 Ang^3
#
#
#
# Elastic Constant Matrix: (Units=GPa)
#
#
# Indices 1 2 3 4 5 6 
#
# 1 125.4580 32.1061 30.3721 2.5377 8.8140 3.2603
# 2 32.1061 69.8028 20.1894 -1.2210 2.3170 9.0566
# 3 30.3721 20.1894 115.2554 13.3358 7.3232 6.1829
# 4 2.5377 -1.2210 13.3358 26.0040 0.3495 -0.1610
# 5 8.8140 2.3170 7.3232 0.3495 22.1104 6.0876
# 6 3.2603 9.0566 6.1829 -0.1610 6.0876 16.6649
#
#
#
# Elastic Compliance Matrix: (Units=1/GPa)
#
#
# Indices 1 2 3 4 5 6 
#
# 1 0.009623 -0.004117 -0.001692 -0.000204 -0.003459 0.002244
# 2 -0.004117 0.017939 -0.001999 0.002173 0.002937 -0.009254
# 3 -0.001692 -0.001999 0.010291 -0.005191 -0.001965 -0.001733
# 4 -0.000204 0.002173 -0.005191 0.041236 0.000662 0.000942
# 5 -0.003459 0.002937 -0.001965 0.000662 0.052244 -0.019268
# 6 0.002244 -0.009254 -0.001733 0.000942 -0.019268 0.072287
#
#
# Mechanical properties :
#
#
# Convention : Reuss Voigt Hill
#
# Bulk Modulus (GPa) = 44.96874 52.87238 48.92056
# Shear Modulus (GPa) = 22.06072 28.14577 25.10324
#
# Velocity S-wave (km/s) = 3.34975 3.78363 3.57328
# Velocity P-wave (km/s) = 6.15091 6.78089 6.47357
#
# Compressibility (1/GPa) = 0.02223767
#
# Stress axis : x y z
#
# Youngs Moduli (GPa) = 103.92186 55.74485 97.17456
#
# Poissons Ratio (x) = 0.22948 0.16438
# Poissons Ratio (y) = 0.42780 0.19426
# Poissons Ratio (z) = 0.17579 0.11144
#
# Static dielectric constant tensor:
#      x y z
#    x 3.425740 -0.053180 0.055100 
#    y -0.053180 3.436010 0.039680 
#    z 0.055100 0.039680 3.763730 
# 
# 
# High freq. dielectric constant tensor:
#      x y z
#    x 1.740980 -0.007010 0.006580 
#    y -0.007010 1.744500 0.007940 
#    z 0.006580 0.007940 1.781810 
# 
# From -- ./inp_files/518858.got.cif
#   From: 2010.06.25/outbox.cif.g09.slc.cpg/sg2_260_cif.got.tgz:518858.got - 2010.06.27 13:26:56.
