data_PCOD8043385
_publ_section_title
;
Structure prediction by ZEFSAII (Michael W. Deem and Ramdas Pophale) SiO2 
 PCOD8043385
Probable space group: P -1
;
_chemical_formula_sum "Si O2"
_cell_formula_units_Z 16
_cell_length_a 20.053208
_cell_length_b 23.790525
_cell_length_c 12.090133
_cell_angle_alpha 152.341940
_cell_angle_beta 152.216901
_cell_angle_gamma 16.603847
_cell_volume 736.501590
_symmetry_space_group_name_H-M "P -1"
_symmetry_group_IT_number 2
_symmetry_cell_setting 'triclinic'
loop_
_space_group_symop_operation_xyz
x,y,z
-x,-y,-z
loop_
_atom_site_type_symbol
_atom_site_label
_atom_site_fract_x
_atom_site_fract_y
_atom_site_fract_z
Si Si1 0.777611 0.564562 0.260236
Si Si2 0.228175 0.812946 0.087414
Si Si3 0.524395 0.678861 0.624826
Si Si4 0.309031 0.621568 0.086538
Si Si5 0.993897 0.405890 0.728357
Si Si6 0.832616 0.500014 0.976669
Si Si7 0.423709 0.921497 0.517273
Si Si8 0.674146 0.929203 0.037482
O O1 0.734027 0.562218 0.064302
O O2 0.521414 0.799609 0.332382
O O3 0.000000 0.500000 0.500000
O O4 0.833275 0.400305 0.119877
O O5 0.160803 0.786675 0.055593
O O6 0.353950 0.855515 0.379067
O O7 0.417136 0.600249 0.929685
O O8 0.000000 0.000000 0.000000
O O9 0.334645 0.700433 0.362416
O O10 0.728678 0.528513 0.564861
O O11 0.392516 0.896081 0.801624
O O12 0.623969 0.605723 0.768584
O O13 0.050494 0.445266 0.771039
O O14 0.187997 0.166500 0.594656
O O15 0.000000 0.500000 0.000000
O O16 0.046023 0.257589 0.842259
O O17 0.649661 0.845182 0.759307
O O18 0.500000 0.000000 0.000000
#
# Coordination Sequence:
#
# PCOD8043385 Si02
#       8
#     2   2   2   2   2   2   2   2
#     4  11  25  44  65  89 132 182 223 267 319 398
#     4  10  22  41  65  97 128 169 217 269 330 389
#     4  11  22  41  64 100 136 161 219 280 330 382
#     4  10  24  42  64  94 130 174 213 271 331 382
#     4  10  19  36  61  99 129 158 211 274 325 378
#     4  11  23  39  65  95 132 181 217 264 324 388
#     4  11  21  39  64  96 128 168 218 268 331 383
#     4  12  20  36  65  98 128 166 213 272 333 379
#
# _framework density 21.724326000000001
#
# number of rings (size 3 to 8) (size 9 to 14) (size 15 to 20)
#    0.000    1.250    5.000    2.250    0.000    4.000 
#    0.000    4.375    0.000    0.000    0.000    0.000 
#    0.000    0.000    0.000    0.000    0.000    0.000 
#
# Total GULP energy -198271.583798 kJ/mol
# GULP energy per Si atom -12391.973987 kJ/mol
# Density = 2.167488 g / cm^3
# Si number density = 21.724326 Si / 1000 Ang^3
#
#
#
# Elastic Constant Matrix: (Units=GPa)
#
#
# Indices 1 2 3 4 5 6 
#
# 1 132.7198 46.3595 54.1642 13.6482 1.5533 17.6268
# 2 46.3595 120.2653 49.8564 24.8950 -3.0293 25.5943
# 3 54.1642 49.8564 142.1389 7.4044 13.9991 16.0579
# 4 13.6482 24.8950 7.4044 30.3137 -0.9120 -4.1613
# 5 1.5533 -3.0293 13.9991 -0.9120 32.1995 2.4768
# 6 17.6268 25.5943 16.0579 -4.1613 2.4768 34.0037
#
#
#
# Elastic Compliance Matrix: (Units=1/GPa)
#
#
# Indices 1 2 3 4 5 6 
#
# 1 0.009896 -0.001253 -0.002879 -0.003148 0.000819 -0.003273
# 2 -0.001253 0.015175 -0.003287 -0.012503 0.003409 -0.010999
# 3 -0.002879 -0.003287 0.009642 0.001499 -0.004313 -0.000089
# 4 -0.003148 -0.012503 0.001499 0.046475 -0.001601 0.016140
# 5 0.000819 0.003409 -0.004313 -0.001601 0.033443 -0.003586
# 6 -0.003273 -0.010999 -0.000089 0.016140 -0.003586 0.041662
#
#
# Mechanical properties :
#
#
# Convention : Reuss Voigt Hill
#
# Bulk Modulus (GPa) = 50.31101 77.32047 63.81574
# Shear Modulus (GPa) = 28.12829 35.61963 31.87396
#
# Velocity S-wave (km/s) = 3.60221 4.05361 3.83456
# Velocity P-wave (km/s) = 6.36478 7.58801 7.00315
#
# Compressibility (1/GPa) = 0.01987636
#
# Stress axis : x y z
#
# Youngs Moduli (GPa) = 101.05368 65.89594 103.71074
#
# Poissons Ratio (x) = 0.08254 0.29853
# Poissons Ratio (y) = 0.12657 0.34095
# Poissons Ratio (z) = 0.29089 0.21663
#
# Static dielectric constant tensor:
#      x y z
#    x 4.082790 0.164500 -0.108500 
#    y 0.164500 5.025060 -2.848080 
#    z -0.108500 -2.848080 12.308800 
# 
# 
# High freq. dielectric constant tensor:
#      x y z
#    x 1.835290 0.010710 0.001530 
#    y 0.010710 1.848420 0.018580 
#    z 0.001530 0.018580 1.862710 
# 
# From -- ./inp_files/467205.got.cif
#   From: 2010.06.25/outbox.cif.g09.slc.cpg/sg2_234_cif.got.tgz:467205.got - 2010.06.27 13:26:56.
