data_PCOD8043829
_publ_section_title
;
Structure prediction by ZEFSAII (Michael W. Deem and Ramdas Pophale) SiO2 
 PCOD8043829
Probable space group: P -1
;
_chemical_formula_sum "Si O2"
_cell_formula_units_Z 14
_cell_length_a 14.801847
_cell_length_b 20.429561
_cell_length_c 6.498323
_cell_angle_alpha 117.785713
_cell_angle_beta 75.415606
_cell_angle_gamma 155.698933
_cell_volume 629.453089
_symmetry_space_group_name_H-M "P -1"
_symmetry_group_IT_number 2
_symmetry_cell_setting 'triclinic'
loop_
_space_group_symop_operation_xyz
x,y,z
-x,-y,-z
loop_
_atom_site_type_symbol
_atom_site_label
_atom_site_fract_x
_atom_site_fract_y
_atom_site_fract_z
Si Si1 0.902304 0.362827 0.108678
Si Si2 0.344481 0.312418 0.851434
Si Si3 0.207630 0.090256 0.286881
Si Si4 0.459071 0.770856 0.453845
Si Si5 0.064585 0.450547 0.682912
Si Si6 0.463940 0.946926 0.675147
Si Si7 0.488957 0.296354 0.038928
O O1 0.164929 0.537019 0.329299
O O2 0.821068 0.388288 0.233341
O O3 0.948738 0.383284 0.872675
O O4 0.660802 0.136508 0.985730
O O5 0.293741 0.229750 0.550338
O O6 0.510126 0.384835 0.017225
O O7 0.500000 0.500000 0.000000
O O8 0.080096 0.139718 0.847826
O O9 0.374406 0.143722 0.341425
O O10 0.246266 0.126424 0.072960
O O11 0.521373 0.902523 0.596502
O O12 0.536989 0.794689 0.222532
O O13 0.827881 0.253383 0.386612
O O14 0.267198 0.533867 0.705562
O O15 0.500000 0.000000 0.500000
#
# Coordination Sequence:
#
# PCOD8043829 Si02
#       7
#     2   2   2   2   2   2   2
#     4   8  14  28  48  74 111 147 181 218 256 306
#     4  10  23  42  61  82 108 139 180 229 281 339
#     4  10  22  40  60  82 110 144 179 225 284 333
#     4   9  19  33  54  81 109 146 187 220 261 322
#     4   8  15  27  47  76 106 143 184 216 257 316
#     4   9  15  27  51  77 109 153 185 215 265 312
#     4  10  19  37  60  82 112 144 180 229 277 325
#
# _framework density 22.241530999999998
#
# number of rings (size 3 to 8) (size 9 to 14) (size 15 to 20)
#    0.000    2.857    0.000    3.000    0.000    5.143 
#    0.000   10.000    0.000    4.286    0.000    0.000 
#    0.000    0.000    0.000    0.000    0.000    0.000 
#
# Total GULP energy -173568.882202 kJ/mol
# GULP energy per Si atom -12397.777300 kJ/mol
# Density = 2.219091 g / cm^3
# Si number density = 22.241531 Si / 1000 Ang^3
#
#
#
# Elastic Constant Matrix: (Units=GPa)
#
#
# Indices 1 2 3 4 5 6 
#
# 1 139.5948 49.3978 59.7291 32.4559 -0.0488 -1.7462
# 2 49.3978 117.9361 54.6207 27.8314 -23.4255 3.0110
# 3 59.7291 54.6207 107.0392 33.1378 -5.8493 -3.0249
# 4 32.4559 27.8314 33.1378 44.6173 -6.6484 -3.7380
# 5 -0.0488 -23.4255 -5.8493 -6.6484 24.6009 11.6729
# 6 -1.7462 3.0110 -3.0249 -3.7380 11.6729 25.5851
#
#
#
# Elastic Compliance Matrix: (Units=1/GPa)
#
#
# Indices 1 2 3 4 5 6 
#
# 1 0.010744 -0.003442 -0.003289 -0.003944 -0.006620 0.003194
# 2 -0.003442 0.017448 -0.005508 -0.002267 0.020724 -0.012726
# 3 -0.003289 -0.005508 0.015778 -0.006321 -0.004922 0.003611
# 4 -0.003944 -0.002267 -0.006321 0.032167 0.004020 0.002116
# 5 -0.006620 0.020724 -0.004922 0.004020 0.078690 -0.038786
# 6 0.003194 -0.012726 0.003611 0.002116 -0.038786 0.059233
#
#
# Mechanical properties :
#
#
# Convention : Reuss Voigt Hill
#
# Bulk Modulus (GPa) = 51.30444 76.89615 64.10029
# Shear Modulus (GPa) = 20.40520 32.34883 26.37701
#
# Velocity S-wave (km/s) = 3.03221 3.81784 3.44748
# Velocity P-wave (km/s) = 5.94778 7.35410 6.68801
#
# Compressibility (1/GPa) = 0.01949149
#
# Stress axis : x y z
#
# Youngs Moduli (GPa) = 93.07841 57.31236 63.37786
#
# Poissons Ratio (x) = 0.19730 0.20844
# Poissons Ratio (y) = 0.32042 0.34909
# Poissons Ratio (z) = 0.30612 0.31568
#
# Static dielectric constant tensor:
#      x y z
#    x 4.052920 0.094190 0.230300 
#    y 0.094190 4.238490 0.184160 
#    z 0.230300 0.184160 4.328270 
# 
# 
# High freq. dielectric constant tensor:
#      x y z
#    x 1.869740 -0.000570 0.020530 
#    y -0.000570 1.892130 -0.014230 
#    z 0.020530 -0.014230 1.876700 
# 
# From -- ./inp_files/318749.got.cif
#   From: 2010.06.25/outbox.cif.g09.slc.cpg/sg2_160_cif.got.tgz:318749.got - 2010.06.27 13:26:56.
