data_PCOD8043440
_publ_section_title
;
Structure prediction by ZEFSAII (Michael W. Deem and Ramdas Pophale) SiO2 
 PCOD8043440
Probable space group: P -1
;
_chemical_formula_sum "Si O2"
_cell_formula_units_Z 14
_cell_length_a 11.118216
_cell_length_b 8.861102
_cell_length_c 13.950666
_cell_angle_alpha 54.528174
_cell_angle_beta 68.840851
_cell_angle_gamma 114.507084
_cell_volume 594.532301
_symmetry_space_group_name_H-M "P -1"
_symmetry_group_IT_number 2
_symmetry_cell_setting 'triclinic'
loop_
_space_group_symop_operation_xyz
x,y,z
-x,-y,-z
loop_
_atom_site_type_symbol
_atom_site_label
_atom_site_fract_x
_atom_site_fract_y
_atom_site_fract_z
Si Si1 0.167758 0.371196 0.801875
Si Si2 0.817881 0.807881 0.317174
Si Si3 0.209173 0.866962 0.906759
Si Si4 0.432996 0.256823 0.316060
Si Si5 0.754453 0.493799 0.997180
Si Si6 0.065859 0.281938 0.345462
Si Si7 0.388386 0.587194 0.287082
O O1 0.217288 0.417815 0.655487
O O2 0.409443 0.652490 0.681873
O O3 0.026301 0.380276 0.876801
O O4 0.000000 0.000000 0.000000
O O5 0.742868 0.679853 0.493283
O O6 0.697217 0.849033 0.289198
O O7 0.079937 0.180831 0.107749
O O8 0.399123 0.051285 0.865784
O O9 0.192337 0.655825 0.929960
O O10 0.466994 0.518664 0.216185
O O11 0.168750 0.881905 0.541828
O O12 0.506680 0.268388 0.185414
O O13 0.784743 0.546904 0.855958
O O14 0.225788 0.539804 0.293177
O O15 0.000000 0.000000 0.500000
#
# Coordination Sequence:
#
# PCOD8043440 Si02
#       7
#     2   2   2   2   2   2   2
#     4  10  19  36  62  92 123 160 210 244 315 376
#     4  11  20  39  64  95 123 167 205 253 310 380
#     4  11  23  39  63  97 130 158 204 267 319 368
#     4  11  21  41  65  93 122 166 213 254 303 384
#     4  12  23  41  65  95 130 162 204 265 320 353
#     4  10  24  43  63  91 123 169 219 252 297 377
#     4  11  22  43  65  89 126 167 218 252 300 379
#
# _framework density 23.547920000000001
#
# number of rings (size 3 to 8) (size 9 to 14) (size 15 to 20)
#    0.000    1.143    8.571    0.857    0.000    2.857 
#    5.143    2.143    0.000    0.000    0.000    0.000 
#    0.000    0.000    0.000    0.000    0.000    0.000 
#
# Total GULP energy -173470.570369 kJ/mol
# GULP energy per Si atom -12390.755026 kJ/mol
# Density = 2.349432 g / cm^3
# Si number density = 23.547920 Si / 1000 Ang^3
#
#
#
# Elastic Constant Matrix: (Units=GPa)
#
#
# Indices 1 2 3 4 5 6 
#
# 1 75.0074 61.6579 53.7692 5.2376 -21.5970 26.1353
# 2 61.6579 84.5870 57.4729 32.7679 -13.4230 15.0388
# 3 53.7692 57.4729 82.0653 34.9392 -15.6815 6.1521
# 4 5.2376 32.7679 34.9392 35.0340 4.4712 -11.3315
# 5 -21.5970 -13.4230 -15.6815 4.4712 41.8152 -5.1149
# 6 26.1353 15.0388 6.1521 -11.3315 -5.1149 53.8044
#
#
#
# Elastic Compliance Matrix: (Units=1/GPa)
#
#
# Indices 1 2 3 4 5 6 
#
# 1 -2.599693 2.152689 1.794001 -3.543570 0.368785 -0.255267
# 2 2.152689 -1.751774 -1.493710 2.908642 -0.297328 0.199077
# 3 1.794001 -1.493710 -1.205027 2.416500 -0.242449 0.169739
# 4 -3.543570 2.908642 2.416500 -4.736612 0.477024 -0.320227
# 5 0.368785 -0.297328 -0.242449 0.477024 -0.019278 0.030323
# 6 -0.255267 0.199077 0.169739 -0.320227 0.030323 0.002970
#
#
# Mechanical properties :
#
#
# Convention : Reuss Voigt Hill
#
# Bulk Modulus (GPa) = -1.53719 65.27329 31.86805
# Shear Modulus (GPa) = -0.32400 30.71469 15.19535
#
# Velocity S-wave (km/s) = -0.37133 3.61549 2.54302
# Velocity P-wave (km/s) = 0.91546 6.72373 4.71012
#
# Compressibility (1/GPa) = -0.65053597
#
# Stress axis : x y z
#
# Youngs Moduli (GPa) = -0.38466 -0.57085 -0.82986
#
# Poissons Ratio (x) = 1.22886 1.48876
# Poissons Ratio (y) = 0.82805 -1.23957
# Poissons Ratio (z) = 0.69008 -0.85268
#
# Static dielectric constant tensor:
#      x y z
#    x 4.589540 0.427810 -0.563820 
#    y 0.427810 4.728610 0.147230 
#    z -0.563820 0.147230 4.342480 
# 
# 
# High freq. dielectric constant tensor:
#      x y z
#    x 1.904690 0.024030 -0.022710 
#    y 0.024030 1.936970 0.007810 
#    z -0.022710 0.007810 1.925900 
# 
# From -- ./inp_files/515185.got.cif
#   From: 2010.06.25/outbox.cif.g09.slc.cpg/sg2_258_cif.got.tgz:515185.got - 2010.06.27 13:26:56.
