data_PCOD8043125
_publ_section_title
;
Structure prediction by ZEFSAII (Michael W. Deem and Ramdas Pophale) SiO2 
 PCOD8043125
Probable space group: P -1
;
_chemical_formula_sum "Si O2"
_cell_formula_units_Z 16
_cell_length_a 13.830324
_cell_length_b 24.405812
_cell_length_c 14.081956
_cell_angle_alpha 23.649096
_cell_angle_beta 148.410124
_cell_angle_gamma 138.898432
_cell_volume 990.668535
_symmetry_space_group_name_H-M "P -1"
_symmetry_group_IT_number 2
_symmetry_cell_setting 'triclinic'
loop_
_space_group_symop_operation_xyz
x,y,z
-x,-y,-z
loop_
_atom_site_type_symbol
_atom_site_label
_atom_site_fract_x
_atom_site_fract_y
_atom_site_fract_z
Si Si1 0.793140 0.552540 0.277319
Si Si2 0.511795 0.976214 0.660284
Si Si3 0.965508 0.938822 0.669378
Si Si4 0.736139 0.266168 0.654714
Si Si5 0.401118 0.190153 0.388408
Si Si6 0.964599 0.752360 0.219557
Si Si7 0.871278 0.063083 0.576696
Si Si8 0.073301 0.132003 0.807378
O O1 0.685776 0.418988 0.416122
O O2 0.817747 0.645367 0.243632
O O3 0.000000 0.500000 0.500000
O O4 0.675718 0.651084 0.947266
O O5 0.348617 0.882852 0.697885
O O6 0.500000 0.000000 0.500000
O O7 0.489330 0.114356 0.487351
O O8 0.705960 0.888679 0.989047
O O9 0.765903 0.883954 0.591078
O O10 0.964249 0.059665 0.555808
O O11 0.000000 0.000000 0.500000
O O12 0.132478 0.820413 0.021761
O O13 0.555885 0.191939 0.597951
O O14 0.839883 0.284786 0.611473
O O15 0.990496 0.744986 0.367159
O O16 0.877279 0.905040 0.870549
O O17 0.977424 0.159896 0.580072
O O18 0.000000 0.000000 0.000000
#
# Coordination Sequence:
#
# PCOD8043125 Si02
#       8
#     2   2   2   2   2   2   2   2
#     4  10  16  31  47  65  99 128 151 188 237 283
#     4  11  16  23  41  63  94 124 140 173 228 285
#     4  10  20  35  48  64  94 127 162 201 229 265
#     4  10  20  30  48  69  95 129 156 193 231 277
#     4  11  19  31  47  71  97 124 156 190 235 283
#     4   9  15  28  42  66  97 126 145 181 230 285
#     4   9  17  28  40  64  92 119 151 182 228 273
#     4  10  16  24  40  63  95 123 145 176 225 286
#
# _framework density 16.150708999999999
#
# number of rings (size 3 to 8) (size 9 to 14) (size 15 to 20)
#    0.000    2.000    7.500    2.625    0.000    0.500 
#    0.000    0.000    0.000    0.000    0.000    0.875 
#    0.000   17.000    0.000    0.000    0.000    0.000 
#
# Total GULP energy -198214.774944 kJ/mol
# GULP energy per Si atom -12388.423434 kJ/mol
# Density = 1.611395 g / cm^3
# Si number density = 16.150709 Si / 1000 Ang^3
#
#
#
# Elastic Constant Matrix: (Units=GPa)
#
#
# Indices 1 2 3 4 5 6 
#
# 1 86.9715 44.5483 35.5254 2.6341 -10.0251 -17.0045
# 2 44.5483 119.7031 33.9097 18.0156 -4.7854 -18.1789
# 3 35.5254 33.9097 49.7517 8.4210 2.8824 -1.9452
# 4 2.6341 18.0156 8.4210 22.8157 0.6591 5.0352
# 5 -10.0251 -4.7854 2.8824 0.6591 16.2726 5.3149
# 6 -17.0045 -18.1789 -1.9452 5.0352 5.3149 23.5237
#
#
#
# Elastic Compliance Matrix: (Units=1/GPa)
#
#
# Indices 1 2 3 4 5 6 
#
# 1 0.021973 -0.002409 -0.014785 0.002366 0.012240 0.009528
# 2 -0.002409 0.014289 -0.005689 -0.011380 0.000547 0.011143
# 3 -0.014785 -0.005689 0.035894 -0.004909 -0.014389 -0.007814
# 4 0.002366 -0.011380 -0.004909 0.058858 0.003409 -0.020858
# 5 0.012240 0.000547 -0.014389 0.003409 0.074675 -0.009521
# 6 0.009528 0.011143 -0.007814 -0.020858 -0.009521 0.063978
#
#
# Mechanical properties :
#
#
# Convention : Reuss Voigt Hill
#
# Bulk Modulus (GPa) = 37.89363 53.82146 45.85755
# Shear Modulus (GPa) = 15.42115 22.01859 18.71987
#
# Velocity S-wave (km/s) = 3.09338 3.69632 3.40821
# Velocity P-wave (km/s) = 6.02263 7.18428 6.62895
#
# Compressibility (1/GPa) = 0.02638966
#
# Stress axis : x y z
#
# Youngs Moduli (GPa) = 45.50945 69.98517 27.86007
#
# Poissons Ratio (x) = 0.16859 0.41192
# Poissons Ratio (y) = 0.10963 0.15849
# Poissons Ratio (z) = 0.67288 0.39812
#
# Static dielectric constant tensor:
#      x y z
#    x 3.152960 -0.448350 0.346820 
#    y -0.448350 3.662760 0.178980 
#    z 0.346820 0.178980 2.849530 
# 
# 
# High freq. dielectric constant tensor:
#      x y z
#    x 1.595140 -0.021700 0.035640 
#    y -0.021700 1.634350 0.030100 
#    z 0.035640 0.030100 1.578420 
# 
# From -- ./inp_files/432896.got.cif
#   From: 2010.06.25/outbox.cif.g09.slc.cpg/sg2_217_cif.got.tgz:432896.got - 2010.06.27 13:26:56.
