data_PCOD8043166
_publ_section_title
;
Structure prediction by ZEFSAII (Michael W. Deem and Ramdas Pophale) SiO2 
 PCOD8043166
Probable space group: P -1
;
_chemical_formula_sum "Si O2"
_cell_formula_units_Z 14
_cell_length_a 12.059560
_cell_length_b 11.017406
_cell_length_c 7.876268
_cell_angle_alpha 43.318009
_cell_angle_beta 77.287935
_cell_angle_gamma 62.397641
_cell_volume 624.320392
_symmetry_space_group_name_H-M "P -1"
_symmetry_group_IT_number 2
_symmetry_cell_setting 'triclinic'
loop_
_space_group_symop_operation_xyz
x,y,z
-x,-y,-z
loop_
_atom_site_type_symbol
_atom_site_label
_atom_site_fract_x
_atom_site_fract_y
_atom_site_fract_z
Si Si1 0.383036 0.271499 0.110417
Si Si2 0.826325 0.277249 0.872108
Si Si3 0.562264 0.847698 0.405877
Si Si4 0.529715 0.489182 0.698282
Si Si5 0.101079 0.500311 0.835705
Si Si6 0.833470 0.664762 0.389547
Si Si7 0.981233 0.873797 0.317120
O O1 0.382480 0.198773 0.375080
O O2 0.461974 0.074464 0.173130
O O3 0.447583 0.416780 0.916681
O O4 0.239380 0.391199 0.979587
O O5 0.677188 0.346334 0.833850
O O6 0.855389 0.465345 0.691927
O O7 0.900181 0.144027 0.820033
O O8 0.889809 0.103847 0.172124
O O9 0.490779 0.714543 0.532248
O O10 0.680954 0.798079 0.289347
O O11 0.500000 0.500000 0.500000
O O12 0.104452 0.401463 0.750624
O O13 0.053282 0.736491 0.592140
O O14 0.000000 0.500000 0.000000
O O15 0.896606 0.782132 0.345720
#
# Coordination Sequence:
#
# PCOD8043166 Si02
#       7
#     2   2   2   2   2   2   2
#     4  11  23  41  62  88 126 160 199 253 299 356
#     4   9  19  33  58  87 115 151 197 240 288 354
#     4  10  23  41  64  90 118 162 205 245 305 357
#     4  11  22  38  62  92 122 155 201 253 302 357
#     4  11  23  38  60  90 121 155 200 249 298 358
#     4  10  20  39  64  86 116 158 201 247 298 354
#     4  10  19  36  59  84 117 159 198 240 296 353
#
# _framework density 22.424382000000001
#
# number of rings (size 3 to 8) (size 9 to 14) (size 15 to 20)
#    0.000    1.714    0.000    6.429    0.000    5.714 
#    0.000    1.429    0.000   18.000    0.000    0.000 
#    0.000    0.000    0.000    0.000    0.000    0.000 
#
# Total GULP energy -173463.627512 kJ/mol
# GULP energy per Si atom -12390.259108 kJ/mol
# Density = 2.237334 g / cm^3
# Si number density = 22.424382 Si / 1000 Ang^3
#
#
#
# Elastic Constant Matrix: (Units=GPa)
#
#
# Indices 1 2 3 4 5 6 
#
# 1 112.2053 39.7833 50.8727 -21.4931 -8.1636 -25.6671
# 2 39.7833 91.0636 45.2421 -21.0187 -7.6472 -18.6580
# 3 50.8727 45.2421 109.2007 -20.1027 9.4845 -16.4497
# 4 -21.4931 -21.0187 -20.1027 31.7537 -6.2374 -5.0892
# 5 -8.1636 -7.6472 9.4845 -6.2374 34.4443 2.7776
# 6 -25.6671 -18.6580 -16.4497 -5.0892 2.7776 37.8630
#
#
#
# Elastic Compliance Matrix: (Units=1/GPa)
#
#
# Indices 1 2 3 4 5 6 
#
# 1 0.015548 0.000460 -0.004516 0.010755 0.006188 0.009796
# 2 0.000460 0.018295 -0.004951 0.011996 0.007039 0.008272
# 3 -0.004516 -0.004951 0.014379 0.001837 -0.005911 0.001426
# 4 0.010755 0.011996 0.001837 0.053636 0.012785 0.020271
# 5 0.006188 0.007039 -0.005911 0.012785 0.035666 0.004198
# 6 0.009796 0.008272 0.001426 0.020271 0.004198 0.040165
#
#
# Mechanical properties :
#
#
# Convention : Reuss Voigt Hill
#
# Bulk Modulus (GPa) = 33.10321 64.91842 49.01082
# Shear Modulus (GPa) = 24.29896 32.58363 28.44130
#
# Velocity S-wave (km/s) = 3.29537 3.81602 3.56521
# Velocity P-wave (km/s) = 5.41050 6.95908 6.23307
#
# Compressibility (1/GPa) = 0.03020855
#
# Stress axis : x y z
#
# Youngs Moduli (GPa) = 64.31797 54.66054 69.54679
#
# Poissons Ratio (x) = -0.02517 0.31405
# Poissons Ratio (y) = -0.02961 0.34433
# Poissons Ratio (z) = 0.29044 0.27063
#
# Static dielectric constant tensor:
#      x y z
#    x 3.813670 -0.012480 -0.164960 
#    y -0.012480 3.766780 0.013370 
#    z -0.164960 0.013370 4.400480 
# 
# 
# High freq. dielectric constant tensor:
#      x y z
#    x 1.880910 -0.027450 -0.001850 
#    y -0.027450 1.874550 -0.017260 
#    z -0.001850 -0.017260 1.896150 
# 
# From -- ./inp_files/255725.got.cif
#   From: 2010.06.25/outbox.cif.g09.slc.cpg/sg2_128_cif.got.tgz:255725.got - 2010.06.27 13:26:56.
