data_PCOD8043248
_publ_section_title
;
Structure prediction by ZEFSAII (Michael W. Deem and Ramdas Pophale) SiO2 
 PCOD8043248
Probable space group: P -1
;
_chemical_formula_sum "Si O2"
_cell_formula_units_Z 16
_cell_length_a 10.132027
_cell_length_b 13.237420
_cell_length_c 15.331035
_cell_angle_alpha 70.015498
_cell_angle_beta 109.599997
_cell_angle_gamma 47.188521
_cell_volume 804.308393
_symmetry_space_group_name_H-M "P -1"
_symmetry_group_IT_number 2
_symmetry_cell_setting 'triclinic'
loop_
_space_group_symop_operation_xyz
x,y,z
-x,-y,-z
loop_
_atom_site_type_symbol
_atom_site_label
_atom_site_fract_x
_atom_site_fract_y
_atom_site_fract_z
Si Si1 0.243327 0.567796 0.629000
Si Si2 0.605447 0.860892 0.147638
Si Si3 0.574506 0.431550 0.899210
Si Si4 0.725402 0.822632 0.730088
Si Si5 0.667638 0.999532 0.261967
Si Si6 0.427263 0.383652 0.031325
Si Si7 0.799912 0.045043 0.895390
Si Si8 0.153696 0.328433 0.389487
O O1 0.424186 0.532645 0.738664
O O2 0.492253 0.318183 0.707312
O O3 0.023519 0.770311 0.445954
O O4 0.036069 0.645929 0.630126
O O5 0.633514 0.915651 0.222544
O O6 0.337285 0.954142 0.072833
O O7 0.958137 0.569715 0.298388
O O8 0.500000 0.000000 0.000000
O O9 0.431970 0.631462 0.860623
O O10 0.489180 0.381711 0.947666
O O11 0.960219 0.173170 0.056469
O O12 0.785032 0.714778 0.687035
O O13 0.578461 0.839198 0.760718
O O14 0.494074 0.085334 0.586141
O O15 0.056045 0.635784 0.895439
O O16 0.592187 0.154836 0.141330
O O17 0.000000 0.000000 0.000000
#
# Coordination Sequence:
#
# PCOD8043248 Si02
#       8
#     2   2   2   2   2   2   2   2
#     4   9  19  39  60  85 117 158 200 251 302 360
#     4  11  23  38  62  95 127 156 199 257 310 351
#     4  10  21  38  62  81 114 166 209 235 303 374
#     4  10  19  36  60  87 119 152 198 250 305 352
#     4  11  24  36  61  90 124 152 201 265 306 344
#     4  11  22  36  59  87 118 158 204 253 297 362
#     4   9  20  38  65  84 115 167 201 237 291 377
#     4   9  19  35  60  87 121 156 192 247 310 358
#
# _framework density 19.892868
#
# number of rings (size 3 to 8) (size 9 to 14) (size 15 to 20)
#    0.000    2.000    1.250    1.875    3.500    7.000 
#    0.000    0.625   11.000    0.000    0.000    0.000 
#    0.000    0.000    0.000    0.000    0.000    0.000 
#
# Total GULP energy -198315.737038 kJ/mol
# GULP energy per Si atom -12394.733565 kJ/mol
# Density = 1.984759 g / cm^3
# Si number density = 19.892868 Si / 1000 Ang^3
#
#
#
# Elastic Constant Matrix: (Units=GPa)
#
#
# Indices 1 2 3 4 5 6 
#
# 1 83.2818 28.1159 46.0579 -11.2930 -4.7060 8.6915
# 2 28.1159 88.3003 35.7422 -9.7147 -0.4782 8.4393
# 3 46.0579 35.7422 125.4075 -12.0845 2.3329 5.9350
# 4 -11.2930 -9.7147 -12.0845 34.8349 0.3427 4.1769
# 5 -4.7060 -0.4782 2.3329 0.3427 22.8161 -5.7945
# 6 8.6915 8.4393 5.9350 4.1769 -5.7945 26.3548
#
#
#
# Elastic Compliance Matrix: (Units=1/GPa)
#
#
# Indices 1 2 3 4 5 6 
#
# 1 0.016575 -0.002576 -0.004926 0.003326 0.002953 -0.003410
# 2 -0.002576 0.013801 -0.002551 0.002570 -0.000936 -0.003608
# 3 -0.004926 -0.002551 0.010737 0.001528 -0.002379 -0.000742
# 4 0.003326 0.002570 0.001528 0.031979 -0.001863 -0.007742
# 5 0.002953 -0.000936 -0.002379 -0.001863 0.047375 0.010573
# 6 -0.003410 -0.003608 -0.000742 -0.007742 0.010573 0.043943
#
#
# Mechanical properties :
#
#
# Convention : Reuss Voigt Hill
#
# Bulk Modulus (GPa) = 47.60635 57.42461 52.51548
# Shear Modulus (GPa) = 26.10722 29.27271 27.68996
#
# Velocity S-wave (km/s) = 3.62662 3.84020 3.73494
# Velocity P-wave (km/s) = 6.44359 6.97083 6.71239
#
# Compressibility (1/GPa) = 0.02100560
#
# Stress axis : x y z
#
# Youngs Moduli (GPa) = 60.33093 72.46110 93.13493
#
# Poissons Ratio (x) = 0.18665 0.45882
# Poissons Ratio (y) = 0.15540 0.23762
# Poissons Ratio (z) = 0.29722 0.18488
#
# Static dielectric constant tensor:
#      x y z
#    x 3.453080 -0.147480 0.182690 
#    y -0.147480 3.729290 -0.266270 
#    z 0.182690 -0.266270 3.819220 
# 
# 
# High freq. dielectric constant tensor:
#      x y z
#    x 1.754680 -0.006680 0.009130 
#    y -0.006680 1.782520 -0.010590 
#    z 0.009130 -0.010590 1.776840 
# 
# From -- ./inp_files/319527.got.cif
#   From: 2010.06.25/outbox.cif.g09.slc.cpg/sg2_160_cif.got.tgz:319527.got - 2010.06.27 13:26:56.
