data_PCOD8043974
_publ_section_title
;
Structure prediction by ZEFSAII (Michael W. Deem and Ramdas Pophale) SiO2 
 PCOD8043974
Probable space group: P -1
;
_chemical_formula_sum "Si O2"
_cell_formula_units_Z 16
_cell_length_a 6.794203
_cell_length_b 11.326715
_cell_length_c 11.871414
_cell_angle_alpha 88.169081
_cell_angle_beta 90.403410
_cell_angle_gamma 59.735267
_cell_volume 788.375174
_symmetry_space_group_name_H-M "P -1"
_symmetry_group_IT_number 2
_symmetry_cell_setting 'triclinic'
loop_
_space_group_symop_operation_xyz
x,y,z
-x,-y,-z
loop_
_atom_site_type_symbol
_atom_site_label
_atom_site_fract_x
_atom_site_fract_y
_atom_site_fract_z
Si Si1 0.832553 0.565801 0.654402
Si Si2 0.829104 0.599264 0.903730
Si Si3 0.329802 0.779762 0.635153
Si Si4 0.419702 0.030938 0.843974
Si Si5 0.138787 0.153624 0.040475
Si Si6 0.324911 0.785818 0.883303
Si Si7 0.910856 0.338294 0.501982
Si Si8 0.309923 0.049779 0.591358
O O1 0.894879 0.523356 0.785987
O O2 0.602004 0.711688 0.640110
O O3 0.805138 0.445249 0.600965
O O4 0.024844 0.587028 0.596198
O O5 0.873860 0.724620 0.889899
O O6 0.561328 0.652245 0.929922
O O7 0.000000 0.500000 0.000000
O O8 0.249374 0.762525 0.759573
O O9 0.271060 0.698560 0.546104
O O10 0.221596 0.940811 0.600605
O O11 0.672819 0.988042 0.892878
O O12 0.373412 0.908494 0.870933
O O13 0.405564 0.065989 0.711554
O O14 0.226078 0.157064 0.913344
O O15 0.886296 0.172784 0.034393
O O16 0.116009 0.198722 0.552871
O O17 0.500000 0.000000 0.500000
#
# Coordination Sequence:
#
# PCOD8043974 Si02
#       8
#     2   2   2   2   2   2   2   2
#     4  10  22  40  59  86 116 158 198 239 290 354
#     4  10  22  37  58  83 117 151 192 240 288 341
#     4  10  20  38  60  88 116 155 197 239 294 351
#     4   9  21  36  57  88 115 150 186 242 289 344
#     4  10  19  37  62  80 115 154 191 234 291 345
#     4   9  19  35  61  85 111 149 195 234 288 354
#     4  11  22  37  63  83 119 158 195 242 291 347
#     4  11  22  37  60  88 125 150 194 244 294 346
#
# _framework density 20.294906000000001
#
# number of rings (size 3 to 8) (size 9 to 14) (size 15 to 20)
#    0.000    2.000    1.250    2.625    3.500    0.500 
#    0.000    0.000    5.500    0.000    0.000    0.000 
#    0.000    0.000    0.000    0.000    0.000    0.000 
#
# Total GULP energy -198331.145436 kJ/mol
# GULP energy per Si atom -12395.696590 kJ/mol
# Density = 2.024871 g / cm^3
# Si number density = 20.294906 Si / 1000 Ang^3
#
#
#
# Elastic Constant Matrix: (Units=GPa)
#
#
# Indices 1 2 3 4 5 6 
#
# 1 81.2772 20.2851 42.1637 -6.2688 -0.7835 -18.2256
# 2 20.2851 79.2297 36.9362 0.4498 1.6671 -8.4353
# 3 42.1637 36.9362 140.6088 6.0732 9.3119 -13.8907
# 4 -6.2688 0.4498 6.0732 32.2199 -2.3249 4.6281
# 5 -0.7835 1.6671 9.3119 -2.3249 27.9004 8.1619
# 6 -18.2256 -8.4353 -13.8907 4.6281 8.1619 29.7887
#
#
#
# Elastic Compliance Matrix: (Units=1/GPa)
#
#
# Indices 1 2 3 4 5 6 
#
# 1 0.016659 -0.001647 -0.003952 0.002937 -0.000047 0.007440
# 2 -0.001647 0.014719 -0.003152 -0.000228 -0.000432 0.001845
# 3 -0.003952 -0.003152 0.009854 -0.003328 -0.004366 0.002998
# 4 0.002937 -0.000228 -0.003328 0.033628 0.005962 -0.006678
# 5 -0.000047 -0.000432 -0.004366 0.005962 0.042106 -0.014650
# 6 0.007440 0.001845 0.002998 -0.006678 -0.014650 0.045093
#
#
# Mechanical properties :
#
#
# Convention : Reuss Voigt Hill
#
# Bulk Modulus (GPa) = 42.13802 55.54283 48.84042
# Shear Modulus (GPa) = 26.67081 31.43051 29.05066
#
# Velocity S-wave (km/s) = 3.62907 3.93961 3.78752
# Velocity P-wave (km/s) = 6.19420 6.93695 6.57607
#
# Compressibility (1/GPa) = 0.02373154
#
# Stress axis : x y z
#
# Youngs Moduli (GPa) = 60.02795 67.93769 101.48211
#
# Poissons Ratio (x) = 0.11186 0.40103
# Poissons Ratio (y) = 0.09884 0.31989
# Poissons Ratio (z) = 0.23721 0.21415
#
# Static dielectric constant tensor:
#      x y z
#    x 3.587800 -0.211640 0.122360 
#    y -0.211640 3.931460 0.374890 
#    z 0.122360 0.374890 4.003170 
# 
# 
# High freq. dielectric constant tensor:
#      x y z
#    x 1.777660 -0.008540 0.012560 
#    y -0.008540 1.787750 0.021270 
#    z 0.012560 0.021270 1.796720 
# 
# From -- ./inp_files/95030.got.cif
#   From: 2010.06.25/outbox.cif.g09.slc.cpg/sg2_48_cif.got.tgz:95030.got - 2010.06.27 13:26:56.
