data_PCOD8043824
_publ_section_title
;
Structure prediction by ZEFSAII (Michael W. Deem and Ramdas Pophale) SiO2 
 PCOD8043824
Probable space group: P -1
;
_chemical_formula_sum "Si O2"
_cell_formula_units_Z 16
_cell_length_a 7.475707
_cell_length_b 9.430334
_cell_length_c 9.826498
_cell_angle_alpha 98.717520
_cell_angle_beta 116.180284
_cell_angle_gamma 95.712874
_cell_volume 603.590682
_symmetry_space_group_name_H-M "P -1"
_symmetry_group_IT_number 2
_symmetry_cell_setting 'triclinic'
loop_
_space_group_symop_operation_xyz
x,y,z
-x,-y,-z
loop_
_atom_site_type_symbol
_atom_site_label
_atom_site_fract_x
_atom_site_fract_y
_atom_site_fract_z
Si Si1 0.325399 0.946021 0.754192
Si Si2 0.611910 0.809032 0.662405
Si Si3 0.799092 0.581027 0.594147
Si Si4 0.070185 0.955727 0.317028
Si Si5 0.838676 0.752694 0.992354
Si Si6 0.968206 0.324841 0.576377
Si Si7 0.903386 0.481616 0.113501
Si Si8 0.551868 0.224462 0.983677
O O1 0.094156 0.961338 0.655489
O O2 0.398094 0.841291 0.648834
O O3 0.333534 0.866787 0.888938
O O4 0.465667 0.107994 0.819492
O O5 0.594334 0.648906 0.558121
O O6 0.781845 0.811747 0.837294
O O7 0.715520 0.935248 0.612245
O O8 0.935498 0.681313 0.540931
O O9 0.775478 0.411953 0.513330
O O10 0.913426 0.596886 0.783098
O O11 0.989869 0.884380 0.135175
O O12 0.118166 0.835530 0.421041
O O13 0.941313 0.602392 0.015644
O O14 0.629086 0.710879 0.999186
O O15 0.131371 0.414516 0.752371
O O16 0.707068 0.360166 0.994317
#
# Coordination Sequence:
#
# PCOD8043824 Si02
#       8
#     2   2   2   2   2   2   2   2
#     4   9  20  34  51  84 120 142 180 226 268 338
#     4  11  21  34  56  85 116 148 180 224 279 332
#     4   9  19  36  56  78 110 145 188 242 270 310
#     4  10  19  37  60  80 112 155 179 222 284 324
#     4   9  19  31  50  86 117 139 181 226 268 341
#     4   8  19  38  57  78 107 144 197 236 265 324
#     4   9  16  31  56  79 105 150 185 218 281 325
#     4   9  16  31  51  76 115 155 174 216 278 332
#
# _framework density 26.508032
#
# number of rings (size 3 to 8) (size 9 to 14) (size 15 to 20)
#    0.750    2.000    0.000    2.250    0.000    2.000 
#    2.250    0.625    0.000    4.500    0.000    0.000 
#    0.000    0.000    0.000    0.000    0.000    0.000 
#
# Total GULP energy -198216.245427 kJ/mol
# GULP energy per Si atom -12388.515339 kJ/mol
# Density = 2.644770 g / cm^3
# Si number density = 26.508032 Si / 1000 Ang^3
#
#
#
# Elastic Constant Matrix: (Units=GPa)
#
#
# Indices 1 2 3 4 5 6 
#
# 1 64.2940 16.6435 2.7678 -6.7958 -22.7390 -26.9133
# 2 16.6435 121.6091 22.8836 -9.1815 -17.0637 -22.1747
# 3 2.7678 22.8836 84.4976 -10.5968 -11.7300 1.9938
# 4 -6.7958 -9.1815 -10.5968 44.7207 1.9829 -3.1452
# 5 -22.7390 -17.0637 -11.7300 1.9829 33.4221 5.4557
# 6 -26.9133 -22.1747 1.9938 -3.1452 5.4557 36.7844
#
#
#
# Elastic Compliance Matrix: (Units=1/GPa)
#
#
# Indices 1 2 3 4 5 6 
#
# 1 0.031712 0.002729 0.001177 0.006380 0.019337 0.022461
# 2 0.002729 0.010597 -0.002139 0.002418 0.005074 0.007955
# 3 0.001177 -0.002139 0.013364 0.002594 0.004506 -0.001600
# 4 0.006380 0.002418 0.002594 0.024805 0.003783 0.007545
# 5 0.019337 0.005074 0.004506 0.003783 0.045299 0.010567
# 6 0.022461 0.007955 -0.001600 0.007545 0.010567 0.047579
#
#
# Mechanical properties :
#
#
# Convention : Reuss Voigt Hill
#
# Bulk Modulus (GPa) = 16.89020 39.44338 28.16679
# Shear Modulus (GPa) = 26.37709 38.19252 32.28480
#
# Velocity S-wave (km/s) = 3.15788 3.79989 3.49366
# Velocity P-wave (km/s) = 4.43642 5.84503 5.18875
#
# Compressibility (1/GPa) = 0.05920595
#
# Stress axis : x y z
#
# Youngs Moduli (GPa) = 31.53398 94.36368 74.82764
#
# Poissons Ratio (x) = -0.25753 -0.08805
# Poissons Ratio (y) = -0.08606 0.16009
# Poissons Ratio (z) = -0.03711 0.20188
#
# Static dielectric constant tensor:
#      x y z
#    x 4.325720 -0.513090 -0.177270 
#    y -0.513090 5.087910 -0.003420 
#    z -0.177270 -0.003420 4.631200 
# 
# 
# High freq. dielectric constant tensor:
#      x y z
#    x 2.039670 -0.029250 -0.013260 
#    y -0.029250 2.092550 0.004610 
#    z -0.013260 0.004610 2.065170 
# 
# From -- ./inp_files/376407.got.cif
#   From: 2010.06.25/outbox.cif.g09.slc.cpg/sg2_189_cif.got.tgz:376407.got - 2010.06.27 13:26:56.
