data_PCOD8043958
_publ_section_title
;
Structure prediction by ZEFSAII (Michael W. Deem and Ramdas Pophale) SiO2 
 PCOD8043958
Probable space group: P -1
;
_chemical_formula_sum "Si O2"
_cell_formula_units_Z 16
_cell_length_a 12.225369
_cell_length_b 17.348796
_cell_length_c 14.242211
_cell_angle_alpha 66.358071
_cell_angle_beta 159.438043
_cell_angle_gamma 112.267641
_cell_volume 971.832281
_symmetry_space_group_name_H-M "P -1"
_symmetry_group_IT_number 2
_symmetry_cell_setting 'triclinic'
loop_
_space_group_symop_operation_xyz
x,y,z
-x,-y,-z
loop_
_atom_site_type_symbol
_atom_site_label
_atom_site_fract_x
_atom_site_fract_y
_atom_site_fract_z
Si Si1 0.520670 0.583234 0.537669
Si Si2 0.374403 0.470040 0.635058
Si Si3 0.710813 0.190118 0.042818
Si Si4 0.648848 0.445408 0.065621
Si Si5 0.897470 0.838609 0.334548
Si Si6 0.863499 0.011385 0.282315
Si Si7 0.790782 0.345635 0.913317
Si Si8 0.601992 0.253743 0.117370
O O1 0.500000 0.500000 0.500000
O O2 0.392157 0.558706 0.549492
O O3 0.304773 0.650171 0.276231
O O4 0.872567 0.614779 0.815733
O O5 0.547116 0.484245 0.865588
O O6 0.538676 0.394599 0.748766
O O7 0.018467 0.443458 0.376309
O O8 0.924187 0.106262 0.246363
O O9 0.796287 0.241548 0.182213
O O10 0.340703 0.167448 0.764106
O O11 0.785401 0.247683 0.984755
O O12 0.500000 0.500000 0.000000
O O13 0.518259 0.350616 0.017258
O O14 0.197963 0.781412 0.618721
O O15 0.997637 0.937699 0.357631
O O16 0.718828 0.801907 0.117351
O O17 0.000000 0.000000 0.500000
O O18 0.500000 0.000000 0.000000
#
# Coordination Sequence:
#
# PCOD8043958 Si02
#       8
#     2   2   2   2   2   2   2   2
#     4  10  21  30  47  67  87 118 157 190 226 272
#     4  11  20  36  49  62  94 120 153 202 235 266
#     4   9  19  24  45  59  93 118 150 181 215 252
#     4  12  23  34  50  69  88 122 163 201 236 267
#     4   9  17  27  42  60  84 125 153 171 217 268
#     4  10  16  26  38  61  87 116 160 168 209 269
#     4  11  19  30  47  70  89 121 159 183 222 276
#     4  10  18  29  43  60  85 119 151 183 224 253
#
# _framework density 16.463746
#
# number of rings (size 3 to 8) (size 9 to 14) (size 15 to 20)
#    0.750    1.000    2.500    5.625    1.750    0.000 
#    0.000    0.000    0.000    0.000    0.000    0.000 
#    0.000    0.000    0.000   22.500    0.000    0.125 
#
# Total GULP energy -198239.847666 kJ/mol
# GULP energy per Si atom -12389.990479 kJ/mol
# Density = 1.642627 g / cm^3
# Si number density = 16.463746 Si / 1000 Ang^3
#
#
#
# Elastic Constant Matrix: (Units=GPa)
#
#
# Indices 1 2 3 4 5 6 
#
# 1 41.6118 37.1065 22.2554 -11.7622 -8.9373 -1.2017
# 2 37.1065 123.6155 35.6766 -17.9711 -4.7576 -0.6281
# 3 22.2554 35.6766 105.8033 -0.7205 -22.9702 0.4000
# 4 -11.7622 -17.9711 -0.7205 22.4720 8.2239 -7.4257
# 5 -8.9373 -4.7576 -22.9702 8.2239 17.3296 -4.2166
# 6 -1.2017 -0.6281 0.4000 -7.4257 -4.2166 20.4098
#
#
#
# Elastic Compliance Matrix: (Units=1/GPa)
#
#
# Indices 1 2 3 4 5 6 
#
# 1 0.039452 -0.008582 -0.003263 0.013098 0.009608 0.008873
# 2 -0.008582 0.013384 -0.005453 0.011257 -0.012974 0.001429
# 3 -0.003263 -0.005453 0.017957 -0.015997 0.028032 -0.000741
# 4 0.013098 0.011257 -0.015997 0.084042 -0.045753 0.022556
# 5 0.009608 -0.012974 0.028032 -0.045753 0.119848 0.007731
# 6 0.008873 0.001429 -0.000741 0.022556 0.007731 0.059380
#
#
# Mechanical properties :
#
#
# Convention : Reuss Voigt Hill
#
# Bulk Modulus (GPa) = 27.62770 51.23418 39.43094
# Shear Modulus (GPa) = 13.13288 23.77511 18.45400
#
# Velocity S-wave (km/s) = 2.82740 3.80424 3.35160
# Velocity P-wave (km/s) = 5.24178 7.10516 6.24338
#
# Compressibility (1/GPa) = 0.03619555
#
# Stress axis : x y z
#
# Youngs Moduli (GPa) = 25.34754 74.71678 55.69004
#
# Poissons Ratio (x) = 0.64119 0.18173
# Poissons Ratio (y) = 0.21752 0.30370
# Poissons Ratio (z) = 0.08272 0.40746
#
# Static dielectric constant tensor:
#      x y z
#    x 2.836140 0.181170 -0.407520 
#    y 0.181170 3.579990 -0.191150 
#    z -0.407520 -0.191150 3.258710 
# 
# 
# High freq. dielectric constant tensor:
#      x y z
#    x 1.563830 0.004280 -0.038410 
#    y 0.004280 1.636730 -0.001200 
#    z -0.038410 -0.001200 1.646070 
# 
# From -- ./inp_files/523267.got.cif
#   From: 2010.06.25/outbox.cif.g09.slc.cpg/sg2_262_cif.got.tgz:523267.got - 2010.06.27 13:26:56.
