data_PCOD8043573
_publ_section_title
;
Structure prediction by ZEFSAII (Michael W. Deem and Ramdas Pophale) SiO2 
 PCOD8043573
Probable space group: P -1
;
_chemical_formula_sum "Si O2"
_cell_formula_units_Z 16
_cell_length_a 13.113481
_cell_length_b 15.684084
_cell_length_c 15.492404
_cell_angle_alpha 45.603262
_cell_angle_beta 143.726716
_cell_angle_gamma 154.591557
_cell_volume 803.718854
_symmetry_space_group_name_H-M "P -1"
_symmetry_group_IT_number 2
_symmetry_cell_setting 'triclinic'
loop_
_space_group_symop_operation_xyz
x,y,z
-x,-y,-z
loop_
_atom_site_type_symbol
_atom_site_label
_atom_site_fract_x
_atom_site_fract_y
_atom_site_fract_z
Si Si1 0.703390 0.599175 0.262502
Si Si2 0.348640 0.164288 0.325885
Si Si3 0.177716 0.116256 0.950749
Si Si4 0.717055 0.251076 0.234856
Si Si5 0.178951 0.689819 0.545308
Si Si6 0.359042 0.364044 0.617846
Si Si7 0.708276 0.969561 0.432236
Si Si8 0.678125 0.415448 0.659608
O O1 0.506310 0.377033 0.266163
O O2 0.686545 0.675120 0.112691
O O3 0.606972 0.619496 0.267365
O O4 0.038110 0.743645 0.404375
O O5 0.492113 0.136808 0.386504
O O6 0.378302 0.145669 0.458114
O O7 0.024218 0.004940 0.185702
O O8 0.428878 0.160509 0.077232
O O9 0.000000 0.000000 0.000000
O O10 0.834930 0.361526 0.329183
O O11 0.977850 0.421303 0.224842
O O12 0.626337 0.062902 0.313326
O O13 0.000000 0.500000 0.500000
O O14 0.603790 0.415704 0.706203
O O15 0.401880 0.524344 0.504561
O O16 0.050810 0.145169 0.527237
O O17 0.520467 0.808292 0.341162
#
# Coordination Sequence:
#
# PCOD8043573 Si02
#       8
#     2   2   2   2   2   2   2   2
#     4  11  22  41  62  89 120 156 198 249 300 353
#     4  11  22  38  62  88 118 159 197 247 299 352
#     4  12  26  41  57  84 126 165 200 239 290 360
#     4  11  23  40  56  89 123 160 200 240 296 357
#     4  10  19  37  60  87 114 151 200 245 295 348
#     4  10  19  36  64  96 119 147 195 255 307 347
#     4  11  20  37  66  92 119 150 201 251 298 353
#     4  10  20  37  63  95 119 150 195 256 303 345
#
# _framework density 19.90746
#
# number of rings (size 3 to 8) (size 9 to 14) (size 15 to 20)
#    0.000    1.250    6.250    1.125    1.750    2.500 
#    0.000    0.625    0.000    1.500    0.000    0.000 
#    0.000    0.000    0.000    0.000    0.000    0.000 
#
# Total GULP energy -198366.006574 kJ/mol
# GULP energy per Si atom -12397.875411 kJ/mol
# Density = 1.986215 g / cm^3
# Si number density = 19.907460 Si / 1000 Ang^3
#
#
#
# Elastic Constant Matrix: (Units=GPa)
#
#
# Indices 1 2 3 4 5 6 
#
# 1 132.8475 34.4889 44.1003 5.0172 15.2243 15.8661
# 2 34.4889 88.3731 22.8678 -8.6098 12.5597 3.3365
# 3 44.1003 22.8678 91.5858 -0.5002 20.6854 11.0411
# 4 5.0172 -8.6098 -0.5002 31.3339 9.7589 -1.0096
# 5 15.2243 12.5597 20.6854 9.7589 26.1836 7.5176
# 6 15.8661 3.3365 11.0411 -1.0096 7.5176 29.9727
#
#
#
# Elastic Compliance Matrix: (Units=1/GPa)
#
#
# Indices 1 2 3 4 5 6 
#
# 1 0.010106 -0.003231 -0.003812 -0.002980 0.000920 -0.003917
# 2 -0.003231 0.014436 -0.000509 0.007049 -0.007999 0.002535
# 3 -0.003812 -0.000509 0.015504 0.004164 -0.011138 -0.000703
# 4 -0.002980 0.007049 0.004164 0.041508 -0.022196 0.006224
# 5 0.000920 -0.007999 -0.011138 -0.022196 0.061947 -0.011779
# 6 -0.003917 0.002535 -0.000703 0.006224 -0.011779 0.038578
#
#
# Mechanical properties :
#
#
# Convention : Reuss Voigt Hill
#
# Bulk Modulus (GPa) = 40.09061 57.30227 48.69644
# Shear Modulus (GPa) = 24.33105 31.58799 27.95952
#
# Velocity S-wave (km/s) = 3.49980 3.98771 3.75170
# Velocity P-wave (km/s) = 6.04266 7.07455 6.57887
#
# Compressibility (1/GPa) = 0.02494349
#
# Stress axis : x y z
#
# Youngs Moduli (GPa) = 98.94646 69.27030 64.49792
#
# Poissons Ratio (x) = 0.22382 0.24583
# Poissons Ratio (y) = 0.31970 0.03284
# Poissons Ratio (z) = 0.37713 0.03527
#
# Static dielectric constant tensor:
#      x y z
#    x 3.817350 0.220380 0.247280 
#    y 0.220380 3.741700 0.012700 
#    z 0.247280 0.012700 3.451620 
# 
# 
# High freq. dielectric constant tensor:
#      x y z
#    x 1.779240 0.006440 0.009450 
#    y 0.006440 1.788530 -0.001590 
#    z 0.009450 -0.001590 1.743690 
# 
# From -- ./inp_files/255931.got.cif
#   From: 2010.06.25/outbox.cif.g09.slc.cpg/sg2_128_cif.got.tgz:255931.got - 2010.06.27 13:26:56.
