data_PCOD8043701
_publ_section_title
;
Structure prediction by ZEFSAII (Michael W. Deem and Ramdas Pophale) SiO2 
 PCOD8043701
Probable space group: P -1
;
_chemical_formula_sum "Si O2"
_cell_formula_units_Z 16
_cell_length_a 9.504035
_cell_length_b 19.063081
_cell_length_c 6.858099
_cell_angle_alpha 45.131093
_cell_angle_beta 92.072593
_cell_angle_gamma 71.911372
_cell_volume 774.695236
_symmetry_space_group_name_H-M "P -1"
_symmetry_group_IT_number 2
_symmetry_cell_setting 'triclinic'
loop_
_space_group_symop_operation_xyz
x,y,z
-x,-y,-z
loop_
_atom_site_type_symbol
_atom_site_label
_atom_site_fract_x
_atom_site_fract_y
_atom_site_fract_z
Si Si1 0.245180 0.480886 0.036702
Si Si2 0.033077 0.289359 0.834033
Si Si3 0.453601 0.097324 0.574979
Si Si4 0.177322 0.714274 0.492486
Si Si5 0.379002 0.155822 0.010495
Si Si6 0.897804 0.780248 0.612772
Si Si7 0.987196 0.542021 0.192625
Si Si8 0.531907 0.245457 0.552565
O O1 0.165516 0.466878 0.262471
O O2 0.414328 0.371799 0.229075
O O3 0.269695 0.591303 0.839404
O O4 0.132977 0.505131 0.788826
O O5 0.877869 0.299514 0.699490
O O6 0.017163 0.413484 0.663988
O O7 0.188498 0.231166 0.816245
O O8 0.057311 0.210937 0.176365
O O9 0.414910 0.143197 0.264889
O O10 0.286674 0.130305 0.615607
O O11 0.545807 0.157226 0.561009
O O12 0.561828 0.964097 0.855105
O O13 0.292272 0.769704 0.374068
O O14 0.020240 0.798108 0.444780
O O15 0.471776 0.218002 0.804725
O O16 0.917434 0.655545 0.831458
#
# Coordination Sequence:
#
# PCOD8043701 Si02
#       8
#     2   2   2   2   2   2   2   2
#     4  10  19  37  56  85 114 153 192 226 279 332
#     4   9  19  38  57  86 108 148 194 237 273 327
#     4  10  20  42  63  86 107 146 194 243 288 316
#     4  11  23  35  57  81 126 156 180 222 287 351
#     4  10  22  38  66  86 107 143 198 245 276 335
#     4   8  17  38  58  81 108 149 186 242 268 327
#     4   8  17  34  60  82 106 147 193 242 265 316
#     4  12  23  38  55  88 120 151 182 234 287 339
#
# _framework density 20.653283999999999
#
# number of rings (size 3 to 8) (size 9 to 14) (size 15 to 20)
#    0.750    1.500    1.250    1.500    3.500    1.500 
#    2.250    3.125    0.000    4.500    0.000    0.000 
#    0.000    0.000    0.000    0.000    0.000    0.000 
#
# Total GULP energy -198360.274466 kJ/mol
# GULP energy per Si atom -12397.517154 kJ/mol
# Density = 2.060628 g / cm^3
# Si number density = 20.653284 Si / 1000 Ang^3
#
#
#
# Elastic Constant Matrix: (Units=GPa)
#
#
# Indices 1 2 3 4 5 6 
#
# 1 146.9493 67.2260 38.0253 -3.6374 4.3019 13.6700
# 2 67.2260 110.1984 29.0229 -11.3681 10.1321 0.5506
# 3 38.0253 29.0229 52.8982 -8.3197 2.6655 9.6584
# 4 -3.6374 -11.3681 -8.3197 23.8118 -4.0068 3.1731
# 5 4.3019 10.1321 2.6655 -4.0068 19.0354 3.4041
# 6 13.6700 0.5506 9.6584 3.1731 3.4041 24.0336
#
#
#
# Elastic Compliance Matrix: (Units=1/GPa)
#
#
# Indices 1 2 3 4 5 6 
#
# 1 0.010873 -0.005845 -0.004163 -0.001720 0.001659 -0.004385
# 2 -0.005845 0.014514 -0.003906 0.002968 -0.006134 0.005038
# 3 -0.004163 -0.003906 0.027102 0.008783 0.002861 -0.009999
# 4 -0.001720 0.002968 0.008783 0.049275 0.009832 -0.010517
# 5 0.001659 -0.006134 0.002861 0.009832 0.059173 -0.011632
# 6 -0.004385 0.005038 -0.009999 -0.010517 -0.011632 0.051042
#
#
# Mechanical properties :
#
#
# Convention : Reuss Voigt Hill
#
# Bulk Modulus (GPa) = 40.54667 64.28824 52.41745
# Shear Modulus (GPa) = 20.15926 25.09428 22.62677
#
# Velocity S-wave (km/s) = 3.12762 3.48950 3.31350
# Velocity P-wave (km/s) = 5.71991 6.88698 6.33039
#
# Compressibility (1/GPa) = 0.02466294
#
# Stress axis : x y z
#
# Youngs Moduli (GPa) = 91.97257 68.90049 36.89739
#
# Poissons Ratio (x) = 0.40270 0.15359
# Poissons Ratio (y) = 0.53755 0.14411
# Poissons Ratio (z) = 0.38284 0.26910
#
# Static dielectric constant tensor:
#      x y z
#    x 3.396230 -0.172140 0.058000 
#    y -0.172140 3.864320 -0.009120 
#    z 0.058000 -0.009120 3.717130 
# 
# 
# High freq. dielectric constant tensor:
#      x y z
#    x 1.773800 -0.010710 0.006760 
#    y -0.010710 1.818970 0.006380 
#    z 0.006760 0.006380 1.814900 
# 
# From -- ./inp_files/221698.got.cif
#   From: 2010.06.25/outbox.cif.g09.slc.cpg/sg2_111_cif.got.tgz:221698.got - 2010.06.27 13:26:56.
