data_PCOD8043036
_publ_section_title
;
Structure prediction by ZEFSAII (Michael W. Deem and Ramdas Pophale) SiO2 
 PCOD8043036
Probable space group: P -1
;
_chemical_formula_sum "Si O2"
_cell_formula_units_Z 16
_cell_length_a 15.754267
_cell_length_b 15.502210
_cell_length_c 9.028283
_cell_angle_alpha 38.775495
_cell_angle_beta 36.501053
_cell_angle_gamma 43.420866
_cell_volume 791.477352
_symmetry_space_group_name_H-M "P -1"
_symmetry_group_IT_number 2
_symmetry_cell_setting 'triclinic'
loop_
_space_group_symop_operation_xyz
x,y,z
-x,-y,-z
loop_
_atom_site_type_symbol
_atom_site_label
_atom_site_fract_x
_atom_site_fract_y
_atom_site_fract_z
Si Si1 0.103314 0.110208 0.422502
Si Si2 0.406238 0.194124 0.856795
Si Si3 0.023444 0.655766 0.927943
Si Si4 0.727387 0.982294 0.218510
Si Si5 0.833795 0.241164 0.820944
Si Si6 0.941195 0.186449 0.060040
Si Si7 0.489302 0.968121 0.803486
Si Si8 0.778052 0.519770 0.359922
O O1 0.017969 0.185551 0.296320
O O2 0.003165 0.182906 0.605242
O O3 0.260960 0.142228 0.171167
O O4 0.119809 0.941573 0.617031
O O5 0.370713 0.360489 0.638400
O O6 0.492631 0.105231 0.715931
O O7 0.502399 0.162637 0.916606
O O8 0.148894 0.543586 0.812181
O O9 0.082018 0.678715 0.977649
O O10 0.879863 0.595447 0.212988
O O11 0.663110 0.996685 0.122338
O O12 0.885992 0.869314 0.147813
O O13 0.624620 0.927952 0.551738
O O14 0.736049 0.137219 0.049765
O O15 0.747034 0.395686 0.671107
O O16 0.841952 0.250777 0.972685
#
# Coordination Sequence:
#
# PCOD8043036 Si02
#       8
#     2   2   2   2   2   2   2   2
#     4   9  17  32  54  80 106 129 164 220 268 298
#     4  10  19  36  57  77 100 136 179 216 248 296
#     4   9  18  30  50  78 107 137 165 202 263 318
#     4  10  20  36  52  78 110 134 168 216 258 300
#     4  10  20  33  53  78 108 138 163 206 269 317
#     4  11  19  31  55  84 107 131 165 213 265 309
#     4  10  21  35  57  77  98 138 182 213 249 296
#     4   9  19  35  49  72 110 139 166 208 254 310
#
# _framework density 20.21536
#
# number of rings (size 3 to 8) (size 9 to 14) (size 15 to 20)
#    0.000    2.250    0.000    5.625    0.000    2.500 
#    0.000    3.750    0.000    0.000    0.000    0.000 
#    0.000    0.000    0.000    0.000    0.000    0.000 
#
# Total GULP energy -198361.473829 kJ/mol
# GULP energy per Si atom -12397.592114 kJ/mol
# Density = 2.016935 g / cm^3
# Si number density = 20.215360 Si / 1000 Ang^3
#
#
#
# Elastic Constant Matrix: (Units=GPa)
#
#
# Indices 1 2 3 4 5 6 
#
# 1 118.5770 29.8417 16.5979 -12.8147 24.9712 16.1385
# 2 29.8417 66.8941 9.3367 -23.4767 12.2600 2.5325
# 3 16.5979 9.3367 35.0644 -10.0415 2.7790 7.2564
# 4 -12.8147 -23.4767 -10.0415 28.2960 -5.9235 0.2219
# 5 24.9712 12.2600 2.7790 -5.9235 19.8645 0.6111
# 6 16.1385 2.5325 7.2564 0.2219 0.6111 34.3727
#
#
#
# Elastic Compliance Matrix: (Units=1/GPa)
#
#
# Indices 1 2 3 4 5 6 
#
# 1 0.013315 -0.002780 -0.003518 -0.000527 -0.014532 -0.005042
# 2 -0.002780 0.023132 0.000572 0.016927 -0.005799 -0.000526
# 3 -0.003518 0.000572 0.034353 0.011733 0.002940 -0.005771
# 4 -0.000527 0.016927 0.011733 0.054368 0.004907 -0.003915
# 5 -0.014532 -0.005799 0.002940 0.004907 0.073078 0.005299
# 6 -0.005042 -0.000526 -0.005771 -0.003915 0.005299 0.032648
#
#
# Mechanical properties :
#
#
# Convention : Reuss Voigt Hill
#
# Bulk Modulus (GPa) = 16.84945 36.89869 26.87407
# Shear Modulus (GPa) = 19.07459 27.49058 23.28259
#
# Velocity S-wave (km/s) = 3.07509 3.69166 3.39739
# Velocity P-wave (km/s) = 4.57835 6.03851 5.35840
#
# Compressibility (1/GPa) = 0.05934911
#
# Stress axis : x y z
#
# Youngs Moduli (GPa) = 75.10335 43.22928 29.10934
#
# Poissons Ratio (x) = 0.12016 0.10242
# Poissons Ratio (y) = 0.20875 -0.01665
# Poissons Ratio (z) = 0.26424 -0.02473
#
# Static dielectric constant tensor:
#      x y z
#    x 3.728960 -0.002140 0.200910 
#    y -0.002140 3.580060 -0.041190 
#    z 0.200910 -0.041190 3.571990 
# 
# 
# High freq. dielectric constant tensor:
#      x y z
#    x 1.789510 0.002970 0.016320 
#    y 0.002970 1.774950 0.000710 
#    z 0.016320 0.000710 1.771980 
# 
# From -- ./inp_files/176504.got.cif
#   From: 2010.06.25/outbox.cif.g09.slc.cpg/sg2_89_cif.got.tgz:176504.got - 2010.06.27 13:26:56.
