data_PCOD8043843
_publ_section_title
;
Structure prediction by ZEFSAII (Michael W. Deem and Ramdas Pophale) SiO2 
 PCOD8043843
Probable space group: P -1
;
_chemical_formula_sum "Si O2"
_cell_formula_units_Z 14
_cell_length_a 8.912760
_cell_length_b 9.165574
_cell_length_c 21.381979
_cell_angle_alpha 149.124268
_cell_angle_beta 55.558197
_cell_angle_gamma 115.564422
_cell_volume 733.219889
_symmetry_space_group_name_H-M "P -1"
_symmetry_group_IT_number 2
_symmetry_cell_setting 'triclinic'
loop_
_space_group_symop_operation_xyz
x,y,z
-x,-y,-z
loop_
_atom_site_type_symbol
_atom_site_label
_atom_site_fract_x
_atom_site_fract_y
_atom_site_fract_z
Si Si1 0.767156 0.961555 0.367394
Si Si2 0.686822 0.824568 0.832399
Si Si3 0.965797 0.443966 0.187693
Si Si4 0.607667 0.210678 0.621867
Si Si5 0.130257 0.245359 0.553224
Si Si6 0.718307 0.007361 0.028161
Si Si7 0.037429 0.643476 0.608590
O O1 0.694253 0.179367 0.520273
O O2 0.817306 0.133766 0.357628
O O3 0.947533 0.750987 0.270000
O O4 0.611671 0.759368 0.314836
O O5 0.670838 0.500535 0.741246
O O6 0.498114 0.954101 0.889028
O O7 0.853446 0.823912 0.744898
O O8 0.727916 0.010781 0.951444
O O9 0.917675 0.496798 0.291516
O O10 0.818161 0.261668 0.125486
O O11 0.174229 0.286378 0.076176
O O12 0.669614 0.927039 0.544347
O O13 0.124538 0.390682 0.540487
O O14 0.000000 0.000000 0.500000
O O15 0.000000 0.500000 0.500000
#
# Coordination Sequence:
#
# PCOD8043843 Si02
#       7
#     2   2   2   2   2   2   2
#     4  10  21  35  59  89 120 151 192 250 302 346
#     4  11  20  38  60  90 117 155 206 238 294 349
#     4  10  19  38  61  89 111 159 211 237 287 348
#     4  10  19  37  60  85 117 156 196 243 295 356
#     4  11  20  35  62  90 118 153 199 248 296 357
#     4  10  21  35  65  84 113 163 211 239 269 366
#     4  12  22  36  58  92 124 150 188 253 310 347
#
# _framework density 19.093864
#
# number of rings (size 3 to 8) (size 9 to 14) (size 15 to 20)
#    0.000    1.429    5.714    0.857    0.000    0.571 
#    0.000    1.429    0.000    0.000    0.000    0.000 
#    0.000    0.000    0.000    0.000    0.000    0.000 
#
# Total GULP energy -173543.737369 kJ/mol
# GULP energy per Si atom -12395.981241 kJ/mol
# Density = 1.905041 g / cm^3
# Si number density = 19.093864 Si / 1000 Ang^3
#
#
#
# Elastic Constant Matrix: (Units=GPa)
#
#
# Indices 1 2 3 4 5 6 
#
# 1 97.1361 43.9833 42.7159 -4.8385 -6.3777 -4.8316
# 2 43.9833 127.8005 37.5880 1.8069 -10.5465 -9.1259
# 3 42.7159 37.5880 93.1369 -2.6780 -4.8894 1.6621
# 4 -4.8385 1.8069 -2.6780 24.6524 -3.7744 -3.8202
# 5 -6.3777 -10.5465 -4.8894 -3.7744 53.1274 1.7929
# 6 -4.8316 -9.1259 1.6621 -3.8202 1.7929 26.6089
#
#
#
# Elastic Compliance Matrix: (Units=1/GPa)
#
#
# Indices 1 2 3 4 5 6 
#
# 1 0.014346 -0.003235 -0.005190 0.002942 0.000737 0.002192
# 2 -0.003235 0.010006 -0.002571 -0.001035 0.001194 0.002776
# 3 -0.005190 -0.002571 0.014228 0.000344 0.000291 -0.002683
# 4 0.002942 -0.001035 0.000344 0.042657 0.003005 0.006079
# 5 0.000737 0.001194 0.000291 0.003005 0.019400 -0.000351
# 6 0.002192 0.002776 -0.002683 0.006079 -0.000351 0.039996
#
#
# Mechanical properties :
#
#
# Convention : Reuss Voigt Hill
#
# Bulk Modulus (GPa) = 60.28561 62.96086 61.62324
# Shear Modulus (GPa) = 29.73495 33.79683 31.76589
#
# Velocity S-wave (km/s) = 3.95055 4.21174 4.08324
# Velocity P-wave (km/s) = 7.24230 7.52979 7.38744
#
# Compressibility (1/GPa) = 0.01658771
#
# Stress axis : x y z
#
# Youngs Moduli (GPa) = 69.70657 99.94432 70.28536
#
# Poissons Ratio (x) = 0.32332 0.36476
# Poissons Ratio (y) = 0.22550 0.18070
# Poissons Ratio (z) = 0.36176 0.25695
#
# Static dielectric constant tensor:
#      x y z
#    x 3.884070 -0.153660 -0.200940 
#    y -0.153660 3.389220 0.156990 
#    z -0.200940 0.156990 3.735150 
# 
# 
# High freq. dielectric constant tensor:
#      x y z
#    x 1.760550 -0.007350 -0.004330 
#    y -0.007350 1.693960 0.011820 
#    z -0.004330 0.011820 1.755260 
# 
# From -- ./inp_files/181271.got.cif
#   From: 2010.06.25/outbox.cif.g09.slc.cpg/sg2_91_cif.got.tgz:181271.got - 2010.06.27 13:26:56.
