data_PCOD8043915
_publ_section_title
;
Structure prediction by ZEFSAII (Michael W. Deem and Ramdas Pophale) SiO2 
 PCOD8043915
Probable space group: P -1
;
_chemical_formula_sum "Si O2"
_cell_formula_units_Z 16
_cell_length_a 8.977878
_cell_length_b 20.487104
_cell_length_c 12.142751
_cell_angle_alpha 27.341085
_cell_angle_beta 121.077681
_cell_angle_gamma 129.216316
_cell_volume 788.238790
_symmetry_space_group_name_H-M "P -1"
_symmetry_group_IT_number 2
_symmetry_cell_setting 'triclinic'
loop_
_space_group_symop_operation_xyz
x,y,z
-x,-y,-z
loop_
_atom_site_type_symbol
_atom_site_label
_atom_site_fract_x
_atom_site_fract_y
_atom_site_fract_z
Si Si1 0.121773 0.606462 0.701199
Si Si2 0.225385 0.362186 0.388665
Si Si3 0.171433 0.845683 0.790842
Si Si4 0.204517 0.307457 0.223181
Si Si5 0.559014 0.269684 0.054002
Si Si6 0.463006 0.329685 0.706763
Si Si7 0.537888 0.807231 0.622002
Si Si8 0.896432 0.424647 0.685391
O O1 0.330994 0.758940 0.556727
O O2 0.991367 0.652792 0.664730
O O3 0.003587 0.567410 0.600012
O O4 0.165316 0.461698 0.971803
O O5 0.251290 0.286554 0.398234
O O6 0.283020 0.265206 0.649241
O O7 0.373041 0.546672 0.171130
O O8 0.260887 0.762788 0.864140
O O9 0.988400 0.848405 0.653845
O O10 0.322890 0.017912 0.630725
O O11 0.079099 0.730321 0.034516
O O12 0.380778 0.317227 0.198474
O O13 0.463077 0.178078 0.266957
O O14 0.417472 0.221324 0.963641
O O15 0.500000 0.500000 0.500000
O O16 0.665397 0.357448 0.686164
O O17 0.000000 0.500000 0.500000
#
# Coordination Sequence:
#
# PCOD8043915 Si02
#       8
#     2   2   2   2   2   2   2   2
#     4  11  21  37  57  91 113 153 208 240 296 341
#     4  11  19  36  62  86 119 153 204 252 276 354
#     4  10  22  42  58  86 121 157 196 233 309 358
#     4  11  22  37  59  86 119 155 198 250 294 340
#     4  10  19  37  61  85 119 156 195 241 291 351
#     4   9  18  34  57  91 113 149 195 242 291 333
#     4  12  24  35  60  91 122 154 193 251 298 350
#     4  10  21  38  65  86 117 154 196 249 287 355
#
# _framework density 20.298418999999999
#
# number of rings (size 3 to 8) (size 9 to 14) (size 15 to 20)
#    0.000    1.500    6.250    2.250    1.750    3.000 
#    0.000    0.625    0.000    3.750    0.000    0.000 
#    0.000    0.000    0.000    0.000    0.000    0.000 
#
# Total GULP energy -198212.198770 kJ/mol
# GULP energy per Si atom -12388.262423 kJ/mol
# Density = 2.025222 g / cm^3
# Si number density = 20.298419 Si / 1000 Ang^3
#
#
#
# Elastic Constant Matrix: (Units=GPa)
#
#
# Indices 1 2 3 4 5 6 
#
# 1 98.6436 37.8247 29.0379 22.5790 -9.7633 -3.7020
# 2 37.8247 99.0393 39.9422 10.3800 -7.7658 11.9210
# 3 29.0379 39.9422 65.4900 10.6711 -17.0021 -0.9810
# 4 22.5790 10.3800 10.6711 32.6618 1.7618 -5.2983
# 5 -9.7633 -7.7658 -17.0021 1.7618 24.2945 7.4925
# 6 -3.7020 11.9210 -0.9810 -5.2983 7.4925 31.3358
#
#
#
# Elastic Compliance Matrix: (Units=1/GPa)
#
#
# Indices 1 2 3 4 5 6 
#
# 1 0.014367 -0.003701 -0.001801 -0.008241 0.003690 0.000773
# 2 -0.003701 0.015575 -0.007733 -0.000988 0.000259 -0.006833
# 3 -0.001801 -0.007733 0.025753 -0.005742 0.015604 -0.001167
# 4 -0.008241 -0.000988 -0.005742 0.040745 -0.013480 0.009335
# 5 0.003690 0.000259 0.015604 -0.013480 0.059457 -0.015670
# 6 0.000773 -0.006833 -0.001167 0.009335 -0.015670 0.039892
#
#
# Mechanical properties :
#
#
# Convention : Reuss Voigt Hill
#
# Bulk Modulus (GPa) = 34.21480 52.97584 43.59532
# Shear Modulus (GPa) = 21.55158 28.08297 24.81727
#
# Velocity S-wave (km/s) = 3.26197 3.72359 3.50039
# Velocity P-wave (km/s) = 5.57492 6.68146 6.15312
#
# Compressibility (1/GPa) = 0.02922712
#
# Stress axis : x y z
#
# Youngs Moduli (GPa) = 69.60262 64.20438 38.82994
#
# Poissons Ratio (x) = 0.23761 0.06993
# Poissons Ratio (y) = 0.25759 0.30026
# Poissons Ratio (z) = 0.12535 0.49647
#
# Static dielectric constant tensor:
#      x y z
#    x 3.682010 0.128860 0.099520 
#    y 0.128860 4.146950 0.552120 
#    z 0.099520 0.552120 3.760130 
# 
# 
# High freq. dielectric constant tensor:
#      x y z
#    x 1.794500 0.005690 0.006010 
#    y 0.005690 1.791730 0.019260 
#    z 0.006010 0.019260 1.757700 
# 
# From -- ./inp_files/239336.got.cif
#   From: 2010.06.25/outbox.cif.g09.slc.cpg/sg2_120_cif.got.tgz:239336.got - 2010.06.27 13:26:56.
