data_PCOD8043507
_publ_section_title
;
Structure prediction by ZEFSAII (Michael W. Deem and Ramdas Pophale) SiO2 
 PCOD8043507
Probable space group: P -1
;
_chemical_formula_sum "Si O2"
_cell_formula_units_Z 16
_cell_length_a 12.955561
_cell_length_b 9.830664
_cell_length_c 15.223770
_cell_angle_alpha 137.550434
_cell_angle_beta 35.505210
_cell_angle_gamma 136.114327
_cell_volume 723.518712
_symmetry_space_group_name_H-M "P -1"
_symmetry_group_IT_number 2
_symmetry_cell_setting 'triclinic'
loop_
_space_group_symop_operation_xyz
x,y,z
-x,-y,-z
loop_
_atom_site_type_symbol
_atom_site_label
_atom_site_fract_x
_atom_site_fract_y
_atom_site_fract_z
Si Si1 0.882037 0.997097 0.852962
Si Si2 0.005103 0.857973 0.345808
Si Si3 0.896654 0.538898 0.869084
Si Si4 0.534026 0.121089 0.661513
Si Si5 0.717672 0.199193 0.199764
Si Si6 0.374838 0.277590 0.540342
Si Si7 0.722844 0.761783 0.232394
Si Si8 0.696320 0.544867 0.838309
O O1 0.901690 0.010292 0.741063
O O2 0.080134 0.062176 0.796915
O O3 0.757098 0.758860 0.842852
O O4 0.773677 0.160877 0.043024
O O5 0.125777 0.704515 0.211240
O O6 0.791927 0.722293 0.408361
O O7 0.000000 0.000000 0.500000
O O8 0.106376 0.683065 0.807964
O O9 0.856645 0.557858 0.804017
O O10 0.749519 0.607133 0.063477
O O11 0.427788 0.127597 0.646255
O O12 0.678022 0.349985 0.692196
O O13 0.373068 0.034512 0.806874
O O14 0.653320 0.955451 0.503914
O O15 0.568794 0.339829 0.377948
O O16 0.359528 0.392794 0.698619
O O17 0.500000 0.500000 0.000000
#
# Coordination Sequence:
#
# PCOD8043507 Si02
#       8
#     2   2   2   2   2   2   2   2
#     4  10  22  40  67  95 126 172 217 263 318 381
#     4  11  25  47  63  90 138 171 209 264 328 387
#     4  11  23  40  68  95 123 173 216 261 322 379
#     4  10  19  36  63  92 134 162 208 262 322 369
#     4   9  20  38  64  95 125 164 218 264 312 370
#     4   9  21  39  62  90 131 168 208 266 315 369
#     4  10  19  37  64  93 127 165 218 263 312 375
#     4  12  20  38  65  97 131 164 214 264 321 379
#
# _framework density 22.114149000000001
#
# number of rings (size 3 to 8) (size 9 to 14) (size 15 to 20)
#    0.750    1.000    2.500    1.875    0.000    7.000 
#    2.250    5.625    0.000    0.000    0.000    0.000 
#    0.000    0.000    0.000    0.000    0.000    0.000 
#
# Total GULP energy -198275.416441 kJ/mol
# GULP energy per Si atom -12392.213528 kJ/mol
# Density = 2.206382 g / cm^3
# Si number density = 22.114149 Si / 1000 Ang^3
#
#
#
# Elastic Constant Matrix: (Units=GPa)
#
#
# Indices 1 2 3 4 5 6 
#
# 1 77.1745 5.5334 24.6192 -9.8029 13.5560 -6.9066
# 2 5.5334 76.2876 12.6427 -12.2825 10.3163 2.0828
# 3 24.6192 12.6427 76.0628 -14.4113 -1.9807 -1.6470
# 4 -9.8029 -12.2825 -14.4113 32.1569 -6.0930 1.8269
# 5 13.5560 10.3163 -1.9807 -6.0930 35.0535 1.6765
# 6 -6.9066 2.0828 -1.6470 1.8269 1.6765 22.6549
#
#
#
# Elastic Compliance Matrix: (Units=1/GPa)
#
#
# Indices 1 2 3 4 5 6 
#
# 1 0.016394 0.000684 -0.005238 0.001333 -0.006842 0.004953
# 2 0.000684 0.014632 -0.001978 0.004252 -0.003879 -0.001336
# 3 -0.005238 -0.001978 0.016392 0.005927 0.004614 -0.001043
# 4 0.001333 0.004252 0.005927 0.036921 0.005125 -0.002910
# 5 -0.006842 -0.003879 0.004614 0.005125 0.033673 -0.004299
# 6 0.004953 -0.001336 -0.001043 -0.002910 -0.004299 0.046250
#
#
# Mechanical properties :
#
#
# Convention : Reuss Voigt Hill
#
# Bulk Modulus (GPa) = 29.10904 35.01285 32.06095
# Shear Modulus (GPa) = 26.48617 30.42169 28.45393
#
# Velocity S-wave (km/s) = 3.46454 3.71302 3.59093
# Velocity P-wave (km/s) = 5.40330 5.85228 5.63227
#
# Compressibility (1/GPa) = 0.03435359
#
# Stress axis : x y z
#
# Youngs Moduli (GPa) = 60.99719 68.34287 61.00601
#
# Poissons Ratio (x) = -0.04673 0.31956
# Poissons Ratio (y) = -0.04170 0.12066
# Poissons Ratio (z) = 0.31952 0.13517
#
# Static dielectric constant tensor:
#      x y z
#    x 4.047450 -0.088970 0.049020 
#    y -0.088970 3.840080 0.017970 
#    z 0.049020 0.017970 4.282620 
# 
# 
# High freq. dielectric constant tensor:
#      x y z
#    x 1.867020 -0.005090 0.000430 
#    y -0.005090 1.856000 0.002010 
#    z 0.000430 0.002010 1.887000 
# 
# From -- ./inp_files/516216.got.cif
#   From: 2010.06.25/outbox.cif.g09.slc.cpg/sg2_259_cif.got.tgz:516216.got - 2010.06.27 13:26:56.
