data_PCOD8043443
_publ_section_title
;
Structure prediction by ZEFSAII (Michael W. Deem and Ramdas Pophale) SiO2 
 PCOD8043443
Probable space group: P -1
;
_chemical_formula_sum "Si O2"
_cell_formula_units_Z 12
_cell_length_a 8.899893
_cell_length_b 6.936973
_cell_length_c 9.537384
_cell_angle_alpha 89.899137
_cell_angle_beta 121.584627
_cell_angle_gamma 78.291216
_cell_volume 487.022861
_symmetry_space_group_name_H-M "P -1"
_symmetry_group_IT_number 2
_symmetry_cell_setting 'triclinic'
loop_
_space_group_symop_operation_xyz
x,y,z
-x,-y,-z
loop_
_atom_site_type_symbol
_atom_site_label
_atom_site_fract_x
_atom_site_fract_y
_atom_site_fract_z
Si Si1 0.104480 0.315802 0.421602
Si Si2 0.771671 0.099659 0.999411
Si Si3 0.227322 0.661644 0.560536
Si Si4 0.123388 0.488022 0.925764
Si Si5 0.165700 0.936897 0.278546
Si Si6 0.494195 0.708750 0.925981
O O1 0.252247 0.420108 0.566517
O O2 0.970429 0.245476 0.466243
O O3 0.991833 0.501470 0.272590
O O4 0.198552 0.129800 0.373797
O O5 0.803772 0.315871 0.038837
O O6 0.597494 0.105803 0.015537
O O7 0.723938 0.073745 0.813331
O O8 0.955010 0.940624 0.138038
O O9 0.242459 0.746743 0.412378
O O10 0.382715 0.721653 0.727409
O O11 0.294516 0.290877 0.008614
O O12 0.000000 0.500000 0.000000
O O13 0.500000 0.500000 0.000000
#
# Coordination Sequence:
#
# PCOD8043443 Si02
#       6
#     2   2   2   2   2   2
#     4  10  21  35  62  94 123 160 210 254 301 370
#     4   9  19  35  60  90 124 166 200 256 306 369
#     4  11  20  36  65  94 121 169 202 257 306 365
#     4  10  19  37  63  90 120 162 212 254 309 372
#     4  10  19  36  62  92 127 164 206 243 316 371
#     4  10  19  38  62  90 124 163 209 253 311 363
#
# _framework density 24.639502
#
# number of rings (size 3 to 8) (size 9 to 14) (size 15 to 20)
#    0.000    2.000    5.000    1.500    0.000    0.000 
#    0.000    7.500    0.000   45.000    0.000    0.000 
#    0.000    0.000    0.000    0.000    0.000    0.000 
#
# Total GULP energy -148729.489857 kJ/mol
# GULP energy per Si atom -12394.124155 kJ/mol
# Density = 2.458342 g / cm^3
# Si number density = 24.639502 Si / 1000 Ang^3
#
#
#
# Elastic Constant Matrix: (Units=GPa)
#
#
# Indices 1 2 3 4 5 6 
#
# 1 115.0919 12.6715 36.3215 2.0845 -3.3616 -23.3016
# 2 12.6715 29.7264 13.8209 6.2767 -0.4225 -20.0444
# 3 36.3215 13.8209 85.6132 2.0348 -25.8656 -1.5360
# 4 2.0845 6.2767 2.0348 38.6716 -3.1186 -6.9515
# 5 -3.3616 -0.4225 -25.8656 -3.1186 27.8411 -0.3347
# 6 -23.3016 -20.0444 -1.5360 -6.9515 -0.3347 29.2182
#
#
#
# Elastic Compliance Matrix: (Units=1/GPa)
#
#
# Indices 1 2 3 4 5 6 
#
# 1 0.013765 0.009731 -0.009013 0.000755 -0.006272 0.017287
# 2 0.009731 0.081085 -0.021126 -0.002893 -0.016808 0.061396
# 3 -0.009013 -0.021126 0.025117 0.000767 0.021772 -0.019929
# 4 0.000755 -0.002893 0.000767 0.027505 0.003903 0.005246
# 5 -0.006272 -0.016808 0.021772 0.003903 0.055404 -0.013824
# 6 0.017287 0.061396 -0.019929 0.005246 -0.013824 0.090173
#
#
# Mechanical properties :
#
#
# Convention : Reuss Voigt Hill
#
# Bulk Modulus (GPa) = 12.63409 39.56213 26.09811
# Shear Modulus (GPa) = 13.87928 30.32070 22.09999
#
# Velocity S-wave (km/s) = 2.37596 3.51176 2.99813
# Velocity P-wave (km/s) = 3.55888 5.70390 4.75395
#
# Compressibility (1/GPa) = 0.07915096
#
# Stress axis : x y z
#
# Youngs Moduli (GPa) = 72.64819 12.33270 39.81378
#
# Poissons Ratio (x) = -0.12002 0.35886
# Poissons Ratio (y) = -0.70697 0.84111
# Poissons Ratio (z) = 0.65481 0.26054
#
# Static dielectric constant tensor:
#      x y z
#    x 4.693280 -0.451670 0.203490 
#    y -0.451670 4.462420 -0.034590 
#    z 0.203490 -0.034590 4.702460 
# 
# 
# High freq. dielectric constant tensor:
#      x y z
#    x 1.965410 0.000320 -0.020070 
#    y 0.000320 1.980140 0.019430 
#    z -0.020070 0.019430 1.974170 
# 
# From -- ./inp_files/155056.got.cif
#   From: 2010.06.25/outbox.cif.g09.slc.cpg/sg2_78_cif.got.tgz:155056.got - 2010.06.27 13:26:56.
