data_PCOD8043912
_publ_section_title
;
Structure prediction by ZEFSAII (Michael W. Deem and Ramdas Pophale) SiO2 
 PCOD8043912
Probable space group: P -1
;
_chemical_formula_sum "Si O2"
_cell_formula_units_Z 14
_cell_length_a 13.015813
_cell_length_b 9.371780
_cell_length_c 10.889731
_cell_angle_alpha 54.249253
_cell_angle_beta 81.034540
_cell_angle_gamma 45.871296
_cell_volume 698.298140
_symmetry_space_group_name_H-M "P -1"
_symmetry_group_IT_number 2
_symmetry_cell_setting 'triclinic'
loop_
_space_group_symop_operation_xyz
x,y,z
-x,-y,-z
loop_
_atom_site_type_symbol
_atom_site_label
_atom_site_fract_x
_atom_site_fract_y
_atom_site_fract_z
Si Si1 0.906607 0.796055 0.008130
Si Si2 0.753070 0.371353 0.774809
Si Si3 0.562030 0.096704 0.506593
Si Si4 0.245454 0.261377 0.113591
Si Si5 0.689867 0.136646 0.256342
Si Si6 0.008176 0.329837 0.679550
Si Si7 0.596262 0.607701 0.950776
O O1 0.921887 0.692790 0.192395
O O2 0.074821 0.557859 0.031038
O O3 0.771136 0.862853 0.926510
O O4 0.857784 0.063928 0.887329
O O5 0.592160 0.578155 0.618649
O O6 0.707714 0.445016 0.889846
O O7 0.849365 0.422482 0.688102
O O8 0.697711 0.026171 0.439771
O O9 0.500000 0.000000 0.500000
O O10 0.650317 0.952206 0.689042
O O11 0.349207 0.293544 0.030534
O O12 0.586412 0.141020 0.183800
O O13 0.862253 0.962030 0.259804
O O14 0.602089 0.436012 0.129118
O O15 0.000000 0.500000 0.500000
#
# Coordination Sequence:
#
# PCOD8043912 Si02
#       7
#     2   2   2   2   2   2   2
#     4  11  23  39  60  92 118 162 195 249 297 360
#     4  11  21  39  66  86 120 157 210 235 295 355
#     4  11  20  39  63  89 117 162 199 245 288 358
#     4  11  22  39  62  85 125 159 200 238 308 351
#     4  10  20  32  61  89 115 142 207 240 292 337
#     4  12  22  35  62  94 116 148 202 257 285 351
#     4  10  19  37  61  85 112 162 193 242 287 365
#
# _framework density 20.048743000000002
#
# number of rings (size 3 to 8) (size 9 to 14) (size 15 to 20)
#    0.000    1.143    5.714    3.000    0.000    0.571 
#    0.000    2.143    0.000    5.143    0.000    0.000 
#    0.000    0.000    0.000    0.000    0.000    0.000 
#
# Total GULP energy -173452.103162 kJ/mol
# GULP energy per Si atom -12389.435940 kJ/mol
# Density = 2.000311 g / cm^3
# Si number density = 20.048743 Si / 1000 Ang^3
#
#
#
# Elastic Constant Matrix: (Units=GPa)
#
#
# Indices 1 2 3 4 5 6 
#
# 1 107.7382 11.6354 39.1348 14.3266 -0.0157 8.1185
# 2 11.6354 40.6659 7.9878 -2.8884 2.1998 -3.9207
# 3 39.1348 7.9878 92.7842 3.8447 1.8073 17.1294
# 4 14.3266 -2.8884 3.8447 25.5136 -3.5871 1.5173
# 5 -0.0157 2.1998 1.8073 -3.5871 36.7189 4.0268
# 6 8.1185 -3.9207 17.1294 1.5173 4.0268 34.6751
#
#
#
# Elastic Compliance Matrix: (Units=1/GPa)
#
#
# Indices 1 2 3 4 5 6 
#
# 1 0.012153 -0.003121 -0.004457 -0.006485 -0.000146 -0.000696
# 2 -0.003121 0.026748 -0.002020 0.004582 -0.001576 0.004735
# 3 -0.004457 -0.002020 0.013933 0.000560 0.000158 -0.006111
# 4 -0.006485 0.004582 0.000560 0.043878 0.004051 -0.000631
# 5 -0.000146 -0.001576 0.000158 0.004051 0.028118 -0.003665
# 6 -0.000696 0.004735 -0.006111 -0.000631 -0.003665 0.033009
#
#
# Mechanical properties :
#
#
# Convention : Reuss Voigt Hill
#
# Bulk Modulus (GPa) = 29.72865 39.85602 34.79233
# Shear Modulus (GPa) = 26.56085 31.54355 29.05220
#
# Velocity S-wave (km/s) = 3.64375 3.97084 3.81081
# Velocity P-wave (km/s) = 5.70639 6.39892 6.06255
#
# Compressibility (1/GPa) = 0.03363759
#
# Stress axis : x y z
#
# Youngs Moduli (GPa) = 82.28714 37.38640 71.77055
#
# Poissons Ratio (x) = 0.11670 0.31988
# Poissons Ratio (y) = 0.25685 0.14494
# Poissons Ratio (z) = 0.36675 0.07550
#
# Static dielectric constant tensor:
#      x y z
#    x 3.907670 -0.244310 0.062200 
#    y -0.244310 3.582070 -0.225730 
#    z 0.062200 -0.225730 3.921030 
# 
# 
# High freq. dielectric constant tensor:
#      x y z
#    x 1.780690 -0.028240 -0.007200 
#    y -0.028240 1.750600 -0.018860 
#    z -0.007200 -0.018860 1.798940 
# 
# From -- ./inp_files/201547.got.cif
#   From: 2010.06.25/outbox.cif.g09.slc.cpg/sg2_101_cif.got.tgz:201547.got - 2010.06.27 13:26:56.
