data_PCOD8043646
_publ_section_title
;
Structure prediction by ZEFSAII (Michael W. Deem and Ramdas Pophale) SiO2 
 PCOD8043646
Probable space group: P -1
;
_chemical_formula_sum "Si O2"
_cell_formula_units_Z 16
_cell_length_a 9.081056
_cell_length_b 12.366792
_cell_length_c 12.712340
_cell_angle_alpha 66.676143
_cell_angle_beta 44.748514
_cell_angle_gamma 48.792944
_cell_volume 749.128044
_symmetry_space_group_name_H-M "P -1"
_symmetry_group_IT_number 2
_symmetry_cell_setting 'triclinic'
loop_
_space_group_symop_operation_xyz
x,y,z
-x,-y,-z
loop_
_atom_site_type_symbol
_atom_site_label
_atom_site_fract_x
_atom_site_fract_y
_atom_site_fract_z
Si Si1 0.611645 0.091664 0.900640
Si Si2 0.182776 0.856821 0.030761
Si Si3 0.862391 0.651589 0.070366
Si Si4 0.663307 0.679476 0.391181
Si Si5 0.294545 0.701002 0.834418
Si Si6 0.807488 0.466580 0.567507
Si Si7 0.876274 0.814373 0.373143
Si Si8 0.191747 0.917604 0.627003
O O1 0.630543 0.126084 0.998957
O O2 0.415027 0.240139 0.882185
O O3 0.883583 0.008193 0.731971
O O4 0.500000 0.000000 0.000000
O O5 0.034754 0.817219 0.196601
O O6 0.345904 0.722768 0.920010
O O7 0.000000 0.000000 0.000000
O O8 0.816897 0.640523 0.220861
O O9 0.000000 0.500000 0.000000
O O10 0.035315 0.710457 0.949721
O O11 0.737699 0.525784 0.459437
O O12 0.716530 0.760964 0.422936
O O13 0.350696 0.801895 0.494886
O O14 0.542633 0.544993 0.736621
O O15 0.261867 0.829244 0.733782
O O16 0.000000 0.500000 0.500000
O O17 0.942033 0.296085 0.581835
O O18 0.721557 0.973091 0.445596
#
# Coordination Sequence:
#
# PCOD8043646 Si02
#       8
#     2   2   2   2   2   2   2   2
#     4  11  23  41  65  99 140 167 220 271 325 396
#     4  11  20  37  69 102 123 168 219 274 328 378
#     4  12  27  44  67  95 135 180 220 270 332 396
#     4  10  22  43  64  92 138 174 215 269 336 392
#     4  11  21  42  69  93 131 172 219 274 331 387
#     4   9  22  40  61  96 136 169 215 281 322 390
#     4  10  19  36  68 102 128 161 223 272 327 387
#     4  10  21  39  69  96 129 170 213 272 331 388
#
# _framework density 21.358165
#
# number of rings (size 3 to 8) (size 9 to 14) (size 15 to 20)
#    0.000    1.500    5.000    0.375    3.500    3.000 
#    0.000    3.750    2.750    0.000    0.000    0.000 
#    0.000    0.000    0.000    0.000    0.000    0.000 
#
# Total GULP energy -198267.386875 kJ/mol
# GULP energy per Si atom -12391.711680 kJ/mol
# Density = 2.130955 g / cm^3
# Si number density = 21.358165 Si / 1000 Ang^3
#
#
#
# Elastic Constant Matrix: (Units=GPa)
#
#
# Indices 1 2 3 4 5 6 
#
# 1 86.8436 25.1169 26.2681 4.7524 -1.4070 -4.2549
# 2 25.1169 128.7567 45.3343 -7.7484 15.0226 -14.7394
# 3 26.2681 45.3343 101.3393 2.2020 5.2893 -3.8568
# 4 4.7524 -7.7484 2.2020 33.8797 -2.0921 -1.6739
# 5 -1.4070 15.0226 5.2893 -2.0921 29.0270 -0.1201
# 6 -4.2549 -14.7394 -3.8568 -1.6739 -0.1201 31.8381
#
#
#
# Elastic Compliance Matrix: (Units=1/GPa)
#
#
# Indices 1 2 3 4 5 6 
#
# 1 0.013006 -0.001936 -0.002548 -0.001959 0.001957 0.000438
# 2 -0.001936 0.010768 -0.003966 0.002917 -0.004716 0.004381
# 3 -0.002548 -0.003966 0.012326 -0.001414 -0.000422 -0.000759
# 4 -0.001959 0.002917 -0.001414 0.030730 0.000878 0.002536
# 5 0.001957 -0.004716 -0.000422 0.000878 0.037119 -0.001786
# 6 0.000438 0.004381 -0.000759 0.002536 -0.001786 0.033530
#
#
# Mechanical properties :
#
#
# Convention : Reuss Voigt Hill
#
# Bulk Modulus (GPa) = 52.08243 56.70870 54.39557
# Shear Modulus (GPa) = 31.09857 33.63031 32.36444
#
# Velocity S-wave (km/s) = 3.81996 3.97241 3.89693
# Velocity P-wave (km/s) = 6.62528 6.90283 6.76548
#
# Compressibility (1/GPa) = 0.01920033
#
# Stress axis : x y z
#
# Youngs Moduli (GPa) = 76.88748 92.86882 81.12768
#
# Poissons Ratio (x) = 0.17981 0.20672
# Poissons Ratio (y) = 0.14887 0.32173
# Poissons Ratio (z) = 0.19592 0.36829
#
# Static dielectric constant tensor:
#      x y z
#    x 3.886790 -0.143650 -0.110680 
#    y -0.143650 4.282250 0.016460 
#    z -0.110680 0.016460 4.054910 
# 
# 
# High freq. dielectric constant tensor:
#      x y z
#    x 1.818520 -0.008670 -0.013560 
#    y -0.008670 1.852260 -0.006110 
#    z -0.013560 -0.006110 1.840610 
# 
# From -- ./inp_files/319343.got.cif
#   From: 2010.06.25/outbox.cif.g09.slc.cpg/sg2_160_cif.got.tgz:319343.got - 2010.06.27 13:26:56.
