data_PCOD8043424
_publ_section_title
;
Structure prediction by ZEFSAII (Michael W. Deem and Ramdas Pophale) SiO2 
 PCOD8043424
Probable space group: P -1
;
_chemical_formula_sum "Si O2"
_cell_formula_units_Z 14
_cell_length_a 12.116465
_cell_length_b 9.515957
_cell_length_c 12.936690
_cell_angle_alpha 121.433087
_cell_angle_beta 45.669462
_cell_angle_gamma 140.411712
_cell_volume 679.470021
_symmetry_space_group_name_H-M "P -1"
_symmetry_group_IT_number 2
_symmetry_cell_setting 'triclinic'
loop_
_space_group_symop_operation_xyz
x,y,z
-x,-y,-z
loop_
_atom_site_type_symbol
_atom_site_label
_atom_site_fract_x
_atom_site_fract_y
_atom_site_fract_z
Si Si1 0.407856 0.720780 0.415006
Si Si2 0.521879 0.051245 0.175078
Si Si3 0.707464 0.032673 0.504544
Si Si4 0.778137 0.029063 0.135956
Si Si5 0.189335 0.310189 0.072054
Si Si6 0.504822 0.261442 0.082010
Si Si7 0.173036 0.277304 0.295816
O O1 0.269349 0.786160 0.511838
O O2 0.583055 0.847235 0.262725
O O3 0.258688 0.456963 0.399323
O O4 0.518941 0.794654 0.483562
O O5 0.344670 0.966231 0.341726
O O6 0.730188 0.143635 0.132347
O O7 0.566718 0.242144 0.148087
O O8 0.449611 0.848970 0.072652
O O9 0.923860 0.087565 0.385538
O O10 0.835460 0.904963 0.988701
O O11 0.967431 0.228465 0.157099
O O12 0.249646 0.408854 0.186170
O O13 0.355127 0.483855 0.944843
O O14 0.268869 0.161848 0.202960
#
# Coordination Sequence:
#
# PCOD8043424 Si02
#       7
#     2   2   2   2   2   2   2
#     4  10  20  37  60  93 122 155 198 257 307 356
#     4  10  23  43  58  86 128 167 195 254 305 366
#     4  10  22  39  60  88 128 159 198 252 308 361
#     4  10  19  36  62  90 123 152 202 258 307 345
#     4  11  20  34  64  96 114 154 207 260 299 352
#     4  11  23  39  63  88 124 162 208 246 306 363
#     4  12  21  37  66  94 118 159 207 256 299 363
#
# _framework density 20.604295
#
# number of rings (size 3 to 8) (size 9 to 14) (size 15 to 20)
#    0.000    1.429    4.286    2.571    0.000    1.143 
#    0.000    0.714    0.000    0.000    0.000    0.000 
#    0.000    0.000    0.000    0.000    0.000    0.000 
#
# Total GULP energy -173554.928450 kJ/mol
# GULP energy per Si atom -12396.780604 kJ/mol
# Density = 2.055740 g / cm^3
# Si number density = 20.604295 Si / 1000 Ang^3
#
#
#
# Elastic Constant Matrix: (Units=GPa)
#
#
# Indices 1 2 3 4 5 6 
#
# 1 152.9309 40.6713 56.5521 -8.2746 -5.9895 -0.3504
# 2 40.6713 56.2548 22.1058 7.6899 1.9424 6.6168
# 3 56.5521 22.1058 88.2433 2.8819 0.2257 0.4164
# 4 -8.2746 7.6899 2.8819 24.0577 8.5516 2.9356
# 5 -5.9895 1.9424 0.2257 8.5516 30.9354 -2.9521
# 6 -0.3504 6.6168 0.4164 2.9356 -2.9521 27.0194
#
#
#
# Elastic Compliance Matrix: (Units=1/GPa)
#
#
# Indices 1 2 3 4 5 6 
#
# 1 0.010632 -0.006569 -0.005369 0.005883 0.001008 0.001300
# 2 -0.006569 0.025117 -0.001757 -0.009140 -0.000816 -0.005305
# 3 -0.005369 -0.001757 0.015314 -0.003127 -0.000134 0.000450
# 4 0.005883 -0.009140 -0.003127 0.052130 -0.013127 -0.004735
# 5 0.001008 -0.000816 -0.000134 -0.013127 0.036741 0.005655
# 6 0.001300 -0.005305 0.000450 -0.004735 0.005655 0.039452
#
#
# Mechanical properties :
#
#
# Convention : Reuss Voigt Hill
#
# Bulk Modulus (GPa) = 42.24088 59.56526 50.90307
# Shear Modulus (GPa) = 23.29190 28.27580 25.78385
#
# Velocity S-wave (km/s) = 3.36585 3.70851 3.54133
# Velocity P-wave (km/s) = 5.97083 6.87818 6.44050
#
# Compressibility (1/GPa) = 0.02367375
#
# Stress axis : x y z
#
# Youngs Moduli (GPa) = 94.05558 39.81300 65.30183
#
# Poissons Ratio (x) = 0.26153 0.35060
# Poissons Ratio (y) = 0.61784 0.11472
# Poissons Ratio (z) = 0.50498 0.06994
#
# Static dielectric constant tensor:
#      x y z
#    x 4.069830 0.136510 -0.065260 
#    y 0.136510 3.261490 0.175200 
#    z -0.065260 0.175200 3.799320 
# 
# 
# High freq. dielectric constant tensor:
#      x y z
#    x 1.813550 0.020600 -0.009410 
#    y 0.020600 1.758480 0.015330 
#    z -0.009410 0.015330 1.813440 
# 
# From -- ./inp_files/200808.got.cif
#   From: 2010.06.25/outbox.cif.g09.slc.cpg/sg2_101_cif.got.tgz:200808.got - 2010.06.27 13:26:56.
