data_PCOD8043176
_publ_section_title
;
Structure prediction by ZEFSAII (Michael W. Deem and Ramdas Pophale) SiO2 
 PCOD8043176
Probable space group: P -1
;
_chemical_formula_sum "Si O2"
_cell_formula_units_Z 14
_cell_length_a 9.169130
_cell_length_b 15.104188
_cell_length_c 14.589004
_cell_angle_alpha 30.875137
_cell_angle_beta 110.108391
_cell_angle_gamma 132.958187
_cell_volume 581.812300
_symmetry_space_group_name_H-M "P -1"
_symmetry_group_IT_number 2
_symmetry_cell_setting 'triclinic'
loop_
_space_group_symop_operation_xyz
x,y,z
-x,-y,-z
loop_
_atom_site_type_symbol
_atom_site_label
_atom_site_fract_x
_atom_site_fract_y
_atom_site_fract_z
Si Si1 0.041119 0.233206 0.907204
Si Si2 0.627788 0.721637 0.964175
Si Si3 0.165830 0.131820 0.309465
Si Si4 0.188087 0.488931 0.175317
Si Si5 0.579951 0.369366 0.520167
Si Si6 0.058018 0.736542 0.945071
Si Si7 0.555732 0.371769 0.716033
O O1 0.175450 0.165222 0.013566
O O2 0.188132 0.454987 0.657544
O O3 0.073269 0.363461 0.894252
O O4 0.744616 0.948922 0.067720
O O5 0.441382 0.392646 0.188768
O O6 0.447287 0.715059 0.967989
O O7 0.790535 0.924133 0.729886
O O8 0.058233 0.231075 0.181501
O O9 0.972368 0.833566 0.589577
O O10 0.281776 0.594900 0.206634
O O11 0.014025 0.503004 0.104115
O O12 0.689870 0.461800 0.565894
O O13 0.424537 0.412300 0.437881
O O14 0.368510 0.033774 0.756038
#
# Coordination Sequence:
#
# PCOD8043176 Si02
#       7
#     2   2   2   2   2   2   2
#     4  10  20  38  62  88 121 162 194 243 297 353
#     4  10  22  39  65  88 116 160 204 237 302 356
#     4  10  22  44  61  88 121 154 199 254 290 351
#     4  12  23  39  64  92 118 159 198 245 299 355
#     4  10  19  36  59  86 121 158 191 245 291 346
#     4  10  23  39  60  92 122 153 201 243 299 352
#     4  10  21  34  62  91 118 156 203 238 295 357
#
# _framework density 24.062742
#
# number of rings (size 3 to 8) (size 9 to 14) (size 15 to 20)
#    0.000    1.714    2.857    0.857    2.000    4.000 
#    0.000    7.857    0.000    0.000    0.000    0.000 
#    0.000    0.000    0.000    0.000    0.000    0.000 
#
# Total GULP energy -173588.153521 kJ/mol
# GULP energy per Si atom -12399.153823 kJ/mol
# Density = 2.400797 g / cm^3
# Si number density = 24.062742 Si / 1000 Ang^3
#
#
#
# Elastic Constant Matrix: (Units=GPa)
#
#
# Indices 1 2 3 4 5 6 
#
# 1 109.7274 -2.3098 41.2200 15.3649 7.6658 2.2932
# 2 -2.3098 52.2567 6.9404 8.0783 -0.2085 10.3662
# 3 41.2200 6.9404 78.6812 13.0789 -4.0814 2.9498
# 4 15.3649 8.0783 13.0789 29.8985 -13.2476 -10.6314
# 5 7.6658 -0.2085 -4.0814 -13.2476 45.4629 3.4981
# 6 2.2932 10.3662 2.9498 -10.6314 3.4981 18.5929
#
#
#
# Elastic Compliance Matrix: (Units=1/GPa)
#
#
# Indices 1 2 3 4 5 6 
#
# 1 0.013444 0.004844 -0.005522 -0.011370 -0.005363 -0.008976
# 2 0.004844 0.028380 -0.000579 -0.022090 -0.005020 -0.028015
# 3 -0.005522 -0.000579 0.016852 -0.005682 0.001181 -0.005141
# 4 -0.011370 -0.022090 -0.005682 0.075489 0.019134 0.054184
# 5 -0.005363 -0.005020 0.001181 0.019134 0.027869 0.008970
# 6 -0.008976 -0.028015 -0.005141 0.054184 0.008970 0.100621
#
#
# Mechanical properties :
#
#
# Convention : Reuss Voigt Hill
#
# Bulk Modulus (GPa) = 17.80582 36.92960 27.36771
# Shear Modulus (GPa) = 17.61251 31.77850 24.69550
#
# Velocity S-wave (km/s) = 2.70838 3.63802 3.20706
# Velocity P-wave (km/s) = 4.14683 5.74695 5.01117
#
# Compressibility (1/GPa) = 0.05616143
#
# Stress axis : x y z
#
# Youngs Moduli (GPa) = 74.38051 35.23664 59.33956
#
# Poissons Ratio (x) = -0.17070 0.32769
# Poissons Ratio (y) = -0.36034 0.03439
# Poissons Ratio (z) = 0.41075 0.02042
#
# Static dielectric constant tensor:
#      x y z
#    x 4.138650 -0.175890 -0.315750 
#    y -0.175890 4.351370 0.142700 
#    z -0.315750 0.142700 4.174310 
# 
# 
# High freq. dielectric constant tensor:
#      x y z
#    x 1.937030 -0.014170 -0.031740 
#    y -0.014170 1.966460 0.007330 
#    z -0.031740 0.007330 1.931330 
# 
# From -- ./inp_files/221391.got.cif
#   From: 2010.06.25/outbox.cif.g09.slc.cpg/sg2_111_cif.got.tgz:221391.got - 2010.06.27 13:26:56.
