data_PCOD8043291
_publ_section_title
;
Structure prediction by ZEFSAII (Michael W. Deem and Ramdas Pophale) SiO2 
 PCOD8043291
Probable space group: P -1
;
_chemical_formula_sum "Si O2"
_cell_formula_units_Z 16
_cell_length_a 10.523298
_cell_length_b 8.515796
_cell_length_c 13.573378
_cell_angle_alpha 52.731538
_cell_angle_beta 59.082853
_cell_angle_gamma 55.492528
_cell_volume 770.165693
_symmetry_space_group_name_H-M "P -1"
_symmetry_group_IT_number 2
_symmetry_cell_setting 'triclinic'
loop_
_space_group_symop_operation_xyz
x,y,z
-x,-y,-z
loop_
_atom_site_type_symbol
_atom_site_label
_atom_site_fract_x
_atom_site_fract_y
_atom_site_fract_z
Si Si1 0.603090 0.326105 0.298451
Si Si2 0.860248 0.858255 0.366909
Si Si3 0.506600 0.300549 0.136032
Si Si4 0.889763 0.136908 0.578332
Si Si5 0.322668 0.395378 0.522136
Si Si6 0.344395 0.069251 0.167164
Si Si7 0.315641 0.275929 0.897232
Si Si8 0.767100 0.866937 0.198649
O O1 0.488130 0.354650 0.238533
O O2 0.490618 0.384156 0.416708
O O3 0.699356 0.481441 0.190117
O O4 0.729781 0.090703 0.351195
O O5 0.777818 0.686067 0.487264
O O6 0.905820 0.835330 0.238191
O O7 0.012410 0.814802 0.389571
O O8 0.369764 0.219075 0.185376
O O9 0.679357 0.116837 0.118442
O O10 0.500000 0.500000 0.000000
O O11 0.776658 0.364031 0.494246
O O12 0.788447 0.011949 0.711220
O O13 0.000000 0.000000 0.500000
O O14 0.354110 0.236632 0.664115
O O15 0.506784 0.875627 0.149006
O O16 0.274233 0.214261 0.044304
O O17 0.184527 0.249438 0.882308
#
# Coordination Sequence:
#
# PCOD8043291 Si02
#       8
#     2   2   2   2   2   2   2   2
#     4  11  20  36  69  94 119 162 204 269 305 357
#     4   9  23  40  58  90 129 159 207 249 312 376
#     4  10  19  36  60  95 125 153 199 260 313 357
#     4  12  26  42  62  88 130 170 203 251 315 378
#     4  10  22  41  61  91 122 164 211 255 307 363
#     4  10  22  38  60  95 122 161 208 254 305 370
#     4  10  19  38  65  92 120 153 214 261 304 352
#     4   8  21  35  60  87 125 157 200 256 302 364
#
# _framework density 20.774750000000001
#
# number of rings (size 3 to 8) (size 9 to 14) (size 15 to 20)
#    0.750    1.250    2.500    0.750    3.500    1.500 
#    0.000    1.250    0.000    0.000    0.000    0.000 
#    0.000    0.000    0.000    0.000    0.000    0.000 
#
# Total GULP energy -198251.585820 kJ/mol
# GULP energy per Si atom -12390.724114 kJ/mol
# Density = 2.072747 g / cm^3
# Si number density = 20.774750 Si / 1000 Ang^3
#
#
#
# Elastic Constant Matrix: (Units=GPa)
#
#
# Indices 1 2 3 4 5 6 
#
# 1 61.5107 2.0087 -0.4397 3.0142 7.8723 16.6419
# 2 2.0087 95.6136 29.2633 -15.1588 -4.3215 11.1586
# 3 -0.4397 29.2633 74.5189 -19.5974 -5.1835 -4.6253
# 4 3.0142 -15.1588 -19.5974 31.2837 8.6027 0.4332
# 5 7.8723 -4.3215 -5.1835 8.6027 34.9520 1.5205
# 6 16.6419 11.1586 -4.6253 0.4332 1.5205 26.8092
#
#
#
# Elastic Compliance Matrix: (Units=1/GPa)
#
#
# Indices 1 2 3 4 5 6 
#
# 1 0.020331 0.001302 -0.001800 -0.001225 -0.003808 -0.013237
# 2 0.001302 0.013271 -0.004750 0.003396 0.000121 -0.007213
# 3 -0.001800 -0.004750 0.018041 0.009091 -0.000008 0.006060
# 4 -0.001225 0.003396 0.009091 0.041682 -0.008246 0.000709
# 5 -0.003808 0.000121 -0.000008 -0.008246 0.031483 0.000660
# 6 -0.013237 -0.007213 0.006060 0.000709 0.000660 0.049517
#
#
# Mechanical properties :
#
#
# Convention : Reuss Voigt Hill
#
# Bulk Modulus (GPa) = 24.30325 32.58976 28.44650
# Shear Modulus (GPa) = 25.18447 31.99635 28.59041
#
# Velocity S-wave (km/s) = 3.48554 3.92874 3.71375
# Velocity P-wave (km/s) = 5.28417 6.02505 5.66673
#
# Compressibility (1/GPa) = 0.04114677
#
# Stress axis : x y z
#
# Youngs Moduli (GPa) = 49.18684 75.35301 55.43046
#
# Poissons Ratio (x) = -0.09814 0.09978
# Poissons Ratio (y) = -0.06406 0.26329
# Poissons Ratio (z) = 0.08854 0.35792
#
# Static dielectric constant tensor:
#      x y z
#    x 3.985970 0.474940 0.387360 
#    y 0.474940 3.739510 -0.185550 
#    z 0.387360 -0.185550 3.658400 
# 
# 
# High freq. dielectric constant tensor:
#      x y z
#    x 1.804330 0.032040 0.024280 
#    y 0.032040 1.807400 -0.028340 
#    z 0.024280 -0.028340 1.803190 
# 
# From -- ./inp_files/515039.got.cif
#   From: 2010.06.25/outbox.cif.g09.slc.cpg/sg2_258_cif.got.tgz:515039.got - 2010.06.27 13:26:56.
