data_PCOD8043779
_publ_section_title
;
Structure prediction by ZEFSAII (Michael W. Deem and Ramdas Pophale) SiO2 
 PCOD8043779
Probable space group: P -1
;
_chemical_formula_sum "Si O2"
_cell_formula_units_Z 16
_cell_length_a 14.820569
_cell_length_b 21.692134
_cell_length_c 19.433962
_cell_angle_alpha 158.817179
_cell_angle_beta 158.774731
_cell_angle_gamma 31.760009
_cell_volume 808.745666
_symmetry_space_group_name_H-M "P -1"
_symmetry_group_IT_number 2
_symmetry_cell_setting 'triclinic'
loop_
_space_group_symop_operation_xyz
x,y,z
-x,-y,-z
loop_
_atom_site_type_symbol
_atom_site_label
_atom_site_fract_x
_atom_site_fract_y
_atom_site_fract_z
Si Si1 0.156817 0.958710 0.278936
Si Si2 0.947957 0.275879 0.669861
Si Si3 0.224246 0.353837 0.338845
Si Si4 0.026802 0.926752 0.306855
Si Si5 0.788650 0.366998 0.795591
Si Si6 0.418629 0.328556 0.305762
Si Si7 0.569822 0.759502 0.318969
Si Si8 0.143160 0.504551 0.681374
O O1 0.417094 0.877976 0.380298
O O2 0.075995 0.996269 0.337451
O O3 0.204309 0.136151 0.455758
O O4 0.929145 0.834950 0.951325
O O5 0.960232 0.318990 0.804124
O O6 0.656395 0.241899 0.407221
O O7 0.068006 0.099843 0.562376
O O8 0.091169 0.436994 0.894550
O O9 0.499044 0.372551 0.584215
O O10 0.248091 0.382951 0.304156
O O11 0.072174 0.493239 0.411199
O O12 0.208496 0.784265 0.303996
O O13 0.747401 0.822080 0.011885
O O14 0.500000 0.500000 0.500000
O O15 0.712604 0.657489 0.370415
O O16 0.371747 0.660742 0.019800
O O17 0.000000 0.500000 0.500000
#
# Coordination Sequence:
#
# PCOD8043779 Si02
#       8
#     2   2   2   2   2   2   2   2
#     4   9  20  40  59  82 116 156 194 252 308 352
#     4  10  21  37  55  83 115 158 197 244 301 355
#     4   9  21  38  54  84 121 151 196 248 303 363
#     4  11  21  35  61  87 110 158 208 237 300 368
#     4  10  21  38  55  80 128 151 189 259 297 348
#     4  10  19  37  59  80 116 162 199 245 302 352
#     4   9  20  42  61  84 124 153 197 258 302 367
#     4  10  21  38  64  91 118 158 203 248 312 371
#
# _framework density 19.783722999999998
#
# number of rings (size 3 to 8) (size 9 to 14) (size 15 to 20)
#    0.000    2.250    1.250    0.750    1.750    2.000 
#    6.750    1.875    0.000    0.000    0.000    0.000 
#    0.000    0.000    0.000    0.000    0.000    0.000 
#
# Total GULP energy -198229.115270 kJ/mol
# GULP energy per Si atom -12389.319704 kJ/mol
# Density = 1.973869 g / cm^3
# Si number density = 19.783723 Si / 1000 Ang^3
#
#
#
# Elastic Constant Matrix: (Units=GPa)
#
#
# Indices 1 2 3 4 5 6 
#
# 1 56.0430 20.5778 36.2534 5.0027 10.1369 0.8995
# 2 20.5778 79.1801 40.0520 8.0795 -1.0267 2.5201
# 3 36.2534 40.0520 103.7021 7.6659 8.2098 -1.8477
# 4 5.0027 8.0795 7.6659 34.7970 5.4836 0.8928
# 5 10.1369 -1.0267 8.2098 5.4836 31.9848 -3.7317
# 6 0.8995 2.5201 -1.8477 0.8928 -3.7317 26.5632
#
#
#
# Elastic Compliance Matrix: (Units=1/GPa)
#
#
# Indices 1 2 3 4 5 6 
#
# 1 0.024621 -0.002832 -0.007030 -0.000297 -0.006263 -0.001924
# 2 -0.002832 0.016476 -0.005447 -0.002678 0.003130 -0.001316
# 3 -0.007030 -0.005447 0.014392 -0.000726 -0.001330 0.001593
# 4 -0.000297 -0.002678 -0.000726 0.030422 -0.005201 -0.001540
# 5 -0.006263 0.003130 -0.001330 -0.005201 0.035159 0.004937
# 6 -0.001924 -0.001316 0.001593 -0.001540 0.004937 0.038692
#
#
# Mechanical properties :
#
#
# Convention : Reuss Voigt Hill
#
# Bulk Modulus (GPa) = 40.20697 48.07683 44.14190
# Shear Modulus (GPa) = 25.16723 28.13847 26.65285
#
# Velocity S-wave (km/s) = 3.57055 3.77544 3.67442
# Velocity P-wave (km/s) = 6.11275 6.58477 6.35315
#
# Compressibility (1/GPa) = 0.02487131
#
# Stress axis : x y z
#
# Youngs Moduli (GPa) = 40.61533 60.69293 69.48474
#
# Poissons Ratio (x) = 0.17191 0.48847
# Poissons Ratio (y) = 0.11504 0.37846
# Poissons Ratio (z) = 0.28552 0.33057
#
# Static dielectric constant tensor:
#      x y z
#    x 3.597370 -0.014040 0.083620 
#    y -0.014040 3.527800 -0.007940 
#    z 0.083620 -0.007940 3.792710 
# 
# 
# High freq. dielectric constant tensor:
#      x y z
#    x 1.756910 -0.003460 0.009640 
#    y -0.003460 1.764640 -0.001620 
#    z 0.009640 -0.001620 1.779320 
# 
# From -- ./inp_files/352872.got.cif
#   From: 2010.06.25/outbox.cif.g09.slc.cpg/sg2_177_cif.got.tgz:352872.got - 2010.06.27 13:26:56.
