data_PCOD8043383
_publ_section_title
;
Structure prediction by ZEFSAII (Michael W. Deem and Ramdas Pophale) SiO2 
 PCOD8043383
Probable space group: P -1
;
_chemical_formula_sum "Si O2"
_cell_formula_units_Z 12
_cell_length_a 9.221651
_cell_length_b 7.319064
_cell_length_c 10.701749
_cell_angle_alpha 116.635850
_cell_angle_beta 40.966656
_cell_angle_gamma 102.861470
_cell_volume 414.934487
_symmetry_space_group_name_H-M "P -1"
_symmetry_group_IT_number 2
_symmetry_cell_setting 'triclinic'
loop_
_space_group_symop_operation_xyz
x,y,z
-x,-y,-z
loop_
_atom_site_type_symbol
_atom_site_label
_atom_site_fract_x
_atom_site_fract_y
_atom_site_fract_z
Si Si1 0.073133 0.434533 0.292602
Si Si2 0.726085 0.059084 0.519220
Si Si3 0.106875 0.712864 0.867161
Si Si4 0.353419 0.721495 0.119348
Si Si5 0.218207 0.997411 0.075912
Si Si6 0.657916 0.687165 0.294292
O O1 0.112563 0.637938 0.254714
O O2 0.000000 0.500000 0.500000
O O3 0.901160 0.318892 0.288298
O O4 0.293118 0.228315 0.095351
O O5 0.667386 0.084985 0.712193
O O6 0.576281 0.264397 0.613471
O O7 0.643539 0.853010 0.466373
O O8 0.988229 0.049572 0.321985
O O9 0.310190 0.540062 0.736035
O O10 0.169026 0.930929 0.944106
O O11 0.864467 0.692409 0.069385
O O12 0.381260 0.812826 0.989178
O O13 0.500000 0.500000 0.000000
#
# Coordination Sequence:
#
# PCOD8043383 Si02
#       6
#     2   2   2   2   2   2
#     4  12  25  41  67 100 132 170 216 269 327 385
#     4  10  19  36  61  98 127 165 219 266 318 384
#     4  10  20  40  63  93 131 173 216 267 319 385
#     4  12  25  43  69  95 132 173 218 270 326 387
#     4  11  24  42  69  94 131 174 218 267 326 383
#     4   9  19  36  67  94 125 175 222 260 321 387
#
# _framework density 28.920226
#
# number of rings (size 3 to 8) (size 9 to 14) (size 15 to 20)
#    0.000    1.333    1.667    6.000    2.333    0.667 
#    0.000    0.833    3.667    0.000    0.000    0.000 
#    0.000    0.000    0.000    0.000    0.000    0.000 
#
# Total GULP energy -148676.991790 kJ/mol
# GULP energy per Si atom -12389.749316 kJ/mol
# Density = 2.885440 g / cm^3
# Si number density = 28.920226 Si / 1000 Ang^3
#
#
#
# Elastic Constant Matrix: (Units=GPa)
#
#
# Indices 1 2 3 4 5 6 
#
# 1 137.0129 19.3431 55.9727 12.3849 43.0609 -24.0400
# 2 19.3431 118.9634 18.7631 22.7853 26.9950 -10.2995
# 3 55.9727 18.7631 126.1137 13.0143 38.2598 -2.4045
# 4 12.3849 22.7853 13.0143 38.3431 5.8801 2.9169
# 5 43.0609 26.9950 38.2598 5.8801 77.8920 3.6661
# 6 -24.0400 -10.2995 -2.4045 2.9169 3.6661 30.1152
#
#
#
# Elastic Compliance Matrix: (Units=1/GPa)
#
#
# Indices 1 2 3 4 5 6 
#
# 1 0.012815 0.001617 -0.003419 -0.003871 -0.006221 0.011642
# 2 0.001617 0.011013 -0.000204 -0.006799 -0.004391 0.006234
# 3 -0.003419 -0.000204 0.010551 -0.001785 -0.003020 -0.001416
# 4 -0.003871 -0.006799 -0.001785 0.032150 0.003373 -0.009082
# 5 -0.006221 -0.004391 -0.003020 0.003373 0.019471 -0.009406
# 6 0.011642 0.006234 -0.001416 -0.009082 -0.009406 0.046543
#
#
# Mechanical properties :
#
#
# Convention : Reuss Voigt Hill
#
# Bulk Modulus (GPa) = 32.93131 63.36087 48.14609
# Shear Modulus (GPa) = 34.08842 48.47079 41.27960
#
# Velocity S-wave (km/s) = 3.43695 4.09836 3.78214
# Velocity P-wave (km/s) = 5.21170 6.65972 5.97970
#
# Compressibility (1/GPa) = 0.03036624
#
# Stress axis : x y z
#
# Youngs Moduli (GPa) = 78.03390 90.79817 94.78062
#
# Poissons Ratio (x) = -0.14678 0.32410
# Poissons Ratio (y) = -0.12615 0.01929
# Poissons Ratio (z) = 0.26683 0.01848
#
# Static dielectric constant tensor:
#      x y z
#    x 5.805700 0.408090 -0.147930 
#    y 0.408090 6.144670 0.363990 
#    z -0.147930 0.363990 5.509610 
# 
# 
# High freq. dielectric constant tensor:
#      x y z
#    x 2.190220 -0.000860 0.001030 
#    y -0.000860 2.176870 0.020810 
#    z 0.001030 0.020810 2.182710 
# 
# From -- ./inp_files/145530.got.cif
#   From: 2010.06.25/outbox.cif.g09.slc.cpg/sg2_73_cif.got.tgz:145530.got - 2010.06.27 13:26:56.
