data_PCOD8043389
_publ_section_title
;
Structure prediction by ZEFSAII (Michael W. Deem and Ramdas Pophale) SiO2 
 PCOD8043389
Probable space group: P -1
;
_chemical_formula_sum "Si O2"
_cell_formula_units_Z 16
_cell_length_a 11.937501
_cell_length_b 18.311583
_cell_length_c 24.454366
_cell_angle_alpha 19.030417
_cell_angle_beta 28.217776
_cell_angle_gamma 30.564487
_cell_volume 810.385541
_symmetry_space_group_name_H-M "P -1"
_symmetry_group_IT_number 2
_symmetry_cell_setting 'triclinic'
loop_
_space_group_symop_operation_xyz
x,y,z
-x,-y,-z
loop_
_atom_site_type_symbol
_atom_site_label
_atom_site_fract_x
_atom_site_fract_y
_atom_site_fract_z
Si Si1 0.580967 0.939988 0.344078
Si Si2 0.596512 0.735421 0.635787
Si Si3 0.704956 0.908880 0.737792
Si Si4 0.012691 0.283253 0.609930
Si Si5 0.906881 0.349521 0.327596
Si Si6 0.282259 0.421723 0.938974
Si Si7 0.486045 0.435541 0.728851
Si Si8 0.672633 0.631365 0.798038
O O1 0.851054 0.927425 0.261700
O O2 0.512033 0.692449 0.550754
O O3 0.541158 0.043467 0.226826
O O4 0.397060 0.098370 0.351448
O O5 0.840982 0.698344 0.521592
O O6 0.392842 0.633442 0.763804
O O7 0.653401 0.594904 0.767396
O O8 0.500000 0.000000 0.500000
O O9 0.915093 0.739186 0.736248
O O10 0.788692 0.145865 0.547144
O O11 0.644299 0.796283 0.899500
O O12 0.000000 0.500000 0.500000
O O13 0.737728 0.269984 0.721575
O O14 0.701056 0.552960 0.249198
O O15 0.052442 0.451190 0.241178
O O16 0.385882 0.333081 0.898376
O O17 0.000000 0.500000 0.000000
O O18 0.500000 0.500000 0.000000
#
# Coordination Sequence:
#
# PCOD8043389 Si02
#       8
#     2   2   2   2   2   2   2   2
#     4   9  17  36  56  82 114 158 194 241 291 355
#     4  12  23  38  62  93 121 159 202 252 305 357
#     4   9  18  30  57  84 117 152 202 248 294 340
#     4  10  19  38  63  86 120 165 204 242 294 373
#     4   9  18  35  54  81 116 160 193 243 301 360
#     4  12  22  33  58  96 119 149 209 256 290 357
#     4  10  19  36  62  83 117 158 202 247 299 351
#     4  11  22  35  58  88 126 151 199 250 313 352
#
# _framework density 19.743689
#
# number of rings (size 3 to 8) (size 9 to 14) (size 15 to 20)
#    0.000    1.750    5.000    2.250    1.750    0.000 
#    0.000    1.250    5.500    3.000    0.000    0.000 
#    0.000    0.000    0.000    0.000    0.000    0.000 
#
# Total GULP energy -198299.860621 kJ/mol
# GULP energy per Si atom -12393.741289 kJ/mol
# Density = 1.969875 g / cm^3
# Si number density = 19.743689 Si / 1000 Ang^3
#
#
#
# Elastic Constant Matrix: (Units=GPa)
#
#
# Indices 1 2 3 4 5 6 
#
# 1 152.7259 60.3740 46.1166 17.4679 17.6414 -37.2847
# 2 60.3740 98.9327 34.2249 25.5344 12.3168 -21.0683
# 3 46.1166 34.2249 78.1373 17.9014 22.8959 -7.3586
# 4 17.4679 25.5344 17.9014 21.8599 0.9046 -0.4175
# 5 17.6414 12.3168 22.8959 0.9046 38.6489 1.2580
# 6 -37.2847 -21.0683 -7.3586 -0.4175 1.2580 44.4760
#
#
#
# Elastic Compliance Matrix: (Units=1/GPa)
#
#
# Indices 1 2 3 4 5 6 
#
# 1 0.011112 -0.003257 -0.003289 -0.002148 -0.002272 0.007272
# 2 -0.003257 0.018897 -0.000198 -0.019019 -0.004173 0.006128
# 3 -0.003289 -0.000198 0.021286 -0.014112 -0.010743 0.000843
# 4 -0.002148 -0.019019 -0.014112 0.080415 0.013936 -0.012785
# 5 -0.002272 -0.004173 -0.010743 0.013936 0.034491 -0.006504
# 6 0.007272 0.006128 0.000843 -0.012785 -0.006504 0.031686
#
#
# Mechanical properties :
#
#
# Convention : Reuss Voigt Hill
#
# Bulk Modulus (GPa) = 26.44935 67.91407 47.18171
# Shear Modulus (GPa) = 22.32373 33.60232 27.96303
#
# Velocity S-wave (km/s) = 3.36620 4.12992 3.76746
# Velocity P-wave (km/s) = 5.34171 7.56400 6.54783
#
# Compressibility (1/GPa) = 0.03780811
#
# Stress axis : x y z
#
# Youngs Moduli (GPa) = 89.99366 52.91744 46.97956
#
# Poissons Ratio (x) = 0.17237 0.15450
# Poissons Ratio (y) = 0.29314 0.00928
# Poissons Ratio (z) = 0.29595 0.01045
#
# Static dielectric constant tensor:
#      x y z
#    x 4.315160 -0.563150 0.166880 
#    y -0.563150 3.557980 0.046060 
#    z 0.166880 0.046060 3.467140 
# 
# 
# High freq. dielectric constant tensor:
#      x y z
#    x 1.787760 -0.024110 0.013330 
#    y -0.024110 1.735290 0.003100 
#    z 0.013330 0.003100 1.751700 
# 
# From -- ./inp_files/610745.got.cif
#   From: 2010.06.25/outbox.cif.g09.slc.cpg/sg2_306_cif.got.tgz:610745.got - 2010.06.27 13:26:56.
