data_PCOD8043005
_publ_section_title
;
Structure prediction by ZEFSAII (Michael W. Deem and Ramdas Pophale) SiO2 
 PCOD8043005
Probable space group: P -1
;
_chemical_formula_sum "Si O2"
_cell_formula_units_Z 16
_cell_length_a 9.166122
_cell_length_b 11.159373
_cell_length_c 16.419292
_cell_angle_alpha 65.996982
_cell_angle_beta 47.862119
_cell_angle_gamma 40.277873
_cell_volume 785.571255
_symmetry_space_group_name_H-M "P -1"
_symmetry_group_IT_number 2
_symmetry_cell_setting 'triclinic'
loop_
_space_group_symop_operation_xyz
x,y,z
-x,-y,-z
loop_
_atom_site_type_symbol
_atom_site_label
_atom_site_fract_x
_atom_site_fract_y
_atom_site_fract_z
Si Si1 0.415838 0.848864 0.737728
Si Si2 0.177107 0.830124 0.679517
Si Si3 0.648686 0.626549 0.879782
Si Si4 0.955491 0.660707 0.513110
Si Si5 0.825018 0.475276 0.239711
Si Si6 0.721712 0.267326 0.726919
Si Si7 0.826597 0.257763 0.873622
Si Si8 0.390991 0.411270 0.546416
O O1 0.305343 0.788473 0.733915
O O2 0.585242 0.707126 0.789926
O O3 0.620019 0.844858 0.606960
O O4 0.157038 0.060627 0.808170
O O5 0.115708 0.707691 0.721669
O O6 0.400047 0.770268 0.542102
O O7 0.888485 0.050370 0.715413
O O8 0.796327 0.413977 0.881514
O O9 0.861517 0.612615 0.859114
O O10 0.351771 0.762925 0.002336
O O11 0.000000 0.500000 0.500000
O O12 0.111137 0.702407 0.395390
O O13 0.085669 0.581767 0.574773
O O14 0.606105 0.599618 0.212723
O O15 0.667393 0.624992 0.333684
O O16 0.709709 0.320491 0.808780
O O17 0.500000 0.500000 0.500000
#
# Coordination Sequence:
#
# PCOD8043005 Si02
#       8
#     2   2   2   2   2   2   2   2
#     4  11  22  40  65  88 121 160 202 247 298 357
#     4  10  22  39  58  87 127 159 199 238 298 367
#     4  11  23  42  67  86 120 157 202 260 300 345
#     4  12  20  36  64  90 121 162 195 241 303 361
#     4  11  22  39  61  86 121 163 198 244 301 353
#     4  11  24  40  60  90 126 158 197 248 295 362
#     4  10  25  43  61  93 117 156 209 249 301 355
#     4  10  19  36  55  87 121 158 196 230 299 358
#
# _framework density 20.367346000000001
#
# number of rings (size 3 to 8) (size 9 to 14) (size 15 to 20)
#    0.000    1.250    5.000    1.875    0.000    5.000 
#    0.000    2.500    0.000    0.000    0.000    0.000 
#    0.000    0.000    0.000    0.000    0.000    0.000 
#
# Total GULP energy -198253.093578 kJ/mol
# GULP energy per Si atom -12390.818349 kJ/mol
# Density = 2.032099 g / cm^3
# Si number density = 20.367346 Si / 1000 Ang^3
#
#
#
# Elastic Constant Matrix: (Units=GPa)
#
#
# Indices 1 2 3 4 5 6 
#
# 1 107.8136 42.8188 36.2274 2.1609 -18.9645 -12.5151
# 2 42.8188 78.4956 23.1086 13.1743 -15.8399 -6.5564
# 3 36.2274 23.1086 78.6537 13.3151 -10.6302 -5.8862
# 4 2.1609 13.1743 13.3151 31.9041 -1.6142 6.3984
# 5 -18.9645 -15.8399 -10.6302 -1.6142 21.1087 2.1860
# 6 -12.5151 -6.5564 -5.8862 6.3984 2.1860 23.2742
#
#
#
# Elastic Compliance Matrix: (Units=1/GPa)
#
#
# Indices 1 2 3 4 5 6 
#
# 1 0.014408 -0.005391 -0.004331 0.002626 0.006525 0.003799
# 2 -0.005391 0.019071 -0.000429 -0.007652 0.008284 0.003690
# 3 -0.004331 -0.000429 0.016727 -0.007024 0.003322 0.003400
# 4 0.002626 -0.007652 -0.007024 0.039782 -0.002509 -0.013221
# 5 0.006525 0.008284 0.003322 -0.002509 0.060761 0.001665
# 6 0.003799 0.003690 0.003400 -0.013221 0.001665 0.050386
#
#
# Mechanical properties :
#
#
# Convention : Reuss Voigt Hill
#
# Bulk Modulus (GPa) = 33.43958 52.14141 42.79049
# Shear Modulus (GPa) = 21.60728 26.11129 23.85928
#
# Velocity S-wave (km/s) = 3.26065 3.58441 3.42636
# Velocity P-wave (km/s) = 5.53440 6.54116 6.05873
#
# Compressibility (1/GPa) = 0.02990469
#
# Stress axis : x y z
#
# Youngs Moduli (GPa) = 69.40788 52.43641 59.78314
#
# Poissons Ratio (x) = 0.28269 0.25889
# Poissons Ratio (y) = 0.37418 0.02564
# Poissons Ratio (z) = 0.30057 0.02249
#
# Static dielectric constant tensor:
#      x y z
#    x 3.844540 -0.080930 0.173080 
#    y -0.080930 3.639100 0.564380 
#    z 0.173080 0.564380 5.475810 
# 
# 
# High freq. dielectric constant tensor:
#      x y z
#    x 1.809440 -0.008850 0.004730 
#    y -0.008850 1.779330 0.013870 
#    z 0.004730 0.013870 1.794760 
# 
# From -- ./inp_files/259036.got.cif
#   From: 2010.06.25/outbox.cif.g09.slc.cpg/sg2_130_cif.got.tgz:259036.got - 2010.06.27 13:26:56.
