data_PCOD8043153
_publ_section_title
;
Structure prediction by ZEFSAII (Michael W. Deem and Ramdas Pophale) SiO2 
 PCOD8043153
Probable space group: P -1
;
_chemical_formula_sum "Si O2"
_cell_formula_units_Z 16
_cell_length_a 12.338112
_cell_length_b 8.595341
_cell_length_c 9.649503
_cell_angle_alpha 56.454918
_cell_angle_beta 90.585598
_cell_angle_gamma 90.359440
_cell_volume 852.852994
_symmetry_space_group_name_H-M "P -1"
_symmetry_group_IT_number 2
_symmetry_cell_setting 'triclinic'
loop_
_space_group_symop_operation_xyz
x,y,z
-x,-y,-z
loop_
_atom_site_type_symbol
_atom_site_label
_atom_site_fract_x
_atom_site_fract_y
_atom_site_fract_z
Si Si1 0.835519 0.994315 0.508222
Si Si2 0.495353 0.693366 0.475964
Si Si3 0.329769 0.016719 0.714112
Si Si4 0.009885 0.281220 0.939976
Si Si5 0.311111 0.966891 0.271716
Si Si6 0.007780 0.713719 0.736205
Si Si7 0.180592 0.990242 0.988715
Si Si8 0.489051 0.175838 0.308656
O O1 0.729960 0.930799 0.454998
O O2 0.919605 0.823485 0.589198
O O3 0.801547 0.036371 0.644503
O O4 0.878904 0.184771 0.344547
O O5 0.500000 0.500000 0.500000
O O6 0.586442 0.816504 0.339309
O O7 0.378169 0.782152 0.400172
O O8 0.514441 0.656717 0.661492
O O9 0.402485 0.826966 0.785598
O O10 0.240284 0.998099 0.839353
O O11 0.011060 0.499365 0.791603
O O12 0.900063 0.187379 0.926288
O O13 0.019161 0.264349 0.113473
O O14 0.113132 0.179845 0.921733
O O15 0.277146 0.967734 0.111048
O O16 0.382354 0.152355 0.222231
O O17 0.500000 0.000000 0.500000
#
# Coordination Sequence:
#
# PCOD8043153 Si02
#       8
#     2   2   2   2   2   2   2   2
#     4  11  18  37  64  84 104 161 204 225 276 356
#     4  10  20  34  57  90 118 133 187 254 282 324
#     4  10  19  36  59  80 111 155 191 222 289 348
#     4  10  22  39  52  85 126 147 188 249 298 326
#     4  10  19  36  59  80 111 155 191 222 289 348
#     4  10  22  35  60  85 112 155 199 240 284 348
#     4  11  22  37  58  82 118 159 186 239 292 340
#     4   8  16  34  55  78 107 144 182 227 278 336
#
# _framework density 18.760559000000001
#
# number of rings (size 3 to 8) (size 9 to 14) (size 15 to 20)
#    0.000    2.250    6.250    0.000    0.000    4.000 
#    0.000    1.250    0.000    1.500    0.000    0.000 
#    0.000    0.000    0.000    0.000    0.000    0.000 
#
# Total GULP energy -198281.693543 kJ/mol
# GULP energy per Si atom -12392.605846 kJ/mol
# Density = 1.871786 g / cm^3
# Si number density = 18.760559 Si / 1000 Ang^3
#
#
#
# Elastic Constant Matrix: (Units=GPa)
#
#
# Indices 1 2 3 4 5 6 
#
# 1 95.3130 43.5748 26.2346 0.8151 -2.0380 -4.0569
# 2 43.5748 139.7393 33.2747 0.2131 1.2694 -3.0678
# 3 26.2346 33.2747 51.3750 1.1778 0.7700 1.3722
# 4 0.8151 0.2131 1.1778 30.2881 1.1164 0.5547
# 5 -2.0380 1.2694 0.7700 1.1164 30.6531 15.4823
# 6 -4.0569 -3.0678 1.3722 0.5547 15.4823 24.7996
#
#
#
# Elastic Compliance Matrix: (Units=1/GPa)
#
#
# Indices 1 2 3 4 5 6 
#
# 1 0.013276 -0.002920 -0.004939 -0.000186 0.000117 0.002015
# 2 -0.002920 0.009186 -0.004490 0.000206 -0.001351 0.001746
# 3 -0.004939 -0.004490 0.024987 -0.000781 0.000930 -0.003309
# 4 -0.000186 0.000206 -0.000781 0.033095 -0.001244 0.000075
# 5 0.000117 -0.001351 0.000930 -0.001244 0.047899 -0.030075
# 6 0.002015 0.001746 -0.003309 0.000075 -0.030075 0.059826
#
#
# Mechanical properties :
#
#
# Convention : Reuss Voigt Hill
#
# Bulk Modulus (GPa) = 43.95399 54.73283 49.34341
# Shear Modulus (GPa) = 22.67045 29.37106 26.02075
#
# Velocity S-wave (km/s) = 3.47999 3.96103 3.72828
# Velocity P-wave (km/s) = 6.29499 7.08219 6.70016
#
# Compressibility (1/GPa) = 0.02275106
#
# Stress axis : x y z
#
# Youngs Moduli (GPa) = 75.32256 108.85938 40.02046
#
# Poissons Ratio (x) = 0.31790 0.19768
# Poissons Ratio (y) = 0.21996 0.17968
# Poissons Ratio (z) = 0.37205 0.48874
#
# Static dielectric constant tensor:
#      x y z
#    x 3.590070 -0.044880 -0.040910 
#    y -0.044880 3.810630 0.397860 
#    z -0.040910 0.397860 3.259030 
# 
# 
# High freq. dielectric constant tensor:
#      x y z
#    x 1.745060 -0.001740 -0.001220 
#    y -0.001740 1.719960 0.027410 
#    z -0.001220 0.027410 1.701250 
# 
# From -- ./inp_files/237164.got.cif
#   From: 2010.06.25/outbox.cif.g09.slc.cpg/sg2_119_cif.got.tgz:237164.got - 2010.06.27 13:26:56.
