data_PCOD8043805
_publ_section_title
;
Structure prediction by ZEFSAII (Michael W. Deem and Ramdas Pophale) SiO2 
 PCOD8043805
Probable space group: P -1
;
_chemical_formula_sum "Si O2"
_cell_formula_units_Z 16
_cell_length_a 11.600603
_cell_length_b 8.765393
_cell_length_c 15.332231
_cell_angle_alpha 104.412756
_cell_angle_beta 53.969510
_cell_angle_gamma 141.062788
_cell_volume 722.538572
_symmetry_space_group_name_H-M "P -1"
_symmetry_group_IT_number 2
_symmetry_cell_setting 'triclinic'
loop_
_space_group_symop_operation_xyz
x,y,z
-x,-y,-z
loop_
_atom_site_type_symbol
_atom_site_label
_atom_site_fract_x
_atom_site_fract_y
_atom_site_fract_z
Si Si1 0.885712 0.651018 0.541327
Si Si2 0.006834 0.467238 0.365150
Si Si3 0.706736 0.783733 0.865013
Si Si4 0.898486 0.326545 0.202900
Si Si5 0.520228 0.082807 0.218654
Si Si6 0.849423 0.759834 0.964705
Si Si7 0.721449 0.824780 0.671075
Si Si8 0.274478 0.863568 0.030913
O O1 0.964434 0.656196 0.601654
O O2 0.672763 0.594392 0.636966
O O3 0.827687 0.443819 0.480196
O O4 0.103169 0.942944 0.444923
O O5 0.893742 0.298176 0.304145
O O6 0.260751 0.775690 0.273791
O O7 0.863205 0.807906 0.860584
O O8 0.831254 0.925503 0.735594
O O9 0.697635 0.925356 0.952631
O O10 0.434617 0.484365 0.919784
O O11 0.618931 0.103662 0.269400
O O12 0.033555 0.307508 0.088822
O O13 0.031328 0.604415 0.153345
O O14 0.511827 0.267726 0.242291
O O15 0.718594 0.199527 0.078258
O O16 0.000000 0.000000 0.000000
O O17 0.500000 0.000000 0.000000
#
# Coordination Sequence:
#
# PCOD8043805 Si02
#       8
#     2   2   2   2   2   2   2   2
#     4   9  20  37  64  83 111 151 200 258 297 345
#     4  10  20  41  61  85 113 155 202 245 302 350
#     4  11  22  39  63  86 122 161 194 242 291 351
#     4  12  23  38  62  90 122 161 198 240 296 358
#     4  11  22  36  59  89 124 156 194 240 291 359
#     4  11  24  39  57  91 128 157 193 234 290 358
#     4  10  19  37  59  88 113 151 200 246 301 343
#     4  12  19  38  61  89 123 159 195 235 284 354
#
# _framework density 22.144147
#
# number of rings (size 3 to 8) (size 9 to 14) (size 15 to 20)
#    0.000    1.250    3.750    2.625    0.000    4.000 
#    0.000    6.250    0.000    3.000    0.000    0.000 
#    0.000    0.000    0.000    0.000    0.000    0.000 
#
# Total GULP energy -198221.881793 kJ/mol
# GULP energy per Si atom -12388.867612 kJ/mol
# Density = 2.209375 g / cm^3
# Si number density = 22.144147 Si / 1000 Ang^3
#
#
#
# Elastic Constant Matrix: (Units=GPa)
#
#
# Indices 1 2 3 4 5 6 
#
# 1 126.5674 41.1213 32.8122 13.3817 9.4340 -5.9491
# 2 41.1213 75.5104 22.6913 19.6363 -1.0048 -3.3103
# 3 32.8122 22.6913 88.7416 19.4138 18.9281 -4.6963
# 4 13.3817 19.6363 19.4138 25.4205 -6.7050 2.3733
# 5 9.4340 -1.0048 18.9281 -6.7050 38.4232 6.7652
# 6 -5.9491 -3.3103 -4.6963 2.3733 6.7652 40.1712
#
#
#
# Elastic Compliance Matrix: (Units=1/GPa)
#
#
# Indices 1 2 3 4 5 6 
#
# 1 0.010244 -0.004730 -0.001817 -0.001046 -0.002162 0.001341
# 2 -0.004730 0.019206 -0.000152 -0.012594 -0.000765 0.001737
# 3 -0.001817 -0.000152 0.018634 -0.016943 -0.012577 0.005016
# 4 -0.001046 -0.012594 -0.016943 0.069481 0.022343 -0.011041
# 5 -0.002162 -0.000765 -0.012577 0.022343 0.038327 -0.009628
# 6 0.001341 0.001737 0.005016 -0.011041 -0.009628 0.028095
#
#
# Mechanical properties :
#
#
# Convention : Reuss Voigt Hill
#
# Bulk Modulus (GPa) = 28.83043 53.78543 41.30793
# Shear Modulus (GPa) = 23.92960 33.74929 28.83945
#
# Velocity S-wave (km/s) = 3.29086 3.90817 3.61272
# Velocity P-wave (km/s) = 5.24284 6.68630 6.00808
#
# Compressibility (1/GPa) = 0.03468557
#
# Stress axis : x y z
#
# Youngs Moduli (GPa) = 97.62120 52.06749 53.66561
#
# Poissons Ratio (x) = 0.24630 0.09751
# Poissons Ratio (y) = 0.46179 0.00814
# Poissons Ratio (z) = 0.17737 0.00789
#
# Static dielectric constant tensor:
#      x y z
#    x 4.519230 -0.360940 0.124570 
#    y -0.360940 3.796940 -0.068080 
#    z 0.124570 -0.068080 4.774810 
# 
# 
# High freq. dielectric constant tensor:
#      x y z
#    x 1.884490 -0.027310 0.014490 
#    y -0.027310 1.841900 0.019510 
#    z 0.014490 0.019510 1.872130 
# 
# From -- ./inp_files/283081.got.cif
#   From: 2010.06.25/outbox.cif.g09.slc.cpg/sg2_142_cif.got.tgz:283081.got - 2010.06.27 13:26:56.
