data_PCOD8043305
_publ_section_title
;
Structure prediction by ZEFSAII (Michael W. Deem and Ramdas Pophale) SiO2 
 PCOD8043305
Probable space group: P -1
;
_chemical_formula_sum "Si O2"
_cell_formula_units_Z 14
_cell_length_a 11.627707
_cell_length_b 12.879207
_cell_length_c 9.440134
_cell_angle_alpha 143.293839
_cell_angle_beta 63.041723
_cell_angle_gamma 116.145725
_cell_volume 745.222310
_symmetry_space_group_name_H-M "P -1"
_symmetry_group_IT_number 2
_symmetry_cell_setting 'triclinic'
loop_
_space_group_symop_operation_xyz
x,y,z
-x,-y,-z
loop_
_atom_site_type_symbol
_atom_site_label
_atom_site_fract_x
_atom_site_fract_y
_atom_site_fract_z
Si Si1 0.992721 0.443272 0.280228
Si Si2 0.162005 0.137119 0.816014
Si Si3 0.760370 0.862759 0.539768
Si Si4 0.958392 0.788041 0.554592
Si Si5 0.743975 0.182147 0.091848
Si Si6 0.468434 0.296476 0.319652
Si Si7 0.265895 0.120199 0.034466
O O1 0.028468 0.616091 0.350438
O O2 0.845992 0.358629 0.228546
O O3 0.000000 0.500000 0.500000
O O4 0.093778 0.310581 0.045439
O O5 0.242506 0.130207 0.619548
O O6 0.267295 0.139865 0.886207
O O7 0.058465 0.964762 0.705434
O O8 0.887336 0.780181 0.432555
O O9 0.628901 0.745307 0.539062
O O10 0.774122 0.058892 0.810037
O O11 0.850491 0.783998 0.734096
O O12 0.598513 0.219901 0.198251
O O13 0.758123 0.082973 0.124784
O O14 0.500000 0.500000 0.500000
O O15 0.404519 0.208991 0.116189
#
# Coordination Sequence:
#
# PCOD8043305 Si02
#       7
#     2   2   2   2   2   2   2
#     4  12  22  34  65  92 119 157 198 241 291 351
#     4  12  22  39  57  92 131 145 193 250 301 346
#     4  10  22  39  60  87 120 159 190 251 297 340
#     4  10  20  37  57  87 121 163 196 227 294 357
#     4  10  20  40  64  83 112 162 207 232 287 361
#     4  10  21  41  63  84 111 155 213 238 279 362
#     4  10  19  36  61  84 116 159 195 242 285 348
#
# _framework density 18.786339000000002
#
# number of rings (size 3 to 8) (size 9 to 14) (size 15 to 20)
#    0.000    1.714    4.286    5.143    0.000    0.571 
#    2.571    3.571    0.000    0.000    0.000    0.000 
#    0.000    0.000    0.000    0.000    0.000    0.000 
#
# Total GULP energy -173599.877847 kJ/mol
# GULP energy per Si atom -12399.991275 kJ/mol
# Density = 1.874358 g / cm^3
# Si number density = 18.786339 Si / 1000 Ang^3
#
#
#
# Elastic Constant Matrix: (Units=GPa)
#
#
# Indices 1 2 3 4 5 6 
#
# 1 100.9058 37.2805 42.4835 -10.0533 -4.0688 -16.2043
# 2 37.2805 76.8161 61.6728 3.3747 4.9053 -20.4496
# 3 42.4835 61.6728 88.1445 3.7943 2.3923 -13.0984
# 4 -10.0533 3.3747 3.7943 39.1233 -15.7954 4.4787
# 5 -4.0688 4.9053 2.3923 -15.7954 26.7765 2.1754
# 6 -16.2043 -20.4496 -13.0984 4.4787 2.1754 35.1238
#
#
#
# Elastic Compliance Matrix: (Units=1/GPa)
#
#
# Indices 1 2 3 4 5 6 
#
# 1 0.014535 -0.003686 -0.004746 0.007411 0.007568 0.001376
# 2 -0.003686 0.036237 -0.020950 -0.008074 -0.011171 0.013306
# 3 -0.004746 -0.020950 0.027801 -0.001698 -0.000060 -0.003799
# 4 0.007411 -0.008074 -0.001698 0.040333 0.027260 -0.008747
# 5 0.007568 -0.011171 -0.000060 0.027260 0.057446 -0.010069
# 6 0.001376 0.013306 -0.003799 -0.008747 -0.010069 0.037175
#
#
# Mechanical properties :
#
#
# Convention : Reuss Voigt Hill
#
# Bulk Modulus (GPa) = 50.48281 60.97108 55.72695
# Shear Modulus (GPa) = 17.92795 28.50002 23.21399
#
# Velocity S-wave (km/s) = 3.09254 3.89917 3.51904
# Velocity P-wave (km/s) = 6.29938 7.26614 6.79996
#
# Compressibility (1/GPa) = 0.01980872
#
# Stress axis : x y z
#
# Youngs Moduli (GPa) = 68.80006 27.59603 35.96997
#
# Poissons Ratio (x) = 0.10172 0.17073
# Poissons Ratio (y) = 0.25359 0.75356
# Poissons Ratio (z) = 0.32656 0.57813
#
# Static dielectric constant tensor:
#      x y z
#    x -2.862650 1.345310 6.855740 
#    y 1.345310 3.078340 -1.376390 
#    z 6.855740 -1.376390 -3.861190 
# 
# 
# High freq. dielectric constant tensor:
#      x y z
#    x 1.736050 -0.011850 0.004570 
#    y -0.011850 1.724200 0.021790 
#    z 0.004570 0.021790 1.716010 
# 
# From -- ./inp_files/255654.got.cif
#   From: 2010.06.25/outbox.cif.g09.slc.cpg/sg2_128_cif.got.tgz:255654.got - 2010.06.27 13:26:56.
