data_PCOD8043597
_publ_section_title
;
Structure prediction by ZEFSAII (Michael W. Deem and Ramdas Pophale) SiO2 
 PCOD8043597
Probable space group: P -1
;
_chemical_formula_sum "Si O2"
_cell_formula_units_Z 16
_cell_length_a 22.188053
_cell_length_b 21.754634
_cell_length_c 8.967085
_cell_angle_alpha 141.638892
_cell_angle_beta 47.055447
_cell_angle_gamma 161.995145
_cell_volume 782.081843
_symmetry_space_group_name_H-M "P -1"
_symmetry_group_IT_number 2
_symmetry_cell_setting 'triclinic'
loop_
_space_group_symop_operation_xyz
x,y,z
-x,-y,-z
loop_
_atom_site_type_symbol
_atom_site_label
_atom_site_fract_x
_atom_site_fract_y
_atom_site_fract_z
Si Si1 0.331166 0.736670 0.424052
Si Si2 0.846104 0.739246 0.253628
Si Si3 0.722583 0.499829 0.722479
Si Si4 0.628683 0.458791 0.362560
Si Si5 0.660973 0.855726 0.492527
Si Si6 0.993682 0.107848 0.253378
Si Si7 0.958906 0.251210 0.976524
Si Si8 0.393217 0.021854 0.825418
O O1 0.267048 0.597442 0.406266
O O2 0.546280 0.935870 0.367522
O O3 0.350366 0.871619 0.700542
O O4 0.165391 0.545746 0.202887
O O5 0.650340 0.535485 0.310250
O O6 0.988464 0.802471 0.171536
O O7 0.741228 0.608180 0.019483
O O8 0.000000 0.000000 0.500000
O O9 0.506257 0.268144 0.557298
O O10 0.920563 0.730979 0.720498
O O11 0.466497 0.333321 0.510773
O O12 0.862739 0.716685 0.513577
O O13 0.571947 0.280342 0.100979
O O14 0.762782 0.885555 0.270056
O O15 0.841757 0.125429 0.772837
O O16 0.000000 0.000000 0.000000
O O17 0.806868 0.128572 0.125723
#
# Coordination Sequence:
#
# PCOD8043597 Si02
#       8
#     2   2   2   2   2   2   2   2
#     4  10  20  38  62  92 125 156 203 256 310 354
#     4  11  21  41  63  90 126 159 198 265 309 348
#     4  10  23  37  60  94 126 150 205 266 295 355
#     4  10  20  40  62  86 120 158 208 244 301 367
#     4  10  22  40  62  85 120 168 202 244 300 370
#     4  11  22  41  61  83 124 170 201 246 311 364
#     4  10  20  38  62  86 122 159 208 242 298 376
#     4  10  19  36  65  91 117 164 204 249 307 368
#
# _framework density 20.458214999999999
#
# number of rings (size 3 to 8) (size 9 to 14) (size 15 to 20)
#    0.000    1.750    3.750    1.125    0.000    4.000 
#    2.250    9.375    0.000    6.750    0.000    0.000 
#    0.000    0.000    0.000    0.000    0.000    0.000 
#
# Total GULP energy -198228.800677 kJ/mol
# GULP energy per Si atom -12389.300042 kJ/mol
# Density = 2.041165 g / cm^3
# Si number density = 20.458215 Si / 1000 Ang^3
#
#
#
# Elastic Constant Matrix: (Units=GPa)
#
#
# Indices 1 2 3 4 5 6 
#
# 1 63.2368 45.4626 46.5372 -0.4960 -2.1884 -10.2612
# 2 45.4626 136.8242 41.4822 -21.4986 -6.6554 -10.7681
# 3 46.5372 41.4822 114.1382 12.8934 -10.3795 -5.7375
# 4 -0.4960 -21.4986 12.8934 38.0635 -2.7971 3.2539
# 5 -2.1884 -6.6554 -10.3795 -2.7971 41.7598 4.6852
# 6 -10.2612 -10.7681 -5.7375 3.2539 4.6852 30.1960
#
#
#
# Elastic Compliance Matrix: (Units=1/GPa)
#
#
# Indices 1 2 3 4 5 6 
#
# 1 0.027744 -0.006336 -0.008831 -0.000919 -0.002483 0.005975
# 2 -0.006336 0.011291 -0.002174 0.007088 0.001347 0.000487
# 3 -0.008831 -0.002174 0.013983 -0.005832 0.002372 -0.000859
# 4 -0.000919 0.007088 -0.005832 0.032629 0.002125 -0.002738
# 5 -0.002483 0.001347 0.002372 0.002125 0.025218 -0.004054
# 6 0.005975 0.000487 -0.000859 -0.002738 -0.004054 0.036082
#
#
# Mechanical properties :
#
#
# Convention : Reuss Voigt Hill
#
# Bulk Modulus (GPa) = 54.53617 64.57369 59.55493
# Shear Modulus (GPa) = 26.63262 34.05167 30.34215
#
# Velocity S-wave (km/s) = 3.61197 4.08419 3.85532
# Velocity P-wave (km/s) = 6.64156 7.33983 6.99941
#
# Compressibility (1/GPa) = 0.01833645
#
# Stress axis : x y z
#
# Youngs Moduli (GPa) = 36.04398 88.56942 71.51474
#
# Poissons Ratio (x) = 0.56119 0.63153
# Poissons Ratio (y) = 0.22838 0.15545
# Poissons Ratio (z) = 0.31829 0.19252
#
# Static dielectric constant tensor:
#      x y z
#    x 3.462880 -0.040030 0.082870 
#    y -0.040030 4.093900 -0.017900 
#    z 0.082870 -0.017900 4.061740 
# 
# 
# High freq. dielectric constant tensor:
#      x y z
#    x 1.755520 -0.002930 0.007070 
#    y -0.002930 1.817550 -0.000180 
#    z 0.007070 -0.000180 1.808890 
# 
# From -- ./inp_files/327147.got.cif
#   From: 2010.06.25/outbox.cif.g09.slc.cpg/sg2_164_cif.got.tgz:327147.got - 2010.06.27 13:26:56.
