data_PCOD8043796
_publ_section_title
;
Structure prediction by ZEFSAII (Michael W. Deem and Ramdas Pophale) SiO2 
 PCOD8043796
Probable space group: P -1
;
_chemical_formula_sum "Si O2"
_cell_formula_units_Z 16
_cell_length_a 11.953228
_cell_length_b 11.902236
_cell_length_c 8.836118
_cell_angle_alpha 51.108525
_cell_angle_beta 72.634763
_cell_angle_gamma 50.879720
_cell_volume 749.113913
_symmetry_space_group_name_H-M "P -1"
_symmetry_group_IT_number 2
_symmetry_cell_setting 'triclinic'
loop_
_space_group_symop_operation_xyz
x,y,z
-x,-y,-z
loop_
_atom_site_type_symbol
_atom_site_label
_atom_site_fract_x
_atom_site_fract_y
_atom_site_fract_z
Si Si1 0.522268 0.268093 0.612177
Si Si2 0.431684 0.271875 0.322619
Si Si3 0.728005 0.907993 0.493232
Si Si4 0.719459 0.868055 0.868017
Si Si5 0.029326 0.681298 0.425430
Si Si6 0.020252 0.378803 0.827243
Si Si7 0.244165 0.464738 0.982487
Si Si8 0.275448 0.621143 0.562648
O O1 0.437591 0.341400 0.424478
O O2 0.410004 0.412233 0.657326
O O3 0.669297 0.255799 0.559469
O O4 0.571238 0.067185 0.800604
O O5 0.318666 0.220762 0.419332
O O6 0.362570 0.428830 0.091444
O O7 0.592182 0.110069 0.337844
O O8 0.772866 0.892136 0.664368
O O9 0.865116 0.854090 0.382019
O O10 0.689527 0.719796 0.982582
O O11 0.836299 0.804891 0.008281
O O12 0.063809 0.505670 0.644843
O O13 0.148338 0.707540 0.415089
O O14 0.045089 0.661350 0.254322
O O15 0.906173 0.473552 0.930013
O O16 0.212704 0.621830 0.751559
#
# Coordination Sequence:
#
# PCOD8043796 Si02
#       8
#     2   2   2   2   2   2   2   2
#     4  10  24  42  57  82 124 159 191 233 292 356
#     4   9  18  35  58  86 117 151 189 237 287 340
#     4   9  18  33  59  88 119 146 186 246 290 334
#     4  10  19  37  59  85 119 146 194 242 285 339
#     4  11  21  36  59  89 118 153 191 243 297 337
#     4  11  21  34  59  92 117 145 193 251 288 339
#     4  11  20  36  63  90 116 149 196 246 283 339
#     4  11  24  40  59  84 120 160 192 236 292 348
#
# _framework density 21.358568000000002
#
# number of rings (size 3 to 8) (size 9 to 14) (size 15 to 20)
#    0.000    1.750    3.750    2.625    1.750    2.000 
#    0.000    6.250    0.000    0.000    0.000    0.000 
#    0.000    0.000    0.000    0.000    0.000    0.000 
#
# Total GULP energy -198370.708826 kJ/mol
# GULP energy per Si atom -12398.169302 kJ/mol
# Density = 2.130995 g / cm^3
# Si number density = 21.358568 Si / 1000 Ang^3
#
#
#
# Elastic Constant Matrix: (Units=GPa)
#
#
# Indices 1 2 3 4 5 6 
#
# 1 102.6861 4.9634 39.6215 9.6669 25.6346 -0.2295
# 2 4.9634 47.5956 6.2940 0.2354 -2.3996 -6.1206
# 3 39.6215 6.2940 67.7219 8.3277 27.5390 0.0429
# 4 9.6669 0.2354 8.3277 22.6080 -2.9167 8.5060
# 5 25.6346 -2.3996 27.5390 -2.9167 36.4672 3.0082
# 6 -0.2295 -6.1206 0.0429 8.5060 3.0082 22.5542
#
#
#
# Elastic Compliance Matrix: (Units=1/GPa)
#
#
# Indices 1 2 3 4 5 6 
#
# 1 0.013894 -0.000794 -0.004211 -0.006633 -0.007453 0.003430
# 2 -0.000794 0.022447 -0.003184 -0.000357 0.003941 0.005699
# 3 -0.004211 -0.003184 0.026902 -0.012988 -0.019139 0.006493
# 4 -0.006633 -0.000357 -0.012988 0.065072 0.021929 -0.027605
# 5 -0.007453 0.003941 -0.019139 0.021929 0.050278 -0.013946
# 6 0.003430 0.005699 0.006493 -0.027605 -0.013946 0.058178
#
#
# Mechanical properties :
#
#
# Convention : Reuss Voigt Hill
#
# Bulk Modulus (GPa) = 21.33773 35.52904 28.43338
# Shear Modulus (GPa) = 18.60323 27.46753 23.03538
#
# Velocity S-wave (km/s) = 2.95447 3.59000 3.28763
# Velocity P-wave (km/s) = 4.65300 5.81849 5.26808
#
# Compressibility (1/GPa) = 0.04686534
#
# Stress axis : x y z
#
# Youngs Moduli (GPa) = 71.97222 44.54843 37.17216
#
# Poissons Ratio (x) = 0.03537 0.15654
# Poissons Ratio (y) = 0.05714 0.11836
# Poissons Ratio (z) = 0.30308 0.14185
#
# Static dielectric constant tensor:
#      x y z
#    x 3.690480 -0.004730 0.367640 
#    y -0.004730 3.748880 0.064410 
#    z 0.367640 0.064410 3.796370 
# 
# 
# High freq. dielectric constant tensor:
#      x y z
#    x 1.820570 -0.010120 0.035750 
#    y -0.010120 1.829420 0.010400 
#    z 0.035750 0.010400 1.823180 
# 
# From -- ./inp_files/262038.got.cif
#   From: 2010.06.25/outbox.cif.g09.slc.cpg/sg2_132_cif.got.tgz:262038.got - 2010.06.27 13:26:56.
