data_PCOD8043446
_publ_section_title
;
Structure prediction by ZEFSAII (Michael W. Deem and Ramdas Pophale) SiO2 
 PCOD8043446
Probable space group: P -1
;
_chemical_formula_sum "Si O2"
_cell_formula_units_Z 14
_cell_length_a 7.805148
_cell_length_b 14.450511
_cell_length_c 9.609331
_cell_angle_alpha 48.258910
_cell_angle_beta 98.205901
_cell_angle_gamma 72.846058
_cell_volume 679.738744
_symmetry_space_group_name_H-M "P -1"
_symmetry_group_IT_number 2
_symmetry_cell_setting 'triclinic'
loop_
_space_group_symop_operation_xyz
x,y,z
-x,-y,-z
loop_
_atom_site_type_symbol
_atom_site_label
_atom_site_fract_x
_atom_site_fract_y
_atom_site_fract_z
Si Si1 0.259085 0.211355 0.673743
Si Si2 0.873210 0.976705 0.697251
Si Si3 0.586076 0.639914 0.649682
Si Si4 0.872465 0.248352 0.475059
Si Si5 0.213516 0.680659 0.914347
Si Si6 0.600890 0.918012 0.892862
Si Si7 0.470307 0.802349 0.747614
O O1 0.331055 0.315774 0.517019
O O2 0.017903 0.279109 0.554854
O O3 0.379200 0.050893 0.778421
O O4 0.300226 0.199882 0.854616
O O5 0.739403 0.984412 0.806404
O O6 0.043116 0.810511 0.857230
O O7 0.969696 0.073500 0.649506
O O8 0.734739 0.046923 0.472468
O O9 0.354446 0.680017 0.558407
O O10 0.601342 0.724061 0.702461
O O11 0.733661 0.467506 0.857598
O O12 0.861392 0.316139 0.254414
O O13 0.412624 0.693328 0.920821
O O14 0.597042 0.836306 0.835304
#
# Coordination Sequence:
#
# PCOD8043446 Si02
#       7
#     2   2   2   2   2   2   2
#     4  11  23  40  61  89 122 160 196 247 295 354
#     4  10  19  36  62  93 117 152 200 250 293 343
#     4  10  22  42  62  89 121 155 200 245 297 352
#     4  10  20  39  63  90 116 156 202 244 292 352
#     4  10  20  37  63  91 119 153 199 248 299 345
#     4  11  22  38  60  93 121 153 205 245 294 351
#     4  10  19  38  64  88 118 153 199 253 288 346
#
# _framework density 20.596146999999998
#
# number of rings (size 3 to 8) (size 9 to 14) (size 15 to 20)
#    0.000    2.000    2.857    5.571    2.000    1.143 
#    5.143    1.429    0.000    0.000    0.000    0.000 
#    0.000    0.000    0.000    0.000    0.000    0.000 
#
# Total GULP energy -173601.556617 kJ/mol
# GULP energy per Si atom -12400.111187 kJ/mol
# Density = 2.054927 g / cm^3
# Si number density = 20.596147 Si / 1000 Ang^3
#
#
#
# Elastic Constant Matrix: (Units=GPa)
#
#
# Indices 1 2 3 4 5 6 
#
# 1 88.9869 11.0738 48.6620 6.6557 -8.2962 -0.7468
# 2 11.0738 37.0448 26.2819 -12.5664 1.4903 -4.6830
# 3 48.6620 26.2819 116.1135 -12.8808 -20.4567 6.5733
# 4 6.6557 -12.5664 -12.8808 29.9643 -8.2681 -3.1115
# 5 -8.2962 1.4903 -20.4567 -8.2681 28.5284 -2.9013
# 6 -0.7468 -4.6830 6.5733 -3.1115 -2.9013 12.3024
#
#
#
# Elastic Compliance Matrix: (Units=1/GPa)
#
#
# Indices 1 2 3 4 5 6 
#
# 1 0.016164 -0.001675 -0.007995 -0.008438 -0.003215 0.001723
# 2 -0.001675 0.042485 -0.008779 0.016484 -0.001730 0.024522
# 3 -0.007995 -0.008779 0.017457 0.008099 0.012161 -0.008238
# 4 -0.008438 0.016484 0.008099 0.053162 0.019890 0.019572
# 5 -0.003215 -0.001730 0.012161 0.019890 0.049648 0.009388
# 6 0.001723 0.024522 -0.008238 0.019572 0.009388 0.102289
#
#
# Mechanical properties :
#
#
# Convention : Reuss Voigt Hill
#
# Bulk Modulus (GPa) = 25.50452 46.02005 35.76228
# Shear Modulus (GPa) = 15.09790 24.56753 19.83272
#
# Velocity S-wave (km/s) = 2.71042 3.45747 3.10648
# Velocity P-wave (km/s) = 4.71224 6.19123 5.50166
#
# Compressibility (1/GPa) = 0.03920874
#
# Stress axis : x y z
#
# Youngs Moduli (GPa) = 61.86635 23.53791 57.28282
#
# Poissons Ratio (x) = 0.03942 0.45798
# Poissons Ratio (y) = 0.10361 0.50287
# Poissons Ratio (z) = 0.49463 0.20663
#
# Static dielectric constant tensor:
#      x y z
#    x 3.646100 -0.031340 -0.140860 
#    y -0.031340 3.367230 -0.070670 
#    z -0.140860 -0.070670 3.670190 
# 
# 
# High freq. dielectric constant tensor:
#      x y z
#    x 1.805650 -0.005360 -0.014750 
#    y -0.005360 1.773690 -0.008760 
#    z -0.014750 -0.008760 1.799210 
# 
# From -- ./inp_files/205627.got.cif
#   From: 2010.06.25/outbox.cif.g09.slc.cpg/sg2_103_cif.got.tgz:205627.got - 2010.06.27 13:26:56.
