data_PCOD8043999
_publ_section_title
;
Structure prediction by ZEFSAII (Michael W. Deem and Ramdas Pophale) SiO2 
 PCOD8043999
Probable space group: P -1
;
_chemical_formula_sum "Si O2"
_cell_formula_units_Z 16
_cell_length_a 21.951260
_cell_length_b 12.207176
_cell_length_c 8.924619
_cell_angle_alpha 98.603459
_cell_angle_beta 49.989491
_cell_angle_gamma 140.818320
_cell_volume 802.186615
_symmetry_space_group_name_H-M "P -1"
_symmetry_group_IT_number 2
_symmetry_cell_setting 'triclinic'
loop_
_space_group_symop_operation_xyz
x,y,z
-x,-y,-z
loop_
_atom_site_type_symbol
_atom_site_label
_atom_site_fract_x
_atom_site_fract_y
_atom_site_fract_z
Si Si1 0.058620 0.455390 0.340079
Si Si2 0.365267 0.740531 0.094709
Si Si3 0.650398 0.019145 0.485274
Si Si4 0.706668 0.280776 0.260676
Si Si5 0.248608 0.029059 0.450121
Si Si6 0.585713 0.399555 0.811671
Si Si7 0.809824 0.804026 0.318670
Si Si8 0.558011 0.322988 0.523407
O O1 0.171453 0.544286 0.315992
O O2 0.000000 0.500000 0.500000
O O3 0.889769 0.166493 0.505988
O O4 0.176283 0.617281 0.039257
O O5 0.328990 0.600455 0.244360
O O6 0.455360 0.802642 0.816826
O O7 0.500000 0.000000 0.000000
O O8 0.603142 0.890660 0.383162
O O9 0.756371 0.265554 0.324375
O O10 0.765716 0.091826 0.435286
O O11 0.716242 0.425214 0.295813
O O12 0.500000 0.000000 0.500000
O O13 0.196637 0.071676 0.636978
O O14 0.448432 0.290893 0.118598
O O15 0.752019 0.685162 0.552018
O O16 0.474834 0.219640 0.802653
O O17 0.664041 0.572292 0.382746
O O18 0.000000 0.000000 0.000000
#
# Coordination Sequence:
#
# PCOD8043999 Si02
#       8
#     2   2   2   2   2   2   2   2
#     4  12  25  37  60  96 132 162 201 270 318 369
#     4  11  21  40  65  92 123 167 212 249 315 387
#     4  10  21  37  67  89 121 169 212 252 310 382
#     4  10  19  37  62  88 122 166 205 248 312 375
#     4  11  24  42  61  94 130 159 213 264 313 372
#     4   9  22  40  68  87 120 173 208 256 315 367
#     4  10  22  41  67  91 126 166 214 261 314 364
#     4   9  19  36  68  86 118 164 210 248 312 362
#
# _framework density 19.945485000000001
#
# number of rings (size 3 to 8) (size 9 to 14) (size 15 to 20)
#    0.750    1.000    2.500    3.375    5.250    1.000 
#    2.250    0.625    0.000    0.000    0.000    0.000 
#    0.000    0.000    0.000    0.000    0.000    0.000 
#
# Total GULP energy -198223.522345 kJ/mol
# GULP energy per Si atom -12388.970147 kJ/mol
# Density = 1.990009 g / cm^3
# Si number density = 19.945485 Si / 1000 Ang^3
#
#
#
# Elastic Constant Matrix: (Units=GPa)
#
#
# Indices 1 2 3 4 5 6 
#
# 1 100.3083 29.4329 35.3823 -3.0795 -9.9234 2.3521
# 2 29.4329 93.4834 12.4234 6.5619 -18.3630 -6.4317
# 3 35.3823 12.4234 102.5794 9.4419 -3.1844 -9.6849
# 4 -3.0795 6.5619 9.4419 33.7534 -2.9420 -2.5671
# 5 -9.9234 -18.3630 -3.1844 -2.9420 32.2875 3.6247
# 6 2.3521 -6.4317 -9.6849 -2.5671 3.6247 32.3432
#
#
#
# Elastic Compliance Matrix: (Units=1/GPa)
#
#
# Indices 1 2 3 4 5 6 
#
# 1 0.012977 -0.003476 -0.004555 0.003096 0.002181 -0.002998
# 2 -0.003476 0.013257 0.000186 -0.002260 0.006050 0.002087
# 3 -0.004555 0.000186 0.011956 -0.003585 -0.000864 0.003761
# 4 0.003096 -0.002260 -0.003585 0.031577 0.002131 0.000519
# 5 0.002181 0.006050 -0.000864 0.002131 0.035532 -0.003027
# 6 -0.002998 0.002087 0.003761 0.000519 -0.003027 0.033058
#
#
# Mechanical properties :
#
#
# Convention : Reuss Voigt Hill
#
# Bulk Modulus (GPa) = 44.44418 50.09426 47.26922
# Shear Modulus (GPa) = 30.95095 34.28566 32.61831
#
# Velocity S-wave (km/s) = 3.94353 4.15054 4.04836
# Velocity P-wave (km/s) = 6.56251 6.93826 6.75300
#
# Compressibility (1/GPa) = 0.02250013
#
# Stress axis : x y z
#
# Youngs Moduli (GPa) = 77.05901 75.43064 83.64315
#
# Poissons Ratio (x) = 0.26216 0.38104
# Poissons Ratio (y) = 0.26782 -0.01557
# Poissons Ratio (z) = 0.35104 -0.01404
#
# Static dielectric constant tensor:
#      x y z
#    x 4.881940 -0.730850 -0.611600 
#    y -0.730850 3.922080 0.517500 
#    z -0.611600 0.517500 4.094020 
# 
# 
# High freq. dielectric constant tensor:
#      x y z
#    x 1.770060 -0.008430 0.005800 
#    y -0.008430 1.766750 0.018530 
#    z 0.005800 0.018530 1.775140 
# 
# From -- ./inp_files/346168.got.cif
#   From: 2010.06.25/outbox.cif.g09.slc.cpg/sg2_174_cif.got.tgz:346168.got - 2010.06.27 13:26:56.
