data_PCOD8043181
_publ_section_title
;
Structure prediction by ZEFSAII (Michael W. Deem and Ramdas Pophale) SiO2 
 PCOD8043181
Probable space group: P -1
;
_chemical_formula_sum "Si O2"
_cell_formula_units_Z 16
_cell_length_a 8.563697
_cell_length_b 9.151948
_cell_length_c 13.127313
_cell_angle_alpha 82.536221
_cell_angle_beta 118.368024
_cell_angle_gamma 121.410746
_cell_volume 763.075155
_symmetry_space_group_name_H-M "P -1"
_symmetry_group_IT_number 2
_symmetry_cell_setting 'triclinic'
loop_
_space_group_symop_operation_xyz
x,y,z
-x,-y,-z
loop_
_atom_site_type_symbol
_atom_site_label
_atom_site_fract_x
_atom_site_fract_y
_atom_site_fract_z
Si Si1 0.560447 0.819744 0.157000
Si Si2 0.400773 0.225166 0.228999
Si Si3 0.986236 0.681786 0.259088
Si Si4 0.403135 0.614064 0.933147
Si Si5 0.432112 0.903495 0.309583
Si Si6 0.005568 0.024812 0.223066
Si Si7 0.204458 0.128934 0.490905
Si Si8 0.301420 0.398978 0.651120
O O1 0.439809 0.869637 0.194669
O O2 0.610419 0.686629 0.237807
O O3 0.777393 0.997013 0.172926
O O4 0.413926 0.728653 0.022170
O O5 0.463734 0.255231 0.128237
O O6 0.536211 0.397046 0.322914
O O7 0.151748 0.157584 0.167147
O O8 0.435086 0.080665 0.304095
O O9 0.837717 0.509081 0.162993
O O10 0.917616 0.642953 0.361148
O O11 0.225988 0.740267 0.311499
O O12 0.958640 0.835682 0.196203
O O13 0.500000 0.500000 0.000000
O O14 0.625341 0.921800 0.429452
O O15 0.154821 0.110135 0.359297
O O16 0.274565 0.321069 0.536676
O O17 0.000000 0.000000 0.500000
#
# Coordination Sequence:
#
# PCOD8043181 Si02
#       8
#     2   2   2   2   2   2   2   2
#     4  10  19  37  63  82 114 158 191 232 282 350
#     4  10  22  36  56  90 120 141 194 250 281 326
#     4   9  18  34  56  85 115 148 191 231 284 340
#     4  11  19  38  65  81 112 161 194 229 288 346
#     4  10  22  37  57  90 120 143 191 247 283 335
#     4  10  19  36  59  87 114 150 200 231 281 346
#     4  11  19  38  67  80 111 164 193 220 291 355
#     4   9  18  37  59  81 115 153 194 225 279 349
#
# _framework density 20.967789
#
# number of rings (size 3 to 8) (size 9 to 14) (size 15 to 20)
#    0.000    2.000    7.500    0.000    0.000    4.000 
#    0.000    5.625    2.750    0.000    0.000    0.000 
#    0.000    0.000    0.000    0.000    0.000    0.000 
#
# Total GULP energy -198301.113089 kJ/mol
# GULP energy per Si atom -12393.819568 kJ/mol
# Density = 2.092007 g / cm^3
# Si number density = 20.967789 Si / 1000 Ang^3
#
#
#
# Elastic Constant Matrix: (Units=GPa)
#
#
# Indices 1 2 3 4 5 6 
#
# 1 103.9726 44.5266 11.8806 14.7347 9.5092 20.0665
# 2 44.5266 92.2803 26.5291 26.6337 -0.6657 20.0104
# 3 11.8806 26.5291 80.6620 21.3723 -10.9384 -4.4721
# 4 14.7347 26.6337 21.3723 24.3527 -5.5665 -2.0345
# 5 9.5092 -0.6657 -10.9384 -5.5665 31.5660 8.5354
# 6 20.0665 20.0104 -4.4721 -2.0345 8.5354 33.8001
#
#
#
# Elastic Compliance Matrix: (Units=1/GPa)
#
#
# Indices 1 2 3 4 5 6 
#
# 1 0.013296 -0.003911 -0.000148 -0.004888 -0.003658 -0.004968
# 2 -0.003911 0.021964 -0.001654 -0.021077 0.000689 -0.012342
# 3 -0.000148 -0.001654 0.016626 -0.011811 0.003217 0.001744
# 4 -0.004888 -0.021077 -0.011811 0.080345 0.006504 0.017011
# 5 -0.003658 0.000689 0.003217 0.006504 0.036878 -0.006732
# 6 -0.004968 -0.012342 0.001744 0.017011 -0.006732 0.042797
#
#
# Mechanical properties :
#
#
# Convention : Reuss Voigt Hill
#
# Bulk Modulus (GPa) = 24.71658 49.19859 36.95759
# Shear Modulus (GPa) = 21.11324 30.87567 25.99445
#
# Velocity S-wave (km/s) = 3.17667 3.84152 3.52480
# Velocity P-wave (km/s) = 5.02677 6.57200 5.85062
#
# Compressibility (1/GPa) = 0.04045867
#
# Stress axis : x y z
#
# Youngs Moduli (GPa) = 75.21087 45.52994 60.14788
#
# Poissons Ratio (x) = 0.17807 0.00892
# Poissons Ratio (y) = 0.29415 0.09948
# Poissons Ratio (z) = 0.01115 0.07531
#
# Static dielectric constant tensor:
#      x y z
#    x 4.972590 -0.258380 -2.337620 
#    y -0.258380 4.012420 1.642770 
#    z -2.337620 1.642770 9.062010 
# 
# 
# High freq. dielectric constant tensor:
#      x y z
#    x 1.827140 0.020240 -0.016990 
#    y 0.020240 1.806050 0.031110 
#    z -0.016990 0.031110 1.801830 
# 
# From -- ./inp_files/495077.got.cif
#   From: 2010.06.25/outbox.cif.g09.slc.cpg/sg2_248_cif.got.tgz:495077.got - 2010.06.27 13:26:56.
