data_PCOD8043158
_publ_section_title
;
Structure prediction by ZEFSAII (Michael W. Deem and Ramdas Pophale) SiO2 
 PCOD8043158
Probable space group: P -1
;
_chemical_formula_sum "Si O2"
_cell_formula_units_Z 16
_cell_length_a 13.371051
_cell_length_b 11.371505
_cell_length_c 18.178362
_cell_angle_alpha 138.949258
_cell_angle_beta 155.666205
_cell_angle_gamma 44.405505
_cell_volume 744.145761
_symmetry_space_group_name_H-M "P -1"
_symmetry_group_IT_number 2
_symmetry_cell_setting 'triclinic'
loop_
_space_group_symop_operation_xyz
x,y,z
-x,-y,-z
loop_
_atom_site_type_symbol
_atom_site_label
_atom_site_fract_x
_atom_site_fract_y
_atom_site_fract_z
Si Si1 0.577913 0.662828 0.854755
Si Si2 0.844722 0.777292 0.835282
Si Si3 0.566574 0.270087 0.669827
Si Si4 0.371452 0.863584 0.194902
Si Si5 0.216183 0.490195 0.444461
Si Si6 0.200203 0.743683 0.757980
Si Si7 0.199952 0.393605 0.678728
Si Si8 0.933558 0.864642 0.100347
O O1 0.664939 0.462489 0.849519
O O2 0.405957 0.639464 0.655715
O O3 0.422424 0.772635 0.865387
O O4 0.806766 0.767496 0.036092
O O5 0.777611 0.581797 0.669121
O O6 0.636844 0.931327 0.741417
O O7 0.861026 0.778054 0.934045
O O8 0.100714 0.803589 0.980017
O O9 0.529729 0.152201 0.662056
O O10 0.306968 0.315419 0.475610
O O11 0.774020 0.167486 0.708221
O O12 0.554313 0.738981 0.205720
O O13 0.945282 0.570215 0.325045
O O14 0.278841 0.580255 0.788387
O O15 0.964709 0.700927 0.534416
O O16 0.146820 0.923836 0.854477
#
# Coordination Sequence:
#
# PCOD8043158 Si02
#       8
#     2   2   2   2   2   2   2   2
#     4   9  19  39  59  84 109 145 197 231 270 321
#     4  10  24  37  50  91 117 149 179 222 293 338
#     4   9  19  36  58  88 103 148 193 233 276 314
#     4  10  20  38  55  81 122 141 187 232 277 342
#     4   9  21  37  58  85 113 146 188 230 276 336
#     4  10  20  35  58  92 104 146 190 238 278 319
#     4  10  19  36  59  82 114 141 189 230 284 326
#     4  11  22  36  59  82 120 148 183 232 278 330
#
# _framework density 21.501162999999998
#
# number of rings (size 3 to 8) (size 9 to 14) (size 15 to 20)
#    0.750    1.500    1.250    1.500    7.000    1.500 
#    0.000    0.000    0.000    3.000    0.000    0.000 
#    0.000    0.000    0.000    0.000    0.000    0.000 
#
# Total GULP energy -198299.677913 kJ/mol
# GULP energy per Si atom -12393.729870 kJ/mol
# Density = 2.145223 g / cm^3
# Si number density = 21.501163 Si / 1000 Ang^3
#
#
#
# Elastic Constant Matrix: (Units=GPa)
#
#
# Indices 1 2 3 4 5 6 
#
# 1 66.5574 34.3723 21.4668 -2.4307 12.4008 -26.2627
# 2 34.3723 81.0351 15.0856 -16.9749 14.6850 -35.4629
# 3 21.4668 15.0856 31.0511 -5.1746 5.1542 -16.2691
# 4 -2.4307 -16.9749 -5.1746 31.6033 -9.4468 3.1926
# 5 12.4008 14.6850 5.1542 -9.4468 34.7006 -0.1015
# 6 -26.2627 -35.4629 -16.2691 3.1926 -0.1015 39.6088
#
#
#
# Elastic Compliance Matrix: (Units=1/GPa)
#
#
# Indices 1 2 3 4 5 6 
#
# 1 0.025403 -0.004989 -0.010437 -0.005340 -0.006845 0.008502
# 2 -0.004989 0.026425 0.004771 0.010254 -0.007254 0.021465
# 3 -0.010437 0.004771 0.047309 0.006850 -0.003404 0.016222
# 4 -0.005340 0.010254 0.006850 0.039516 0.007325 0.005287
# 5 -0.006845 -0.007254 -0.003404 0.007325 0.036796 -0.012928
# 6 0.008502 0.021465 0.016222 0.005287 -0.012928 0.056306
#
#
# Mechanical properties :
#
#
# Convention : Reuss Voigt Hill
#
# Bulk Modulus (GPa) = 12.84932 35.61035 24.22983
# Shear Modulus (GPa) = 17.92070 28.36381 23.14226
#
# Velocity S-wave (km/s) = 2.89013 3.63599 3.28430
# Velocity P-wave (km/s) = 4.13838 5.85023 5.06712
#
# Compressibility (1/GPa) = 0.07782515
#
# Stress axis : x y z
#
# Youngs Moduli (GPa) = 39.36582 37.84352 21.13780
#
# Poissons Ratio (x) = 0.18882 0.22061
# Poissons Ratio (y) = 0.19641 -0.10084
# Poissons Ratio (z) = 0.41085 -0.18054
#
# Static dielectric constant tensor:
#      x y z
#    x 3.566150 -0.368050 0.093570 
#    y -0.368050 3.876790 -0.136050 
#    z 0.093570 -0.136050 3.561040 
# 
# 
# High freq. dielectric constant tensor:
#      x y z
#    x 1.821890 -0.033020 0.007490 
#    y -0.033020 1.840960 -0.007800 
#    z 0.007490 -0.007800 1.819830 
# 
# From -- ./inp_files/568204.got.cif
#   From: 2010.06.25/outbox.cif.g09.slc.cpg/sg2_285_cif.got.tgz:568204.got - 2010.06.27 13:26:56.
