data_PCOD8043113
_publ_section_title
;
Structure prediction by ZEFSAII (Michael W. Deem and Ramdas Pophale) SiO2 
 PCOD8043113
Probable space group: P -1
;
_chemical_formula_sum "Si O2"
_cell_formula_units_Z 14
_cell_length_a 8.490816
_cell_length_b 11.684332
_cell_length_c 7.866579
_cell_angle_alpha 102.011480
_cell_angle_beta 115.059711
_cell_angle_gamma 93.063756
_cell_volume 682.608876
_symmetry_space_group_name_H-M "P -1"
_symmetry_group_IT_number 2
_symmetry_cell_setting 'triclinic'
loop_
_space_group_symop_operation_xyz
x,y,z
-x,-y,-z
loop_
_atom_site_type_symbol
_atom_site_label
_atom_site_fract_x
_atom_site_fract_y
_atom_site_fract_z
Si Si1 0.213103 0.819786 0.328865
Si Si2 0.228443 0.403438 0.454983
Si Si3 0.281694 0.643245 0.743157
Si Si4 0.924741 0.390208 0.048614
Si Si5 0.147424 0.049879 0.216729
Si Si6 0.000056 0.211493 0.456445
Si Si7 0.543062 0.747272 0.652704
O O1 0.051726 0.823324 0.385797
O O2 0.387763 0.793527 0.492814
O O3 0.253261 0.946842 0.295120
O O4 0.146617 0.722037 0.129996
O O5 0.235482 0.539923 0.548771
O O6 0.287821 0.151485 0.224227
O O7 0.411905 0.369004 0.461890
O O8 0.163920 0.320576 0.562771
O O9 0.242523 0.589965 0.899012
O O10 0.164238 0.745513 0.698734
O O11 0.480093 0.705856 0.803935
O O12 0.085850 0.365941 0.230475
O O13 0.000000 0.500000 0.000000
O O14 0.053180 0.099029 0.349741
O O15 0.000000 0.000000 0.000000
#
# Coordination Sequence:
#
# PCOD8043113 Si02
#       7
#     2   2   2   2   2   2   2
#     4  11  21  38  58  85 117 148 188 239 283 333
#     4  10  19  37  60  84 116 155 189 229 282 340
#     4  10  19  36  58  85 118 152 188 236 284 330
#     4  11  21  36  60  88 115 152 193 231 277 342
#     4  11  22  40  62  84 110 149 195 238 284 341
#     4   9  19  35  58  85 110 148 191 230 280 337
#     4  10  22  38  57  83 115 152 189 235 289 335
#
# _framework density 20.509547999999999
#
# number of rings (size 3 to 8) (size 9 to 14) (size 15 to 20)
#    0.000    1.714    0.000    8.143    0.000    0.000 
#    0.000   16.429    0.000    0.000    0.000    0.000 
#    0.000    0.000    0.000    0.000    0.000    0.000 
#
# Total GULP energy -173495.166340 kJ/mol
# GULP energy per Si atom -12392.511881 kJ/mol
# Density = 2.046287 g / cm^3
# Si number density = 20.509548 Si / 1000 Ang^3
#
#
#
# Elastic Constant Matrix: (Units=GPa)
#
#
# Indices 1 2 3 4 5 6 
#
# 1 142.5419 52.1974 53.7119 1.2508 -23.9225 22.6561
# 2 52.1974 101.0097 37.8574 8.4780 -10.0554 13.4851
# 3 53.7119 37.8574 104.1753 12.7393 -8.5012 10.7911
# 4 1.2508 8.4780 12.7393 31.4732 2.3634 -7.2986
# 5 -23.9225 -10.0554 -8.5012 2.3634 27.9269 -7.8321
# 6 22.6561 13.4851 10.7911 -7.2986 -7.8321 40.1248
#
#
#
# Elastic Compliance Matrix: (Units=1/GPa)
#
#
# Indices 1 2 3 4 5 6 
#
# 1 0.011215 -0.003434 -0.003846 0.000924 0.006355 -0.002736
# 2 -0.003434 0.013187 -0.002356 -0.003043 0.000709 -0.002274
# 3 -0.003846 -0.002356 0.013179 -0.004884 -0.000137 -0.001496
# 4 0.000924 -0.003043 -0.004884 0.036575 -0.002657 0.007949
# 5 0.006355 0.000709 -0.000137 -0.002657 0.042836 0.004089
# 6 -0.002736 -0.002274 -0.001496 0.007949 0.004089 0.029878
#
#
# Mechanical properties :
#
#
# Convention : Reuss Voigt Hill
#
# Bulk Modulus (GPa) = 54.61467 70.58447 62.59957
# Shear Modulus (GPa) = 29.02822 33.50231 31.26526
#
# Velocity S-wave (km/s) = 3.76620 4.04604 3.90862
# Velocity P-wave (km/s) = 6.75271 7.50449 7.13850
#
# Compressibility (1/GPa) = 0.01831010
#
# Stress axis : x y z
#
# Youngs Moduli (GPa) = 89.16417 75.83065 75.87688
#
# Poissons Ratio (x) = 0.26040 0.29180
# Poissons Ratio (y) = 0.30619 0.17878
# Poissons Ratio (z) = 0.34289 0.17867
#
# Static dielectric constant tensor:
#      x y z
#    x 4.250560 0.392700 -0.438010 
#    y 0.392700 4.085840 -0.092580 
#    z -0.438010 -0.092580 3.545400 
# 
# 
# High freq. dielectric constant tensor:
#      x y z
#    x 1.812630 0.012760 -0.022730 
#    y 0.012760 1.813560 0.011520 
#    z -0.022730 0.011520 1.774970 
# 
# From -- ./inp_files/166286.got.cif
#   From: 2010.06.25/outbox.cif.g09.slc.cpg/sg2_84_cif.got.tgz:166286.got - 2010.06.27 13:26:56.
