data_PCOD8043026
_publ_section_title
;
Structure prediction by ZEFSAII (Michael W. Deem and Ramdas Pophale) SiO2 
 PCOD8043026
Probable space group: P -1
;
_chemical_formula_sum "Si O2"
_cell_formula_units_Z 16
_cell_length_a 8.932132
_cell_length_b 9.501409
_cell_length_c 14.352946
_cell_angle_alpha 54.082720
_cell_angle_beta 82.354949
_cell_angle_gamma 59.954099
_cell_volume 831.205084
_symmetry_space_group_name_H-M "P -1"
_symmetry_group_IT_number 2
_symmetry_cell_setting 'triclinic'
loop_
_space_group_symop_operation_xyz
x,y,z
-x,-y,-z
loop_
_atom_site_type_symbol
_atom_site_label
_atom_site_fract_x
_atom_site_fract_y
_atom_site_fract_z
Si Si1 0.552174 0.725442 0.179326
Si Si2 0.046213 0.926036 0.724752
Si Si3 0.069751 0.622054 0.703657
Si Si4 0.694831 0.000120 0.067802
Si Si5 0.081868 0.648785 0.143465
Si Si6 0.058549 0.649480 0.475989
Si Si7 0.702925 0.323930 0.049873
Si Si8 0.242020 0.727979 0.283175
O O1 0.735897 0.526946 0.210073
O O2 0.596518 0.887127 0.156823
O O3 0.444691 0.670656 0.281977
O O4 0.426351 0.822378 0.063197
O O5 0.993204 0.845328 0.668839
O O6 0.210168 0.722583 0.836847
O O7 0.085464 0.104931 0.622515
O O8 0.883830 0.030752 0.772601
O O9 0.103920 0.613653 0.594132
O O10 0.931782 0.550356 0.763526
O O11 0.885093 0.843729 0.067057
O O12 0.724965 0.106919 0.110296
O O13 0.175114 0.680530 0.211788
O O14 0.196482 0.613379 0.055733
O O15 0.232304 0.595380 0.420871
O O16 0.000000 0.500000 0.500000
O O17 0.500000 0.500000 0.000000
#
# Coordination Sequence:
#
# PCOD8043026 Si02
#       8
#     2   2   2   2   2   2   2   2
#     4  10  21  33  60  89 120 154 204 249 297 345
#     4  10  23  37  61  91 120 161 198 248 306 354
#     4  11  22  40  62  90 124 157 199 259 301 350
#     4  10  19  36  56  87 122 163 197 242 293 367
#     4  11  21  38  66  86 121 167 206 237 298 374
#     4  10  21  41  68  87 113 163 215 244 294 361
#     4  12  23  36  61  92 129 157 197 251 308 358
#     4  10  20  38  62  89 113 162 207 245 288 367
#
# _framework density 19.24916
#
# number of rings (size 3 to 8) (size 9 to 14) (size 15 to 20)
#    0.750    0.750    3.750    2.250    1.750    2.000 
#    0.000    0.000    0.000    1.500    0.000    0.000 
#    0.000    0.000    0.000    0.000    0.000    0.000 
#
# Total GULP energy -198253.746785 kJ/mol
# GULP energy per Si atom -12390.859174 kJ/mol
# Density = 1.920535 g / cm^3
# Si number density = 19.249160 Si / 1000 Ang^3
#
#
#
# Elastic Constant Matrix: (Units=GPa)
#
#
# Indices 1 2 3 4 5 6 
#
# 1 117.6491 43.7573 40.7681 2.2779 -28.9267 2.9360
# 2 43.7573 99.9280 38.2094 -2.5833 -11.5927 18.1587
# 3 40.7681 38.2094 89.1799 5.7781 -17.9801 10.5200
# 4 2.2779 -2.5833 5.7781 25.0387 3.4800 3.1485
# 5 -28.9267 -11.5927 -17.9801 3.4800 32.0531 -5.2713
# 6 2.9360 18.1587 10.5200 3.1485 -5.2713 27.0316
#
#
#
# Elastic Compliance Matrix: (Units=1/GPa)
#
#
# Indices 1 2 3 4 5 6 
#
# 1 0.013641 -0.004845 -0.002463 -0.003260 0.010375 0.005135
# 2 -0.004845 0.015119 -0.004124 0.004555 -0.003223 -0.009184
# 3 -0.002463 -0.004124 0.015630 -0.004352 0.005278 -0.001509
# 4 -0.003260 0.004555 -0.004352 0.044093 -0.009850 -0.008069
# 5 0.010375 -0.003223 0.005278 -0.009850 0.044887 0.008885
# 6 0.005135 -0.009184 -0.001509 -0.008069 0.008885 0.045865
#
#
# Mechanical properties :
#
#
# Convention : Reuss Voigt Hill
#
# Bulk Modulus (GPa) = 46.45622 61.35851 53.90736
# Shear Modulus (GPa) = 23.89199 29.09282 26.49241
#
# Velocity S-wave (km/s) = 3.52688 3.89187 3.71386
# Velocity P-wave (km/s) = 6.38528 7.22085 6.81588
#
# Compressibility (1/GPa) = 0.02152564
#
# Stress axis : x y z
#
# Youngs Moduli (GPa) = 73.30627 66.14353 63.97866
#
# Poissons Ratio (x) = 0.32050 0.15756
# Poissons Ratio (y) = 0.35520 0.26386
# Poissons Ratio (z) = 0.18053 0.27279
#
# Static dielectric constant tensor:
#      x y z
#    x 3.529610 0.137750 -0.143100 
#    y 0.137750 3.487830 -0.026470 
#    z -0.143100 -0.026470 3.465970 
# 
# 
# High freq. dielectric constant tensor:
#      x y z
#    x 1.742730 0.015540 -0.007070 
#    y 0.015540 1.745050 0.002000 
#    z -0.007070 0.002000 1.743440 
# 
# From -- ./inp_files/461400.got.cif
#   From: 2010.06.25/outbox.cif.g09.slc.cpg/sg2_231_cif.got.tgz:461400.got - 2010.06.27 13:26:56.
