data_PCOD8043783
_publ_section_title
;
Structure prediction by ZEFSAII (Michael W. Deem and Ramdas Pophale) SiO2 
 PCOD8043783
Probable space group: P -1
;
_chemical_formula_sum "Si O2"
_cell_formula_units_Z 16
_cell_length_a 9.901526
_cell_length_b 9.368249
_cell_length_c 17.253210
_cell_angle_alpha 130.413664
_cell_angle_beta 56.852886
_cell_angle_gamma 89.273312
_cell_volume 834.014236
_symmetry_space_group_name_H-M "P -1"
_symmetry_group_IT_number 2
_symmetry_cell_setting 'triclinic'
loop_
_space_group_symop_operation_xyz
x,y,z
-x,-y,-z
loop_
_atom_site_type_symbol
_atom_site_label
_atom_site_fract_x
_atom_site_fract_y
_atom_site_fract_z
Si Si1 0.095595 0.889064 0.824006
Si Si2 0.688709 0.261341 0.145661
Si Si3 0.154300 0.230854 0.843277
Si Si4 0.888212 0.243789 0.817948
Si Si5 0.826390 0.251005 0.668198
Si Si6 0.259387 0.415239 0.323037
Si Si7 0.994425 0.770622 0.660265
Si Si8 0.596322 0.607654 0.163928
O O1 0.254868 0.712252 0.775179
O O2 0.109003 0.747802 0.695190
O O3 0.140727 0.077791 0.858174
O O4 0.871995 0.018153 0.970607
O O5 0.495516 0.258833 0.204672
O O6 0.652778 0.467733 0.177090
O O7 0.365005 0.194565 0.767414
O O8 0.101698 0.175080 0.756725
O O9 0.000000 0.500000 0.000000
O O10 0.862394 0.323098 0.765572
O O11 0.715764 0.438966 0.995308
O O12 0.887076 0.019899 0.743407
O O13 0.804756 0.434744 0.680931
O O14 0.632317 0.254017 0.734227
O O15 0.000000 0.000000 0.500000
O O16 0.163487 0.576226 0.484218
O O17 0.183406 0.255458 0.280134
#
# Coordination Sequence:
#
# PCOD8043783 Si02
#       8
#     2   2   2   2   2   2   2   2
#     4  10  20  36  60  81 111 145 183 230 278 324
#     4  10  20  36  56  86 110 141 182 234 274 322
#     4   9  17  35  57  82 109 144 179 224 274 333
#     4  10  19  37  59  82 111 145 185 226 278 327
#     4  11  22  38  57  83 114 147 185 232 272 323
#     4  10  23  38  57  79 114 149 187 227 277 328
#     4  10  20  40  58  77 112 153 183 226 276 332
#     4  10  20  38  59  83 113 147 182 225 280 330
#
# _framework density 19.184322999999999
#
# number of rings (size 3 to 8) (size 9 to 14) (size 15 to 20)
#    0.000    2.000    5.000    0.375    0.000    3.000 
#    2.250    0.625    0.000    0.000    0.000    0.000 
#    0.000    0.000    0.000    0.000    0.000    0.000 
#
# Total GULP energy -198359.385522 kJ/mol
# GULP energy per Si atom -12397.461595 kJ/mol
# Density = 1.914066 g / cm^3
# Si number density = 19.184323 Si / 1000 Ang^3
#
#
#
# Elastic Constant Matrix: (Units=GPa)
#
#
# Indices 1 2 3 4 5 6 
#
# 1 109.6557 58.4334 40.4545 -5.5371 13.2254 -1.0572
# 2 58.4334 75.6629 32.8679 -11.1684 16.1811 -2.3995
# 3 40.4545 32.8679 52.1032 -0.0933 4.0903 3.8263
# 4 -5.5371 -11.1684 -0.0933 22.5499 -3.3602 3.9836
# 5 13.2254 16.1811 4.0903 -3.3602 28.1245 -4.0697
# 6 -1.0572 -2.3995 3.8263 3.9836 -4.0697 48.9709
#
#
#
# Elastic Compliance Matrix: (Units=1/GPa)
#
#
# Indices 1 2 3 4 5 6 
#
# 1 0.017160 -0.010147 -0.006850 -0.001104 -0.001311 0.000389
# 2 -0.010147 0.028626 -0.009476 0.010239 -0.009048 0.000339
# 3 -0.006850 -0.009476 0.030389 -0.005358 0.003284 -0.002278
# 4 -0.001104 0.010239 -0.005358 0.049804 0.000913 -0.003079
# 5 -0.001311 -0.009048 0.003284 0.000913 0.041391 0.002637
# 6 0.000389 0.000339 -0.002278 -0.003079 0.002637 0.021093
#
#
# Mechanical properties :
#
#
# Convention : Reuss Voigt Hill
#
# Bulk Modulus (GPa) = 43.05001 55.65928 49.35464
# Shear Modulus (GPa) = 20.06808 26.97344 23.52076
#
# Velocity S-wave (km/s) = 3.23780 3.75375 3.50529
# Velocity P-wave (km/s) = 6.03877 6.91834 6.49347
#
# Compressibility (1/GPa) = 0.02322880
#
# Stress axis : x y z
#
# Youngs Moduli (GPa) = 58.27558 34.93295 32.90679
#
# Poissons Ratio (x) = 0.35446 0.22542
# Poissons Ratio (y) = 0.59132 0.31182
# Poissons Ratio (z) = 0.39920 0.33102
#
# Static dielectric constant tensor:
#      x y z
#    x 4.046820 0.116460 -0.034320 
#    y 0.116460 3.714420 -0.206420 
#    z -0.034320 -0.206420 3.307550 
# 
# 
# High freq. dielectric constant tensor:
#      x y z
#    x 1.759430 -0.003370 0.000420 
#    y -0.003370 1.748490 -0.012100 
#    z 0.000420 -0.012100 1.724410 
# 
# From -- ./inp_files/557557.got.cif
#   From: 2010.06.25/outbox.cif.g09.slc.cpg/sg2_279_cif.got.tgz:557557.got - 2010.06.27 13:26:56.
