data_PCOD8043919
_publ_section_title
;
Structure prediction by ZEFSAII (Michael W. Deem and Ramdas Pophale) SiO2 
 PCOD8043919
Probable space group: P -1
;
_chemical_formula_sum "Si O2"
_cell_formula_units_Z 16
_cell_length_a 16.605200
_cell_length_b 16.926503
_cell_length_c 16.523636
_cell_angle_alpha 34.730339
_cell_angle_beta 17.482604
_cell_angle_gamma 37.584549
_cell_volume 793.875124
_symmetry_space_group_name_H-M "P -1"
_symmetry_group_IT_number 2
_symmetry_cell_setting 'triclinic'
loop_
_space_group_symop_operation_xyz
x,y,z
-x,-y,-z
loop_
_atom_site_type_symbol
_atom_site_label
_atom_site_fract_x
_atom_site_fract_y
_atom_site_fract_z
Si Si1 0.593901 0.276773 0.317149
Si Si2 0.998731 0.062706 0.679227
Si Si3 0.440083 0.419091 0.923849
Si Si4 0.922704 0.317930 0.436358
Si Si5 0.775141 0.501847 0.280566
Si Si6 0.132130 0.241197 0.913632
Si Si7 0.732960 0.096326 0.184283
Si Si8 0.478372 0.828404 0.844763
O O1 0.496364 0.423723 0.247786
O O2 0.340899 0.214603 0.660013
O O3 0.734180 0.187382 0.186668
O O4 0.838597 0.302718 0.120048
O O5 0.012363 0.153997 0.505500
O O6 0.279127 0.067153 0.458306
O O7 0.767200 0.129124 0.899497
O O8 0.921853 0.905068 0.866664
O O9 0.683003 0.355052 0.694157
O O10 0.408354 0.327904 0.112037
O O11 0.169362 0.413969 0.135859
O O12 0.822917 0.359680 0.406854
O O13 0.500000 0.500000 0.500000
O O14 0.753467 0.643738 0.234179
O O15 0.000000 0.500000 0.000000
O O16 0.646914 0.183079 0.114415
O O17 0.500000 0.000000 0.500000
O O18 0.000000 0.000000 0.000000
#
# Coordination Sequence:
#
# PCOD8043919 Si02
#       8
#     2   2   2   2   2   2   2   2
#     4  12  22  37  63  85 121 159 204 251 291 347
#     4  10  21  38  64  85 117 164 197 246 284 351
#     4  10  19  37  61  86 112 161 200 248 286 350
#     4  10  20  40  61  87 120 153 199 234 301 361
#     4  12  24  40  63  92 121 153 189 246 306 358
#     4  12  23  40  62  92 117 152 212 241 290 366
#     4  12  24  37  54  85 125 163 198 251 305 338
#     4  10  21  37  58  86 122 155 207 243 298 341
#
# _framework density 20.154302999999999
#
# number of rings (size 3 to 8) (size 9 to 14) (size 15 to 20)
#    0.000    1.000    2.500    6.000    0.000    0.500 
#    0.000    1.250    0.000    7.500    0.000    0.000 
#    0.000    0.000    0.000    0.000    0.000    0.000 
#
# Total GULP energy -198236.092223 kJ/mol
# GULP energy per Si atom -12389.755764 kJ/mol
# Density = 2.010843 g / cm^3
# Si number density = 20.154303 Si / 1000 Ang^3
#
#
#
# Elastic Constant Matrix: (Units=GPa)
#
#
# Indices 1 2 3 4 5 6 
#
# 1 104.0887 67.6904 42.7690 -10.4310 -8.6942 -17.1193
# 2 67.6904 37.2752 13.1981 -4.9554 40.2687 -18.4511
# 3 42.7690 13.1981 119.3344 7.7980 1.0490 -11.7453
# 4 -10.4310 -4.9554 7.7980 39.7521 -11.4257 4.6895
# 5 -8.6942 40.2687 1.0490 -11.4257 19.1074 4.5839
# 6 -17.1193 -18.4511 -11.7453 4.6895 4.5839 32.0721
#
#
#
# Elastic Compliance Matrix: (Units=1/GPa)
#
#
# Indices 1 2 3 4 5 6 
#
# 1 0.006680 0.006014 -0.002020 -0.001684 -0.012527 0.008322
# 2 0.006014 -0.005070 -0.002700 0.007515 0.019151 -0.004531
# 3 -0.002020 -0.002700 0.009584 -0.002016 0.002856 0.000765
# 4 -0.001684 0.007515 -0.002016 0.025955 -0.000731 -0.001004
# 5 -0.012527 0.019151 0.002856 -0.000731 0.004522 0.004837
# 6 0.008322 -0.004531 0.000765 -0.001004 0.004837 0.032751
#
#
# Mechanical properties :
#
#
# Convention : Reuss Voigt Hill
#
# Bulk Modulus (GPa) = 72.55807 56.44592 64.50200
# Shear Modulus (GPa) = 65.42198 27.32237 46.37218
#
# Velocity S-wave (km/s) = 5.70360 3.68592 4.80193
# Velocity P-wave (km/s) = 8.91370 6.79576 7.92580
#
# Compressibility (1/GPa) = 0.01378206
#
# Stress axis : x y z
#
# Youngs Moduli (GPa) = 149.70415 -197.23282 104.33733
#
# Poissons Ratio (x) = 1.18615 0.21075
# Poissons Ratio (y) = -0.90031 0.28171
# Poissons Ratio (z) = 0.30239 -0.53253
#
# Static dielectric constant tensor:
#      x y z
#    x 3.924990 -0.595310 -0.147630 
#    y -0.595310 3.995430 -0.195580 
#    z -0.147630 -0.195580 4.294840 
# 
# 
# High freq. dielectric constant tensor:
#      x y z
#    x 1.766810 -0.031260 -0.003580 
#    y -0.031260 1.788190 0.001060 
#    z -0.003580 0.001060 1.813370 
# 
# From -- ./inp_files/534217.got.cif
#   From: 2010.06.25/outbox.cif.g09.slc.cpg/sg2_268_cif.got.tgz:534217.got - 2010.06.27 13:26:56.
