data_PCOD8043035
_publ_section_title
;
Structure prediction by ZEFSAII (Michael W. Deem and Ramdas Pophale) SiO2 
 PCOD8043035
Probable space group: P -1
;
_chemical_formula_sum "Si O2"
_cell_formula_units_Z 16
_cell_length_a 14.904250
_cell_length_b 9.115718
_cell_length_c 20.869517
_cell_angle_alpha 57.326801
_cell_angle_beta 161.104312
_cell_angle_gamma 121.831745
_cell_volume 771.486776
_symmetry_space_group_name_H-M "P -1"
_symmetry_group_IT_number 2
_symmetry_cell_setting 'triclinic'
loop_
_space_group_symop_operation_xyz
x,y,z
-x,-y,-z
loop_
_atom_site_type_symbol
_atom_site_label
_atom_site_fract_x
_atom_site_fract_y
_atom_site_fract_z
Si Si1 0.849994 0.205204 0.212207
Si Si2 0.086004 0.789365 0.397115
Si Si3 0.074226 0.064570 0.220014
Si Si4 0.679461 0.194717 0.639855
Si Si5 0.185143 0.501659 0.430290
Si Si6 0.571193 0.930458 0.381478
Si Si7 0.345445 0.170400 0.798429
Si Si8 0.543130 0.229466 0.784790
O O1 0.921414 0.362922 0.273529
O O2 0.137540 0.155850 0.386544
O O3 0.689701 0.040111 0.177438
O O4 0.643233 0.254270 0.004221
O O5 0.884471 0.747969 0.331021
O O6 0.131220 0.613969 0.430440
O O7 0.961429 0.932637 0.231373
O O8 0.382062 0.870789 0.606584
O O9 0.369815 0.159034 0.412314
O O10 0.112060 0.946731 0.210310
O O11 0.856307 0.212763 0.024927
O O12 0.783403 0.385555 0.640118
O O13 0.668325 0.178443 0.713749
O O14 0.474531 0.406346 0.659212
O O15 0.511403 0.929366 0.265592
O O16 0.323356 0.221384 0.696866
#
# Coordination Sequence:
#
# PCOD8043035 Si02
#       8
#     2   2   2   2   2   2   2   2
#     4   9  19  35  57  80 105 144 185 216 265 328
#     4   9  19  38  59  78 108 148 181 212 266 331
#     4   9  18  35  59  80 103 145 186 211 260 333
#     4   9  18  37  57  74 109 148 175 217 269 320
#     4  10  22  36  54  85 112 134 178 232 273 310
#     4   9  19  35  57  79 108 149 182 208 265 334
#     4  10  19  36  57  75 108 149 181 217 262 324
#     4  11  22  34  54  85 109 135 186 230 260 311
#
# _framework density 20.739176
#
# number of rings (size 3 to 8) (size 9 to 14) (size 15 to 20)
#    0.000    2.500    0.000    3.750    0.000    8.500 
#    0.000    3.750    0.000    0.000    0.000    0.000 
#    0.000    0.000    0.000    0.000    0.000    0.000 
#
# Total GULP energy -198213.245644 kJ/mol
# GULP energy per Si atom -12388.327853 kJ/mol
# Density = 2.069197 g / cm^3
# Si number density = 20.739176 Si / 1000 Ang^3
#
#
#
# Elastic Constant Matrix: (Units=GPa)
#
#
# Indices 1 2 3 4 5 6 
#
# 1 135.5240 26.8722 22.0623 7.9176 0.6118 -12.3800
# 2 26.8722 101.1718 27.3092 9.5006 -2.7680 -23.0854
# 3 22.0623 27.3092 62.3375 -4.1201 3.5016 -3.2856
# 4 7.9176 9.5006 -4.1201 19.6355 -0.1222 -5.4221
# 5 0.6118 -2.7680 3.5016 -0.1222 22.8719 6.3015
# 6 -12.3800 -23.0854 -3.2856 -5.4221 6.3015 29.1078
#
#
#
# Elastic Compliance Matrix: (Units=1/GPa)
#
#
# Indices 1 2 3 4 5 6 
#
# 1 0.008338 -0.000715 -0.002686 -0.002965 -0.000531 0.002239
# 2 -0.000715 0.014293 -0.005864 -0.005267 0.000034 0.009381
# 3 -0.002686 -0.005864 0.020189 0.007763 -0.003315 -0.001350
# 4 -0.002965 -0.005267 0.007763 0.058216 -0.003367 0.007011
# 5 -0.000531 0.000034 -0.003315 -0.003367 0.047387 -0.011459
# 6 0.002239 0.009381 -0.001350 0.007011 -0.011459 0.046382
#
#
# Mechanical properties :
#
#
# Convention : Reuss Voigt Hill
#
# Bulk Modulus (GPa) = 41.16819 50.16896 45.66858
# Shear Modulus (GPa) = 22.58027 29.17569 25.87798
#
# Velocity S-wave (km/s) = 3.30324 3.75479 3.53623
# Velocity P-wave (km/s) = 5.86873 6.56055 6.22426
#
# Compressibility (1/GPa) = 0.02429060
#
# Stress axis : x y z
#
# Youngs Moduli (GPa) = 119.93466 69.96343 49.53089
#
# Poissons Ratio (x) = 0.05002 0.13303
# Poissons Ratio (y) = 0.08574 0.29046
# Poissons Ratio (z) = 0.32213 0.41028
#
# Static dielectric constant tensor:
#      x y z
#    x 3.961080 -0.178000 -0.054990 
#    y -0.178000 3.728240 0.149640 
#    z -0.054990 0.149640 3.506080 
# 
# 
# High freq. dielectric constant tensor:
#      x y z
#    x 1.826330 -0.015830 0.000350 
#    y -0.015830 1.786100 0.007470 
#    z 0.000350 0.007470 1.782720 
# 
# From -- ./inp_files/571032.got.cif
#   From: 2010.06.25/outbox.cif.g09.slc.cpg/sg2_286_cif.got.tgz:571032.got - 2010.06.27 13:26:56.
