data_PCOD8043281
_publ_section_title
;
Structure prediction by ZEFSAII (Michael W. Deem and Ramdas Pophale) SiO2 
 PCOD8043281
Probable space group: P -1
;
_chemical_formula_sum "Si O2"
_cell_formula_units_Z 14
_cell_length_a 9.475410
_cell_length_b 11.401155
_cell_length_c 13.820514
_cell_angle_alpha 62.230175
_cell_angle_beta 58.077515
_cell_angle_gamma 109.695731
_cell_volume 706.114072
_symmetry_space_group_name_H-M "P -1"
_symmetry_group_IT_number 2
_symmetry_cell_setting 'triclinic'
loop_
_space_group_symop_operation_xyz
x,y,z
-x,-y,-z
loop_
_atom_site_type_symbol
_atom_site_label
_atom_site_fract_x
_atom_site_fract_y
_atom_site_fract_z
Si Si1 0.840202 0.283260 0.095574
Si Si2 0.122270 0.715523 0.336983
Si Si3 0.870513 0.760775 0.548401
Si Si4 0.316666 0.834541 0.015038
Si Si5 0.289945 0.059044 0.431124
Si Si6 0.556488 0.379551 0.953430
Si Si7 0.106612 0.285659 0.147506
O O1 0.546439 0.130367 0.294642
O O2 0.977858 0.238605 0.108723
O O3 0.858001 0.274952 0.976865
O O4 0.000000 0.500000 0.000000
O O5 0.118983 0.739075 0.213146
O O6 0.000000 0.500000 0.500000
O O7 0.943157 0.724773 0.439449
O O8 0.432030 0.910829 0.183220
O O9 0.682869 0.775205 0.595490
O O10 0.727060 0.572542 0.744844
O O11 0.146313 0.984057 0.408098
O O12 0.440836 0.769560 0.019802
O O13 0.130188 0.864248 0.634000
O O14 0.673587 0.471241 0.985690
O O15 0.250652 0.232791 0.112639
#
# Coordination Sequence:
#
# PCOD8043281 Si02
#       7
#     2   2   2   2   2   2   2
#     4  12  22  37  58  94 129 159 199 259 322 365
#     4  11  22  40  62  91 122 167 214 255 295 369
#     4  10  19  36  62  90 122 153 211 262 298 363
#     4  11  23  38  63  91 125 164 208 255 310 363
#     4  10  21  35  59  92 124 158 199 258 316 363
#     4  10  19  36  60  92 119 162 206 247 308 371
#     4  10  21  34  59  90 129 159 196 254 315 373
#
# _framework density 19.826823999999998
#
# number of rings (size 3 to 8) (size 9 to 14) (size 15 to 20)
#    0.000    1.429    4.286    2.143    4.000    0.000 
#    2.571    0.000    0.000   11.143    0.000    0.000 
#    0.000    0.000    0.000    0.000    0.000    0.000 
#
# Total GULP energy -173505.741899 kJ/mol
# GULP energy per Si atom -12393.267278 kJ/mol
# Density = 1.978170 g / cm^3
# Si number density = 19.826824 Si / 1000 Ang^3
#
#
#
# Elastic Constant Matrix: (Units=GPa)
#
#
# Indices 1 2 3 4 5 6 
#
# 1 103.5784 44.3258 27.8643 7.7575 -5.2087 15.7770
# 2 44.3258 114.0749 34.4504 19.2338 5.4395 9.9257
# 3 27.8643 34.4504 78.3366 7.2153 -0.5759 10.2360
# 4 7.7575 19.2338 7.2153 37.5602 -6.4025 4.5500
# 5 -5.2087 5.4395 -0.5759 -6.4025 22.2684 0.7381
# 6 15.7770 9.9257 10.2360 4.5500 0.7381 35.6263
#
#
#
# Elastic Compliance Matrix: (Units=1/GPa)
#
#
# Indices 1 2 3 4 5 6 
#
# 1 0.012896 -0.004428 -0.002189 0.001298 0.004551 -0.004108
# 2 -0.004428 0.012854 -0.003606 -0.006038 -0.006015 0.000312
# 3 -0.002189 -0.003606 0.015479 -0.000244 0.000781 -0.002458
# 4 0.001298 -0.006038 -0.000244 0.031746 0.011003 -0.003105
# 5 0.004551 -0.006015 0.000781 0.011003 0.050724 -0.003020
# 6 -0.004108 0.000312 -0.002458 -0.003105 -0.003020 0.030967
#
#
# Mechanical properties :
#
#
# Convention : Reuss Voigt Hill
#
# Bulk Modulus (GPa) = 48.11904 56.58565 52.35234
# Shear Modulus (GPa) = 27.46639 31.71429 29.59034
#
# Velocity S-wave (km/s) = 3.72602 4.00379 3.86740
# Velocity P-wave (km/s) = 6.54472 7.06935 6.81209
#
# Compressibility (1/GPa) = 0.02078180
#
# Stress axis : x y z
#
# Youngs Moduli (GPa) = 77.54448 77.79881 64.60175
#
# Poissons Ratio (x) = 0.34451 0.14141
# Poissons Ratio (y) = 0.34339 0.23298
# Poissons Ratio (z) = 0.16974 0.28058
#
# Static dielectric constant tensor:
#      x y z
#    x 4.400330 0.132800 0.087610 
#    y 0.132800 3.713830 0.107770 
#    z 0.087610 0.107770 3.451740 
# 
# 
# High freq. dielectric constant tensor:
#      x y z
#    x 1.749390 -0.012640 0.011200 
#    y -0.012640 1.758360 0.007970 
#    z 0.011200 0.007970 1.791670 
# 
# From -- ./inp_files/170132.got.cif
#   From: 2010.06.25/outbox.cif.g09.slc.cpg/sg2_86_cif.got.tgz:170132.got - 2010.06.27 13:26:56.
