data_PCOD8043841
_publ_section_title
;
Structure prediction by ZEFSAII (Michael W. Deem and Ramdas Pophale) SiO2 
 PCOD8043841
Probable space group: P -1
;
_chemical_formula_sum "Si O2"
_cell_formula_units_Z 16
_cell_length_a 8.753709
_cell_length_b 13.894676
_cell_length_c 8.779031
_cell_angle_alpha 92.886094
_cell_angle_beta 117.894758
_cell_angle_gamma 116.923779
_cell_volume 793.491028
_symmetry_space_group_name_H-M "P -1"
_symmetry_group_IT_number 2
_symmetry_cell_setting 'triclinic'
loop_
_space_group_symop_operation_xyz
x,y,z
-x,-y,-z
loop_
_atom_site_type_symbol
_atom_site_label
_atom_site_fract_x
_atom_site_fract_y
_atom_site_fract_z
Si Si1 0.099944 0.208160 0.186535
Si Si2 0.362746 0.808106 0.309253
Si Si3 0.277115 0.421998 0.812386
Si Si4 0.274790 0.436143 0.455940
Si Si5 0.652520 0.057068 0.939332
Si Si6 0.077289 0.553734 0.203736
Si Si7 0.980231 0.806071 0.189784
Si Si8 0.736161 0.945667 0.700101
O O1 0.172673 0.305009 0.353635
O O2 0.238809 0.155436 0.241022
O O3 0.098088 0.251654 0.018591
O O4 0.873150 0.109074 0.122792
O O5 0.289081 0.676197 0.285426
O O6 0.589648 0.896750 0.482553
O O7 0.199524 0.822990 0.328940
O O8 0.365667 0.841606 0.135773
O O9 0.293870 0.452528 0.646570
O O10 0.193996 0.285710 0.782947
O O11 0.107431 0.441230 0.807477
O O12 0.500000 0.500000 0.000000
O O13 0.500000 0.500000 0.500000
O O14 0.135720 0.480964 0.330454
O O15 0.622881 0.969216 0.785017
O O16 0.500000 0.000000 0.000000
O O17 0.000000 0.500000 0.000000
O O18 0.040525 0.938369 0.230800
#
# Coordination Sequence:
#
# PCOD8043841 Si02
#       8
#     2   2   2   2   2   2   2   2
#     4  10  21  39  59  82 117 158 196 239 293 355
#     4   9  19  35  59  85 113 151 190 236 295 355
#     4  11  24  41  63  91 121 158 204 253 307 363
#     4  12  24  41  61  88 121 160 204 254 302 359
#     4  10  20  36  58  87 118 149 188 240 293 355
#     4  11  22  42  65  89 120 159 204 255 306 359
#     4   9  18  37  59  83 116 154 192 240 294 355
#     4  10  19  37  60  85 115 155 194 235 297 357
#
# _framework density 20.164059999999999
#
# number of rings (size 3 to 8) (size 9 to 14) (size 15 to 20)
#    0.000    2.000    0.000    7.875    0.000    3.000 
#    0.000   15.000    0.000    0.000    0.000    0.000 
#    0.000    0.000    0.000    0.000    0.000    0.000 
#
# Total GULP energy -198278.769466 kJ/mol
# GULP energy per Si atom -12392.423092 kJ/mol
# Density = 2.011817 g / cm^3
# Si number density = 20.164060 Si / 1000 Ang^3
#
#
#
# Elastic Constant Matrix: (Units=GPa)
#
#
# Indices 1 2 3 4 5 6 
#
# 1 82.3789 51.4566 44.1546 -10.4764 -2.5398 10.5552
# 2 51.4566 124.6178 52.0201 -4.5942 -7.5848 4.1182
# 3 44.1546 52.0201 136.2155 0.6838 -1.5048 4.6937
# 4 -10.4764 -4.5942 0.6838 33.7101 0.6798 -3.5112
# 5 -2.5398 -7.5848 -1.5048 0.6798 29.8744 -0.8769
# 6 10.5552 4.1182 4.6937 -3.5112 -0.8769 38.0639
#
#
#
# Elastic Compliance Matrix: (Units=1/GPa)
#
#
# Indices 1 2 3 4 5 6 
#
# 1 0.018965 -0.005980 -0.003763 0.004775 -0.000313 -0.003715
# 2 -0.005980 0.011653 -0.002511 -0.000189 0.002350 0.000744
# 3 -0.003763 -0.002511 0.009524 -0.001699 -0.000440 -0.000026
# 4 0.004775 -0.000189 -0.001699 0.031351 -0.000389 0.001789
# 5 -0.000313 0.002350 -0.000440 -0.000389 0.034049 0.000635
# 6 -0.003715 0.000744 -0.000026 0.001789 0.000635 0.027404
#
#
# Mechanical properties :
#
#
# Convention : Reuss Voigt Hill
#
# Bulk Modulus (GPa) = 63.95968 70.94165 67.45066
# Shear Modulus (GPa) = 30.73763 33.36841 32.05302
#
# Velocity S-wave (km/s) = 3.90856 4.07239 3.99132
# Velocity P-wave (km/s) = 7.22203 7.57437 7.40030
#
# Compressibility (1/GPa) = 0.01563485
#
# Stress axis : x y z
#
# Youngs Moduli (GPa) = 52.72831 85.81192 104.99272
#
# Poissons Ratio (x) = 0.51319 0.39510
# Poissons Ratio (y) = 0.31534 0.26359
# Poissons Ratio (z) = 0.19842 0.21543
#
# Static dielectric constant tensor:
#      x y z
#    x 3.611930 -0.020030 0.257650 
#    y -0.020030 3.981170 0.016310 
#    z 0.257650 0.016310 3.773350 
# 
# 
# High freq. dielectric constant tensor:
#      x y z
#    x 1.760910 -0.003250 0.016050 
#    y -0.003250 1.798760 0.001610 
#    z 0.016050 0.001610 1.797420 
# 
# From -- ./inp_files/207444.got.cif
#   From: 2010.06.25/outbox.cif.g09.slc.cpg/sg2_104_cif.got.tgz:207444.got - 2010.06.27 13:26:56.
