data_PCOD8043590
_publ_section_title
;
Structure prediction by ZEFSAII (Michael W. Deem and Ramdas Pophale) SiO2 
 PCOD8043590
Probable space group: P -1
;
_chemical_formula_sum "Si O2"
_cell_formula_units_Z 16
_cell_length_a 11.746664
_cell_length_b 13.868480
_cell_length_c 9.335155
_cell_angle_alpha 109.342502
_cell_angle_beta 111.143025
_cell_angle_gamma 30.167944
_cell_volume 712.188904
_symmetry_space_group_name_H-M "P -1"
_symmetry_group_IT_number 2
_symmetry_cell_setting 'triclinic'
loop_
_space_group_symop_operation_xyz
x,y,z
-x,-y,-z
loop_
_atom_site_type_symbol
_atom_site_label
_atom_site_fract_x
_atom_site_fract_y
_atom_site_fract_z
Si Si1 0.093438 0.613256 0.333859
Si Si2 0.263439 0.022018 0.845645
Si Si3 0.435855 0.504604 0.320571
Si Si4 0.587973 0.179588 0.652687
Si Si5 0.791816 0.381616 0.310314
Si Si6 0.346571 0.245498 0.313863
Si Si7 0.957319 0.061590 0.672708
Si Si8 0.224651 0.104924 0.193900
O O1 0.332426 0.465199 0.279136
O O2 0.083338 0.679870 0.513780
O O3 0.111451 0.479052 0.305498
O O4 0.877650 0.802934 0.238763
O O5 0.188581 0.954236 0.780775
O O6 0.523938 0.848572 0.825908
O O7 0.246072 0.080268 0.023129
O O8 0.500000 0.500000 0.500000
O O9 0.665426 0.358370 0.255322
O O10 0.228140 0.719499 0.275317
O O11 0.405920 0.396956 0.709009
O O12 0.520207 0.171697 0.471285
O O13 0.852215 0.036115 0.691626
O O14 0.587996 0.099501 0.743722
O O15 0.968981 0.253952 0.198212
O O16 0.269496 0.189131 0.303777
O O17 0.000000 0.000000 0.500000
#
# Coordination Sequence:
#
# PCOD8043590 Si02
#       8
#     2   2   2   2   2   2   2   2
#     4   9  20  38  64  89 109 155 210 250 289 341
#     4  11  24  40  60  92 122 154 201 249 305 358
#     4   8  16  31  57  91 109 138 193 252 294 334
#     4  10  22  40  64  91 116 155 206 250 293 348
#     4   9  20  38  60  87 120 152 201 249 296 353
#     4  11  23  41  63  86 115 166 215 240 281 353
#     4  10  19  36  65  89 111 148 202 250 294 350
#     4  12  26  38  57  89 130 166 188 241 311 357
#
# _framework density 22.465949999999999
#
# number of rings (size 3 to 8) (size 9 to 14) (size 15 to 20)
#    0.000    2.000    1.250    2.250    3.500    5.000 
#    0.000    5.625    0.000    0.000    0.000    0.000 
#    0.000    0.000    0.000    0.000    0.000    0.000 
#
# Total GULP energy -198241.755558 kJ/mol
# GULP energy per Si atom -12390.109722 kJ/mol
# Density = 2.241482 g / cm^3
# Si number density = 22.465950 Si / 1000 Ang^3
#
#
#
# Elastic Constant Matrix: (Units=GPa)
#
#
# Indices 1 2 3 4 5 6 
#
# 1 73.7139 -1.2383 -4.6292 -5.3544 2.1939 17.0558
# 2 -1.2383 27.6128 17.7588 -1.9739 -10.5623 2.2696
# 3 -4.6292 17.7588 51.0462 -1.4202 -13.1092 11.7101
# 4 -5.3544 -1.9739 -1.4202 16.0594 -0.7593 -11.5452
# 5 2.1939 -10.5623 -13.1092 -0.7593 29.8849 3.0714
# 6 17.0558 2.2696 11.7101 -11.5452 3.0714 41.4969
#
#
#
# Elastic Compliance Matrix: (Units=1/GPa)
#
#
# Indices 1 2 3 4 5 6 
#
# 1 0.015463 -0.000605 0.003553 0.000155 0.000969 -0.007354
# 2 -0.000605 0.050528 -0.015277 0.007354 0.011077 0.003023
# 3 0.003553 -0.015277 0.029816 -0.005755 0.008430 -0.011264
# 4 0.000155 0.007354 -0.005755 0.079439 -0.000311 0.023283
# 5 0.000969 0.011077 0.008430 -0.000311 0.041669 -0.006554
# 6 -0.007354 0.003023 -0.011264 0.023283 -0.006554 0.037097
#
#
# Mechanical properties :
#
#
# Convention : Reuss Voigt Hill
#
# Bulk Modulus (GPa) = 14.05544 19.57286 16.81415
# Shear Modulus (GPa) = 16.53515 26.85368 21.69441
#
# Velocity S-wave (km/s) = 2.71589 3.46107 3.11087
# Velocity P-wave (km/s) = 4.01306 4.97023 4.51707
#
# Compressibility (1/GPa) = 0.07114685
#
# Stress axis : x y z
#
# Youngs Moduli (GPa) = 64.67149 19.79110 33.53909
#
# Poissons Ratio (x) = 0.01198 -0.11916
# Poissons Ratio (y) = 0.03916 0.51239
# Poissons Ratio (z) = -0.22978 0.30236
#
# Static dielectric constant tensor:
#      x y z
#    x 4.611330 -0.000080 -0.000760 
#    y -0.000080 4.083760 -0.028770 
#    z -0.000760 -0.028770 3.586930 
# 
# 
# High freq. dielectric constant tensor:
#      x y z
#    x 1.899600 0.006120 -0.006940 
#    y 0.006120 1.892100 0.002770 
#    z -0.006940 0.002770 1.836170 
# 
# From -- ./inp_files/273813.got.cif
#   From: 2010.06.25/outbox.cif.g09.slc.cpg/sg2_137_cif.got.tgz:273813.got - 2010.06.27 13:26:56.
