data_PCOD8043602
_publ_section_title
;
Structure prediction by ZEFSAII (Michael W. Deem and Ramdas Pophale) SiO2 
 PCOD8043602
Probable space group: P -1
;
_chemical_formula_sum "Si O2"
_cell_formula_units_Z 14
_cell_length_a 11.969816
_cell_length_b 9.091216
_cell_length_c 11.896282
_cell_angle_alpha 81.421905
_cell_angle_beta 143.037954
_cell_angle_gamma 116.597807
_cell_volume 641.504872
_symmetry_space_group_name_H-M "P -1"
_symmetry_group_IT_number 2
_symmetry_cell_setting 'triclinic'
loop_
_space_group_symop_operation_xyz
x,y,z
-x,-y,-z
loop_
_atom_site_type_symbol
_atom_site_label
_atom_site_fract_x
_atom_site_fract_y
_atom_site_fract_z
Si Si1 0.056045 0.909997 0.152305
Si Si2 0.555969 0.039885 0.826936
Si Si3 0.105821 0.006337 0.763524
Si Si4 0.353441 0.441589 0.188984
Si Si5 0.238694 0.651082 0.208722
Si Si6 0.305425 0.213167 0.687677
Si Si7 0.488355 0.816641 0.598651
O O1 0.991351 0.946951 0.215669
O O2 0.325134 0.009575 0.346834
O O3 0.911279 0.693920 0.041433
O O4 0.000000 0.000000 0.000000
O O5 0.719488 0.189458 0.853829
O O6 0.384921 0.079198 0.740192
O O7 0.426497 0.862278 0.664051
O O8 0.708134 0.030584 0.045235
O O9 0.220816 0.175126 0.752227
O O10 0.899422 0.833822 0.554473
O O11 0.391610 0.575665 0.306606
O O12 0.498342 0.577330 0.187989
O O13 0.435258 0.316124 0.300289
O O14 0.268968 0.706765 0.357463
O O15 0.000000 0.500000 0.000000
#
# Coordination Sequence:
#
# PCOD8043602 Si02
#       7
#     2   2   2   2   2   2   2
#     4  10  19  36  65  92 119 166 204 244 324 376
#     4  11  22  42  62  91 126 168 212 259 311 383
#     4  11  22  43  67  88 127 173 213 256 316 381
#     4  10  21  39  60  91 124 163 206 265 306 367
#     4  11  24  34  58  97 129 160 208 261 316 377
#     4  10  25  41  66  93 122 169 222 260 306 368
#     4  11  22  40  63  92 131 166 202 259 324 382
#
# _framework density 21.823682999999999
#
# number of rings (size 3 to 8) (size 9 to 14) (size 15 to 20)
#    0.000    1.429    2.857    3.857    4.000    1.714 
#    0.000    0.000    0.000    1.714    0.000    0.000 
#    0.000    0.000    0.000    0.000    0.000    0.000 
#
# Total GULP energy -173500.322564 kJ/mol
# GULP energy per Si atom -12392.880183 kJ/mol
# Density = 2.177401 g / cm^3
# Si number density = 21.823683 Si / 1000 Ang^3
#
#
#
# Elastic Constant Matrix: (Units=GPa)
#
#
# Indices 1 2 3 4 5 6 
#
# 1 96.9472 35.0000 44.9626 -1.2638 -16.6542 9.6435
# 2 35.0000 104.9186 39.5477 17.7035 -9.2884 6.4456
# 3 44.9626 39.5477 140.9100 7.0114 -4.9209 16.1026
# 4 -1.2638 17.7035 7.0114 22.0756 4.4100 2.3128
# 5 -16.6542 -9.2884 -4.9209 4.4100 33.6622 2.0234
# 6 9.6435 6.4456 16.1026 2.3128 2.0234 28.1824
#
#
#
# Elastic Compliance Matrix: (Units=1/GPa)
#
#
# Indices 1 2 3 4 5 6 
#
# 1 0.014377 -0.003591 -0.003256 0.003987 0.005301 -0.002945
# 2 -0.003591 0.013651 -0.002015 -0.011138 0.003158 -0.000055
# 3 -0.003256 -0.002015 0.009137 -0.001006 -0.000487 -0.003528
# 4 0.003987 -0.011138 -0.001006 0.056724 -0.008542 -0.002284
# 5 0.005301 0.003158 -0.000487 -0.008542 0.034491 -0.004033
# 6 -0.002945 -0.000055 -0.003528 -0.002284 -0.004033 0.038996
#
#
# Mechanical properties :
#
#
# Convention : Reuss Voigt Hill
#
# Bulk Modulus (GPa) = 51.43693 64.64403 58.04048
# Shear Modulus (GPa) = 26.09847 31.66843 28.88345
#
# Velocity S-wave (km/s) = 3.46190 3.81347 3.64193
# Velocity P-wave (km/s) = 6.29286 7.00538 6.65866
#
# Compressibility (1/GPa) = 0.01944129
#
# Stress axis : x y z
#
# Youngs Moduli (GPa) = 69.55446 73.25526 109.43987
#
# Poissons Ratio (x) = 0.26307 0.35638
# Poissons Ratio (y) = 0.24978 0.22048
# Poissons Ratio (z) = 0.22649 0.14758
#
# Static dielectric constant tensor:
#      x y z
#    x 4.037970 -0.836730 -0.240160 
#    y -0.836730 12.494610 3.900100 
#    z -0.240160 3.900100 6.126200 
# 
# 
# High freq. dielectric constant tensor:
#      x y z
#    x 1.851980 -0.014080 0.003880 
#    y -0.014080 1.858850 -0.002100 
#    z 0.003880 -0.002100 1.866900 
# 
# From -- ./inp_files/227596.got.cif
#   From: 2010.06.25/outbox.cif.g09.slc.cpg/sg2_114_cif.got.tgz:227596.got - 2010.06.27 13:26:56.
