data_PCOD8043663
_publ_section_title
;
Structure prediction by ZEFSAII (Michael W. Deem and Ramdas Pophale) SiO2 
 PCOD8043663
Probable space group: P -1
;
_chemical_formula_sum "Si O2"
_cell_formula_units_Z 14
_cell_length_a 11.103829
_cell_length_b 14.226068
_cell_length_c 13.604028
_cell_angle_alpha 48.354649
_cell_angle_beta 51.004517
_cell_angle_gamma 30.611281
_cell_volume 808.374926
_symmetry_space_group_name_H-M "P -1"
_symmetry_group_IT_number 2
_symmetry_cell_setting 'triclinic'
loop_
_space_group_symop_operation_xyz
x,y,z
-x,-y,-z
loop_
_atom_site_type_symbol
_atom_site_label
_atom_site_fract_x
_atom_site_fract_y
_atom_site_fract_z
Si Si1 0.715733 0.778684 0.379425
Si Si2 0.446822 0.557970 0.374266
Si Si3 0.413426 0.027476 0.874182
Si Si4 0.965088 0.369063 0.507787
Si Si5 0.334975 0.913579 0.173251
Si Si6 0.777932 0.824761 0.678856
Si Si7 0.935752 0.161271 0.358568
O O1 0.782644 0.804893 0.222258
O O2 0.843601 0.775223 0.404040
O O3 0.789575 0.588529 0.476205
O O4 0.426595 0.957813 0.415122
O O5 0.500000 0.500000 0.500000
O O6 0.450459 0.704625 0.250128
O O7 0.654253 0.357306 0.345423
O O8 0.188006 0.663032 0.405103
O O9 0.491509 0.104217 0.840490
O O10 0.641394 0.829275 0.832101
O O11 0.305520 0.988021 0.027097
O O12 0.103333 0.325529 0.367016
O O13 0.073492 0.069638 0.247961
O O14 0.988472 0.769354 0.661278
O O15 0.000000 0.000000 0.500000
#
# Coordination Sequence:
#
# PCOD8043663 Si02
#       7
#     2   2   2   2   2   2   2
#     4   9  20  34  53  75 105 131 173 210 255 298
#     4  12  21  31  54  79 107 131 170 212 257 305
#     4   8  19  36  53  73 106 136 170 209 252 304
#     4  11  19  33  54  80 101 134 167 216 256 296
#     4  10  19  37  51  76 107 135 169 211 256 301
#     4   9  18  32  52  76  99 131 170 207 253 298
#     4  11  19  31  52  78 106 134 161 211 265 299
#
# _framework density 17.318697
#
# number of rings (size 3 to 8) (size 9 to 14) (size 15 to 20)
#    0.857    1.143    2.857    2.143    0.000    0.000 
#    2.571    2.857    0.000    0.857    0.000    0.000 
#    0.000    0.000    0.000    0.000    0.000    0.000 
#
# Total GULP energy -173446.869170 kJ/mol
# GULP energy per Si atom -12389.062084 kJ/mol
# Density = 1.727928 g / cm^3
# Si number density = 17.318697 Si / 1000 Ang^3
#
#
#
# Elastic Constant Matrix: (Units=GPa)
#
#
# Indices 1 2 3 4 5 6 
#
# 1 65.8317 8.2510 28.0187 6.5131 11.5473 -0.1576
# 2 8.2510 77.1815 21.8580 13.1583 -2.9339 6.6564
# 3 28.0187 21.8580 111.0364 10.8699 7.6684 8.5568
# 4 6.5131 13.1583 10.8699 26.2402 3.7456 0.6435
# 5 11.5473 -2.9339 7.6684 3.7456 20.8846 -1.1629
# 6 -0.1576 6.6564 8.5568 0.6435 -1.1629 20.6566
#
#
#
# Elastic Compliance Matrix: (Units=1/GPa)
#
#
# Indices 1 2 3 4 5 6 
#
# 1 0.018645 -0.001160 -0.003882 -0.001233 -0.008733 0.001671
# 2 -0.001160 0.015374 -0.002077 -0.007135 0.004642 -0.003619
# 3 -0.003882 -0.002077 0.011056 -0.002187 -0.002035 -0.003987
# 4 -0.001233 -0.007135 -0.002187 0.043908 -0.007314 0.001416
# 5 -0.008733 0.004642 -0.002035 -0.007314 0.055568 0.002637
# 6 0.001671 -0.003619 -0.003987 0.001416 0.002637 0.051345
#
#
# Mechanical properties :
#
#
# Convention : Reuss Voigt Hill
#
# Bulk Modulus (GPa) = 32.42700 41.14502 36.78601
# Shear Modulus (GPa) = 22.68465 26.61774 24.65119
#
# Velocity S-wave (km/s) = 3.62309 3.92463 3.77687
# Velocity P-wave (km/s) = 6.02219 6.65929 6.34873
#
# Compressibility (1/GPa) = 0.03083850
#
# Stress axis : x y z
#
# Youngs Moduli (GPa) = 53.63250 65.04676 90.44683
#
# Poissons Ratio (x) = 0.07545 0.35108
# Poissons Ratio (y) = 0.06221 0.18785
# Poissons Ratio (z) = 0.20818 0.13510
#
# Static dielectric constant tensor:
#      x y z
#    x 3.218700 -0.038520 0.112240 
#    y -0.038520 3.354410 0.168890 
#    z 0.112240 0.168890 3.120820 
# 
# 
# High freq. dielectric constant tensor:
#      x y z
#    x 1.654380 0.002810 0.008530 
#    y 0.002810 1.670790 0.011570 
#    z 0.008530 0.011570 1.646360 
# 
# From -- ./inp_files/431295.got.cif
#   From: 2010.06.25/outbox.cif.g09.slc.cpg/sg2_216_cif.got.tgz:431295.got - 2010.06.27 13:26:56.
