data_PCOD8043110
_publ_section_title
;
Structure prediction by ZEFSAII (Michael W. Deem and Ramdas Pophale) SiO2 
 PCOD8043110
Probable space group: P -1
;
_chemical_formula_sum "Si O2"
_cell_formula_units_Z 16
_cell_length_a 8.965988
_cell_length_b 12.047030
_cell_length_c 15.628489
_cell_angle_alpha 58.830652
_cell_angle_beta 146.081207
_cell_angle_gamma 123.852271
_cell_volume 776.702593
_symmetry_space_group_name_H-M "P -1"
_symmetry_group_IT_number 2
_symmetry_cell_setting 'triclinic'
loop_
_space_group_symop_operation_xyz
x,y,z
-x,-y,-z
loop_
_atom_site_type_symbol
_atom_site_label
_atom_site_fract_x
_atom_site_fract_y
_atom_site_fract_z
Si Si1 0.675164 0.976282 0.846933
Si Si2 0.504617 0.333368 0.116159
Si Si3 0.257823 0.950819 0.334899
Si Si4 0.738308 0.074846 0.019676
Si Si5 0.399956 0.526502 0.720753
Si Si6 0.208690 0.621086 0.097679
Si Si7 0.016567 0.434187 0.801829
Si Si8 0.171098 0.651036 0.423928
O O1 0.500865 0.821378 0.820599
O O2 0.607384 0.041577 0.699650
O O3 0.600969 0.042822 0.872172
O O4 0.000000 0.000000 0.000000
O O5 0.436767 0.390868 0.153595
O O6 0.800826 0.410111 0.183997
O O7 0.244428 0.348513 0.929756
O O8 0.500000 0.000000 0.500000
O O9 0.116523 0.796089 0.351478
O O10 0.020337 0.030708 0.190002
O O11 0.816322 0.235477 0.004820
O O12 0.500000 0.000000 0.000000
O O13 0.496921 0.399369 0.782605
O O14 0.420696 0.634915 0.610226
O O15 0.091268 0.468310 0.628271
O O16 0.158662 0.599572 0.182656
O O17 0.000000 0.500000 0.000000
O O18 0.779283 0.382918 0.637587
#
# Coordination Sequence:
#
# PCOD8043110 Si02
#       8
#     2   2   2   2   2   2   2   2
#     4  10  21  37  60  84 122 161 209 249 298 373
#     4  10  19  36  58  85 116 153 208 242 297 347
#     4  11  22  38  66  91 123 159 209 254 303 366
#     4  11  25  42  64  91 127 167 202 252 315 366
#     4  10  22  38  62  87 120 157 195 254 296 364
#     4  12  24  37  62  89 124 154 203 246 303 355
#     4  10  20  34  58  87 114 157 196 251 296 357
#     4  10  21  39  60  87 119 156 202 243 306 352
#
# _framework density 20.599907000000002
#
# number of rings (size 3 to 8) (size 9 to 14) (size 15 to 20)
#    0.000    1.500    1.250    5.250    3.500    0.500 
#    0.000    0.625    0.000    0.000    0.000    0.000 
#    0.000    0.000    0.000    0.000    0.000    0.000 
#
# Total GULP energy -198260.789085 kJ/mol
# GULP energy per Si atom -12391.299318 kJ/mol
# Density = 2.055302 g / cm^3
# Si number density = 20.599907 Si / 1000 Ang^3
#
#
#
# Elastic Constant Matrix: (Units=GPa)
#
#
# Indices 1 2 3 4 5 6 
#
# 1 99.6208 27.7304 32.2041 1.2234 -20.0558 -2.2035
# 2 27.7304 132.9137 34.8197 -20.2042 -9.7997 -3.0928
# 3 32.2041 34.8197 100.2204 -6.5401 -26.3322 -5.9470
# 4 1.2234 -20.2042 -6.5401 33.5721 -5.4261 -0.1953
# 5 -20.0558 -9.7997 -26.3322 -5.4261 32.1877 -3.7113
# 6 -2.2035 -3.0928 -5.9470 -0.1953 -3.7113 27.2761
#
#
#
# Elastic Compliance Matrix: (Units=1/GPa)
#
#
# Indices 1 2 3 4 5 6 
#
# 1 0.012295 -0.001790 -0.001867 -0.000985 0.005553 0.001132
# 2 -0.001790 0.009348 -0.001982 0.005489 0.001112 0.000674
# 3 -0.001867 -0.001982 0.014772 0.003627 0.011440 0.004428
# 4 -0.000985 0.005489 0.003627 0.035524 0.010359 0.002998
# 5 0.005553 0.001112 0.011440 0.010359 0.047072 0.009548
# 6 0.001132 0.000674 0.004428 0.002998 0.009548 0.039116
#
#
# Mechanical properties :
#
#
# Convention : Reuss Voigt Hill
#
# Bulk Modulus (GPa) = 39.78283 58.02926 48.90604
# Shear Modulus (GPa) = 28.12382 34.47388 31.29885
#
# Velocity S-wave (km/s) = 3.69892 4.09528 3.90214
# Velocity P-wave (km/s) = 6.13162 7.11284 6.64038
#
# Compressibility (1/GPa) = 0.02513647
#
# Stress axis : x y z
#
# Youngs Moduli (GPa) = 81.33436 106.96919 67.69630
#
# Poissons Ratio (x) = 0.19148 0.12639
# Poissons Ratio (y) = 0.14559 0.13420
# Poissons Ratio (z) = 0.15185 0.21206
#
# Static dielectric constant tensor:
#      x y z
#    x 3.540600 0.284250 -0.555830 
#    y 0.284250 3.587270 0.011660 
#    z -0.555830 0.011660 4.063220 
# 
# 
# High freq. dielectric constant tensor:
#      x y z
#    x 1.795990 0.006580 -0.033960 
#    y 0.006580 1.813870 0.001740 
#    z -0.033960 0.001740 1.796780 
# 
# From -- ./inp_files/245143.got.cif
#   From: 2010.06.25/outbox.cif.g09.slc.cpg/sg2_123_cif.got.tgz:245143.got - 2010.06.27 13:26:56.
