data_PCOD8043540
_publ_section_title
;
Structure prediction by ZEFSAII (Michael W. Deem and Ramdas Pophale) SiO2 
 PCOD8043540
Probable space group: P -1
;
_chemical_formula_sum "Si O2"
_cell_formula_units_Z 12
_cell_length_a 9.877934
_cell_length_b 9.614108
_cell_length_c 14.963493
_cell_angle_alpha 138.465301
_cell_angle_beta 133.516292
_cell_angle_gamma 44.292523
_cell_volume 621.161168
_symmetry_space_group_name_H-M "P -1"
_symmetry_group_IT_number 2
_symmetry_cell_setting 'triclinic'
loop_
_space_group_symop_operation_xyz
x,y,z
-x,-y,-z
loop_
_atom_site_type_symbol
_atom_site_label
_atom_site_fract_x
_atom_site_fract_y
_atom_site_fract_z
Si Si1 0.327267 0.693007 0.197649
Si Si2 0.032522 0.148277 0.368798
Si Si3 0.698547 0.689006 0.873484
Si Si4 0.107514 0.518948 0.874297
Si Si5 0.201370 0.468651 0.692794
Si Si6 0.265346 0.056173 0.816015
O O1 0.331558 0.522089 0.196796
O O2 0.554218 0.645500 0.247547
O O3 0.220427 0.953827 0.308834
O O4 0.206584 0.664243 0.043118
O O5 0.122384 0.276304 0.538626
O O6 0.875581 0.321879 0.310563
O O7 0.905986 0.042211 0.319938
O O8 0.872822 0.593671 0.832312
O O9 0.491167 0.855449 0.809933
O O10 0.766189 0.827398 0.044492
O O11 0.112181 0.572576 0.798433
O O12 0.235737 0.245697 0.818142
#
# Coordination Sequence:
#
# PCOD8043540 Si02
#       6
#     2   2   2   2   2   2
#     4  11  20  40  64  84 114 158 194 232 288 347
#     4  11  22  42  60  80 121 163 188 224 296 357
#     4  10  19  36  64  89 112 148 200 235 286 342
#     4  11  22  38  61  94 113 141 200 253 278 325
#     4  11  26  38  57  89 122 151 191 238 289 344
#     4  10  19  37  64  84 114 157 190 235 287 345
#
# _framework density 19.318657999999999
#
# number of rings (size 3 to 8) (size 9 to 14) (size 15 to 20)
#    0.000    1.333    5.000    2.000    0.000    2.667 
#    0.000    0.833    0.000    0.000    0.000    0.000 
#    0.000    0.000    0.000    0.000    0.000    0.000 
#
# Total GULP energy -148879.944937 kJ/mol
# GULP energy per Si atom -12406.662078 kJ/mol
# Density = 1.927469 g / cm^3
# Si number density = 19.318658 Si / 1000 Ang^3
#
#
#
# Elastic Constant Matrix: (Units=GPa)
#
#
# Indices 1 2 3 4 5 6 
#
# 1 55.3972 21.8156 -1.9909 -25.1088 6.3980 -24.7309
# 2 21.8156 50.4851 32.1923 7.5113 -10.0376 -21.6732
# 3 -1.9909 32.1923 23.4709 -6.2568 5.1725 -10.6844
# 4 -25.1088 7.5113 -6.2568 21.7607 1.7394 -3.3790
# 5 6.3980 -10.0376 5.1725 1.7394 27.1223 0.7781
# 6 -24.7309 -21.6732 -10.6844 -3.3790 0.7781 25.2129
#
#
#
# Elastic Compliance Matrix: (Units=1/GPa)
#
#
# Indices 1 2 3 4 5 6 
#
# 1 0.011100 0.028409 -0.033047 -0.004463 0.013902 0.020278
# 2 0.028409 0.026716 -0.000717 0.031887 -0.000295 0.054810
# 3 -0.033047 -0.000717 0.013243 -0.039885 0.008510 -0.033028
# 4 -0.004463 0.031887 -0.039885 0.018042 0.019075 0.007960
# 5 0.013902 -0.000295 0.008510 0.019075 0.030101 0.018617
# 6 0.020278 0.054810 -0.033028 0.007960 0.018617 0.093164
#
#
# Mechanical properties :
#
#
# Convention : Reuss Voigt Hill
#
# Bulk Modulus (GPa) = 24.78311 25.93190 25.35750
# Shear Modulus (GPa) = 23.09210 19.97492 21.53351
#
# Velocity S-wave (km/s) = 3.46110 3.21903 3.34226
# Velocity P-wave (km/s) = 5.36924 5.22193 5.29610
#
# Compressibility (1/GPa) = 0.04035007
#
# Stress axis : x y z
#
# Youngs Moduli (GPa) = 90.08846 37.43113 75.51141
#
# Poissons Ratio (x) = -1.06340 2.49543
# Poissons Ratio (y) = -2.55936 0.05412
# Poissons Ratio (z) = 2.97716 0.02683
#
# Static dielectric constant tensor:
#      x y z
#    x 3.372720 -0.136650 0.142160 
#    y -0.136650 3.656950 0.109490 
#    z 0.142160 0.109490 3.437220 
# 
# 
# High freq. dielectric constant tensor:
#      x y z
#    x 1.749100 -0.014280 0.016910 
#    y -0.014280 1.760330 0.009220 
#    z 0.016910 0.009220 1.744250 
# 
# From -- ./inp_files/132786.got.cif
#   From: 2010.06.25/outbox.cif.g09.slc.cpg/sg2_67_cif.got.tgz:132786.got - 2010.06.27 13:26:56.
