data_PCOD8043194
_publ_section_title
;
Structure prediction by ZEFSAII (Michael W. Deem and Ramdas Pophale) SiO2 
 PCOD8043194
Probable space group: P -1
;
_chemical_formula_sum "Si O2"
_cell_formula_units_Z 16
_cell_length_a 12.934624
_cell_length_b 22.556857
_cell_length_c 13.041890
_cell_angle_alpha 33.164703
_cell_angle_beta 28.784628
_cell_angle_gamma 26.633988
_cell_volume 795.591619
_symmetry_space_group_name_H-M "P -1"
_symmetry_group_IT_number 2
_symmetry_cell_setting 'triclinic'
loop_
_space_group_symop_operation_xyz
x,y,z
-x,-y,-z
loop_
_atom_site_type_symbol
_atom_site_label
_atom_site_fract_x
_atom_site_fract_y
_atom_site_fract_z
Si Si1 0.581474 0.974386 0.623460
Si Si2 0.299468 0.899766 0.838645
Si Si3 0.851414 0.781403 0.239661
Si Si4 0.562046 0.832669 0.221593
Si Si5 0.295425 0.399718 0.339081
Si Si6 0.427419 0.623426 0.060296
Si Si7 0.806829 0.893221 0.759510
Si Si8 0.402167 0.650686 0.657096
O O1 0.536055 0.881917 0.727549
O O2 0.799102 0.888487 0.649538
O O3 0.691448 0.041824 0.363337
O O4 0.286105 0.077560 0.784530
O O5 0.378690 0.748618 0.983321
O O6 0.000000 0.000000 0.000000
O O7 0.811137 0.797231 0.128528
O O8 0.664932 0.740785 0.503595
O O9 0.165147 0.674410 0.146764
O O10 0.569835 0.700196 0.392734
O O11 0.280829 0.959936 0.335947
O O12 0.589934 0.876196 0.022114
O O13 0.533403 0.373783 0.241846
O O14 0.000000 0.500000 0.500000
O O15 0.321312 0.442643 0.141478
O O16 0.499052 0.498961 0.253131
O O17 0.094412 0.766406 0.731832
#
# Coordination Sequence:
#
# PCOD8043194 Si02
#       8
#     2   2   2   2   2   2   2   2
#     4  10  22  42  64  89 117 155 209 261 304 348
#     4  11  23  41  66  91 114 156 213 267 304 343
#     4  10  19  36  59  90 122 157 199 246 298 359
#     4   9  21  37  58  87 126 164 198 234 293 371
#     4  11  22  35  54  88 130 164 191 237 298 370
#     4  12  23  36  61  92 122 160 201 254 309 356
#     4  10  21  40  59  86 122 164 201 241 298 365
#     4  11  23  34  58  90 125 159 194 237 299 376
#
# _framework density 20.11082
#
# number of rings (size 3 to 8) (size 9 to 14) (size 15 to 20)
#    0.000    1.500    3.750    1.500    3.500    1.000 
#    2.250    0.625    0.000    1.500    0.000    0.000 
#    0.000    0.000    0.000    0.000    0.000    0.000 
#
# Total GULP energy -198233.328427 kJ/mol
# GULP energy per Si atom -12389.583027 kJ/mol
# Density = 2.006505 g / cm^3
# Si number density = 20.110820 Si / 1000 Ang^3
#
#
#
# Elastic Constant Matrix: (Units=GPa)
#
#
# Indices 1 2 3 4 5 6 
#
# 1 91.7004 53.6998 39.6354 -4.5427 1.9752 -5.4415
# 2 53.6998 131.7851 45.8391 -14.4982 -8.1444 -7.0899
# 3 39.6354 45.8391 82.3910 -12.2249 9.4617 9.5101
# 4 -4.5427 -14.4982 -12.2249 42.8848 0.1407 -10.1486
# 5 1.9752 -8.1444 9.4617 0.1407 28.8138 -1.0487
# 6 -5.4415 -7.0899 9.5101 -10.1486 -1.0487 32.7395
#
#
#
# Elastic Compliance Matrix: (Units=1/GPa)
#
#
# Indices 1 2 3 4 5 6 
#
# 1 0.016182 -0.004560 -0.005663 -0.000703 -0.000422 0.003116
# 2 -0.004560 0.012255 -0.005334 0.003215 0.005680 0.004624
# 3 -0.005663 -0.005334 0.019840 0.001466 -0.007920 -0.007659
# 4 -0.000703 0.003215 0.001466 0.026750 0.000653 0.008466
# 5 -0.000422 0.005680 -0.007920 0.000653 0.039117 0.004916
# 6 0.003116 0.004624 -0.007659 0.008466 0.004916 0.037070
#
#
# Mechanical properties :
#
#
# Convention : Reuss Voigt Hill
#
# Bulk Modulus (GPa) = 58.26190 64.91389 61.58790
# Shear Modulus (GPa) = 26.58884 32.00110 29.29497
#
# Velocity S-wave (km/s) = 3.64004 3.99336 3.82078
# Velocity P-wave (km/s) = 6.83373 7.32193 7.08204
#
# Compressibility (1/GPa) = 0.01716387
#
# Stress axis : x y z
#
# Youngs Moduli (GPa) = 61.79576 81.60021 50.40279
#
# Poissons Ratio (x) = 0.37209 0.28545
# Poissons Ratio (y) = 0.28178 0.26882
# Poissons Ratio (z) = 0.34997 0.43522
#
# Static dielectric constant tensor:
#      x y z
#    x 3.491030 0.069210 -0.104720 
#    y 0.069210 3.827950 -0.345350 
#    z -0.104720 -0.345350 3.741610 
# 
# 
# High freq. dielectric constant tensor:
#      x y z
#    x 1.755330 -0.004710 -0.011290 
#    y -0.004710 1.783990 -0.014890 
#    z -0.011290 -0.014890 1.788580 
# 
# From -- ./inp_files/427697.got.cif
#   From: 2010.06.25/outbox.cif.g09.slc.cpg/sg2_214_cif.got.tgz:427697.got - 2010.06.27 13:26:56.
