data_PCOD8043390
_publ_section_title
;
Structure prediction by ZEFSAII (Michael W. Deem and Ramdas Pophale) SiO2 
 PCOD8043390
Probable space group: P -1
;
_chemical_formula_sum "Si O2"
_cell_formula_units_Z 14
_cell_length_a 12.659316
_cell_length_b 18.927783
_cell_length_c 9.060192
_cell_angle_alpha 38.358625
_cell_angle_beta 37.294514
_cell_angle_gamma 37.955544
_cell_volume 733.862052
_symmetry_space_group_name_H-M "P -1"
_symmetry_group_IT_number 2
_symmetry_cell_setting 'triclinic'
loop_
_space_group_symop_operation_xyz
x,y,z
-x,-y,-z
loop_
_atom_site_type_symbol
_atom_site_label
_atom_site_fract_x
_atom_site_fract_y
_atom_site_fract_z
Si Si1 0.701681 0.356299 0.885571
Si Si2 0.089393 0.125977 0.315738
Si Si3 0.758975 0.167152 0.392867
Si Si4 0.271707 0.448178 0.265430
Si Si5 0.069726 0.672057 0.601876
Si Si6 0.679215 0.734614 0.255829
Si Si7 0.955070 0.490858 0.873053
O O1 0.786302 0.450681 0.701302
O O2 0.780624 0.314080 0.701906
O O3 0.760773 0.238648 0.123298
O O4 0.471145 0.434275 0.994488
O O5 0.896748 0.185728 0.330866
O O6 0.045116 0.190939 0.419872
O O7 0.163201 0.978333 0.500324
O O8 0.258988 0.150862 0.008056
O O9 0.544772 0.219098 0.617978
O O10 0.297797 0.313672 0.520753
O O11 0.104654 0.500187 0.245102
O O12 0.929366 0.626219 0.740443
O O13 0.166291 0.564030 0.799564
O O14 0.821216 0.618378 0.184700
#
# Coordination Sequence:
#
# PCOD8043390 Si02
#       7
#     2   2   2   2   2   2   2
#     4  10  20  35  55  85 113 144 183 233 269 335
#     4  10  22  40  58  82 109 151 187 232 272 327
#     4  10  22  39  61  80 108 149 197 223 272 324
#     4  10  20  34  58  84 112 146 185 219 282 334
#     4  10  21  35  52  83 116 142 179 227 286 321
#     4  10  19  36  62  84 107 142 190 234 263 329
#     4  10  20  35  53  85 114 145 176 224 284 338
#
# _framework density 19.077157
#
# number of rings (size 3 to 8) (size 9 to 14) (size 15 to 20)
#    0.000    2.000    1.429    2.571    2.000    1.143 
#    7.714    0.000    0.000    1.714    0.000    0.000 
#    0.000    0.000    0.000    0.000    0.000    0.000 
#
# Total GULP energy -173520.731114 kJ/mol
# GULP energy per Si atom -12394.337937 kJ/mol
# Density = 1.903374 g / cm^3
# Si number density = 19.077157 Si / 1000 Ang^3
#
#
#
# Elastic Constant Matrix: (Units=GPa)
#
#
# Indices 1 2 3 4 5 6 
#
# 1 59.0297 38.1002 20.2971 10.3770 0.4241 3.4657
# 2 38.1002 84.3474 32.1034 2.7305 -0.3492 7.9236
# 3 20.2971 32.1034 94.5939 8.1101 0.5516 4.0202
# 4 10.3770 2.7305 8.1101 30.7104 4.3225 -1.8584
# 5 0.4241 -0.3492 0.5516 4.3225 28.6609 3.2784
# 6 3.4657 7.9236 4.0202 -1.8584 3.2784 32.6602
#
#
#
# Elastic Compliance Matrix: (Units=1/GPa)
#
#
# Indices 1 2 3 4 5 6 
#
# 1 0.025711 -0.010883 -0.001162 -0.007538 0.000697 -0.000444
# 2 -0.010883 0.018483 -0.004074 0.002899 0.000336 -0.002697
# 3 -0.001162 -0.004074 0.012450 -0.002595 0.000186 -0.000587
# 4 -0.007538 0.002899 -0.002595 0.036519 -0.005661 0.003062
# 5 0.000697 0.000336 0.000186 -0.005661 0.036208 -0.004135
# 6 -0.000444 -0.002697 -0.000587 0.003062 -0.004135 0.031981
#
#
# Mechanical properties :
#
#
# Convention : Reuss Voigt Hill
#
# Bulk Modulus (GPa) = 40.97337 46.55250 43.76294
# Shear Modulus (GPa) = 24.78648 28.23767 26.51208
#
# Velocity S-wave (km/s) = 3.60846 3.85149 3.73195
# Velocity P-wave (km/s) = 6.23583 6.65085 6.44668
#
# Compressibility (1/GPa) = 0.02440609
#
# Stress axis : x y z
#
# Youngs Moduli (GPa) = 38.89455 54.10449 80.32317
#
# Poissons Ratio (x) = 0.58880 0.09336
# Poissons Ratio (y) = 0.42327 0.32720
# Poissons Ratio (z) = 0.04521 0.22040
#
# Static dielectric constant tensor:
#      x y z
#    x 3.337180 -0.001570 -0.029440 
#    y -0.001570 3.300040 0.024240 
#    z -0.029440 0.024240 3.783660 
# 
# 
# High freq. dielectric constant tensor:
#      x y z
#    x 1.723210 0.003810 -0.000630 
#    y 0.003810 1.721260 0.000690 
#    z -0.000630 0.000690 1.766410 
# 
# From -- ./inp_files/172831.got.cif
#   From: 2010.06.25/outbox.cif.g09.slc.cpg/sg2_87_cif.got.tgz:172831.got - 2010.06.27 13:26:56.
