data_PCOD8043689
_publ_section_title
;
Structure prediction by ZEFSAII (Michael W. Deem and Ramdas Pophale) SiO2 
 PCOD8043689
Probable space group: P -1
;
_chemical_formula_sum "Si O2"
_cell_formula_units_Z 14
_cell_length_a 10.484862
_cell_length_b 5.386067
_cell_length_c 22.208517
_cell_angle_alpha 105.960740
_cell_angle_beta 149.733931
_cell_angle_gamma 69.423785
_cell_volume 590.707196
_symmetry_space_group_name_H-M "P -1"
_symmetry_group_IT_number 2
_symmetry_cell_setting 'triclinic'
loop_
_space_group_symop_operation_xyz
x,y,z
-x,-y,-z
loop_
_atom_site_type_symbol
_atom_site_label
_atom_site_fract_x
_atom_site_fract_y
_atom_site_fract_z
Si Si1 0.355447 0.239804 0.302657
Si Si2 0.059182 0.265626 0.942705
Si Si3 0.775534 0.468846 0.327756
Si Si4 0.824993 0.215500 0.116167
Si Si5 0.652828 0.691314 0.421208
Si Si6 0.653822 0.776493 0.833101
Si Si7 0.510367 0.517713 0.105272
O O1 0.501225 0.477628 0.370961
O O2 0.335595 0.095149 0.219711
O O3 0.059343 0.368033 0.213052
O O4 0.500218 0.999681 0.389329
O O5 0.780190 0.456251 0.855130
O O6 0.035499 0.090283 0.862736
O O7 0.183287 0.097277 0.042412
O O8 0.254383 0.451426 0.022229
O O9 0.726680 0.658348 0.378520
O O10 0.640379 0.218735 0.265028
O O11 0.655638 0.627439 0.227733
O O12 0.082166 0.352487 0.435254
O O13 0.712670 0.260776 0.140867
O O14 0.580611 0.281733 0.974059
#
# Coordination Sequence:
#
# PCOD8043689 Si02
#       7
#     2   2   2   2   2   2   2
#     4  11  22  40  62  90 122 159 203 251 306 363
#     4  10  19  37  55  89 124 158 195 247 307 374
#     4   9  20  40  60  87 121 154 204 252 305 361
#     4  11  22  35  61  86 122 163 202 245 304 367
#     4  10  23  41  66  88 121 160 203 259 308 351
#     4   9  19  34  60  89 121 154 197 249 312 360
#     4  10  22  39  56  89 121 160 204 247 302 366
#
# _framework density 23.700406999999998
#
# number of rings (size 3 to 8) (size 9 to 14) (size 15 to 20)
#    0.000    2.000    1.429    2.143    2.000    5.714 
#    2.571    1.429    0.000    0.000    0.000    0.000 
#    0.000    0.000    0.000    0.000    0.000    0.000 
#
# Total GULP energy -173446.324382 kJ/mol
# GULP energy per Si atom -12389.023170 kJ/mol
# Density = 2.364646 g / cm^3
# Si number density = 23.700407 Si / 1000 Ang^3
#
#
#
# Elastic Constant Matrix: (Units=GPa)
#
#
# Indices 1 2 3 4 5 6 
#
# 1 59.9375 13.5217 26.9406 4.8643 8.8257 -4.8238
# 2 13.5217 56.2657 9.6966 -0.0709 9.0625 6.6404
# 3 26.9406 9.6966 128.7711 -7.9855 14.4895 9.5758
# 4 4.8643 -0.0709 -7.9855 23.6380 -1.5848 -9.4376
# 5 8.8257 9.0625 14.4895 -1.5848 29.0761 -4.2959
# 6 -4.8238 6.6404 9.5758 -9.4376 -4.2959 24.2904
#
#
#
# Elastic Compliance Matrix: (Units=1/GPa)
#
#
# Indices 1 2 3 4 5 6 
#
# 1 0.020710 -0.004497 -0.004377 -0.003820 -0.002143 0.005205
# 2 -0.004497 0.020964 0.000659 -0.002965 -0.007030 -0.009279
# 3 -0.004377 0.000659 0.009591 0.001926 -0.004266 -0.004837
# 4 -0.003820 -0.002965 0.001926 0.052583 0.007089 0.020977
# 5 -0.002143 -0.007030 -0.004266 0.007089 0.041713 0.013310
# 6 0.005205 -0.009279 -0.004837 0.020977 0.013310 0.057150
#
#
# Mechanical properties :
#
#
# Convention : Reuss Voigt Hill
#
# Bulk Modulus (GPa) = 28.70584 38.36580 33.53582
# Shear Modulus (GPa) = 21.66837 28.38859 25.02848
#
# Velocity S-wave (km/s) = 3.02696 3.46469 3.25320
# Velocity P-wave (km/s) = 4.93507 5.67701 5.31899
#
# Compressibility (1/GPa) = 0.03483611
#
# Stress axis : x y z
#
# Youngs Moduli (GPa) = 48.28529 47.70187 104.26557
#
# Poissons Ratio (x) = 0.21450 0.45637
# Poissons Ratio (y) = 0.21712 -0.06875
# Poissons Ratio (z) = 0.21135 -0.03145
#
# Static dielectric constant tensor:
#      x y z
#    x 4.242380 -0.197910 -0.018480 
#    y -0.197910 3.768430 -0.077790 
#    z -0.018480 -0.077790 4.706840 
# 
# 
# High freq. dielectric constant tensor:
#      x y z
#    x 1.923840 0.000180 0.017160 
#    y 0.000180 1.903020 -0.009230 
#    z 0.017160 -0.009230 1.943370 
# 
# From -- ./inp_files/542033.got.cif
#   From: 2010.06.25/outbox.cif.g09.slc.cpg/sg2_272_cif.got.tgz:542033.got - 2010.06.27 13:26:56.
