data_PCOD8043978
_publ_section_title
;
Structure prediction by ZEFSAII (Michael W. Deem and Ramdas Pophale) SiO2 
 PCOD8043978
Probable space group: P -1
;
_chemical_formula_sum "Si O2"
_cell_formula_units_Z 16
_cell_length_a 11.055506
_cell_length_b 10.573560
_cell_length_c 17.659445
_cell_angle_alpha 146.255058
_cell_angle_beta 41.603315
_cell_angle_gamma 128.587427
_cell_volume 761.378574
_symmetry_space_group_name_H-M "P -1"
_symmetry_group_IT_number 2
_symmetry_cell_setting 'triclinic'
loop_
_space_group_symop_operation_xyz
x,y,z
-x,-y,-z
loop_
_atom_site_type_symbol
_atom_site_label
_atom_site_fract_x
_atom_site_fract_y
_atom_site_fract_z
Si Si1 0.713569 0.104921 0.676861
Si Si2 0.969022 0.817998 0.320675
Si Si3 0.258079 0.393973 0.124845
Si Si4 0.406030 0.927996 0.820130
Si Si5 0.040074 0.683625 0.891541
Si Si6 0.481488 0.751354 0.852726
Si Si7 0.846757 0.639221 0.682426
Si Si8 0.907509 0.170282 0.898475
O O1 0.648453 0.363851 0.819065
O O2 0.839149 0.104967 0.693611
O O3 0.819716 0.007987 0.505935
O O4 0.540267 0.937313 0.689329
O O5 0.902376 0.580769 0.269750
O O6 0.982165 0.782453 0.206350
O O7 0.129478 0.429294 0.275487
O O8 0.141059 0.288296 0.058702
O O9 0.401234 0.196228 0.981934
O O10 0.202808 0.832612 0.851758
O O11 0.492805 0.770230 0.765651
O O12 0.984859 0.761499 0.041358
O O13 0.639609 0.579027 0.720899
O O14 0.277478 0.675904 0.936331
O O15 0.500000 0.000000 0.000000
O O16 0.000000 0.500000 0.500000
O O17 0.869265 0.903882 0.787595
#
# Coordination Sequence:
#
# PCOD8043978 Si02
#       8
#     2   2   2   2   2   2   2   2
#     4  10  22  36  57  90 119 154 192 254 300 344
#     4  10  21  38  59  87 120 151 202 244 301 346
#     4  11  21  37  59  88 121 155 201 240 298 355
#     4  11  20  37  62  85 119 153 205 241 291 357
#     4  10  22  37  62  87 114 162 199 242 293 359
#     4   9  17  33  56  86 111 151 197 238 283 343
#     4  11  21  34  59  90 125 153 189 249 304 348
#     4  10  19  37  62  82 117 158 202 241 281 363
#
# _framework density 21.014513000000001
#
# number of rings (size 3 to 8) (size 9 to 14) (size 15 to 20)
#    0.000    1.750    3.750    3.375    0.000    2.500 
#    0.000    1.250    0.000    0.750    0.000    0.000 
#    0.000    0.000    0.000    0.000    0.000    0.000 
#
# Total GULP energy -198268.770599 kJ/mol
# GULP energy per Si atom -12391.798162 kJ/mol
# Density = 2.096668 g / cm^3
# Si number density = 21.014513 Si / 1000 Ang^3
#
#
#
# Elastic Constant Matrix: (Units=GPa)
#
#
# Indices 1 2 3 4 5 6 
#
# 1 81.0559 12.5682 44.7215 -12.8980 7.4140 -9.4413
# 2 12.5682 101.7782 24.0241 -12.9182 5.5534 -3.3012
# 3 44.7215 24.0241 93.7310 -18.0045 -0.3801 -4.9040
# 4 -12.8980 -12.9182 -18.0045 35.5548 -7.2791 2.9223
# 5 7.4140 5.5534 -0.3801 -7.2791 17.6343 -0.8260
# 6 -9.4413 -3.3012 -4.9040 2.9223 -0.8260 19.5869
#
#
#
# Elastic Compliance Matrix: (Units=1/GPa)
#
#
# Indices 1 2 3 4 5 6 
#
# 1 0.018506 0.000413 -0.008542 0.000449 -0.007607 0.006464
# 2 0.000413 0.010822 -0.002513 0.002180 -0.002691 0.000955
# 3 -0.008542 -0.002513 0.016495 0.005880 0.007119 -0.000988
# 4 0.000449 0.002180 0.005880 0.035056 0.013600 -0.002601
# 5 -0.007607 -0.002691 0.007119 0.013600 0.066447 -0.001565
# 6 0.006464 0.000955 -0.000988 -0.002601 -0.001565 0.054406
#
#
# Mechanical properties :
#
#
# Convention : Reuss Voigt Hill
#
# Bulk Modulus (GPa) = 40.75155 48.79918 44.77536
# Shear Modulus (GPa) = 21.62665 27.57195 24.59930
#
# Velocity S-wave (km/s) = 3.21149 3.62614 3.42510
# Velocity P-wave (km/s) = 5.76070 6.38780 6.08234
#
# Compressibility (1/GPa) = 0.02453894
#
# Stress axis : x y z
#
# Youngs Moduli (GPa) = 54.03605 92.40465 60.62405
#
# Poissons Ratio (x) = -0.03814 0.51785
# Poissons Ratio (y) = -0.02230 0.15235
# Poissons Ratio (z) = 0.46157 0.23221
#
# Static dielectric constant tensor:
#      x y z
#    x 3.986590 0.055510 -0.128100 
#    y 0.055510 3.844590 -0.150970 
#    z -0.128100 -0.150970 3.812760 
# 
# 
# High freq. dielectric constant tensor:
#      x y z
#    x 1.810030 -0.011130 0.001220 
#    y -0.011130 1.820160 -0.005150 
#    z 0.001220 -0.005150 1.807370 
# 
# From -- ./inp_files/260006.got.cif
#   From: 2010.06.25/outbox.cif.g09.slc.cpg/sg2_131_cif.got.tgz:260006.got - 2010.06.27 13:26:56.
