data_PCOD8043303
_publ_section_title
;
Structure prediction by ZEFSAII (Michael W. Deem and Ramdas Pophale) SiO2 
 PCOD8043303
Probable space group: P -1
;
_chemical_formula_sum "Si O2"
_cell_formula_units_Z 16
_cell_length_a 13.810396
_cell_length_b 24.198306
_cell_length_c 11.895671
_cell_angle_alpha 151.513200
_cell_angle_beta 135.249174
_cell_angle_gamma 27.962872
_cell_volume 849.307554
_symmetry_space_group_name_H-M "P -1"
_symmetry_group_IT_number 2
_symmetry_cell_setting 'triclinic'
loop_
_space_group_symop_operation_xyz
x,y,z
-x,-y,-z
loop_
_atom_site_type_symbol
_atom_site_label
_atom_site_fract_x
_atom_site_fract_y
_atom_site_fract_z
Si Si1 0.359260 0.005568 0.253568
Si Si2 0.447771 0.306991 0.300000
Si Si3 0.796442 0.129057 0.717731
Si Si4 0.986095 0.421949 0.679757
Si Si5 0.151703 0.536865 0.117399
Si Si6 0.711202 0.197935 0.517146
Si Si7 0.512853 0.509676 0.776630
Si Si8 0.284966 0.044213 0.517478
O O1 0.551707 0.969245 0.318088
O O2 0.130473 0.214104 0.405573
O O3 0.364025 0.964033 0.313287
O O4 0.395704 0.866310 0.962997
O O5 0.192702 0.440944 0.319953
O O6 0.537665 0.229249 0.362666
O O7 0.469192 0.431703 0.514289
O O8 0.687321 0.188614 0.611846
O O9 0.722018 0.065211 0.609805
O O10 0.711135 0.297784 0.013362
O O11 0.050339 0.983227 0.656049
O O12 0.843845 0.506152 0.826734
O O13 0.144029 0.429917 0.837583
O O14 0.371393 0.461170 0.139671
O O15 0.951776 0.749275 0.308715
O O16 0.658691 0.366639 0.745382
#
# Coordination Sequence:
#
# PCOD8043303 Si02
#       8
#     2   2   2   2   2   2   2   2
#     4  10  21  36  57  87 117 151 189 225 293 339
#     4  10  22  37  55  86 121 144 184 245 286 327
#     4  11  20  40  63  81 110 155 195 230 284 337
#     4  10  21  35  60  78 120 156 182 234 279 342
#     4  10  19  38  56  88 111 152 199 221 279 347
#     4   9  23  39  57  86 110 150 193 240 277 337
#     4  10  22  36  59  83 115 145 194 234 282 336
#     4  10  19  36  61  84 114 153 193 235 267 349
#
# _framework density 18.838877
#
# number of rings (size 3 to 8) (size 9 to 14) (size 15 to 20)
#    0.750    1.250    2.500    1.125    5.250    0.500 
#    0.000    2.500    0.000    1.500    0.000    0.000 
#    0.000    0.000    0.000    0.000    0.000    0.000 
#
# Total GULP energy -198322.134362 kJ/mol
# GULP energy per Si atom -12395.133398 kJ/mol
# Density = 1.879600 g / cm^3
# Si number density = 18.838877 Si / 1000 Ang^3
#
#
#
# Elastic Constant Matrix: (Units=GPa)
#
#
# Indices 1 2 3 4 5 6 
#
# 1 35.0842 5.2504 37.6954 -4.1053 0.4613 0.4923
# 2 5.2504 70.3938 23.4893 -14.7988 2.9270 -3.3916
# 3 37.6954 23.4893 135.6897 -8.5618 3.0788 -4.4135
# 4 -4.1053 -14.7988 -8.5618 22.5778 -2.9808 -0.3153
# 5 0.4613 2.9270 3.0788 -2.9808 17.7277 4.9032
# 6 0.4923 -3.3916 -4.4135 -0.3153 4.9032 23.8011
#
#
#
# Elastic Compliance Matrix: (Units=1/GPa)
#
#
# Indices 1 2 3 4 5 6 
#
# 1 0.041270 0.001449 -0.011601 0.004315 0.002317 -0.003219
# 2 0.001449 0.017354 -0.002637 0.010495 -0.001335 0.002368
# 3 -0.011601 -0.002637 0.011178 0.000194 -0.001811 0.002313
# 4 0.004315 0.010495 0.000194 0.052939 0.006818 0.000739
# 5 0.002317 -0.001335 -0.001811 0.006818 0.061678 -0.013190
# 6 -0.003219 0.002368 0.002313 0.000739 -0.013190 0.045575
#
#
# Mechanical properties :
#
#
# Convention : Reuss Voigt Hill
#
# Bulk Modulus (GPa) = 22.61283 41.55978 32.08630
# Shear Modulus (GPa) = 18.49715 24.47015 21.48365
#
# Velocity S-wave (km/s) = 3.13686 3.60796 3.38063
# Velocity P-wave (km/s) = 5.01490 6.28212 5.68394
#
# Compressibility (1/GPa) = 0.04422268
#
# Stress axis : x y z
#
# Youngs Moduli (GPa) = 24.23074 57.62501 89.46489
#
# Poissons Ratio (x) = -0.08347 1.03786
# Poissons Ratio (y) = -0.03510 0.23592
# Poissons Ratio (z) = 0.28110 0.15196
#
# Static dielectric constant tensor:
#      x y z
#    x 3.176050 0.009770 0.008100 
#    y 0.009770 3.439890 0.145230 
#    z 0.008100 0.145230 3.488950 
# 
# 
# High freq. dielectric constant tensor:
#      x y z
#    x 1.700570 -0.007820 0.000950 
#    y -0.007820 1.731680 0.019710 
#    z 0.000950 0.019710 1.741440 
# 
# From -- ./inp_files/457985.got.cif
#   From: 2010.06.25/outbox.cif.g09.slc.cpg/sg2_229_cif.got.tgz:457985.got - 2010.06.27 13:26:56.
