data_PCOD8043312
_publ_section_title
;
Structure prediction by ZEFSAII (Michael W. Deem and Ramdas Pophale) SiO2 
 PCOD8043312
Probable space group: P -1
;
_chemical_formula_sum "Si O2"
_cell_formula_units_Z 16
_cell_length_a 13.153936
_cell_length_b 13.627497
_cell_length_c 11.371028
_cell_angle_alpha 43.356627
_cell_angle_beta 32.549596
_cell_angle_gamma 57.383230
_cell_volume 737.698304
_symmetry_space_group_name_H-M "P -1"
_symmetry_group_IT_number 2
_symmetry_cell_setting 'triclinic'
loop_
_space_group_symop_operation_xyz
x,y,z
-x,-y,-z
loop_
_atom_site_type_symbol
_atom_site_label
_atom_site_fract_x
_atom_site_fract_y
_atom_site_fract_z
Si Si1 0.807630 0.488909 0.031458
Si Si2 0.596044 0.821623 0.681219
Si Si3 0.843019 0.658929 0.453770
Si Si4 0.502780 0.715680 0.353852
Si Si5 0.105224 0.308991 0.891097
Si Si6 0.335035 0.235349 0.088684
Si Si7 0.260406 0.621840 0.068013
Si Si8 0.727930 0.066920 0.496896
O O1 0.639032 0.433573 0.339459
O O2 0.012048 0.446995 0.904618
O O3 0.827125 0.663588 0.854220
O O4 0.741154 0.408688 0.042790
O O5 0.789405 0.799424 0.445679
O O6 0.632321 0.993306 0.531866
O O7 0.560179 0.726791 0.920354
O O8 0.419374 0.766256 0.814189
O O9 0.704767 0.516330 0.769684
O O10 0.062119 0.661033 0.270020
O O11 0.802315 0.659837 0.354321
O O12 0.501722 0.731615 0.199993
O O13 0.427174 0.850066 0.368204
O O14 0.725500 0.716499 0.166981
O O15 0.932549 0.168403 0.181988
O O16 0.234558 0.062818 0.338643
#
# Coordination Sequence:
#
# PCOD8043312 Si02
#       8
#     2   2   2   2   2   2   2   2
#     4  10  21  41  60  92 119 144 200 250 286 352
#     4  10  21  36  59  87 115 152 195 239 285 342
#     4  10  20  35  58  88 118 153 194 235 291 355
#     4  11  22  41  63  83 119 162 191 244 302 335
#     4  10  23  38  60  86 121 159 189 241 300 344
#     4  10  22  40  63  88 116 153 205 243 283 354
#     4  10  19  36  61  85 122 154 184 243 296 346
#     4   9  23  42  57  87 121 152 206 240 278 357
#
# _framework density 21.689083
#
# number of rings (size 3 to 8) (size 9 to 14) (size 15 to 20)
#    0.750    1.250    1.250    1.875    1.750    2.500 
#    0.000   12.500    0.000    0.000    0.000    0.000 
#    0.000    0.000    0.000    0.000    0.000    0.000 
#
# Total GULP energy -198293.842132 kJ/mol
# GULP energy per Si atom -12393.365133 kJ/mol
# Density = 2.163972 g / cm^3
# Si number density = 21.689083 Si / 1000 Ang^3
#
#
#
# Elastic Constant Matrix: (Units=GPa)
#
#
# Indices 1 2 3 4 5 6 
#
# 1 41.1472 17.4645 26.8607 11.1064 0.4126 -7.5699
# 2 17.4645 104.5430 10.0065 2.1363 -12.9523 -15.9176
# 3 26.8607 10.0065 77.2794 12.6041 8.4206 -9.7143
# 4 11.1064 2.1363 12.6041 37.3931 2.1623 9.4921
# 5 0.4126 -12.9523 8.4206 2.1623 31.5028 5.1109
# 6 -7.5699 -15.9176 -9.7143 9.4921 5.1109 23.8572
#
#
#
# Elastic Compliance Matrix: (Units=1/GPa)
#
#
# Indices 1 2 3 4 5 6 
#
# 1 0.036270 -0.003593 -0.009362 -0.009740 -0.000279 0.009235
# 2 -0.003593 0.011635 0.000440 -0.001653 0.003746 0.006657
# 3 -0.009362 0.000440 0.018652 -0.005296 -0.005655 0.008237
# 4 -0.009740 -0.001653 -0.005296 0.036842 0.001806 -0.021395
# 5 -0.000279 0.003746 -0.005655 0.001806 0.036026 -0.008328
# 6 0.009235 0.006657 0.008237 -0.021395 -0.008328 0.062938
#
#
# Mechanical properties :
#
#
# Convention : Reuss Voigt Hill
#
# Bulk Modulus (GPa) = 24.07938 36.84810 30.46374
# Shear Modulus (GPa) = 20.72684 29.79315 25.25999
#
# Velocity S-wave (km/s) = 3.09469 3.71030 3.41639
# Velocity P-wave (km/s) = 4.88832 5.94821 5.44412
#
# Compressibility (1/GPa) = 0.04152931
#
# Stress axis : x y z
#
# Youngs Moduli (GPa) = 27.57123 85.94750 53.61320
#
# Poissons Ratio (x) = 0.30877 0.50190
# Poissons Ratio (y) = 0.09905 -0.02360
# Poissons Ratio (z) = 0.25811 -0.03784
#
# Static dielectric constant tensor:
#      x y z
#    x 3.631200 -0.073710 0.292340 
#    y -0.073710 4.075450 0.070790 
#    z 0.292340 0.070790 3.815020 
# 
# 
# High freq. dielectric constant tensor:
#      x y z
#    x 1.832930 -0.000300 0.023230 
#    y -0.000300 1.865130 0.011530 
#    z 0.023230 0.011530 1.846360 
# 
# From -- ./inp_files/455440.got.cif
#   From: 2010.06.25/outbox.cif.g09.slc.cpg/sg2_228_cif.got.tgz:455440.got - 2010.06.27 13:26:56.
