data_PCOD8043811
_publ_section_title
;
Structure prediction by ZEFSAII (Michael W. Deem and Ramdas Pophale) SiO2 
 PCOD8043811
Probable space group: P -1
;
_chemical_formula_sum "Si O2"
_cell_formula_units_Z 16
_cell_length_a 25.544081
_cell_length_b 6.858823
_cell_length_c 11.252324
_cell_angle_alpha 55.376577
_cell_angle_beta 147.133164
_cell_angle_gamma 136.308563
_cell_volume 734.999961
_symmetry_space_group_name_H-M "P -1"
_symmetry_group_IT_number 2
_symmetry_cell_setting 'triclinic'
loop_
_space_group_symop_operation_xyz
x,y,z
-x,-y,-z
loop_
_atom_site_type_symbol
_atom_site_label
_atom_site_fract_x
_atom_site_fract_y
_atom_site_fract_z
Si Si1 0.514211 0.262630 0.667735
Si Si2 0.343406 0.310935 0.834438
Si Si3 0.452465 0.682028 0.691412
Si Si4 0.824028 0.183146 0.476165
Si Si5 0.851270 0.763768 0.352966
Si Si6 0.767174 0.695683 0.975139
Si Si7 0.989683 0.746458 0.345904
Si Si8 0.683987 0.835300 0.544450
O O1 0.500000 0.500000 0.500000
O O2 0.430370 0.152469 0.662488
O O3 0.471115 0.986864 0.598693
O O4 0.650539 0.404892 0.899650
O O5 0.409347 0.577632 0.779540
O O6 0.254301 0.355813 0.716980
O O7 0.281763 0.016347 0.745146
O O8 0.427746 0.302706 0.094862
O O9 0.359196 0.470019 0.490165
O O10 0.864954 0.509019 0.426501
O O11 0.930044 0.146907 0.656977
O O12 0.782714 0.088109 0.565469
O O13 0.825443 0.878597 0.143085
O O14 0.966297 0.012060 0.551256
O O15 0.857378 0.636647 0.102842
O O16 0.739583 0.864540 0.769824
O O17 0.000000 0.500000 0.500000
#
# Coordination Sequence:
#
# PCOD8043811 Si02
#       8
#     2   2   2   2   2   2   2   2
#     4  10  22  38  57  88 127 162 201 238 297 369
#     4   9  20  34  62  93 117 162 208 246 305 354
#     4  10  19  37  59  88 127 162 201 252 298 360
#     4  10  21  40  66  90 122 158 203 260 297 358
#     4  11  21  39  65  87 118 157 204 258 304 354
#     4  11  23  40  60  90 124 162 201 249 304 362
#     4  11  24  42  63  91 118 155 212 254 303 361
#     4  10  23  42  60  92 128 159 203 247 308 365
#
# _framework density 21.768706999999999
#
# number of rings (size 3 to 8) (size 9 to 14) (size 15 to 20)
#    0.000    1.750    1.250    2.625    1.750    2.500 
#    4.500    5.625    0.000    0.000    0.000    0.000 
#    0.000    0.000    0.000    0.000    0.000    0.000 
#
# Total GULP energy -198293.955925 kJ/mol
# GULP energy per Si atom -12393.372245 kJ/mol
# Density = 2.171916 g / cm^3
# Si number density = 21.768707 Si / 1000 Ang^3
#
#
#
# Elastic Constant Matrix: (Units=GPa)
#
#
# Indices 1 2 3 4 5 6 
#
# 1 111.3753 9.5294 52.6852 11.3250 11.5805 5.5632
# 2 9.5294 102.0929 27.7014 3.9837 2.4302 -10.0331
# 3 52.6852 27.7014 93.1942 3.7491 18.5296 5.6611
# 4 11.3250 3.9837 3.7491 18.7958 4.8527 3.3939
# 5 11.5805 2.4302 18.5296 4.8527 38.4532 5.3064
# 6 5.5632 -10.0331 5.6611 3.3939 5.3064 30.4520
#
#
#
# Elastic Compliance Matrix: (Units=1/GPa)
#
#
# Indices 1 2 3 4 5 6 
#
# 1 0.013090 0.001081 -0.007547 -0.006739 0.000471 0.000037
# 2 0.001081 0.011424 -0.004316 -0.003249 0.000809 0.004590
# 3 -0.007547 -0.004316 0.017477 0.004014 -0.006011 -0.002692
# 4 -0.006739 -0.003249 0.004014 0.059918 -0.006412 -0.006146
# 5 0.000471 0.000809 -0.006011 -0.006412 0.029961 -0.003208
# 6 0.000037 0.004590 -0.002692 -0.006146 -0.003208 0.036089
#
#
# Mechanical properties :
#
#
# Convention : Reuss Voigt Hill
#
# Bulk Modulus (GPa) = 48.95127 54.05492 51.50310
# Shear Modulus (GPa) = 25.46737 31.98995 28.72866
#
# Velocity S-wave (km/s) = 3.42410 3.83761 3.63674
# Velocity P-wave (km/s) = 6.17806 6.67246 6.43002
#
# Compressibility (1/GPa) = 0.02042848
#
# Stress axis : x y z
#
# Youngs Moduli (GPa) = 76.39167 87.53744 57.21938
#
# Poissons Ratio (x) = -0.09464 0.43181
# Poissons Ratio (y) = -0.08259 0.24694
# Poissons Ratio (z) = 0.57649 0.37779
#
# Static dielectric constant tensor:
#      x y z
#    x 4.685560 0.115620 0.575770 
#    y 0.115620 3.701630 0.277610 
#    z 0.575770 0.277610 3.938400 
# 
# 
# High freq. dielectric constant tensor:
#      x y z
#    x 1.881570 0.002190 0.024740 
#    y 0.002190 1.838160 0.014100 
#    z 0.024740 0.014100 1.831350 
# 
# From -- ./inp_files/459442.got.cif
#   From: 2010.06.25/outbox.cif.g09.slc.cpg/sg2_230_cif.got.tgz:459442.got - 2010.06.27 13:26:56.
