data_PCOD8043533
_publ_section_title
;
Structure prediction by ZEFSAII (Michael W. Deem and Ramdas Pophale) SiO2 
 PCOD8043533
Probable space group: P -1
;
_chemical_formula_sum "Si O2"
_cell_formula_units_Z 16
_cell_length_a 5.245218
_cell_length_b 15.352721
_cell_length_c 11.266207
_cell_angle_alpha 66.054602
_cell_angle_beta 89.798653
_cell_angle_gamma 66.063181
_cell_volume 743.613448
_symmetry_space_group_name_H-M "P -1"
_symmetry_group_IT_number 2
_symmetry_cell_setting 'triclinic'
loop_
_space_group_symop_operation_xyz
x,y,z
-x,-y,-z
loop_
_atom_site_type_symbol
_atom_site_label
_atom_site_fract_x
_atom_site_fract_y
_atom_site_fract_z
Si Si1 0.631731 0.602956 0.017143
Si Si2 0.567666 0.881964 0.234818
Si Si3 0.955923 0.613674 0.797089
Si Si4 0.049371 0.773266 0.863411
Si Si5 0.601629 0.801315 0.014808
Si Si6 0.064430 0.991201 0.867951
Si Si7 0.294913 0.221631 0.468400
Si Si8 0.912072 0.121968 0.416446
O O1 0.733999 0.488387 0.144069
O O2 0.737267 0.675602 0.056201
O O3 0.295548 0.668377 0.980095
O O4 0.743374 0.581807 0.891707
O O5 0.589762 0.825687 0.139741
O O6 0.751197 0.947246 0.199532
O O7 0.692281 0.788402 0.383235
O O8 0.237459 0.960430 0.226402
O O9 0.918602 0.723109 0.794962
O O10 0.871699 0.652829 0.639212
O O11 0.123297 0.853901 0.739126
O O12 0.814930 0.840486 0.927121
O O13 0.281112 0.863471 0.920977
O O14 0.000000 0.000000 0.000000
O O15 0.609187 0.187360 0.439313
O O16 0.150502 0.148530 0.462252
O O17 0.000000 0.000000 0.500000
#
# Coordination Sequence:
#
# PCOD8043533 Si02
#       8
#     2   2   2   2   2   2   2   2
#     4  10  19  36  64  86 118 153 207 266 302 355
#     4  11  24  41  62  88 127 169 200 241 304 370
#     4   9  20  39  58  89 116 159 207 250 318 355
#     4  10  21  36  62  89 123 155 201 262 307 361
#     4  10  23  36  59  95 118 157 206 256 301 356
#     4  10  22  40  60  86 123 164 205 244 289 358
#     4  11  23  43  61  87 124 168 199 245 305 375
#     4  11  24  41  61  90 123 161 207 247 302 364
#
# _framework density 21.516555
#
# number of rings (size 3 to 8) (size 9 to 14) (size 15 to 20)
#    0.000    1.750    1.250    3.000    7.000    1.000 
#    0.000    0.625    0.000    0.750    0.000    0.000 
#    0.000    0.000    0.000    0.000    0.000    0.000 
#
# Total GULP energy -198234.287659 kJ/mol
# GULP energy per Si atom -12389.642979 kJ/mol
# Density = 2.146758 g / cm^3
# Si number density = 21.516555 Si / 1000 Ang^3
#
#
#
# Elastic Constant Matrix: (Units=GPa)
#
#
# Indices 1 2 3 4 5 6 
#
# 1 79.2719 21.1014 40.1391 -0.7069 -4.3492 -20.9624
# 2 21.1014 88.8279 64.6119 -10.3618 -3.9191 -12.1774
# 3 40.1391 64.6119 191.1645 -15.8952 0.0608 -16.6545
# 4 -0.7069 -10.3618 -15.8952 35.6346 -0.0391 1.2986
# 5 -4.3492 -3.9191 0.0608 -0.0391 26.1455 -0.1590
# 6 -20.9624 -12.1774 -16.6545 1.2986 -0.1590 35.2283
#
#
#
# Elastic Compliance Matrix: (Units=1/GPa)
#
#
# Indices 1 2 3 4 5 6 
#
# 1 0.016492 -0.000987 -0.002518 -0.001384 0.002650 0.008345
# 2 -0.000987 0.015590 -0.004647 0.002351 0.002203 0.002528
# 3 -0.002518 -0.004647 0.007525 0.001940 -0.001128 0.000376
# 4 -0.001384 0.002351 0.001940 0.029591 0.000161 -0.000184
# 5 0.002650 0.002203 -0.001128 0.000161 0.039033 0.001975
# 6 0.008345 0.002528 0.000376 -0.000184 0.001975 0.034419
#
#
# Mechanical properties :
#
#
# Convention : Reuss Voigt Hill
#
# Bulk Modulus (GPa) = 42.91180 67.88546 55.39863
# Shear Modulus (GPa) = 29.98970 34.96248 32.47609
#
# Velocity S-wave (km/s) = 3.73741 4.03539 3.88925
# Velocity P-wave (km/s) = 6.21379 7.30283 6.78021
#
# Compressibility (1/GPa) = 0.02330361
#
# Stress axis : x y z
#
# Youngs Moduli (GPa) = 60.63405 64.14186 132.88921
#
# Poissons Ratio (x) = 0.06328 0.33467
# Poissons Ratio (y) = 0.05982 0.61756
# Poissons Ratio (z) = 0.15270 0.29808
#
# Static dielectric constant tensor:
#      x y z
#    x 3.995790 -0.250690 0.154240 
#    y -0.250690 4.046490 -0.250800 
#    z 0.154240 -0.250800 4.219050 
# 
# 
# High freq. dielectric constant tensor:
#      x y z
#    x 1.860410 -0.009450 0.000220 
#    y -0.009450 1.824610 -0.009700 
#    z 0.000220 -0.009700 1.846420 
# 
# From -- ./inp_files/368961.got.cif
#   From: 2010.06.25/outbox.cif.g09.slc.cpg/sg2_185_cif.got.tgz:368961.got - 2010.06.27 13:26:56.
