data_PCOD8043820
_publ_section_title
;
Structure prediction by ZEFSAII (Michael W. Deem and Ramdas Pophale) SiO2 
 PCOD8043820
Probable space group: P -1
;
_chemical_formula_sum "Si O2"
_cell_formula_units_Z 16
_cell_length_a 11.864721
_cell_length_b 14.723696
_cell_length_c 11.805869
_cell_angle_alpha 149.281394
_cell_angle_beta 132.478332
_cell_angle_gamma 54.012786
_cell_volume 776.868168
_symmetry_space_group_name_H-M "P -1"
_symmetry_group_IT_number 2
_symmetry_cell_setting 'triclinic'
loop_
_space_group_symop_operation_xyz
x,y,z
-x,-y,-z
loop_
_atom_site_type_symbol
_atom_site_label
_atom_site_fract_x
_atom_site_fract_y
_atom_site_fract_z
Si Si1 0.317443 0.377045 0.430856
Si Si2 0.210117 0.436032 0.851833
Si Si3 0.134631 0.650580 0.451908
Si Si4 0.638947 0.453327 0.127963
Si Si5 0.409371 0.118963 0.909851
Si Si6 0.449122 0.139317 0.708575
Si Si7 0.349545 0.527492 0.273409
Si Si8 0.273203 0.999111 0.904906
O O1 0.214191 0.538696 0.486056
O O2 0.328113 0.398322 0.596182
O O3 0.488622 0.377440 0.495476
O O4 0.242923 0.189089 0.148162
O O5 0.214466 0.554284 0.865592
O O6 0.296291 0.246983 0.682005
O O7 0.038488 0.406081 0.741228
O O8 0.300868 0.539942 0.122502
O O9 0.220887 0.622180 0.361828
O O10 0.138842 0.864417 0.704335
O O11 0.500000 0.500000 0.000000
O O12 0.594522 0.270317 0.964303
O O13 0.413760 0.045250 0.704544
O O14 0.285273 0.020498 0.798774
O O15 0.362203 0.324339 0.100929
O O16 0.574234 0.097381 0.052266
O O17 0.500000 0.000000 0.500000
#
# Coordination Sequence:
#
# PCOD8043820 Si02
#       8
#     2   2   2   2   2   2   2   2
#     4  12  22  40  70  92 127 167 224 259 306 383
#     4  10  24  42  63  94 130 167 212 256 330 375
#     4  12  24  42  62  96 139 165 201 269 323 376
#     4  10  20  41  65  90 119 166 219 259 313 373
#     4  10  19  37  59  97 121 154 223 258 301 368
#     4  10  21  39  66  93 120 163 218 267 302 374
#     4  11  19  41  67  92 127 173 208 267 305 378
#     4  11  23  35  64  96 126 166 207 261 323 368
#
# _framework density 20.595514999999999
#
# number of rings (size 3 to 8) (size 9 to 14) (size 15 to 20)
#    0.000    1.250    6.250    2.250    3.500    1.500 
#    2.250    3.125    0.000    0.000    0.000    0.000 
#    0.000    0.000    0.000    0.000    0.000    0.000 
#
# Total GULP energy -198330.197181 kJ/mol
# GULP energy per Si atom -12395.637324 kJ/mol
# Density = 2.054864 g / cm^3
# Si number density = 20.595515 Si / 1000 Ang^3
#
#
#
# Elastic Constant Matrix: (Units=GPa)
#
#
# Indices 1 2 3 4 5 6 
#
# 1 69.0783 39.3325 30.1202 0.0392 -7.6661 7.8395
# 2 39.3325 72.9154 36.9529 -1.6724 -6.2506 18.7182
# 3 30.1202 36.9529 98.4667 10.1040 -11.4442 6.0231
# 4 0.0392 -1.6724 10.1040 23.2144 3.9948 -1.0906
# 5 -7.6661 -6.2506 -11.4442 3.9948 39.2670 -6.7743
# 6 7.8395 18.7182 6.0231 -1.0906 -6.7743 29.9173
#
#
#
# Elastic Compliance Matrix: (Units=1/GPa)
#
#
# Indices 1 2 3 4 5 6 
#
# 1 0.021708 -0.010808 -0.002457 -0.000021 0.002158 0.002057
# 2 -0.010808 0.025875 -0.006390 0.004502 -0.002462 -0.012464
# 3 -0.002457 -0.006390 0.014350 -0.007250 0.003829 0.002356
# 4 -0.000021 0.004502 -0.007250 0.047613 -0.006429 -0.001072
# 5 0.002158 -0.002462 0.003829 -0.006429 0.028369 0.006393
# 6 0.002057 -0.012464 0.002356 -0.001072 0.006393 0.041619
#
#
# Mechanical properties :
#
#
# Convention : Reuss Voigt Hill
#
# Bulk Modulus (GPa) = 44.20267 50.36350 47.28308
# Shear Modulus (GPa) = 22.08629 27.41671 24.75150
#
# Velocity S-wave (km/s) = 3.27828 3.65252 3.47045
# Velocity P-wave (km/s) = 5.98651 6.50343 6.25032
#
# Compressibility (1/GPa) = 0.02262307
#
# Stress axis : x y z
#
# Youngs Moduli (GPa) = 46.06654 38.64767 69.68476
#
# Poissons Ratio (x) = 0.41770 0.17122
# Poissons Ratio (y) = 0.49788 0.44528
# Poissons Ratio (z) = 0.11319 0.24696
#
# Static dielectric constant tensor:
#      x y z
#    x 4.014870 0.434980 0.067100 
#    y 0.434980 3.860490 0.070290 
#    z 0.067100 0.070290 3.745260 
# 
# 
# High freq. dielectric constant tensor:
#      x y z
#    x 1.800350 0.028330 -0.010530 
#    y 0.028330 1.795640 0.004550 
#    z -0.010530 0.004550 1.795980 
# 
# From -- ./inp_files/433585.got.cif
#   From: 2010.06.25/outbox.cif.g09.slc.cpg/sg2_217_cif.got.tgz:433585.got - 2010.06.27 13:26:56.
