data_PCOD8043442
_publ_section_title
;
Structure prediction by ZEFSAII (Michael W. Deem and Ramdas Pophale) SiO2 
 PCOD8043442
Probable space group: P -1
;
_chemical_formula_sum "Si O2"
_cell_formula_units_Z 16
_cell_length_a 16.406850
_cell_length_b 9.026951
_cell_length_c 18.290951
_cell_angle_alpha 70.472688
_cell_angle_beta 24.383968
_cell_angle_gamma 54.873254
_cell_volume 756.519308
_symmetry_space_group_name_H-M "P -1"
_symmetry_group_IT_number 2
_symmetry_cell_setting 'triclinic'
loop_
_space_group_symop_operation_xyz
x,y,z
-x,-y,-z
loop_
_atom_site_type_symbol
_atom_site_label
_atom_site_fract_x
_atom_site_fract_y
_atom_site_fract_z
Si Si1 0.103044 0.159507 0.285463
Si Si2 0.123619 0.310903 0.092660
Si Si3 0.695291 0.107911 0.036467
Si Si4 0.176175 0.625682 0.137718
Si Si5 0.633517 0.732662 0.857378
Si Si6 0.292997 0.793201 0.826402
Si Si7 0.491374 0.633467 0.226621
Si Si8 0.302570 0.239818 0.589517
O O1 0.182647 0.216346 0.282744
O O2 0.075162 0.302424 0.219720
O O3 0.828548 0.213333 0.518764
O O4 0.341311 0.906048 0.110154
O O5 0.877446 0.570411 0.231818
O O6 0.414417 0.239971 0.853177
O O7 0.113989 0.154192 0.081316
O O8 0.417864 0.236262 0.193528
O O9 0.637599 0.166494 0.158785
O O10 0.847130 0.173524 0.864657
O O11 0.218316 0.511438 0.198929
O O12 0.893551 0.733176 0.313278
O O13 0.441438 0.439330 0.901126
O O14 0.318228 0.591490 0.844766
O O15 0.520366 0.722697 0.596958
O O16 0.000000 0.000000 0.000000
O O17 0.500000 0.000000 0.500000
#
# Coordination Sequence:
#
# PCOD8043442 Si02
#       8
#     2   2   2   2   2   2   2   2
#     4  10  19  36  62  92 124 171 206 252 307 366
#     4  10  20  41  63  92 130 156 212 259 300 365
#     4  10  23  39  60  93 128 158 206 267 302 362
#     4  10  20  39  59  89 127 166 206 250 313 368
#     4  10  19  37  60  90 130 165 207 255 307 365
#     4  11  22  42  65  90 122 164 208 255 316 377
#     4  10  19  37  64  88 123 168 211 246 303 380
#     4  11  21  41  69  90 118 170 209 248 313 382
#
# _framework density 21.149491999999999
#
# number of rings (size 3 to 8) (size 9 to 14) (size 15 to 20)
#    0.000    1.750    3.750    2.625    0.000    0.500 
#    4.500   10.625    0.000    0.000    0.000    0.000 
#    0.000    0.000    0.000    0.000    0.000    0.000 
#
# Total GULP energy -198278.232813 kJ/mol
# GULP energy per Si atom -12392.389551 kJ/mol
# Density = 2.110136 g / cm^3
# Si number density = 21.149492 Si / 1000 Ang^3
#
#
#
# Elastic Constant Matrix: (Units=GPa)
#
#
# Indices 1 2 3 4 5 6 
#
# 1 57.3055 20.8912 15.6341 -2.8538 -6.9514 -4.0859
# 2 20.8912 131.5522 30.3177 4.0334 -8.6766 8.2438
# 3 15.6341 30.3177 124.7675 -7.7219 -11.4862 1.9392
# 4 -2.8538 4.0334 -7.7219 31.9748 -5.7083 -7.9673
# 5 -6.9514 -8.6766 -11.4862 -5.7083 16.9426 -2.9253
# 6 -4.0859 8.2438 1.9392 -7.9673 -2.9253 37.5175
#
#
#
# Elastic Compliance Matrix: (Units=1/GPa)
#
#
# Indices 1 2 3 4 5 6 
#
# 1 0.020340 -0.002896 -0.000830 0.004662 0.008657 0.004560
# 2 -0.002896 0.008762 -0.001786 -0.002277 0.000878 -0.002563
# 3 -0.000830 -0.001786 0.009385 0.003888 0.006617 0.001159
# 4 0.004662 -0.002277 0.003888 0.038784 0.018256 0.010467
# 5 0.008657 0.000878 0.006617 0.018256 0.075416 0.010165
# 6 0.004560 -0.002563 0.001159 0.010467 0.010165 0.030670
#
#
# Mechanical properties :
#
#
# Convention : Reuss Voigt Hill
#
# Bulk Modulus (GPa) = 36.41624 49.70126 43.05875
# Shear Modulus (GPa) = 24.56570 33.73914 29.15242
#
# Velocity S-wave (km/s) = 3.41182 3.99842 3.71671
# Velocity P-wave (km/s) = 5.72508 6.69832 6.23073
#
# Compressibility (1/GPa) = 0.02746027
#
# Stress axis : x y z
#
# Youngs Moduli (GPa) = 49.16384 114.13507 106.55573
#
# Poissons Ratio (x) = 0.33059 0.08847
# Poissons Ratio (y) = 0.14240 0.19035
# Poissons Ratio (z) = 0.04082 0.20389
#
# Static dielectric constant tensor:
#      x y z
#    x 3.505330 -0.052190 -0.072980 
#    y -0.052190 4.167460 -0.086800 
#    z -0.072980 -0.086800 3.761090 
# 
# 
# High freq. dielectric constant tensor:
#      x y z
#    x 1.793650 -0.003210 -0.012440 
#    y -0.003210 1.851490 -0.008250 
#    z -0.012440 -0.008250 1.817840 
# 
# From -- ./inp_files/599476.got.cif
#   From: 2010.06.25/outbox.cif.g09.slc.cpg/sg2_300_cif.got.tgz:599476.got - 2010.06.27 13:26:56.
