data_PCOD8043466
_publ_section_title
;
Structure prediction by ZEFSAII (Michael W. Deem and Ramdas Pophale) SiO2 
 PCOD8043466
Probable space group: P -1
;
_chemical_formula_sum "Si O2"
_cell_formula_units_Z 14
_cell_length_a 11.192614
_cell_length_b 9.266506
_cell_length_c 8.064602
_cell_angle_alpha 134.038852
_cell_angle_beta 93.084959
_cell_angle_gamma 92.744869
_cell_volume 596.158971
_symmetry_space_group_name_H-M "P -1"
_symmetry_group_IT_number 2
_symmetry_cell_setting 'triclinic'
loop_
_space_group_symop_operation_xyz
x,y,z
-x,-y,-z
loop_
_atom_site_type_symbol
_atom_site_label
_atom_site_fract_x
_atom_site_fract_y
_atom_site_fract_z
Si Si1 0.672347 0.794730 0.554332
Si Si2 0.243734 0.470679 0.903582
Si Si3 0.129719 0.864406 0.235519
Si Si4 0.478415 0.272890 0.179806
Si Si5 0.339535 0.901197 0.743145
Si Si6 0.127355 0.072641 0.748413
Si Si7 0.439945 0.665862 0.297623
O O1 0.748696 0.616833 0.352073
O O2 0.616704 0.756416 0.699734
O O3 0.568075 0.810254 0.415128
O O4 0.758153 0.004366 0.738012
O O5 0.199329 0.290135 0.882070
O O6 0.147913 0.630342 0.028943
O O7 0.379882 0.573753 0.049887
O O8 0.003412 0.898811 0.164183
O O9 0.114787 0.922234 0.471383
O O10 0.615064 0.241111 0.222303
O O11 0.478176 0.495037 0.289248
O O12 0.436796 0.103068 0.904020
O O13 0.340626 0.786855 0.474904
O O14 0.205292 0.966372 0.808192
#
# Coordination Sequence:
#
# PCOD8043466 Si02
#       7
#     2   2   2   2   2   2   2
#     4  10  23  37  56  91 122 148 192 240 298 343
#     4  11  21  37  61  89 118 152 191 244 296 338
#     4  10  22  38  59  85 121 152 193 246 286 339
#     4  10  22  39  60  87 120 154 195 235 289 355
#     4  10  19  36  63  84 111 154 198 236 283 339
#     4  10  20  39  60  87 112 155 203 235 284 346
#     4  11  21  38  62  88 117 155 193 238 292 354
#
# _framework density 23.48367
#
# number of rings (size 3 to 8) (size 9 to 14) (size 15 to 20)
#    0.000    1.714    2.857    2.571    0.000    5.143 
#    2.571    0.714    0.000    4.286    0.000    0.000 
#    0.000    0.000    0.000    0.000    0.000    0.000 
#
# Total GULP energy -173497.446840 kJ/mol
# GULP energy per Si atom -12392.674774 kJ/mol
# Density = 2.343022 g / cm^3
# Si number density = 23.483670 Si / 1000 Ang^3
#
#
#
# Elastic Constant Matrix: (Units=GPa)
#
#
# Indices 1 2 3 4 5 6 
#
# 1 133.2257 57.7019 7.4108 13.1275 -0.1404 -34.0948
# 2 57.7019 68.3005 26.3489 11.5555 -15.0011 -28.5473
# 3 7.4108 26.3489 90.8053 20.7431 -6.4893 -11.8992
# 4 13.1275 11.5555 20.7431 29.3365 -6.8820 -7.4653
# 5 -0.1404 -15.0011 -6.4893 -6.8820 29.7518 7.2736
# 6 -34.0948 -28.5473 -11.8992 -7.4653 7.2736 38.0400
#
#
#
# Elastic Compliance Matrix: (Units=1/GPa)
#
#
# Indices 1 2 3 4 5 6 
#
# 1 0.014440 -0.012208 0.003581 -0.004601 -0.007708 0.005472
# 2 -0.012208 0.034908 -0.007393 0.002979 0.013966 0.010856
# 3 0.003581 -0.007393 0.015012 -0.009737 -0.002935 0.001008
# 4 -0.004601 0.002979 -0.009737 0.044528 0.009154 0.002054
# 5 -0.007708 0.013966 -0.002935 0.009154 0.043017 -0.003775
# 6 0.005472 0.010856 0.001008 0.002054 -0.003775 0.040780
#
#
# Mechanical properties :
#
#
# Convention : Reuss Voigt Hill
#
# Bulk Modulus (GPa) = 30.94027 52.80608 41.87318
# Shear Modulus (GPa) = 21.23159 32.81699 27.02429
#
# Velocity S-wave (km/s) = 3.01009 3.74229 3.39598
# Velocity P-wave (km/s) = 5.02839 6.41935 5.76597
#
# Compressibility (1/GPa) = 0.03232034
#
# Stress axis : x y z
#
# Youngs Moduli (GPa) = 69.25193 28.64666 66.61296
#
# Poissons Ratio (x) = 0.34973 -0.23855
# Poissons Ratio (y) = 0.84546 0.49245
# Poissons Ratio (z) = -0.24800 0.21178
#
# Static dielectric constant tensor:
#      x y z
#    x 4.371930 -0.283410 0.044820 
#    y -0.283410 3.848740 0.336340 
#    z 0.044820 0.336340 4.536150 
# 
# 
# High freq. dielectric constant tensor:
#      x y z
#    x 1.920190 -0.019680 -0.004340 
#    y -0.019680 1.894430 0.027400 
#    z -0.004340 0.027400 1.948100 
# 
# From -- ./inp_files/246055.got.cif
#   From: 2010.06.25/outbox.cif.g09.slc.cpg/sg2_124_cif.got.tgz:246055.got - 2010.06.27 13:26:56.
