data_PCOD8043883
_publ_section_title
;
Structure prediction by ZEFSAII (Michael W. Deem and Ramdas Pophale) SiO2 
 PCOD8043883
Probable space group: P -1
;
_chemical_formula_sum "Si O2"
_cell_formula_units_Z 14
_cell_length_a 9.547084
_cell_length_b 11.498764
_cell_length_c 10.967255
_cell_angle_alpha 128.353450
_cell_angle_beta 119.090979
_cell_angle_gamma 41.988069
_cell_volume 630.903522
_symmetry_space_group_name_H-M "P -1"
_symmetry_group_IT_number 2
_symmetry_cell_setting 'triclinic'
loop_
_space_group_symop_operation_xyz
x,y,z
-x,-y,-z
loop_
_atom_site_type_symbol
_atom_site_label
_atom_site_fract_x
_atom_site_fract_y
_atom_site_fract_z
Si Si1 0.295453 0.386908 0.554087
Si Si2 0.251248 0.286089 0.874798
Si Si3 0.694574 0.088866 0.858616
Si Si4 0.941017 0.298184 0.894340
Si Si5 0.118237 0.731541 0.871762
Si Si6 0.258527 0.876683 0.366612
Si Si7 0.068109 0.302774 0.558641
O O1 0.258881 0.518122 0.738739
O O2 0.543488 0.232748 0.527815
O O3 0.220080 0.269794 0.492163
O O4 0.170813 0.517127 0.465929
O O5 0.498442 0.113914 0.845222
O O6 0.115301 0.359939 0.741228
O O7 0.170538 0.208835 0.884238
O O8 0.217944 0.469099 0.037831
O O9 0.635293 0.182127 0.760356
O O10 0.749205 0.195907 0.038624
O O11 0.902878 0.863787 0.788963
O O12 0.864568 0.204076 0.719583
O O13 0.954507 0.244754 0.005105
O O14 0.101447 0.107982 0.469891
#
# Coordination Sequence:
#
# PCOD8043883 Si02
#       7
#     2   2   2   2   2   2   2
#     4  11  21  36  63  92 119 151 191 255 291 345
#     4  11  22  40  59  84 121 158 196 240 295 348
#     4  10  20  34  64  90 117 148 200 249 291 341
#     4  10  23  40  59  83 119 160 198 239 288 355
#     4  10  19  37  60  93 115 149 201 246 287 350
#     4  11  21  39  63  89 118 155 196 243 297 342
#     4  11  23  36  60  93 121 148 198 244 294 351
#
# _framework density 22.190397999999998
#
# number of rings (size 3 to 8) (size 9 to 14) (size 15 to 20)
#    0.000    1.429    4.286    1.286    0.000    3.429 
#    0.000    0.714    0.000    0.000    0.000    0.000 
#    0.000    0.000    0.000    0.000    0.000    0.000 
#
# Total GULP energy -173596.962635 kJ/mol
# GULP energy per Si atom -12399.783045 kJ/mol
# Density = 2.213989 g / cm^3
# Si number density = 22.190398 Si / 1000 Ang^3
#
#
#
# Elastic Constant Matrix: (Units=GPa)
#
#
# Indices 1 2 3 4 5 6 
#
# 1 104.7833 32.3563 15.9763 -1.7820 17.8276 -6.8712
# 2 32.3563 112.6827 19.1729 -10.5067 17.4338 -5.3499
# 3 15.9763 19.1729 59.4393 -0.3316 21.9551 6.9793
# 4 -1.7820 -10.5067 -0.3316 33.0161 7.3739 8.9720
# 5 17.8276 17.4338 21.9551 7.3739 34.2337 4.0217
# 6 -6.8712 -5.3499 6.9793 8.9720 4.0217 26.0768
#
#
#
# Elastic Compliance Matrix: (Units=1/GPa)
#
#
# Indices 1 2 3 4 5 6 
#
# 1 0.011396 -0.002226 -0.001102 -0.000067 -0.004498 0.003558
# 2 -0.002226 0.010880 -0.001382 0.003970 -0.004509 0.001345
# 3 -0.001102 -0.001382 0.023520 0.004582 -0.014057 -0.006278
# 4 -0.000067 0.003970 0.004582 0.037306 -0.011614 -0.011474
# 5 -0.004498 -0.004509 -0.014057 -0.011614 0.045527 -0.001374
# 6 0.003558 0.001345 -0.006278 -0.011474 -0.001374 0.045401
#
#
# Mechanical properties :
#
#
# Convention : Reuss Voigt Hill
#
# Bulk Modulus (GPa) = 27.48920 45.76847 36.62883
# Shear Modulus (GPa) = 25.56536 32.62530 29.09533
#
# Velocity S-wave (km/s) = 3.39793 3.83854 3.62493
# Velocity P-wave (km/s) = 5.27346 6.34948 5.83632
#
# Compressibility (1/GPa) = 0.03637792
#
# Stress axis : x y z
#
# Youngs Moduli (GPa) = 87.74689 91.90838 42.51624
#
# Poissons Ratio (x) = 0.20462 0.04684
# Poissons Ratio (y) = 0.19536 0.05874
# Poissons Ratio (z) = 0.09667 0.12698
#
# Static dielectric constant tensor:
#      x y z
#    x 3.849000 0.044860 0.321110 
#    y 0.044860 3.801610 -0.083520 
#    z 0.321110 -0.083520 3.971160 
# 
# 
# High freq. dielectric constant tensor:
#      x y z
#    x 1.848400 0.001230 0.028950 
#    y 0.001230 1.864780 0.000660 
#    z 0.028950 0.000660 1.875530 
# 
# From -- ./inp_files/190150.got.cif
#   From: 2010.06.25/outbox.cif.g09.slc.cpg/sg2_96_cif.got.tgz:190150.got - 2010.06.27 13:26:56.
