data_PCOD8043310
_publ_section_title
;
Structure prediction by ZEFSAII (Michael W. Deem and Ramdas Pophale) SiO2 
 PCOD8043310
Probable space group: P -1
;
_chemical_formula_sum "Si O2"
_cell_formula_units_Z 14
_cell_length_a 6.930466
_cell_length_b 9.804670
_cell_length_c 7.572533
_cell_angle_alpha 97.632543
_cell_angle_beta 103.390746
_cell_angle_gamma 97.664290
_cell_volume 488.895685
_symmetry_space_group_name_H-M "P -1"
_symmetry_group_IT_number 2
_symmetry_cell_setting 'triclinic'
loop_
_space_group_symop_operation_xyz
x,y,z
-x,-y,-z
loop_
_atom_site_type_symbol
_atom_site_label
_atom_site_fract_x
_atom_site_fract_y
_atom_site_fract_z
Si Si1 0.683159 0.989746 0.328211
Si Si2 0.014408 0.336476 0.224337
Si Si3 0.908510 0.237089 0.829809
Si Si4 0.306492 0.715632 0.558248
Si Si5 0.428756 0.468435 0.265760
Si Si6 0.628440 0.707615 0.118123
Si Si7 0.129031 0.064902 0.301553
O O1 0.578555 0.866187 0.154551
O O2 0.688806 0.924662 0.515460
O O3 0.581581 0.130627 0.320571
O O4 0.914461 0.051494 0.348896
O O5 0.193173 0.470746 0.266259
O O6 0.145354 0.208768 0.220580
O O7 0.884805 0.348354 0.371635
O O8 0.871900 0.321086 0.016096
O O9 0.755987 0.263870 0.651597
O O10 0.132898 0.286619 0.813619
O O11 0.866748 0.071486 0.842260
O O12 0.451916 0.597993 0.560725
O O13 0.531930 0.620654 0.251369
O O14 0.455943 0.360051 0.094273
#
# Coordination Sequence:
#
# PCOD8043310 Si02
#       7
#     2   2   2   2   2   2   2
#     4   8  15  31  58  84 113 151 192 239 294 340
#     4  10  19  36  61  85 116 160 193 234 299 351
#     4   9  18  35  59  85 117 153 194 242 292 344
#     4  10  21  39  61  90 117 147 198 251 287 341
#     4  10  22  37  57  86 122 155 194 241 290 350
#     4   9  18  37  57  81 121 159 188 238 294 347
#     4   8  14  29  55  84 111 148 194 238 286 347
#
# _framework density 28.635967999999998
#
# number of rings (size 3 to 8) (size 9 to 14) (size 15 to 20)
#    0.000    2.857    0.000    3.000    0.000    2.286 
#    0.000   16.429    0.000    3.429    0.000    0.000 
#    0.000    0.000    0.000    0.000    0.000    0.000 
#
# Total GULP energy -173594.897887 kJ/mol
# GULP energy per Si atom -12399.635563 kJ/mol
# Density = 2.857079 g / cm^3
# Si number density = 28.635968 Si / 1000 Ang^3
#
#
#
# Elastic Constant Matrix: (Units=GPa)
#
#
# Indices 1 2 3 4 5 6 
#
# 1 81.9859 30.4031 0.5831 -0.8356 -17.1688 -20.9564
# 2 30.4031 129.9159 5.9141 6.1058 -3.1070 -8.4932
# 3 0.5831 5.9141 76.7146 -3.2141 0.5425 -3.3782
# 4 -0.8356 6.1058 -3.2141 41.8696 2.5013 -2.9154
# 5 -17.1688 -3.1070 0.5425 2.5013 20.2423 -2.8919
# 6 -20.9564 -8.4932 -3.3782 -2.9154 -2.8919 37.3591
#
#
#
# Elastic Compliance Matrix: (Units=1/GPa)
#
#
# Indices 1 2 3 4 5 6 
#
# 1 0.020555 -0.003626 0.000562 0.000728 0.018522 0.012247
# 2 -0.003626 0.008575 -0.000693 -0.001305 -0.001633 -0.000376
# 3 0.000562 -0.000693 0.013199 0.001222 0.000073 0.001452
# 4 0.000728 -0.001305 0.001222 0.024459 -0.002359 0.001949
# 5 0.018522 -0.001633 0.000073 -0.002359 0.067300 0.015050
# 6 0.012247 -0.000376 0.001452 0.001949 0.015050 0.035000
#
#
# Mechanical properties :
#
#
# Convention : Reuss Voigt Hill
#
# Bulk Modulus (GPa) = 28.72406 40.26855 34.49631
# Shear Modulus (GPa) = 26.56646 36.67527 31.62087
#
# Velocity S-wave (km/s) = 3.04917 3.58263 3.32661
# Velocity P-wave (km/s) = 4.73805 5.58627 5.17955
#
# Compressibility (1/GPa) = 0.03481402
#
# Stress axis : x y z
#
# Youngs Moduli (GPa) = 48.65111 116.61544 75.76247
#
# Poissons Ratio (x) = 0.42290 -0.04259
# Poissons Ratio (y) = 0.17643 0.05252
# Poissons Ratio (z) = -0.02735 0.08083
#
# Static dielectric constant tensor:
#      x y z
#    x 4.958450 -0.234500 -0.147750 
#    y -0.234500 5.716420 0.122550 
#    z -0.147750 0.122550 5.113130 
# 
# 
# High freq. dielectric constant tensor:
#      x y z
#    x 2.157470 -0.000870 -0.015170 
#    y -0.000870 2.180500 0.010710 
#    z -0.015170 0.010710 2.153460 
# 
# From -- ./inp_files/178288.got.cif
#   From: 2010.06.25/outbox.cif.g09.slc.cpg/sg2_90_cif.got.tgz:178288.got - 2010.06.27 13:26:56.
