data_PCOD8043736
_publ_section_title
;
Structure prediction by ZEFSAII (Michael W. Deem and Ramdas Pophale) SiO2 
 PCOD8043736
Probable space group: P -1
;
_chemical_formula_sum "Si O2"
_cell_formula_units_Z 12
_cell_length_a 20.090026
_cell_length_b 11.071160
_cell_length_c 7.396355
_cell_angle_alpha 57.904106
_cell_angle_beta 90.791963
_cell_angle_gamma 41.851891
_cell_volume 640.772632
_symmetry_space_group_name_H-M "P -1"
_symmetry_group_IT_number 2
_symmetry_cell_setting 'triclinic'
loop_
_space_group_symop_operation_xyz
x,y,z
-x,-y,-z
loop_
_atom_site_type_symbol
_atom_site_label
_atom_site_fract_x
_atom_site_fract_y
_atom_site_fract_z
Si Si1 0.441536 0.118382 0.199556
Si Si2 0.801547 0.087347 0.718273
Si Si3 0.794585 0.838314 0.125052
Si Si4 0.481826 0.814711 0.148985
Si Si5 0.926091 0.851932 0.270000
Si Si6 0.863081 0.160872 0.343402
O O1 0.500000 0.000000 0.500000
O O2 0.449842 0.951067 0.231674
O O3 0.533540 0.052722 0.131284
O O4 0.275200 0.479824 0.911026
O O5 0.639369 0.448781 0.455623
O O6 0.868802 0.013438 0.593543
O O7 0.800165 0.916521 0.872450
O O8 0.905996 0.952541 0.986814
O O9 0.840280 0.862504 0.268417
O O10 0.905751 0.493943 0.397707
O O11 0.634354 0.088841 0.960180
O O12 0.856318 0.104867 0.190953
O O13 0.000000 0.000000 0.500000
#
# Coordination Sequence:
#
# PCOD8043736 Si02
#       6
#     2   2   2   2   2   2
#     4  10  22  37  53  83 105 139 181 213 259 315
#     4   9  20  36  54  81 105 137 177 214 264 311
#     4   9  19  38  55  79 106 142 170 218 270 299
#     4  10  19  37  58  75 110 138 175 219 258 314
#     4   9  20  37  53  79 111 130 181 217 254 322
#     4  11  22  36  55  79 107 141 176 217 263 309
#
# _framework density 18.727392999999999
#
# number of rings (size 3 to 8) (size 9 to 14) (size 15 to 20)
#    1.000    1.333    0.000    2.500    0.000    2.667 
#    3.000    1.667    0.000    0.000    0.000    0.000 
#    0.000    0.000    0.000    0.000    0.000    0.000 
#
# Total GULP energy -148703.903792 kJ/mol
# GULP energy per Si atom -12391.991983 kJ/mol
# Density = 1.868477 g / cm^3
# Si number density = 18.727393 Si / 1000 Ang^3
#
#
#
# Elastic Constant Matrix: (Units=GPa)
#
#
# Indices 1 2 3 4 5 6 
#
# 1 71.8257 11.5715 19.4174 -2.3991 13.4655 -14.3580
# 2 11.5715 50.3922 16.4651 3.6315 11.8847 -0.2329
# 3 19.4174 16.4651 97.1771 5.2709 -3.4608 -12.7512
# 4 -2.3991 3.6315 5.2709 33.4918 -0.2302 1.9728
# 5 13.4655 11.8847 -3.4608 -0.2302 17.4277 5.2345
# 6 -14.3580 -0.2329 -12.7512 1.9728 5.2345 25.6143
#
#
#
# Elastic Compliance Matrix: (Units=1/GPa)
#
#
# Indices 1 2 3 4 5 6 
#
# 1 0.022147 0.001642 -0.003571 0.000902 -0.023553 0.015395
# 2 0.001642 0.026267 -0.004992 -0.002277 -0.021156 0.003173
# 3 -0.003571 -0.004992 0.012588 -0.001805 0.007810 0.002763
# 4 0.000902 -0.002277 -0.001805 0.030652 0.001850 -0.003153
# 5 -0.023553 -0.021156 0.007810 0.001850 0.100657 -0.030220
# 6 0.015395 0.003173 0.002763 -0.003153 -0.030220 0.055493
#
#
# Mechanical properties :
#
#
# Convention : Reuss Voigt Hill
#
# Bulk Modulus (GPa) = 21.20457 34.92255 28.06356
# Shear Modulus (GPa) = 18.02675 26.76948 22.39811
#
# Velocity S-wave (km/s) = 3.10592 3.78488 3.46209
# Velocity P-wave (km/s) = 4.92033 6.14726 5.56769
#
# Compressibility (1/GPa) = 0.04715965
#
# Stress axis : x y z
#
# Youngs Moduli (GPa) = 45.15356 38.07127 79.43816
#
# Poissons Ratio (x) = -0.06252 0.28368
# Poissons Ratio (y) = -0.07416 0.39657
# Poissons Ratio (z) = 0.16125 0.19006
#
# Static dielectric constant tensor:
#      x y z
#    x 3.350260 -0.009620 -0.156400 
#    y -0.009620 3.294490 -0.024240 
#    z -0.156400 -0.024240 3.522700 
# 
# 
# High freq. dielectric constant tensor:
#      x y z
#    x 1.717220 0.000470 -0.003900 
#    y 0.000470 1.715130 -0.010450 
#    z -0.003900 -0.010450 1.736840 
# 
# From -- ./inp_files/40459.got.cif
#   From: 2010.06.25/outbox.cif.g09.slc.cpg/sg2_21_cif.got.tgz:40459.got - 2010.06.27 13:26:56.
