data_PCOD8043143
_publ_section_title
;
Structure prediction by ZEFSAII (Michael W. Deem and Ramdas Pophale) SiO2 
 PCOD8043143
Probable space group: P -1
;
_chemical_formula_sum "Si O2"
_cell_formula_units_Z 16
_cell_length_a 13.038634
_cell_length_b 19.255506
_cell_length_c 22.698461
_cell_angle_alpha 153.520753
_cell_angle_beta 20.317882
_cell_angle_gamma 141.009188
_cell_volume 808.060205
_symmetry_space_group_name_H-M "P -1"
_symmetry_group_IT_number 2
_symmetry_cell_setting 'triclinic'
loop_
_space_group_symop_operation_xyz
x,y,z
-x,-y,-z
loop_
_atom_site_type_symbol
_atom_site_label
_atom_site_fract_x
_atom_site_fract_y
_atom_site_fract_z
Si Si1 0.727237 0.628230 0.889533
Si Si2 0.359261 0.916030 0.386218
Si Si3 0.144531 0.307837 0.259294
Si Si4 0.177424 0.478618 0.641956
Si Si5 0.349878 0.861903 0.047960
Si Si6 0.392768 0.856935 0.893209
Si Si7 0.231066 0.902406 0.648404
Si Si8 0.450628 0.343758 0.811654
O O1 0.815390 0.701997 0.839555
O O2 0.632322 0.470475 0.807272
O O3 0.012986 0.574833 0.743467
O O4 0.429861 0.790445 0.197561
O O5 0.362299 0.804809 0.356709
O O6 0.596941 0.013642 0.336629
O O7 0.008492 0.058374 0.674788
O O8 0.000000 0.500000 0.500000
O O9 0.937044 0.198988 0.301650
O O10 0.467824 0.248262 0.078528
O O11 0.500000 0.500000 0.500000
O O12 0.318627 0.275991 0.402855
O O13 0.921741 0.547127 0.885668
O O14 0.512743 0.985872 0.034898
O O15 0.374578 0.770258 0.900912
O O16 0.030071 0.932387 0.118976
O O17 0.503107 0.760185 0.353120
#
# Coordination Sequence:
#
# PCOD8043143 Si02
#       8
#     2   2   2   2   2   2   2   2
#     4  11  23  41  66  85 130 167 201 246 306 375
#     4  11  22  38  61  99 119 155 203 264 314 348
#     4  11  23  43  60  86 121 171 210 239 304 380
#     4  11  23  36  61  96 125 153 199 258 311 352
#     4  10  21  34  63  84 119 155 210 251 291 362
#     4  10  19  36  58  92 118 157 203 253 298 355
#     4  11  23  39  67  91 126 161 202 259 309 358
#     4  11  21  40  64  93 125 163 200 255 305 364
#
# _framework density 19.800505999999999
#
# number of rings (size 3 to 8) (size 9 to 14) (size 15 to 20)
#    0.000    1.250    2.500    5.625    3.500    1.000 
#    0.000    1.875    0.000    0.000    0.000    0.000 
#    0.000    0.000    0.000    0.000    0.000    0.000 
#
# Total GULP energy -198222.688232 kJ/mol
# GULP energy per Si atom -12388.918015 kJ/mol
# Density = 1.975544 g / cm^3
# Si number density = 19.800506 Si / 1000 Ang^3
#
#
#
# Elastic Constant Matrix: (Units=GPa)
#
#
# Indices 1 2 3 4 5 6 
#
# 1 55.9903 44.2269 19.6664 -6.9227 -13.8992 -8.5961
# 2 44.2269 94.7388 27.3789 -7.7415 5.6339 -8.3789
# 3 19.6664 27.3789 122.0719 2.7132 -17.1632 -4.6622
# 4 -6.9227 -7.7415 2.7132 34.4698 4.5719 2.2988
# 5 -13.8992 5.6339 -17.1632 4.5719 28.0191 0.2788
# 6 -8.5961 -8.3789 -4.6622 2.2988 0.2788 27.1086
#
#
#
# Elastic Compliance Matrix: (Units=1/GPa)
#
#
# Indices 1 2 3 4 5 6 
#
# 1 0.040674 -0.020489 0.001884 -0.000401 0.025450 0.006661
# 2 -0.020489 0.022754 -0.004441 0.003766 -0.018070 -0.000361
# 3 0.001884 -0.004441 0.010177 -0.002618 0.008478 0.001110
# 4 -0.000401 0.003766 -0.002618 0.031124 -0.007619 -0.001975
# 5 0.025450 -0.018070 0.008478 -0.007619 0.058345 0.003989
# 6 0.006661 -0.000361 0.001110 -0.001975 0.003989 0.039206
#
#
# Mechanical properties :
#
#
# Convention : Reuss Voigt Hill
#
# Bulk Modulus (GPa) = 36.34610 50.59394 43.47002
# Shear Modulus (GPa) = 19.41422 30.02143 24.71783
#
# Velocity S-wave (km/s) = 3.13468 3.89806 3.53702
# Velocity P-wave (km/s) = 5.61227 6.77253 6.21951
#
# Compressibility (1/GPa) = 0.02751327
#
# Stress axis : x y z
#
# Youngs Moduli (GPa) = 24.58573 43.94817 98.26242
#
# Poissons Ratio (x) = 0.90048 -0.18515
# Poissons Ratio (y) = 0.50375 0.43634
# Poissons Ratio (z) = -0.04633 0.19516
#
# Static dielectric constant tensor:
#      x y z
#    x 3.466560 0.367660 0.256140 
#    y 0.367660 3.836510 0.747380 
#    z 0.256140 0.747380 4.377370 
# 
# 
# High freq. dielectric constant tensor:
#      x y z
#    x 1.762440 0.014350 0.008470 
#    y 0.014350 1.761380 0.003420 
#    z 0.008470 0.003420 1.789700 
# 
# From -- ./inp_files/262043.got.cif
#   From: 2010.06.25/outbox.cif.g09.slc.cpg/sg2_132_cif.got.tgz:262043.got - 2010.06.27 13:26:56.
