data_PCOD8043528
_publ_section_title
;
Structure prediction by ZEFSAII (Michael W. Deem and Ramdas Pophale) SiO2 
 PCOD8043528
Probable space group: P -1
;
_chemical_formula_sum "Si O2"
_cell_formula_units_Z 14
_cell_length_a 9.459542
_cell_length_b 9.105304
_cell_length_c 13.856222
_cell_angle_alpha 140.552982
_cell_angle_beta 91.033733
_cell_angle_gamma 104.861310
_cell_volume 686.043726
_symmetry_space_group_name_H-M "P -1"
_symmetry_group_IT_number 2
_symmetry_cell_setting 'triclinic'
loop_
_space_group_symop_operation_xyz
x,y,z
-x,-y,-z
loop_
_atom_site_type_symbol
_atom_site_label
_atom_site_fract_x
_atom_site_fract_y
_atom_site_fract_z
Si Si1 0.785406 0.420102 0.212487
Si Si2 0.551307 0.057920 0.374946
Si Si3 0.609081 0.265222 0.953698
Si Si4 0.731425 0.063356 0.209501
Si Si5 0.134032 0.294902 0.916953
Si Si6 0.914083 0.303066 0.757472
Si Si7 0.366792 0.191622 0.578441
O O1 0.786168 0.273562 0.234616
O O2 0.681766 0.577481 0.305977
O O3 0.962004 0.605187 0.282067
O O4 0.704139 0.219961 0.022083
O O5 0.701483 0.190694 0.372829
O O6 0.515312 0.257870 0.541148
O O7 0.398399 0.909406 0.228354
O O8 0.580837 0.851647 0.336634
O O9 0.430105 0.188000 0.946184
O O10 0.708205 0.559615 0.071660
O O11 0.865926 0.966311 0.175989
O O12 0.982592 0.216706 0.807480
O O13 0.127198 0.464956 0.093387
O O14 0.767431 0.070891 0.594297
#
# Coordination Sequence:
#
# PCOD8043528 Si02
#       7
#     2   2   2   2   2   2   2
#     4  11  23  34  58  84 121 145 182 220 294 326
#     4   9  21  36  62  81 111 138 198 223 283 312
#     4   9  19  38  58  86 104 146 190 236 261 329
#     4  10  21  36  56  88 112 147 180 234 279 334
#     4  10  19  36  64  80 108 144 197 230 270 319
#     4  10  21  37  57  84 108 151 190 230 265 330
#     4  11  21  39  57  87 110 148 184 239 266 337
#
# _framework density 20.406863999999999
#
# number of rings (size 3 to 8) (size 9 to 14) (size 15 to 20)
#    0.857    1.143    1.429    3.000    2.000    1.143 
#    0.000    2.857    0.000    0.000    0.000    0.000 
#    0.000    0.000    0.000    0.000    0.000    0.000 
#
# Total GULP energy -173451.613104 kJ/mol
# GULP energy per Si atom -12389.400936 kJ/mol
# Density = 2.036042 g / cm^3
# Si number density = 20.406864 Si / 1000 Ang^3
#
#
#
# Elastic Constant Matrix: (Units=GPa)
#
#
# Indices 1 2 3 4 5 6 
#
# 1 70.9270 35.3977 21.2705 2.6537 -21.0722 -8.1472
# 2 35.3977 131.7109 33.0477 -13.5546 -28.4086 -6.9508
# 3 21.2705 33.0477 60.6205 -17.1033 -8.3367 -1.6658
# 4 2.6537 -13.5546 -17.1033 24.1286 -3.9786 -3.7454
# 5 -21.0722 -28.4086 -8.3367 -3.9786 30.5092 1.7785
# 6 -8.1472 -6.9508 -1.6658 -3.7454 1.7785 12.9349
#
#
#
# Elastic Compliance Matrix: (Units=1/GPa)
#
#
# Indices 1 2 3 4 5 6 
#
# 1 0.021019 -0.002054 -0.006009 -0.004763 0.009839 0.008629
# 2 -0.002054 0.011894 -0.001991 0.008017 0.009819 0.005812
# 3 -0.006009 -0.001991 0.025488 0.018663 0.003196 0.003392
# 4 -0.004763 0.008017 0.018663 0.065615 0.016641 0.020423
# 5 0.009839 0.009819 0.003196 0.016641 0.051195 0.009664
# 6 0.008629 0.005812 0.003392 0.020423 0.009664 0.090890
#
#
# Mechanical properties :
#
#
# Convention : Reuss Voigt Hill
#
# Bulk Modulus (GPa) = 26.11495 49.18779 37.65137
# Shear Modulus (GPa) = 16.72391 25.08406 20.90398
#
# Velocity S-wave (km/s) = 2.86584 3.50979 3.20404
# Velocity P-wave (km/s) = 4.87603 6.37030 5.67258
#
# Compressibility (1/GPa) = 0.03829224
#
# Stress axis : x y z
#
# Youngs Moduli (GPa) = 47.57712 84.07938 39.23360
#
# Poissons Ratio (x) = 0.17268 0.23575
# Poissons Ratio (y) = 0.09771 0.07813
# Poissons Ratio (z) = 0.28589 0.16743
#
# Static dielectric constant tensor:
#      x y z
#    x 3.771830 0.025440 -0.066430 
#    y 0.025440 3.506200 -0.419960 
#    z -0.066430 -0.419960 3.509080 
# 
# 
# High freq. dielectric constant tensor:
#      x y z
#    x 1.801920 -0.000580 -0.006710 
#    y -0.000580 1.777090 -0.035720 
#    z -0.006710 -0.035720 1.777310 
# 
# From -- ./inp_files/495892.got.cif
#   From: 2010.06.25/outbox.cif.g09.slc.cpg/sg2_248_cif.got.tgz:495892.got - 2010.06.27 13:26:56.
