data_PCOD8043000
_publ_section_title
;
Structure prediction by ZEFSAII (Michael W. Deem and Ramdas Pophale) SiO2 
 PCOD8043000
Probable space group: P -1
;
_chemical_formula_sum "Si O2"
_cell_formula_units_Z 16
_cell_length_a 9.026332
_cell_length_b 19.602602
_cell_length_c 19.324442
_cell_angle_alpha 157.966759
_cell_angle_beta 50.164614
_cell_angle_gamma 139.847045
_cell_volume 793.862113
_symmetry_space_group_name_H-M "P -1"
_symmetry_group_IT_number 2
_symmetry_cell_setting 'triclinic'
loop_
_space_group_symop_operation_xyz
x,y,z
-x,-y,-z
loop_
_atom_site_type_symbol
_atom_site_label
_atom_site_fract_x
_atom_site_fract_y
_atom_site_fract_z
Si Si1 0.769044 0.090604 0.620274
Si Si2 0.077419 0.886751 0.820744
Si Si3 0.449266 0.770232 0.080684
Si Si4 0.728547 0.309097 0.162618
Si Si5 0.664096 0.202851 0.236346
Si Si6 0.230569 0.316081 0.788589
Si Si7 0.568494 0.526466 0.582584
Si Si8 0.014701 0.457649 0.089270
O O1 0.565981 0.074860 0.712804
O O2 0.839049 0.272575 0.710223
O O3 0.997658 0.187526 0.690433
O O4 0.680356 0.845696 0.384936
O O5 0.140838 0.752664 0.724942
O O6 0.851751 0.720304 0.683948
O O7 0.294790 0.072946 0.883550
O O8 0.000000 0.000000 0.000000
O O9 0.429602 0.559491 0.923769
O O10 0.239179 0.675680 0.998969
O O11 0.791358 0.336066 0.250989
O O12 0.605549 0.429150 0.285032
O O13 0.967270 0.408646 0.139632
O O14 0.532371 0.052478 0.961885
O O15 0.527290 0.295678 0.401684
O O16 0.164019 0.366289 0.930685
O O17 0.500000 0.500000 0.500000
#
# Coordination Sequence:
#
# PCOD8043000 Si02
#       8
#     2   2   2   2   2   2   2   2
#     4   8  15  28  46  72 108 143 185 229 282 334
#     4  12  21  38  58  85 120 156 192 236 286 335
#     4   9  17  30  45  74 113 146 183 234 277 330
#     4  10  19  36  55  83 117 154 190 238 283 330
#     4  10  21  36  55  78 119 153 194 233 278 339
#     4   8  15  28  47  73 106 145 184 231 280 337
#     4  10  22  39  57  80 117 153 195 238 282 342
#     4   9  15  28  49  76 110 145 186 229 279 335
#
# _framework density 20.154631999999999
#
# number of rings (size 3 to 8) (size 9 to 14) (size 15 to 20)
#    0.000    2.500    2.500    1.875    0.000    1.000 
#    9.000    0.000    0.000    0.000    0.000   17.500 
#    0.000    0.000    0.000    0.500    0.000    0.500 
#
# Total GULP energy -198214.115808 kJ/mol
# GULP energy per Si atom -12388.382238 kJ/mol
# Density = 2.010876 g / cm^3
# Si number density = 20.154632 Si / 1000 Ang^3
#
#
#
# Elastic Constant Matrix: (Units=GPa)
#
#
# Indices 1 2 3 4 5 6 
#
# 1 82.2762 5.4747 14.3113 -30.7699 4.7585 -14.2950
# 2 5.4747 260.7712 148.4182 96.4645 -51.9268 25.0312
# 3 14.3113 148.4182 219.9943 71.1643 -65.5452 33.1046
# 4 -30.7699 96.4645 71.1643 123.8876 -28.3162 36.1957
# 5 4.7585 -51.9268 -65.5452 -28.3162 46.4658 -11.8573
# 6 -14.2950 25.0312 33.1046 36.1957 -11.8573 36.1710
#
#
#
# Elastic Compliance Matrix: (Units=1/GPa)
#
#
# Indices 1 2 3 4 5 6 
#
# 1 0.015587 -0.001289 -0.003510 0.004745 -0.004026 0.004197
# 2 -0.001289 0.007628 -0.003473 -0.004653 0.001575 0.002564
# 3 -0.003510 -0.003473 0.011300 -0.000730 0.010672 -0.005097
# 4 0.004745 -0.004653 -0.000730 0.016530 0.000663 -0.010560
# 5 -0.004026 0.001575 0.010672 0.000663 0.039075 -0.000303
# 6 0.004197 0.002564 -0.005097 -0.010560 -0.000303 0.042664
#
#
# Mechanical properties :
#
#
# Convention : Reuss Voigt Hill
#
# Bulk Modulus (GPa) = 55.65074 99.93889 77.79482
# Shear Modulus (GPa) = 32.19190 67.62736 49.90963
#
# Velocity S-wave (km/s) = 4.00089 5.79889 4.98168
# Velocity P-wave (km/s) = 7.00105 9.72265 8.47185
#
# Compressibility (1/GPa) = 0.01796921
#
# Stress axis : x y z
#
# Youngs Moduli (GPa) = 64.15513 131.10363 88.49583
#
# Poissons Ratio (x) = 0.16903 0.31064
# Poissons Ratio (y) = 0.08272 0.30737
# Poissons Ratio (z) = 0.22520 0.45536
#
# Static dielectric constant tensor:
#      x y z
#    x 3.578670 -0.118030 -0.547480 
#    y -0.118030 3.629760 -0.454390 
#    z -0.547480 -0.454390 4.307340 
# 
# 
# High freq. dielectric constant tensor:
#      x y z
#    x 1.755350 -0.007090 -0.018180 
#    y -0.007090 1.772800 -0.014520 
#    z -0.018180 -0.014520 1.800500 
# 
# From -- ./inp_files/503686.got.cif
#   From: 2010.06.25/outbox.cif.g09.slc.cpg/sg2_252_cif.got.tgz:503686.got - 2010.06.27 13:26:56.
