data_PCOD8043582
_publ_section_title
;
Structure prediction by ZEFSAII (Michael W. Deem and Ramdas Pophale) SiO2 
 PCOD8043582
Probable space group: P -1
;
_chemical_formula_sum "Si O2"
_cell_formula_units_Z 14
_cell_length_a 17.213967
_cell_length_b 15.693457
_cell_length_c 11.601718
_cell_angle_alpha 140.872597
_cell_angle_beta 158.327220
_cell_angle_gamma 36.908975
_cell_volume 687.522778
_symmetry_space_group_name_H-M "P -1"
_symmetry_group_IT_number 2
_symmetry_cell_setting 'triclinic'
loop_
_space_group_symop_operation_xyz
x,y,z
-x,-y,-z
loop_
_atom_site_type_symbol
_atom_site_label
_atom_site_fract_x
_atom_site_fract_y
_atom_site_fract_z
Si Si1 0.169672 0.816961 0.658931
Si Si2 0.939761 0.376141 0.125875
Si Si3 0.482245 0.885749 0.509577
Si Si4 0.378821 0.193261 0.641274
Si Si5 0.161036 0.574240 0.540332
Si Si6 0.382341 0.620220 0.127491
Si Si7 0.966282 0.855157 0.176145
O O1 0.059918 0.722117 0.485283
O O2 0.127147 0.798210 0.446511
O O3 0.439515 0.758506 0.986944
O O4 0.056142 0.981593 0.715587
O O5 0.144696 0.322444 0.444780
O O6 0.968881 0.503457 0.221171
O O7 0.712518 0.433713 0.946358
O O8 0.932359 0.244850 0.898181
O O9 0.518820 0.844277 0.383141
O O10 0.351108 0.788340 0.281721
O O11 0.340675 0.054981 0.502918
O O12 0.720484 0.853142 0.866699
O O13 0.356532 0.466471 0.619380
O O14 0.247751 0.603693 0.813351
#
# Coordination Sequence:
#
# PCOD8043582 Si02
#       7
#     2   2   2   2   2   2   2
#     4  10  19  36  65  80 116 156 186 232 291 331
#     4  11  22  37  60  88 116 145 196 235 279 339
#     4   9  16  33  57  83 110 147 187 230 281 330
#     4   9  16  32  58  84 110 142 190 235 273 333
#     4  11  21  37  58  86 115 152 187 232 288 340
#     4  11  21  36  60  86 119 149 184 241 286 331
#     4   9  20  38  60  87 110 153 194 231 281 343
#
# _framework density 20.362963000000001
#
# number of rings (size 3 to 8) (size 9 to 14) (size 15 to 20)
#    0.000    2.000    4.286    2.143    0.000    1.143 
#    0.000    0.714    3.143    2.571    0.000    0.000 
#    0.000    0.000    0.000    0.000    0.000    0.000 
#
# Total GULP energy -173574.901678 kJ/mol
# GULP energy per Si atom -12398.207263 kJ/mol
# Density = 2.031662 g / cm^3
# Si number density = 20.362963 Si / 1000 Ang^3
#
#
#
# Elastic Constant Matrix: (Units=GPa)
#
#
# Indices 1 2 3 4 5 6 
#
# 1 91.9359 48.5954 43.9912 12.5392 15.9064 16.4622
# 2 48.5954 102.0521 38.2603 33.7768 8.9085 21.2812
# 3 43.9912 38.2603 83.2849 8.5877 -10.5030 12.1711
# 4 12.5392 33.7768 8.5877 28.6979 12.6042 4.1631
# 5 15.9064 8.9085 -10.5030 12.6042 32.2327 5.0238
# 6 16.4622 21.2812 12.1711 4.1631 5.0238 18.3992
#
#
#
# Elastic Compliance Matrix: (Units=1/GPa)
#
#
# Indices 1 2 3 4 5 6 
#
# 1 0.021891 -0.008337 -0.010715 0.010610 -0.016001 -0.000887
# 2 -0.008337 0.027138 -0.000637 -0.030203 0.011296 -0.019759
# 3 -0.010715 -0.000637 0.021820 -0.007349 0.016533 -0.006961
# 4 0.010610 -0.030203 -0.007349 0.079679 -0.033792 0.021500
# 5 -0.016001 0.011296 0.016533 -0.033792 0.057150 -0.017644
# 6 -0.000887 -0.019759 -0.006961 0.021500 -0.017644 0.082555
#
#
# Mechanical properties :
#
#
# Convention : Reuss Voigt Hill
#
# Bulk Modulus (GPa) = 31.77605 59.88518 45.83062
# Shear Modulus (GPa) = 14.70144 25.62770 20.16457
#
# Velocity S-wave (km/s) = 2.68986 3.55145 3.15025
# Velocity P-wave (km/s) = 5.02850 6.80366 5.98229
#
# Compressibility (1/GPa) = 0.03147024
#
# Stress axis : x y z
#
# Youngs Moduli (GPa) = 45.68006 36.84824 45.83052
#
# Poissons Ratio (x) = 0.30720 0.49110
# Poissons Ratio (y) = 0.38083 0.02920
# Poissons Ratio (z) = 0.48948 0.02348
#
# Static dielectric constant tensor:
#      x y z
#    x 3.304180 0.145410 -0.082220 
#    y 0.145410 3.999040 0.273790 
#    z -0.082220 0.273790 3.768950 
# 
# 
# High freq. dielectric constant tensor:
#      x y z
#    x 1.755360 0.007520 -0.009600 
#    y 0.007520 1.805700 0.026450 
#    z -0.009600 0.026450 1.781650 
# 
# From -- ./inp_files/465606.got.cif
#   From: 2010.06.25/outbox.cif.g09.slc.cpg/sg2_233_cif.got.tgz:465606.got - 2010.06.27 13:26:56.
