data_PCOD8043111
_publ_section_title
;
Structure prediction by ZEFSAII (Michael W. Deem and Ramdas Pophale) SiO2 
 PCOD8043111
Probable space group: P -1
;
_chemical_formula_sum "Si O2"
_cell_formula_units_Z 16
_cell_length_a 7.013213
_cell_length_b 6.391111
_cell_length_c 28.023326
_cell_angle_alpha 53.325836
_cell_angle_beta 132.201666
_cell_angle_gamma 114.197688
_cell_volume 746.204227
_symmetry_space_group_name_H-M "P -1"
_symmetry_group_IT_number 2
_symmetry_cell_setting 'triclinic'
loop_
_space_group_symop_operation_xyz
x,y,z
-x,-y,-z
loop_
_atom_site_type_symbol
_atom_site_label
_atom_site_fract_x
_atom_site_fract_y
_atom_site_fract_z
Si Si1 0.061314 0.908888 0.727374
Si Si2 0.042689 0.409655 0.966301
Si Si3 0.372636 0.918389 0.104966
Si Si4 0.589132 0.599415 0.648781
Si Si5 0.227375 0.589429 0.393002
Si Si6 0.602594 0.906474 0.479793
Si Si7 0.591236 0.109354 0.774501
Si Si8 0.914750 0.121682 0.157795
O O1 0.056141 0.776520 0.796870
O O2 0.864091 0.749675 0.682677
O O3 0.349741 0.907909 0.754010
O O4 0.010483 0.221780 0.682670
O O5 0.150494 0.641386 0.920118
O O6 0.762775 0.322651 0.911575
O O7 0.000000 0.500000 0.000000
O O8 0.250196 0.184377 0.029176
O O9 0.321927 0.885296 0.157003
O O10 0.674496 0.917411 0.142885
O O11 0.607515 0.443785 0.623257
O O12 0.517713 0.400460 0.705911
O O13 0.359714 0.818414 0.579932
O O14 0.390540 0.736663 0.440296
O O15 0.160002 0.293970 0.442906
O O16 0.500000 0.000000 0.500000
O O17 0.826688 0.020519 0.793981
#
# Coordination Sequence:
#
# PCOD8043111 Si02
#       8
#     2   2   2   2   2   2   2   2
#     4  10  22  38  58  85 119 153 195 240 290 346
#     4  11  22  42  63  88 116 152 195 240 289 348
#     4  10  24  42  61  87 119 150 194 241 288 347
#     4  10  19  36  58  85 117 156 190 243 295 336
#     4   9  16  34  57  85 117 154 194 241 291 341
#     4   8  16  30  59  86 114 157 195 236 295 340
#     4  11  22  40  59  88 118 152 198 237 285 357
#     4  11  22  41  61  85 119 157 189 241 294 340
#
# _framework density 21.441852999999998
#
# number of rings (size 3 to 8) (size 9 to 14) (size 15 to 20)
#    0.000    2.000    2.500    1.125    0.000    1.500 
#    4.500    0.625    0.000   25.500    0.000    0.000 
#    0.000    0.000    0.000    0.000    0.000    0.000 
#
# Total GULP energy -198226.412535 kJ/mol
# GULP energy per Si atom -12389.150783 kJ/mol
# Density = 2.139305 g / cm^3
# Si number density = 21.441853 Si / 1000 Ang^3
#
#
#
# Elastic Constant Matrix: (Units=GPa)
#
#
# Indices 1 2 3 4 5 6 
#
# 1 98.2735 29.1856 20.8484 3.7322 -6.8246 7.5540
# 2 29.1856 84.1098 16.5060 17.1296 -15.7392 -2.2826
# 3 20.8484 16.5060 96.4451 -10.8110 -32.0507 4.2677
# 4 3.7322 17.1296 -10.8110 41.6380 2.9755 -1.9873
# 5 -6.8246 -15.7392 -32.0507 2.9755 16.1747 -4.4246
# 6 7.5540 -2.2826 4.2677 -1.9873 -4.4246 18.9842
#
#
#
# Elastic Compliance Matrix: (Units=1/GPa)
#
#
# Indices 1 2 3 4 5 6 
#
# 1 0.013089 -0.006772 -0.006986 0.000635 -0.017332 -0.008425
# 2 -0.006772 0.023179 0.012374 -0.008614 0.049445 0.013322
# 3 -0.006986 0.012374 0.039747 0.000054 0.092463 0.016888
# 4 0.000635 -0.008614 0.000054 0.028421 -0.013646 -0.001506
# 5 -0.017332 0.049445 0.092463 -0.013646 0.305253 0.061771
# 6 -0.008425 0.013322 0.016888 -0.001506 0.061771 0.068072
#
#
# Mechanical properties :
#
#
# Convention : Reuss Voigt Hill
#
# Bulk Modulus (GPa) = 13.65258 45.76760 29.71009
# Shear Modulus (GPa) = 9.90207 29.51196 19.70702
#
# Velocity S-wave (km/s) = 2.15131 3.71397 3.03494
# Velocity P-wave (km/s) = 3.54287 6.30736 5.11540
#
# Compressibility (1/GPa) = 0.07324623
#
# Stress axis : x y z
#
# Youngs Moduli (GPa) = 76.40126 43.14218 25.15893
#
# Poissons Ratio (x) = 0.29216 0.17576
# Poissons Ratio (y) = 0.51739 -0.31131
# Poissons Ratio (z) = 0.53374 -0.53382
#
# Static dielectric constant tensor:
#      x y z
#    x 3.455500 -0.027560 -0.097010 
#    y -0.027560 3.915690 -0.314300 
#    z -0.097010 -0.314300 4.669020 
# 
# 
# High freq. dielectric constant tensor:
#      x y z
#    x 1.807160 -0.006670 -0.014200 
#    y -0.006670 1.836480 -0.007180 
#    z -0.014200 -0.007180 1.875240 
# 
# From -- ./inp_files/13286.got.cif
#   From: 2010.06.25/outbox.cif.g09.slc.cpg/sg2_7_cif.got.tgz:13286.got - 2010.06.27 13:26:56.
