data_PCOD8043793
_publ_section_title
;
Structure prediction by ZEFSAII (Michael W. Deem and Ramdas Pophale) SiO2 
 PCOD8043793
Probable space group: P -1
;
_chemical_formula_sum "Si O2"
_cell_formula_units_Z 16
_cell_length_a 14.062980
_cell_length_b 11.883393
_cell_length_c 9.033158
_cell_angle_alpha 53.435031
_cell_angle_beta 103.712618
_cell_angle_gamma 131.492801
_cell_volume 876.457239
_symmetry_space_group_name_H-M "P -1"
_symmetry_group_IT_number 2
_symmetry_cell_setting 'triclinic'
loop_
_space_group_symop_operation_xyz
x,y,z
-x,-y,-z
loop_
_atom_site_type_symbol
_atom_site_label
_atom_site_fract_x
_atom_site_fract_y
_atom_site_fract_z
Si Si1 0.549961 0.351013 0.692927
Si Si2 0.320799 0.241397 0.535700
Si Si3 0.712862 0.942556 0.051545
Si Si4 0.049755 0.909396 0.163992
Si Si5 0.106137 0.514085 0.613855
Si Si6 0.988326 0.413041 0.217439
Si Si7 0.257419 0.704210 0.249086
Si Si8 0.912471 0.033741 0.520200
O O1 0.465762 0.305941 0.545962
O O2 0.661299 0.574538 0.580782
O O3 0.616232 0.263327 0.778042
O O4 0.443143 0.246683 0.871599
O O5 0.242151 0.145906 0.428195
O O6 0.233753 0.088730 0.757249
O O7 0.800564 0.981012 0.914889
O O8 0.721609 0.117569 0.934087
O O9 0.053506 0.931363 0.322812
O O10 0.945074 0.693972 0.238580
O O11 0.000000 0.000000 0.000000
O O12 0.241094 0.663731 0.453160
O O13 0.000000 0.500000 0.500000
O O14 0.114133 0.590736 0.719829
O O15 0.127824 0.524943 0.260392
O O16 0.934805 0.208165 0.324734
O O17 0.000000 0.500000 0.000000
O O18 0.000000 0.000000 0.500000
#
# Coordination Sequence:
#
# PCOD8043793 Si02
#       8
#     2   2   2   2   2   2   2   2
#     4   9  21  37  62  81 114 165 201 239 287 348
#     4   9  21  38  57  81 120 150 205 240 290 341
#     4  10  19  37  59  85 113 154 205 237 284 358
#     4  12  24  37  62  88 122 160 196 245 301 362
#     4  10  20  39  57  86 118 159 189 240 301 352
#     4  11  22  36  60  89 126 151 187 252 303 350
#     4  11  18  36  63  85 117 154 201 233 292 359
#     4  12  23  37  58  91 121 153 196 250 305 345
#
# _framework density 18.255313000000001
#
# number of rings (size 3 to 8) (size 9 to 14) (size 15 to 20)
#    0.750    0.750    5.000    2.625    3.500    0.000 
#    0.000    0.625    2.750    1.500    0.000    0.000 
#    0.000    0.000    0.000    0.000    0.000    0.000 
#
# Total GULP energy -198220.275653 kJ/mol
# GULP energy per Si atom -12388.767228 kJ/mol
# Density = 1.821376 g / cm^3
# Si number density = 18.255313 Si / 1000 Ang^3
#
#
#
# Elastic Constant Matrix: (Units=GPa)
#
#
# Indices 1 2 3 4 5 6 
#
# 1 99.4839 35.4523 37.0240 -8.3556 1.3828 -13.2988
# 2 35.4523 95.3302 35.9240 -13.2610 8.0689 -10.9014
# 3 37.0240 35.9240 99.9245 -19.5768 -1.9142 -15.9597
# 4 -8.3556 -13.2610 -19.5768 34.7616 -6.4079 2.8932
# 5 1.3828 8.0689 -1.9142 -6.4079 31.6205 -2.1715
# 6 -13.2988 -10.9014 -15.9597 2.8932 -2.1715 27.5900
#
#
#
# Elastic Compliance Matrix: (Units=1/GPa)
#
#
# Indices 1 2 3 4 5 6 
#
# 1 0.012765 -0.003273 -0.003073 -0.000119 0.000281 0.003117
# 2 -0.003273 0.013578 -0.003092 0.001969 -0.003003 0.001556
# 3 -0.003073 -0.003092 0.014414 0.006400 0.003453 0.005235
# 4 -0.000119 0.001969 0.006400 0.034257 0.006927 0.001376
# 5 0.000281 -0.003003 0.003453 0.006927 0.034192 0.002911
# 6 0.003117 0.001556 0.005235 0.001376 0.002911 0.041475
#
#
# Mechanical properties :
#
#
# Convention : Reuss Voigt Hill
#
# Bulk Modulus (GPa) = 45.70227 56.83768 51.26998
# Shear Modulus (GPa) = 28.27250 31.21697 29.74474
#
# Velocity S-wave (km/s) = 3.93966 4.13973 4.04093
# Velocity P-wave (km/s) = 6.76638 7.35202 7.06527
#
# Compressibility (1/GPa) = 0.02188075
#
# Stress axis : x y z
#
# Youngs Moduli (GPa) = 78.34162 73.64728 69.37681
#
# Poissons Ratio (x) = 0.24104 0.21319
# Poissons Ratio (y) = 0.25640 0.21453
# Poissons Ratio (z) = 0.24074 0.22773
#
# Static dielectric constant tensor:
#      x y z
#    x 11.457230 -5.628030 -5.410100 
#    y -5.628030 6.979180 3.530780 
#    z -5.410100 3.530780 7.074610 
# 
# 
# High freq. dielectric constant tensor:
#      x y z
#    x 1.702790 -0.008790 0.008940 
#    y -0.008790 1.686730 -0.023930 
#    z 0.008940 -0.023930 1.715490 
# 
# From -- ./inp_files/217315.got.cif
#   From: 2010.06.25/outbox.cif.g09.slc.cpg/sg2_109_cif.got.tgz:217315.got - 2010.06.27 13:26:56.
