data_PCOD8043367
_publ_section_title
;
Structure prediction by ZEFSAII (Michael W. Deem and Ramdas Pophale) SiO2 
 PCOD8043367
Probable space group: P -1
;
_chemical_formula_sum "Si O2"
_cell_formula_units_Z 16
_cell_length_a 8.962443
_cell_length_b 19.616432
_cell_length_c 12.485918
_cell_angle_alpha 50.995590
_cell_angle_beta 131.384386
_cell_angle_gamma 151.903072
_cell_volume 769.030907
_symmetry_space_group_name_H-M "P -1"
_symmetry_group_IT_number 2
_symmetry_cell_setting 'triclinic'
loop_
_space_group_symop_operation_xyz
x,y,z
-x,-y,-z
loop_
_atom_site_type_symbol
_atom_site_label
_atom_site_fract_x
_atom_site_fract_y
_atom_site_fract_z
Si Si1 0.013454 0.088319 0.996457
Si Si2 0.261510 0.826684 0.267618
Si Si3 0.221452 0.801420 0.624242
Si Si4 0.236673 0.997122 0.484752
Si Si5 0.226585 0.624784 0.894594
Si Si6 0.345369 0.122457 0.769816
Si Si7 0.749540 0.593548 0.408335
Si Si8 0.316812 0.580455 0.309820
O O1 0.382920 0.257995 0.023937
O O2 0.835528 0.002770 0.107372
O O3 0.798820 0.090330 0.839634
O O4 0.000000 0.000000 0.000000
O O5 0.356093 0.825936 0.195182
O O6 0.926451 0.659348 0.312280
O O7 0.542705 0.897433 0.414714
O O8 0.132859 0.859518 0.585069
O O9 0.198245 0.720567 0.786311
O O10 0.979437 0.704523 0.505583
O O11 0.590432 0.930947 0.621080
O O12 0.911919 0.942904 0.381204
O O13 0.067378 0.536894 0.791404
O O14 0.000000 0.500000 0.000000
O O15 0.483407 0.258694 0.757416
O O16 0.450506 0.558623 0.303708
O O17 0.649362 0.456707 0.521592
#
# Coordination Sequence:
#
# PCOD8043367 Si02
#       8
#     2   2   2   2   2   2   2   2
#     4  12  25  43  65  90 121 162 210 256 303 363
#     4  11  24  38  62  92 126 164 203 251 310 370
#     4   9  17  32  61  90 115 152 203 259 294 346
#     4  10  19  36  61  92 122 155 202 255 305 354
#     4  11  21  36  60  90 122 153 202 255 306 354
#     4  12  23  41  62  92 127 162 202 252 313 368
#     4   9  18  37  60  87 121 153 205 250 303 350
#     4  10  21  37  63  90 118 162 201 256 298 361
#
# _framework density 20.805406999999999
#
# number of rings (size 3 to 8) (size 9 to 14) (size 15 to 20)
#    0.000    1.500    2.500    3.750    1.750    0.500 
#    0.000    0.625    0.000    0.000    0.000    0.000 
#    0.000    0.000    0.000    0.000    0.000    0.000 
#
# Total GULP energy -198280.634746 kJ/mol
# GULP energy per Si atom -12392.539672 kJ/mol
# Density = 2.075805 g / cm^3
# Si number density = 20.805407 Si / 1000 Ang^3
#
#
#
# Elastic Constant Matrix: (Units=GPa)
#
#
# Indices 1 2 3 4 5 6 
#
# 1 81.9684 21.8062 35.5768 -13.8088 -6.0711 23.2726
# 2 21.8062 100.3577 40.3848 -14.3899 -1.5882 16.3027
# 3 35.5768 40.3848 97.9515 -21.6839 0.8667 10.6439
# 4 -13.8088 -14.3899 -21.6839 47.9990 6.0092 -1.9085
# 5 -6.0711 -1.5882 0.8667 6.0092 25.0909 -5.6301
# 6 23.2726 16.3027 10.6439 -1.9085 -5.6301 23.6437
#
#
#
# Elastic Compliance Matrix: (Units=1/GPa)
#
#
# Indices 1 2 3 4 5 6 
#
# 1 0.019547 0.001005 -0.004979 0.002939 0.000364 -0.017367
# 2 0.001005 0.013126 -0.004433 0.002034 -0.001086 -0.008139
# 3 -0.004979 -0.004433 0.014705 0.004271 -0.002788 0.001019
# 4 0.002939 0.002034 0.004271 0.024809 -0.006545 -0.005774
# 5 0.000364 -0.001086 -0.002788 -0.006545 0.044148 0.011630
# 6 -0.017367 -0.008139 0.001019 -0.005774 0.011630 0.066846
#
#
# Mechanical properties :
#
#
# Convention : Reuss Voigt Hill
#
# Bulk Modulus (GPa) = 32.71823 52.86813 42.79318
# Shear Modulus (GPa) = 23.78897 31.51402 27.65149
#
# Velocity S-wave (km/s) = 3.38509 3.89614 3.64957
# Velocity P-wave (km/s) = 5.57122 6.76061 6.19452
#
# Compressibility (1/GPa) = 0.03056400
#
# Stress axis : x y z
#
# Youngs Moduli (GPa) = 51.15957 76.18276 68.00589
#
# Poissons Ratio (x) = -0.07656 0.33861
# Poissons Ratio (y) = -0.05141 0.30144
# Poissons Ratio (z) = 0.25473 0.33768
#
# Static dielectric constant tensor:
#      x y z
#    x 3.374860 0.316600 0.161870 
#    y 0.316600 4.100930 -0.106830 
#    z 0.161870 -0.106830 3.939510 
# 
# 
# High freq. dielectric constant tensor:
#      x y z
#    x 1.766060 0.017530 0.015260 
#    y 0.017530 1.825810 -0.009570 
#    z 0.015260 -0.009570 1.824870 
# 
# From -- ./inp_files/404793.got.cif
#   From: 2010.06.25/outbox.cif.g09.slc.cpg/sg2_203_cif.got.tgz:404793.got - 2010.06.27 13:26:56.
