data_PCOD8043092
_publ_section_title
;
Structure prediction by ZEFSAII (Michael W. Deem and Ramdas Pophale) SiO2 
 PCOD8043092
Probable space group: P -1
;
_chemical_formula_sum "Si O2"
_cell_formula_units_Z 14
_cell_length_a 14.571899
_cell_length_b 9.710272
_cell_length_c 8.723619
_cell_angle_alpha 120.853556
_cell_angle_beta 131.101746
_cell_angle_gamma 50.702237
_cell_volume 709.889077
_symmetry_space_group_name_H-M "P -1"
_symmetry_group_IT_number 2
_symmetry_cell_setting 'triclinic'
loop_
_space_group_symop_operation_xyz
x,y,z
-x,-y,-z
loop_
_atom_site_type_symbol
_atom_site_label
_atom_site_fract_x
_atom_site_fract_y
_atom_site_fract_z
Si Si1 0.880960 0.259423 0.346449
Si Si2 0.586716 0.101946 0.619315
Si Si3 0.407036 0.428593 0.769930
Si Si4 0.993657 0.677536 0.775299
Si Si5 0.119775 0.283865 0.790920
Si Si6 0.281824 0.192748 0.627504
Si Si7 0.843597 0.939365 0.013750
O O1 0.735426 0.403592 0.337613
O O2 0.899980 0.319129 0.230383
O O3 0.999280 0.239011 0.579537
O O4 0.889467 0.062957 0.234213
O O5 0.487910 0.318793 0.641526
O O6 0.500000 0.000000 0.500000
O O7 0.658834 0.015472 0.486671
O O8 0.695984 0.062473 0.851208
O O9 0.382015 0.283997 0.763826
O O10 0.500000 0.500000 0.000000
O O11 0.861070 0.682183 0.546924
O O12 0.951818 0.842382 0.941084
O O13 0.068058 0.497096 0.853460
O O14 0.252152 0.186355 0.770430
O O15 0.164942 0.210290 0.969744
#
# Coordination Sequence:
#
# PCOD8043092 Si02
#       7
#     2   2   2   2   2   2   2
#     4  11  20  36  58  83 111 144 183 223 276 326
#     4   9  20  35  55  79 103 148 188 219 253 325
#     4  11  18  33  59  79 104 141 196 221 252 320
#     4  10  19  36  58  81 109 146 185 222 268 332
#     4  11  20  36  58  84 114 141 174 233 286 320
#     4   9  18  36  57  81 104 144 190 221 263 327
#     4  11  22  34  55  90 113 136 179 236 282 313
#
# _framework density 19.721391000000001
#
# number of rings (size 3 to 8) (size 9 to 14) (size 15 to 20)
#    0.000    1.714    4.286    2.143    0.000    0.000 
#    0.000    2.857    0.000    0.857    0.000    0.000 
#    0.000    0.000    0.000    0.000    0.000    0.000 
#
# Total GULP energy -173553.148618 kJ/mol
# GULP energy per Si atom -12396.653473 kJ/mol
# Density = 1.967650 g / cm^3
# Si number density = 19.721391 Si / 1000 Ang^3
#
#
#
# Elastic Constant Matrix: (Units=GPa)
#
#
# Indices 1 2 3 4 5 6 
#
# 1 71.9685 38.9769 17.9375 -1.2991 -1.4380 -20.1921
# 2 38.9769 91.1574 16.8194 19.0677 -7.5484 -17.9855
# 3 17.9375 16.8194 43.3268 14.0034 5.0308 -8.5935
# 4 -1.2991 19.0677 14.0034 24.0147 2.8048 -6.7792
# 5 -1.4380 -7.5484 5.0308 2.8048 28.8924 4.8992
# 6 -20.1921 -17.9855 -8.5935 -6.7792 4.8992 35.6922
#
#
#
# Elastic Compliance Matrix: (Units=1/GPa)
#
#
# Indices 1 2 3 4 5 6 
#
# 1 0.026035 -0.011640 -0.010178 0.020053 -0.003740 0.010735
# 2 -0.011640 0.019820 0.002339 -0.018549 0.006058 -0.000389
# 3 -0.010178 0.002339 0.033819 -0.021717 -0.003666 -0.000058
# 4 0.020053 -0.018549 -0.021717 0.074669 -0.009391 0.012240
# 5 -0.003740 0.006058 -0.003666 -0.009391 0.038753 -0.007049
# 6 0.010735 -0.000389 -0.000058 0.012240 -0.007049 0.037173
#
#
# Mechanical properties :
#
#
# Convention : Reuss Voigt Hill
#
# Bulk Modulus (GPa) = 24.55967 39.32448 31.94208
# Shear Modulus (GPa) = 17.68041 26.56778 22.12410
#
# Velocity S-wave (km/s) = 2.99742 3.67434 3.35301
# Velocity P-wave (km/s) = 4.94568 6.16315 5.58767
#
# Compressibility (1/GPa) = 0.04071716
#
# Stress axis : x y z
#
# Youngs Moduli (GPa) = 38.40988 50.45307 29.56923
#
# Poissons Ratio (x) = 0.58729 0.30094
# Poissons Ratio (y) = 0.44711 -0.06917
# Poissons Ratio (z) = 0.39092 -0.11803
#
# Static dielectric constant tensor:
#      x y z
#    x 3.737490 -0.479980 -0.123080 
#    y -0.479980 3.782180 0.420410 
#    z -0.123080 0.420410 3.430840 
# 
# 
# High freq. dielectric constant tensor:
#      x y z
#    x 1.764100 -0.029220 0.008830 
#    y -0.029220 1.764660 0.029780 
#    z 0.008830 0.029780 1.750880 
# 
# From -- ./inp_files/157887.got.cif
#   From: 2010.06.25/outbox.cif.g09.slc.cpg/sg2_79_cif.got.tgz:157887.got - 2010.06.27 13:26:56.
