data_PCOD8043584
_publ_section_title
;
Structure prediction by ZEFSAII (Michael W. Deem and Ramdas Pophale) SiO2 
 PCOD8043584
Probable space group: P -1
;
_chemical_formula_sum "Si O2"
_cell_formula_units_Z 14
_cell_length_a 10.985242
_cell_length_b 9.459252
_cell_length_c 17.195694
_cell_angle_alpha 114.061268
_cell_angle_beta 32.559980
_cell_angle_gamma 89.394919
_cell_volume 608.682963
_symmetry_space_group_name_H-M "P -1"
_symmetry_group_IT_number 2
_symmetry_cell_setting 'triclinic'
loop_
_space_group_symop_operation_xyz
x,y,z
-x,-y,-z
loop_
_atom_site_type_symbol
_atom_site_label
_atom_site_fract_x
_atom_site_fract_y
_atom_site_fract_z
Si Si1 0.672233 0.848498 0.530292
Si Si2 0.934182 0.925194 0.169090
Si Si3 0.623470 0.464974 0.256836
Si Si4 0.137516 0.117570 0.013396
Si Si5 0.694703 0.876906 0.762923
Si Si6 0.907896 0.037097 0.375808
Si Si7 0.066205 0.484359 0.570180
O O1 0.932809 0.587887 0.358840
O O2 0.459565 0.908591 0.581773
O O3 0.867529 0.909382 0.424171
O O4 0.413405 0.990460 0.771110
O O5 0.060235 0.913115 0.182920
O O6 0.014397 0.006212 0.074478
O O7 0.131284 0.675041 0.980069
O O8 0.443380 0.715719 0.398693
O O9 0.370639 0.448725 0.388641
O O10 0.824662 0.370550 0.209522
O O11 0.314791 0.090334 0.991422
O O12 0.899668 0.677475 0.543821
O O13 0.855217 0.964936 0.706560
O O14 0.736829 0.749434 0.790327
#
# Coordination Sequence:
#
# PCOD8043584 Si02
#       7
#     2   2   2   2   2   2   2
#     4  10  19  38  61  86 116 159 192 244 289 346
#     4  11  20  38  63  87 116 154 198 246 285 340
#     4  10  19  40  63  86 113 158 199 241 282 349
#     4  10  19  36  65  83 113 156 200 238 287 339
#     4   9  19  34  57  92 113 154 193 242 289 354
#     4  11  25  35  60  92 123 149 193 239 305 347
#     4   9  16  35  64  83 111 161 201 227 291 351
#
# _framework density 23.000481000000001
#
# number of rings (size 3 to 8) (size 9 to 14) (size 15 to 20)
#    0.000    2.000    4.286    1.286    0.000    5.714 
#    0.000    0.000    3.143    0.857    0.000    0.000 
#    0.000    0.000    0.000    0.000    0.000    0.000 
#
# Total GULP energy -173459.100711 kJ/mol
# GULP energy per Si atom -12389.935765 kJ/mol
# Density = 2.294813 g / cm^3
# Si number density = 23.000481 Si / 1000 Ang^3
#
#
#
# Elastic Constant Matrix: (Units=GPa)
#
#
# Indices 1 2 3 4 5 6 
#
# 1 124.4256 38.6032 29.9039 3.2822 -31.1704 -2.5789
# 2 38.6032 111.7983 25.2330 -7.1670 -10.1141 -8.7188
# 3 29.9039 25.2330 36.9116 6.8855 -12.4040 -8.2819
# 4 3.2822 -7.1670 6.8855 29.5196 -10.8680 -10.6338
# 5 -31.1704 -10.1141 -12.4040 -10.8680 37.6059 1.5689
# 6 -2.5789 -8.7188 -8.2819 -10.6338 1.5689 28.4521
#
#
#
# Elastic Compliance Matrix: (Units=1/GPa)
#
#
# Indices 1 2 3 4 5 6 
#
# 1 0.012137 -0.001927 -0.006427 0.002341 0.008137 -0.000935
# 2 -0.001927 0.011906 -0.006512 0.006468 0.001162 0.003932
# 3 -0.006427 -0.006512 0.040884 -0.006421 0.004272 0.006687
# 4 0.002341 0.006468 -0.006421 0.048500 0.014843 0.017633
# 5 0.008137 0.001162 0.004272 0.014843 0.039108 0.005728
# 6 -0.000935 0.003932 0.006687 0.017633 0.005728 0.044488
#
#
# Mechanical properties :
#
#
# Convention : Reuss Voigt Hill
#
# Bulk Modulus (GPa) = 28.41326 51.17953 39.79640
# Shear Modulus (GPa) = 20.96546 31.07522 26.02034
#
# Velocity S-wave (km/s) = 3.02242 3.67968 3.36712
# Velocity P-wave (km/s) = 4.95582 6.35241 5.69708
#
# Compressibility (1/GPa) = 0.03519483
#
# Stress axis : x y z
#
# Youngs Moduli (GPa) = 82.39413 83.99018 24.45927
#
# Poissons Ratio (x) = 0.16183 0.15721
# Poissons Ratio (y) = 0.15876 0.15928
# Poissons Ratio (z) = 0.52959 0.54694
#
# Static dielectric constant tensor:
#      x y z
#    x 4.796950 -0.501180 -0.548070 
#    y -0.501180 4.167650 0.327430 
#    z -0.548070 0.327430 3.874290 
# 
# 
# High freq. dielectric constant tensor:
#      x y z
#    x 1.925830 -0.010640 -0.021840 
#    y -0.010640 1.891390 0.009670 
#    z -0.021840 0.009670 1.873670 
# 
# From -- ./inp_files/206999.got.cif
#   From: 2010.06.25/outbox.cif.g09.slc.cpg/sg2_104_cif.got.tgz:206999.got - 2010.06.27 13:26:56.
