data_PCOD8043196
_publ_section_title
;
Structure prediction by ZEFSAII (Michael W. Deem and Ramdas Pophale) SiO2 
 PCOD8043196
Probable space group: P -1
;
_chemical_formula_sum "Si O2"
_cell_formula_units_Z 14
_cell_length_a 16.718240
_cell_length_b 20.332388
_cell_length_c 11.945663
_cell_angle_alpha 141.930555
_cell_angle_beta 150.731868
_cell_angle_gamma 19.533407
_cell_volume 648.489370
_symmetry_space_group_name_H-M "P -1"
_symmetry_group_IT_number 2
_symmetry_cell_setting 'triclinic'
loop_
_space_group_symop_operation_xyz
x,y,z
-x,-y,-z
loop_
_atom_site_type_symbol
_atom_site_label
_atom_site_fract_x
_atom_site_fract_y
_atom_site_fract_z
Si Si1 0.349769 0.581175 0.643433
Si Si2 0.028442 0.297567 0.062292
Si Si3 0.841362 0.319505 0.220525
Si Si4 0.784454 0.977809 0.916213
Si Si5 0.259432 0.817644 0.442945
Si Si6 0.969575 0.848688 0.324734
Si Si7 0.916487 0.580393 0.381678
O O1 0.667339 0.470772 0.872526
O O2 0.155896 0.725727 0.709064
O O3 0.433642 0.408622 0.533441
O O4 0.145768 0.702613 0.448027
O O5 0.157837 0.178292 0.942825
O O6 0.062909 0.406017 0.248683
O O7 0.221934 0.134751 0.181065
O O8 0.067104 0.120605 0.156934
O O9 0.936057 0.389948 0.430028
O O10 0.500000 0.500000 0.000000
O O11 0.449443 0.211933 0.804598
O O12 0.974277 0.956645 0.195350
O O13 0.199005 0.793577 0.456345
O O14 0.300561 0.921942 0.653014
O O15 0.000000 0.500000 0.500000
#
# Coordination Sequence:
#
# PCOD8043196 Si02
#       7
#     2   2   2   2   2   2   2
#     4  10  19  36  59  90 126 152 196 253 296 345
#     4  10  20  38  63  86 121 157 205 245 288 363
#     4  12  22  42  61  90 127 153 196 258 303 352
#     4  10  21  39  63  88 121 156 202 244 300 355
#     4   9  17  33  62  89 118 156 202 243 288 357
#     4   9  18  33  58  91 119 157 201 244 288 352
#     4  12  24  40  64  88 118 164 206 238 302 367
#
# _framework density 21.588636999999999
#
# number of rings (size 3 to 8) (size 9 to 14) (size 15 to 20)
#    0.000    2.000    4.286    3.000    0.000    2.286 
#    2.571    2.857    0.000    4.286    0.000    0.000 
#    0.000    0.000    0.000    0.000    0.000    0.000 
#
# Total GULP energy -173513.650716 kJ/mol
# GULP energy per Si atom -12393.832194 kJ/mol
# Density = 2.153950 g / cm^3
# Si number density = 21.588637 Si / 1000 Ang^3
#
#
#
# Elastic Constant Matrix: (Units=GPa)
#
#
# Indices 1 2 3 4 5 6 
#
# 1 62.6798 14.6964 44.3229 -1.3124 -30.4435 -4.1319
# 2 14.6964 115.4283 58.2321 15.0705 -17.3180 -1.1146
# 3 44.3229 58.2321 88.3481 19.9599 -26.1980 0.0622
# 4 -1.3124 15.0705 19.9599 45.9533 9.0878 -11.6235
# 5 -30.4435 -17.3180 -26.1980 9.0878 32.8795 2.3206
# 6 -4.1319 -1.1146 0.0622 -11.6235 2.3206 19.4251
#
#
#
# Elastic Compliance Matrix: (Units=1/GPa)
#
#
# Indices 1 2 3 4 5 6 
#
# 1 0.039821 0.007544 -0.018751 0.004211 0.024133 0.008600
# 2 0.007544 0.014430 -0.011865 0.000157 0.004948 0.001974
# 3 -0.018751 -0.011865 0.036557 -0.019448 0.012154 -0.017875
# 4 0.004211 0.000157 -0.019448 0.042797 -0.025433 0.029614
# 5 0.024133 0.004948 0.012154 -0.025433 0.073392 -0.018608
# 6 0.008600 0.001974 -0.017875 0.029614 -0.018608 0.073423
#
#
# Mechanical properties :
#
#
# Convention : Reuss Voigt Hill
#
# Bulk Modulus (GPa) = 22.39011 55.66212 39.02611
# Shear Modulus (GPa) = 14.64333 29.59857 22.12095
#
# Velocity S-wave (km/s) = 2.60722 3.70675 3.20450
# Velocity P-wave (km/s) = 4.41104 6.64523 5.63987
#
# Compressibility (1/GPa) = 0.04466259
#
# Stress axis : x y z
#
# Youngs Moduli (GPa) = 25.11231 69.30211 27.35475
#
# Poissons Ratio (x) = -0.52279 0.51293
# Poissons Ratio (y) = -0.18944 0.32456
# Poissons Ratio (z) = 0.47088 0.82227
#
# Static dielectric constant tensor:
#      x y z
#    x 3.802640 -0.108110 -0.356750 
#    y -0.108110 4.368080 0.460390 
#    z -0.356750 0.460390 3.941240 
# 
# 
# High freq. dielectric constant tensor:
#      x y z
#    x 1.821160 0.004250 -0.037610 
#    y 0.004250 1.859820 0.020780 
#    z -0.037610 0.020780 1.835320 
# 
# From -- ./inp_files/467140.got.cif
#   From: 2010.06.25/outbox.cif.g09.slc.cpg/sg2_234_cif.got.tgz:467140.got - 2010.06.27 13:26:56.
