data_PCOD8043031
_publ_section_title
;
Structure prediction by ZEFSAII (Michael W. Deem and Ramdas Pophale) SiO2 
 PCOD8043031
Probable space group: P -1
;
_chemical_formula_sum "Si O2"
_cell_formula_units_Z 14
_cell_length_a 7.918013
_cell_length_b 9.848688
_cell_length_c 13.317074
_cell_angle_alpha 49.464794
_cell_angle_beta 108.918848
_cell_angle_gamma 77.675974
_cell_volume 602.841825
_symmetry_space_group_name_H-M "P -1"
_symmetry_group_IT_number 2
_symmetry_cell_setting 'triclinic'
loop_
_space_group_symop_operation_xyz
x,y,z
-x,-y,-z
loop_
_atom_site_type_symbol
_atom_site_label
_atom_site_fract_x
_atom_site_fract_y
_atom_site_fract_z
Si Si1 0.667490 0.737758 0.149585
Si Si2 0.074265 0.051440 0.645709
Si Si3 0.315675 0.710362 0.161459
Si Si4 0.641200 0.680829 0.746349
Si Si5 0.157494 0.119964 0.418753
Si Si6 0.987606 0.195238 0.771230
Si Si7 0.445809 0.326546 0.052531
O O1 0.564640 0.645212 0.247238
O O2 0.909015 0.666554 0.262427
O O3 0.692943 0.635225 0.092402
O O4 0.500000 0.000000 0.000000
O O5 0.323623 0.913682 0.800278
O O6 0.011873 0.886049 0.682341
O O7 0.051440 0.193872 0.475011
O O8 0.926631 0.203109 0.638373
O O9 0.314017 0.548307 0.162520
O O10 0.241299 0.688756 0.267547
O O11 0.153169 0.949803 0.965176
O O12 0.808884 0.704393 0.704517
O O13 0.686184 0.676999 0.875864
O O14 0.386487 0.876329 0.580476
O O15 0.500000 0.500000 0.000000
#
# Coordination Sequence:
#
# PCOD8043031 Si02
#       7
#     2   2   2   2   2   2   2
#     4  10  19  36  56  91 121 153 181 230 315 356
#     4  10  19  40  57  81 116 152 202 242 288 348
#     4  10  20  37  59  89 122 144 195 244 296 362
#     4  10  20  39  57  86 116 149 203 244 288 345
#     4   9  22  37  61  78 112 162 197 248 284 334
#     4  10  21  37  61  89 118 157 186 240 310 361
#     4  11  19  34  62  89 115 150 189 246 305 350
#
# _framework density 23.223336
#
# number of rings (size 3 to 8) (size 9 to 14) (size 15 to 20)
#    0.000    2.000    4.286    0.000    0.000    4.571 
#    5.143    3.571    0.000    0.000    0.000    0.000 
#    0.000    0.000    0.000    0.000    0.000    0.000 
#
# Total GULP energy -173555.514286 kJ/mol
# GULP energy per Si atom -12396.822449 kJ/mol
# Density = 2.317048 g / cm^3
# Si number density = 23.223336 Si / 1000 Ang^3
#
#
#
# Elastic Constant Matrix: (Units=GPa)
#
#
# Indices 1 2 3 4 5 6 
#
# 1 170.1040 55.7922 36.8729 31.8789 -45.9865 -2.8256
# 2 55.7922 125.1069 22.0186 42.0382 -22.2208 -4.0271
# 3 36.8729 22.0186 38.4145 25.5064 -12.6513 -3.3309
# 4 31.8789 42.0382 25.5064 41.1396 -4.3509 -10.5305
# 5 -45.9865 -22.2208 -12.6513 -4.3509 28.8704 7.3152
# 6 -2.8256 -4.0271 -3.3309 -10.5305 7.3152 40.8193
#
#
#
# Elastic Compliance Matrix: (Units=1/GPa)
#
#
# Indices 1 2 3 4 5 6 
#
# 1 0.013390 0.001696 0.001065 -0.011885 0.022823 -0.005975
# 2 0.001696 0.016788 0.010825 -0.025053 0.018390 -0.007102
# 3 0.001065 0.010825 0.061539 -0.049795 0.032668 -0.012537
# 4 -0.011885 -0.025053 -0.049795 0.090950 -0.052806 0.025569
# 5 0.022823 0.018390 0.032668 -0.052806 0.097863 -0.025101
# 6 -0.005975 -0.007102 -0.012537 0.025569 -0.025101 0.033455
#
#
# Mechanical properties :
#
#
# Convention : Reuss Voigt Hill
#
# Bulk Modulus (GPa) = 8.41120 62.55475 35.48297
# Shear Modulus (GPa) = 15.31664 36.76197 26.03931
#
# Velocity S-wave (km/s) = 2.57093 3.98298 3.35215
# Velocity P-wave (km/s) = 3.52741 6.93879 5.50406
#
# Compressibility (1/GPa) = 0.11888906
#
# Stress axis : x y z
#
# Youngs Moduli (GPa) = 74.68455 59.56781 16.24979
#
# Poissons Ratio (x) = -0.10104 -0.01731
# Poissons Ratio (y) = -0.12668 -0.17590
# Poissons Ratio (z) = -0.07955 -0.64482
#
# Static dielectric constant tensor:
#      x y z
#    x 4.688120 -0.163820 -0.339540 
#    y -0.163820 4.143690 0.172920 
#    z -0.339540 0.172920 3.816610 
# 
# 
# High freq. dielectric constant tensor:
#      x y z
#    x 1.926870 -0.008290 -0.019390 
#    y -0.008290 1.922460 0.006430 
#    z -0.019390 0.006430 1.886390 
# 
# From -- ./inp_files/159944.got.cif
#   From: 2010.06.25/outbox.cif.g09.slc.cpg/sg2_80_cif.got.tgz:159944.got - 2010.06.27 13:26:56.
