data_PCOD8043687
_publ_section_title
;
Structure prediction by ZEFSAII (Michael W. Deem and Ramdas Pophale) SiO2 
 PCOD8043687
Probable space group: P -1
;
_chemical_formula_sum "Si O2"
_cell_formula_units_Z 16
_cell_length_a 7.541109
_cell_length_b 18.498472
_cell_length_c 19.278199
_cell_angle_alpha 158.787056
_cell_angle_beta 47.606334
_cell_angle_gamma 132.240777
_cell_volume 708.969120
_symmetry_space_group_name_H-M "P -1"
_symmetry_group_IT_number 2
_symmetry_cell_setting 'triclinic'
loop_
_space_group_symop_operation_xyz
x,y,z
-x,-y,-z
loop_
_atom_site_type_symbol
_atom_site_label
_atom_site_fract_x
_atom_site_fract_y
_atom_site_fract_z
Si Si1 0.398596 0.139567 0.570514
Si Si2 0.311498 0.133108 0.364191
Si Si3 0.310780 0.685818 0.018783
Si Si4 0.823695 0.217487 0.618607
Si Si5 0.126886 0.488951 0.532660
Si Si6 0.603513 0.395041 0.620438
Si Si7 0.768410 0.503833 0.994490
Si Si8 0.464415 0.189952 0.225301
O O1 0.664844 0.110597 0.501625
O O2 0.433156 0.233101 0.569183
O O3 0.210305 0.929723 0.435640
O O4 0.299100 0.279237 0.779471
O O5 0.552467 0.293870 0.466772
O O6 0.305007 0.108000 0.260878
O O7 0.098975 0.251975 0.551638
O O8 0.294152 0.914673 0.208527
O O9 0.375437 0.663637 0.063397
O O10 0.513136 0.610747 0.848008
O O11 0.062307 0.525198 0.936873
O O12 0.722592 0.422005 0.853820
O O13 0.313051 0.327217 0.341056
O O14 0.274814 0.694211 0.711386
O O15 0.000000 0.500000 0.500000
O O16 0.891517 0.422387 0.585087
O O17 0.500000 0.000000 0.000000
#
# Coordination Sequence:
#
# PCOD8043687 Si02
#       8
#     2   2   2   2   2   2   2   2
#     4  10  22  37  56  91 130 174 222 272 333 391
#     4  12  23  40  66  98 130 176 225 282 345 406
#     4  10  22  34  61  95 128 170 223 270 331 398
#     4  11  21  36  60  87 131 174 219 278 329 399
#     4  11  25  50  77 103 137 181 231 287 357 422
#     4  11  23  42  66  94 134 177 225 278 338 412
#     4  10  19  37  55  88 129 173 221 267 321 392
#     4  11  28  49  75 107 139 176 231 296 356 419
#
# _framework density 22.567978
#
# number of rings (size 3 to 8) (size 9 to 14) (size 15 to 20)
#    0.000    1.250    3.750    1.875    1.750    2.500 
#    2.250    2.500    0.000    0.000    0.000    0.000 
#    0.000    0.000    0.000    0.000    0.000    0.000 
#
# Total GULP energy -198217.300153 kJ/mol
# GULP energy per Si atom -12388.581260 kJ/mol
# Density = 2.251661 g / cm^3
# Si number density = 22.567978 Si / 1000 Ang^3
#
#
#
# Elastic Constant Matrix: (Units=GPa)
#
#
# Indices 1 2 3 4 5 6 
#
# 1 88.7624 21.7944 29.1723 -5.2286 8.8189 5.1366
# 2 21.7944 68.3130 36.4530 -5.4427 5.8452 14.9376
# 3 29.1723 36.4530 134.5589 -12.3961 13.4564 -3.7603
# 4 -5.2286 -5.4427 -12.3961 27.7964 -3.3952 -3.6211
# 5 8.8189 5.8452 13.4564 -3.3952 29.6287 1.2133
# 6 5.1366 14.9376 -3.7603 -3.6211 1.2133 30.8641
#
#
#
# Elastic Compliance Matrix: (Units=1/GPa)
#
#
# Indices 1 2 3 4 5 6 
#
# 1 0.012839 -0.002700 -0.001776 0.000692 -0.002367 -0.000872
# 2 -0.002700 0.020531 -0.005230 -0.000198 -0.000479 -0.010129
# 3 -0.001776 -0.005230 0.009943 0.003330 -0.002760 0.004537
# 4 0.000692 -0.000198 0.003330 0.038487 0.002534 0.004802
# 5 -0.002367 -0.000479 -0.002760 0.002534 0.036128 -0.000833
# 6 -0.000872 -0.010129 0.004537 0.004802 -0.000833 0.038596
#
#
# Mechanical properties :
#
#
# Convention : Reuss Voigt Hill
#
# Bulk Modulus (GPa) = 41.83934 51.83042 46.83488
# Shear Modulus (GPa) = 27.18817 31.27217 29.23017
#
# Velocity S-wave (km/s) = 3.47468 3.72652 3.60280
# Velocity P-wave (km/s) = 5.88875 6.44455 6.17290
#
# Compressibility (1/GPa) = 0.02390095
#
# Stress axis : x y z
#
# Youngs Moduli (GPa) = 77.88714 48.70760 100.57241
#
# Poissons Ratio (x) = 0.13152 0.17861
# Poissons Ratio (y) = 0.21030 0.52598
# Poissons Ratio (z) = 0.13832 0.25474
#
# Static dielectric constant tensor:
#      x y z
#    x 4.153370 0.098470 0.039590 
#    y 0.098470 4.109010 -0.102790 
#    z 0.039590 -0.102790 3.944520 
# 
# 
# High freq. dielectric constant tensor:
#      x y z
#    x 1.888970 0.005570 0.002100 
#    y 0.005570 1.885080 -0.007430 
#    z 0.002100 -0.007430 1.892260 
# 
# From -- ./inp_files/591794.got.cif
#   From: 2010.06.25/outbox.cif.g09.slc.cpg/sg2_296_cif.got.tgz:591794.got - 2010.06.27 13:26:56.
