data_PCOD8043508
_publ_section_title
;
Structure prediction by ZEFSAII (Michael W. Deem and Ramdas Pophale) SiO2 
 PCOD8043508
Probable space group: P -1
;
_chemical_formula_sum "Si O2"
_cell_formula_units_Z 16
_cell_length_a 8.056431
_cell_length_b 11.494147
_cell_length_c 17.365364
_cell_angle_alpha 129.845241
_cell_angle_beta 141.874790
_cell_angle_gamma 69.737973
_cell_volume 718.813487
_symmetry_space_group_name_H-M "P -1"
_symmetry_group_IT_number 2
_symmetry_cell_setting 'triclinic'
loop_
_space_group_symop_operation_xyz
x,y,z
-x,-y,-z
loop_
_atom_site_type_symbol
_atom_site_label
_atom_site_fract_x
_atom_site_fract_y
_atom_site_fract_z
Si Si1 0.650538 0.098149 0.367327
Si Si2 0.503136 0.632725 0.661778
Si Si3 0.038429 0.261982 0.862926
Si Si4 0.835340 0.927875 0.710638
Si Si5 0.968942 0.882670 0.352668
Si Si6 0.433503 0.547127 0.776630
Si Si7 0.402637 0.209536 0.590232
Si Si8 0.055370 0.347933 0.293440
O O1 0.621136 0.227033 0.349309
O O2 0.359606 0.032066 0.279429
O O3 0.936151 0.178940 0.558718
O O4 0.691074 0.939324 0.277329
O O5 0.502607 0.632350 0.754191
O O6 0.296452 0.463767 0.484750
O O7 0.816055 0.652706 0.746783
O O8 0.098616 0.262930 0.793824
O O9 0.725323 0.269879 0.763450
O O10 0.266183 0.410069 0.051090
O O11 0.055957 0.092506 0.828764
O O12 0.620496 0.820297 0.522220
O O13 0.021867 0.829959 0.774814
O O14 0.236305 0.041360 0.497289
O O15 0.287242 0.355085 0.631563
O O16 0.230337 0.606939 0.784093
#
# Coordination Sequence:
#
# PCOD8043508 Si02
#       8
#     2   2   2   2   2   2   2   2
#     4  10  19  36  63  93 119 155 212 268 297 347
#     4  10  22  40  63  95 123 161 211 260 303 368
#     4  11  23  39  59  93 126 165 198 257 315 369
#     4  10  19  39  64  86 120 154 215 253 298 358
#     4  10  20  37  66  92 116 162 219 252 301 369
#     4  12  25  40  62  96 131 164 202 248 326 378
#     4  11  20  40  64  87 119 166 210 256 295 368
#     4  10  22  40  64  92 120 168 207 257 301 365
#
# _framework density 22.258901999999999
#
# number of rings (size 3 to 8) (size 9 to 14) (size 15 to 20)
#    0.000    1.500    3.750    2.250    3.500    0.500 
#    2.250    1.250    0.000    5.250    0.000    0.000 
#    0.000    0.000    0.000    0.000    0.000    0.000 
#
# Total GULP energy -198285.332140 kJ/mol
# GULP energy per Si atom -12392.833259 kJ/mol
# Density = 2.220824 g / cm^3
# Si number density = 22.258902 Si / 1000 Ang^3
#
#
#
# Elastic Constant Matrix: (Units=GPa)
#
#
# Indices 1 2 3 4 5 6 
#
# 1 93.2565 18.5916 27.2462 -13.9220 -1.7195 -16.5604
# 2 18.5916 70.0603 5.0832 -7.2885 -5.8394 -12.1892
# 3 27.2462 5.0832 65.6315 -0.9614 -7.5430 -0.8776
# 4 -13.9220 -7.2885 -0.9614 22.8713 -1.6780 2.2960
# 5 -1.7195 -5.8394 -7.5430 -1.6780 25.8393 -8.2999
# 6 -16.5604 -12.1892 -0.8776 2.2960 -8.2999 31.7150
#
#
#
# Elastic Compliance Matrix: (Units=1/GPa)
#
#
# Indices 1 2 3 4 5 6 
#
# 1 0.015175 -0.001387 -0.005771 0.007971 0.001820 0.007131
# 2 -0.001387 0.016836 0.000155 0.004279 0.006314 0.007093
# 3 -0.005771 0.000155 0.018080 -0.002266 0.004418 -0.001133
# 4 0.007971 0.004279 -0.002266 0.049873 0.005197 0.003493
# 5 0.001820 0.006314 0.004418 0.005197 0.046814 0.015374
# 6 0.007131 0.007093 -0.001133 0.003493 0.015374 0.041720
#
#
# Mechanical properties :
#
#
# Convention : Reuss Voigt Hill
#
# Bulk Modulus (GPa) = 27.71254 36.75445 32.23350
# Shear Modulus (GPa) = 23.30647 27.95362 25.63004
#
# Velocity S-wave (km/s) = 3.23935 3.54763 3.39699
# Velocity P-wave (km/s) = 5.14473 5.77313 5.46796
#
# Compressibility (1/GPa) = 0.03608474
#
# Stress axis : x y z
#
# Youngs Moduli (GPa) = 65.89597 59.39766 55.31023
#
# Poissons Ratio (x) = 0.08238 0.31921
# Poissons Ratio (y) = 0.09139 -0.00857
# Poissons Ratio (z) = 0.38030 -0.00921
#
# Static dielectric constant tensor:
#      x y z
#    x 4.234700 -0.086240 -0.125420 
#    y -0.086240 4.162010 -0.118380 
#    z -0.125420 -0.118380 3.520300 
# 
# 
# High freq. dielectric constant tensor:
#      x y z
#    x 1.886620 -0.010720 -0.006980 
#    y -0.010720 1.884110 -0.010060 
#    z -0.006980 -0.010060 1.827830 
# 
# From -- ./inp_files/263586.got.cif
#   From: 2010.06.25/outbox.cif.g09.slc.cpg/sg2_132_cif.got.tgz:263586.got - 2010.06.27 13:26:56.
