data_PCOD8043801
_publ_section_title
;
Structure prediction by ZEFSAII (Michael W. Deem and Ramdas Pophale) SiO2 
 PCOD8043801
Probable space group: P -1
;
_chemical_formula_sum "Si O2"
_cell_formula_units_Z 12
_cell_length_a 13.956385
_cell_length_b 14.297102
_cell_length_c 8.666590
_cell_angle_alpha 116.038787
_cell_angle_beta 76.046131
_cell_angle_gamma 159.554769
_cell_volume 456.029670
_symmetry_space_group_name_H-M "P -1"
_symmetry_group_IT_number 2
_symmetry_cell_setting 'triclinic'
loop_
_space_group_symop_operation_xyz
x,y,z
-x,-y,-z
loop_
_atom_site_type_symbol
_atom_site_label
_atom_site_fract_x
_atom_site_fract_y
_atom_site_fract_z
Si Si1 0.130969 0.660476 0.398547
Si Si2 0.362191 0.426057 0.641188
Si Si3 0.165405 0.455786 0.723951
Si Si4 0.886847 0.237323 0.997024
Si Si5 0.388751 0.301559 0.784512
Si Si6 0.069392 0.896677 0.890394
O O1 0.000000 0.500000 0.500000
O O2 0.095071 0.746685 0.430509
O O3 0.500000 0.000000 0.500000
O O4 0.949992 0.419857 0.152491
O O5 0.500000 0.500000 0.500000
O O6 0.138503 0.303405 0.599216
O O7 0.178353 0.156573 0.632457
O O8 0.688080 0.794472 0.869929
O O9 0.114499 0.428509 0.905881
O O10 0.512791 0.846245 0.811741
O O11 0.967338 0.254579 0.134139
O O12 0.707895 0.577899 0.779305
O O13 0.197329 0.021438 0.753993
O O14 0.500000 0.500000 0.000000
#
# Coordination Sequence:
#
# PCOD8043801 Si02
#       6
#     2   2   2   2   2   2
#     4  12  26  45  70 106 137 169 221 291 351 397
#     4  10  22  40  64  97 134 174 224 281 328 381
#     4  11  24  45  69  97 135 185 229 269 336 416
#     4  11  22  44  72  98 132 182 227 271 333 418
#     4  10  19  37  59  86 124 168 214 261 314 388
#     4  10  21  39  62  90 124 172 219 259 319 396
#
# _framework density 26.314079
#
# number of rings (size 3 to 8) (size 9 to 14) (size 15 to 20)
#    0.000    1.333    0.000    8.000    0.000    2.667 
#    0.000   27.500    0.000    0.000    0.000    0.000 
#    0.000    0.000    0.000    0.000    0.000    0.000 
#
# Total GULP energy -148776.157174 kJ/mol
# GULP energy per Si atom -12398.013098 kJ/mol
# Density = 2.625419 g / cm^3
# Si number density = 26.314079 Si / 1000 Ang^3
#
#
#
# Elastic Constant Matrix: (Units=GPa)
#
#
# Indices 1 2 3 4 5 6 
#
# 1 216.2933 71.2535 61.3524 -12.8479 33.2017 2.5926
# 2 71.2535 145.8227 22.1215 -27.7836 6.6102 -3.2870
# 3 61.3524 22.1215 79.1215 -19.0455 0.0129 -6.3534
# 4 -12.8479 -27.7836 -19.0455 50.4284 -3.1102 5.9517
# 5 33.2017 6.6102 0.0129 -3.1102 63.9522 -6.3497
# 6 2.5926 -3.2870 -6.3534 5.9517 -6.3497 39.3188
#
#
#
# Elastic Compliance Matrix: (Units=1/GPa)
#
#
# Indices 1 2 3 4 5 6 
#
# 1 0.007864 -0.003194 -0.005846 -0.001968 -0.004054 -0.002087
# 2 -0.003194 0.009098 0.001089 0.004600 0.001002 0.000613
# 3 -0.005846 0.001089 0.018554 0.005965 0.003520 0.003140
# 4 -0.001968 0.004600 0.005965 0.024444 0.001538 -0.001974
# 5 -0.004054 0.001002 0.003520 0.001538 0.018070 0.003605
# 6 -0.002087 0.000613 0.003140 -0.001974 0.003605 0.027010
#
#
# Mechanical properties :
#
#
# Convention : Reuss Voigt Hill
#
# Bulk Modulus (GPa) = 50.97936 83.41025 67.19480
# Shear Modulus (GPa) = 39.22194 49.84055 44.53124
#
# Velocity S-wave (km/s) = 3.86493 4.35681 4.11822
# Velocity P-wave (km/s) = 6.27155 7.55485 6.94291
#
# Compressibility (1/GPa) = 0.01961578
#
# Stress axis : x y z
#
# Youngs Moduli (GPa) = 127.15865 109.91604 53.89553
#
# Poissons Ratio (x) = 0.35108 0.31505
# Poissons Ratio (y) = 0.40615 -0.05871
# Poissons Ratio (z) = 0.74332 -0.11973
#
# Static dielectric constant tensor:
#      x y z
#    x 5.425100 -0.744350 0.240170 
#    y -0.744350 5.178160 -0.328920 
#    z 0.240170 -0.328920 4.946070 
# 
# 
# High freq. dielectric constant tensor:
#      x y z
#    x 2.075520 -0.011130 0.010670 
#    y -0.011130 2.067120 0.002640 
#    z 0.010670 0.002640 2.067390 
# 
# From -- ./inp_files/313708.got.cif
#   From: 2010.06.25/outbox.cif.g09.slc.cpg/sg2_157_cif.got.tgz:313708.got - 2010.06.27 13:26:56.
