data_PCOD8043813
_publ_section_title
;
Structure prediction by ZEFSAII (Michael W. Deem and Ramdas Pophale) SiO2 
 PCOD8043813
Probable space group: P -1
;
_chemical_formula_sum "Si O2"
_cell_formula_units_Z 14
_cell_length_a 5.539641
_cell_length_b 8.070210
_cell_length_c 20.572635
_cell_angle_alpha 122.962191
_cell_angle_beta 55.805257
_cell_angle_gamma 120.868961
_cell_volume 609.136489
_symmetry_space_group_name_H-M "P -1"
_symmetry_group_IT_number 2
_symmetry_cell_setting 'triclinic'
loop_
_space_group_symop_operation_xyz
x,y,z
-x,-y,-z
loop_
_atom_site_type_symbol
_atom_site_label
_atom_site_fract_x
_atom_site_fract_y
_atom_site_fract_z
Si Si1 0.641907 0.205492 0.481587
Si Si2 0.757886 0.890955 0.605923
Si Si3 0.842883 0.640411 0.789976
Si Si4 0.334357 0.594912 0.098757
Si Si5 0.635589 0.967836 0.213300
Si Si6 0.263007 0.361892 0.783298
Si Si7 0.169820 0.329468 0.644197
O O1 0.509914 0.198412 0.426244
O O2 0.515155 0.379449 0.573872
O O3 0.011203 0.248882 0.442578
O O4 0.500000 0.000000 0.500000
O O5 0.595071 0.904121 0.703117
O O6 0.953679 0.119843 0.598742
O O7 0.752280 0.555097 0.857959
O O8 0.522604 0.586591 0.787689
O O9 0.053517 0.528010 0.694116
O O10 0.018963 0.883549 0.817608
O O11 0.540365 0.829087 0.133614
O O12 0.012307 0.612691 0.124243
O O13 0.500000 0.500000 0.000000
O O14 0.601958 0.809041 0.243935
O O15 0.144352 0.276904 0.713045
#
# Coordination Sequence:
#
# PCOD8043813 Si02
#       7
#     2   2   2   2   2   2   2
#     4  10  21  31  61  92 125 172 229 270 318 375
#     4  11  20  36  59  93 125 176 221 270 324 377
#     4  10  23  38  62  95 123 165 210 257 325 385
#     4  10  23  44  67  90 123 160 205 261 324 397
#     4  11  22  39  63  91 129 161 211 263 322 385
#     4  10  20  40  64  87 124 165 209 256 327 381
#     4  10  19  37  59  89 126 167 218 263 312 379
#
# _framework density 22.983355
#
# number of rings (size 3 to 8) (size 9 to 14) (size 15 to 20)
#    0.000    1.714    4.286    3.429    2.000    5.143 
#    0.000    2.857    0.000    0.000    0.000    0.000 
#    0.000    0.000    0.000    0.000    0.000    0.000 
#
# Total GULP energy -173435.565295 kJ/mol
# GULP energy per Si atom -12388.254664 kJ/mol
# Density = 2.293104 g / cm^3
# Si number density = 22.983355 Si / 1000 Ang^3
#
#
#
# Elastic Constant Matrix: (Units=GPa)
#
#
# Indices 1 2 3 4 5 6 
#
# 1 134.8180 17.4324 53.4248 6.2303 -11.4643 19.0919
# 2 17.4324 75.0165 15.0602 1.8032 -0.2381 36.4720
# 3 53.4248 15.0602 166.9798 2.1718 -26.0038 9.2331
# 4 6.2303 1.8032 2.1718 14.5360 0.6850 3.7659
# 5 -11.4643 -0.2381 -26.0038 0.6850 27.4024 -3.5337
# 6 19.0919 36.4720 9.2331 3.7659 -3.5337 25.1240
#
#
#
# Elastic Compliance Matrix: (Units=1/GPa)
#
#
# Indices 1 2 3 4 5 6 
#
# 1 0.009828 0.004687 -0.002866 -0.000959 -0.000234 -0.013108
# 2 0.004687 0.052792 -0.003768 0.013983 -0.012160 -0.082620
# 3 -0.002866 -0.003768 0.008060 -0.001379 0.007213 0.005907
# 4 -0.000959 0.013983 -0.001379 0.076207 -0.007561 -0.031551
# 5 -0.000234 -0.012160 0.007213 -0.007561 0.046266 0.022820
# 6 -0.013108 -0.082620 0.005907 -0.031551 0.022820 0.175469
#
#
# Mechanical properties :
#
#
# Convention : Reuss Voigt Hill
#
# Bulk Modulus (GPa) = 14.97344 60.96101 37.96723
# Shear Modulus (GPa) = 12.66529 32.80560 22.73544
#
# Velocity S-wave (km/s) = 2.35002 3.78214 3.14859
# Velocity P-wave (km/s) = 3.72727 6.75680 5.45651
#
# Compressibility (1/GPa) = 0.06678490
#
# Stress axis : x y z
#
# Youngs Moduli (GPa) = 101.75165 18.94235 124.06546
#
# Poissons Ratio (x) = -0.08878 0.35561
# Poissons Ratio (y) = -0.47689 0.46748
# Poissons Ratio (z) = 0.29165 0.07137
#
# Static dielectric constant tensor:
#      x y z
#    x 4.660520 0.328490 -0.391890 
#    y 0.328490 3.749200 0.067110 
#    z -0.391890 0.067110 4.131690 
# 
# 
# High freq. dielectric constant tensor:
#      x y z
#    x 1.914010 0.020110 -0.012870 
#    y 0.020110 1.881040 0.002260 
#    z -0.012870 0.002260 1.893070 
# 
# From -- ./inp_files/56044.got.cif
#   From: 2010.06.25/outbox.cif.g09.slc.cpg/sg2_29_cif.got.tgz:56044.got - 2010.06.27 13:26:56.
