data_PCOD8043246
_publ_section_title
;
Structure prediction by ZEFSAII (Michael W. Deem and Ramdas Pophale) SiO2 
 PCOD8043246
Probable space group: P -1
;
_chemical_formula_sum "Si O2"
_cell_formula_units_Z 12
_cell_length_a 10.291619
_cell_length_b 11.797531
_cell_length_c 8.431723
_cell_angle_alpha 142.563799
_cell_angle_beta 95.652339
_cell_angle_gamma 78.685939
_cell_volume 607.392416
_symmetry_space_group_name_H-M "P -1"
_symmetry_group_IT_number 2
_symmetry_cell_setting 'triclinic'
loop_
_space_group_symop_operation_xyz
x,y,z
-x,-y,-z
loop_
_atom_site_type_symbol
_atom_site_label
_atom_site_fract_x
_atom_site_fract_y
_atom_site_fract_z
Si Si1 0.154095 0.983507 0.165940
Si Si2 0.958239 0.316189 0.368398
Si Si3 0.436175 0.264003 0.909986
Si Si4 0.696337 0.079891 0.565014
Si Si5 0.712991 0.348384 0.599569
Si Si6 0.575532 0.156015 0.122600
O O1 0.194246 0.962655 0.331339
O O2 0.071128 0.821122 0.930148
O O3 0.283011 0.958511 0.044897
O O4 0.073354 0.196232 0.359314
O O5 0.831265 0.386097 0.542921
O O6 0.000000 0.500000 0.500000
O O7 0.344213 0.468827 0.096172
O O8 0.491479 0.272725 0.103207
O O9 0.559591 0.221107 0.756321
O O10 0.340148 0.114392 0.715454
O O11 0.763273 0.175054 0.534623
O O12 0.593054 0.299736 0.424662
O O13 0.500000 0.000000 0.000000
#
# Coordination Sequence:
#
# PCOD8043246 Si02
#       6
#     2   2   2   2   2   2
#     4   9  22  41  59  82 117 152 189 242 285 339
#     4  10  23  41  61  82 111 155 201 239 278 335
#     4  10  21  36  57  88 123 152 184 234 290 350
#     4  10  21  39  57  87 121 152 185 234 300 341
#     4  11  22  36  61  89 116 152 196 237 281 344
#     4  10  19  36  60  87 116 152 188 233 288 339
#
# _framework density 19.756582999999999
#
# number of rings (size 3 to 8) (size 9 to 14) (size 15 to 20)
#    0.000    2.000    1.667    1.000    2.333    3.333 
#    0.000    1.667    0.000    0.000    0.000    0.000 
#    0.000    0.000    0.000    0.000    0.000    0.000 
#
# Total GULP energy -148814.504636 kJ/mol
# GULP energy per Si atom -12401.208720 kJ/mol
# Density = 1.971162 g / cm^3
# Si number density = 19.756583 Si / 1000 Ang^3
#
#
#
# Elastic Constant Matrix: (Units=GPa)
#
#
# Indices 1 2 3 4 5 6 
#
# 1 80.8612 50.7016 38.5605 9.5796 20.5231 1.6677
# 2 50.7016 119.5907 56.0368 2.7321 22.9304 6.9625
# 3 38.5605 56.0368 109.0083 5.4881 12.8490 -5.7164
# 4 9.5796 2.7321 5.4881 27.8375 0.8265 6.4330
# 5 20.5231 22.9304 12.8490 0.8265 17.6184 3.9018
# 6 1.6677 6.9625 -5.7164 6.4330 3.9018 39.6414
#
#
#
# Elastic Compliance Matrix: (Units=1/GPa)
#
#
# Indices 1 2 3 4 5 6 
#
# 1 0.021724 -0.004479 -0.002867 -0.006466 -0.017577 0.002239
# 2 -0.004479 0.014538 -0.004982 0.001949 -0.009619 -0.002453
# 3 -0.002867 -0.004982 0.013046 -0.001827 -0.000314 0.003204
# 4 -0.006466 0.001949 -0.001827 0.039846 0.006098 -0.007400
# 5 -0.017577 -0.009619 -0.000314 0.006098 0.091379 -0.007600
# 6 0.002239 -0.002453 0.003204 -0.007400 -0.007600 0.027974
#
#
# Mechanical properties :
#
#
# Convention : Reuss Voigt Hill
#
# Bulk Modulus (GPa) = 40.56596 66.67312 53.61954
# Shear Modulus (GPa) = 20.71437 27.96357 24.33897
#
# Velocity S-wave (km/s) = 3.24154 3.76627 3.51371
# Velocity P-wave (km/s) = 5.88112 7.26179 6.60761
#
# Compressibility (1/GPa) = 0.02465121
#
# Stress axis : x y z
#
# Youngs Moduli (GPa) = 46.03301 68.78737 76.65201
#
# Poissons Ratio (x) = 0.30808 0.21979
# Poissons Ratio (y) = 0.20617 0.38187
# Poissons Ratio (z) = 0.13199 0.34269
#
# Static dielectric constant tensor:
#      x y z
#    x 3.740360 -0.358100 0.154680 
#    y -0.358100 3.819760 -0.086340 
#    z 0.154680 -0.086340 3.528930 
# 
# 
# High freq. dielectric constant tensor:
#      x y z
#    x 1.764970 -0.000480 0.005790 
#    y -0.000480 1.772790 -0.001250 
#    z 0.005790 -0.001250 1.771770 
# 
# From -- ./inp_files/45520.got.cif
#   From: 2010.06.25/outbox.cif.g09.slc.cpg/sg2_23_cif.got.tgz:45520.got - 2010.06.27 13:26:56.
