data_PCOD8043481
_publ_section_title
;
Structure prediction by ZEFSAII (Michael W. Deem and Ramdas Pophale) SiO2 
 PCOD8043481
Probable space group: P -1
;
_chemical_formula_sum "Si O2"
_cell_formula_units_Z 16
_cell_length_a 11.598200
_cell_length_b 9.412043
_cell_length_c 14.050379
_cell_angle_alpha 41.699200
_cell_angle_beta 128.940146
_cell_angle_gamma 128.036731
_cell_volume 760.939057
_symmetry_space_group_name_H-M "P -1"
_symmetry_group_IT_number 2
_symmetry_cell_setting 'triclinic'
loop_
_space_group_symop_operation_xyz
x,y,z
-x,-y,-z
loop_
_atom_site_type_symbol
_atom_site_label
_atom_site_fract_x
_atom_site_fract_y
_atom_site_fract_z
Si Si1 0.643605 0.404778 0.104188
Si Si2 0.352462 0.294780 0.545762
Si Si3 0.247896 0.902239 0.550250
Si Si4 0.177991 0.126091 0.021447
Si Si5 0.101273 0.389131 0.491622
Si Si6 0.175133 0.896182 0.312193
Si Si7 0.368346 0.941052 0.883678
Si Si8 0.141739 0.074146 0.820578
O O1 0.651799 0.239723 0.276639
O O2 0.632943 0.285721 0.056379
O O3 0.500000 0.500000 0.000000
O O4 0.796509 0.613450 0.075342
O O5 0.500000 0.500000 0.500000
O O6 0.212807 0.388599 0.460905
O O7 0.293153 0.150466 0.492432
O O8 0.400012 0.142019 0.725403
O O9 0.289431 0.923414 0.448202
O O10 0.066196 0.780146 0.532696
O O11 0.263530 0.016050 0.202524
O O12 0.236331 0.100984 0.956701
O O13 0.000000 0.000000 0.000000
O O14 0.089509 0.637063 0.377671
O O15 0.172919 0.311408 0.663229
O O16 0.042056 0.016515 0.209420
O O17 0.202951 0.908922 0.867060
O O18 0.500000 0.000000 0.000000
#
# Coordination Sequence:
#
# PCOD8043481 Si02
#       8
#     2   2   2   2   2   2   2   2
#     4  11  23  39  60  85 115 156 197 235 287 353
#     4  10  23  39  57  87 120 148 187 243 295 337
#     4  10  20  39  60  84 114 153 194 234 285 353
#     4  10  20  37  58  86 117 147 189 243 287 332
#     4  10  19  36  63  87 113 154 194 231 286 352
#     4  10  20  34  60  91 114 145 193 247 290 330
#     4  10  22  38  58  80 113 159 196 229 286 354
#     4   9  18  36  57  82 116 150 191 236 282 343
#
# _framework density 21.026648999999999
#
# number of rings (size 3 to 8) (size 9 to 14) (size 15 to 20)
#    0.000    2.000    0.000    4.875    0.000    6.000 
#    0.000    3.750    0.000    0.000    0.000    0.000 
#    0.000    0.000    0.000    0.000    0.000    0.000 
#
# Total GULP energy -198306.040117 kJ/mol
# GULP energy per Si atom -12394.127507 kJ/mol
# Density = 2.097879 g / cm^3
# Si number density = 21.026649 Si / 1000 Ang^3
#
#
#
# Elastic Constant Matrix: (Units=GPa)
#
#
# Indices 1 2 3 4 5 6 
#
# 1 98.8153 57.5223 52.5789 -5.3814 5.3946 -18.6224
# 2 57.5223 152.3455 49.5205 0.1577 -8.3153 -21.7380
# 3 52.5789 49.5205 95.8307 14.9426 -12.2966 -24.2753
# 4 -5.3814 0.1577 14.9426 30.7111 -5.1001 -3.9062
# 5 5.3946 -8.3153 -12.2966 -5.1001 36.9798 2.2103
# 6 -18.6224 -21.7380 -24.2753 -3.9062 2.2103 34.0153
#
#
#
# Elastic Compliance Matrix: (Units=1/GPa)
#
#
# Indices 1 2 3 4 5 6 
#
# 1 0.018586 -0.003963 -0.009502 0.007185 -0.005895 0.002070
# 2 -0.003963 0.009082 -0.001796 0.000757 0.001989 0.002310
# 3 -0.009502 -0.001796 0.020620 -0.009809 0.006077 0.006844
# 4 0.007185 0.000757 -0.009809 0.039009 0.001131 0.001823
# 5 -0.005895 0.001989 0.006077 0.001131 0.030494 0.000529
# 6 0.002070 0.002310 0.006844 0.001823 0.000529 0.037067
#
#
# Mechanical properties :
#
#
# Convention : Reuss Voigt Hill
#
# Bulk Modulus (GPa) = 56.29122 74.02610 65.15866
# Shear Modulus (GPa) = 26.13685 32.83257 29.48471
#
# Velocity S-wave (km/s) = 3.52949 3.95584 3.74873
# Velocity P-wave (km/s) = 6.59085 7.49314 7.05643
#
# Compressibility (1/GPa) = 0.01776476
#
# Stress axis : x y z
#
# Youngs Moduli (GPa) = 53.80470 110.11279 48.49750
#
# Poissons Ratio (x) = 0.43635 0.46082
# Poissons Ratio (y) = 0.21322 0.08712
# Poissons Ratio (z) = 0.51125 0.19780
#
# Static dielectric constant tensor:
#      x y z
#    x 3.977610 -0.324590 -0.360250 
#    y -0.324590 3.900470 0.071790 
#    z -0.360250 0.071790 4.553670 
# 
# 
# High freq. dielectric constant tensor:
#      x y z
#    x 1.817180 -0.016570 -0.008620 
#    y -0.016570 1.813420 0.011030 
#    z -0.008620 0.011030 1.829660 
# 
# From -- ./inp_files/274727.got.cif
#   From: 2010.06.25/outbox.cif.g09.slc.cpg/sg2_138_cif.got.tgz:274727.got - 2010.06.27 13:26:56.
