data_PCOD8043666
_publ_section_title
;
Structure prediction by ZEFSAII (Michael W. Deem and Ramdas Pophale) SiO2 
 PCOD8043666
Probable space group: P -1
;
_chemical_formula_sum "Si O2"
_cell_formula_units_Z 16
_cell_length_a 12.926634
_cell_length_b 13.834635
_cell_length_c 8.690167
_cell_angle_alpha 105.544140
_cell_angle_beta 95.732592
_cell_angle_gamma 33.192395
_cell_volume 796.566614
_symmetry_space_group_name_H-M "P -1"
_symmetry_group_IT_number 2
_symmetry_cell_setting 'triclinic'
loop_
_space_group_symop_operation_xyz
x,y,z
-x,-y,-z
loop_
_atom_site_type_symbol
_atom_site_label
_atom_site_fract_x
_atom_site_fract_y
_atom_site_fract_z
Si Si1 0.796656 0.858876 0.147553
Si Si2 0.655112 0.760650 0.028639
Si Si3 0.738287 0.020653 0.915380
Si Si4 0.379036 0.000231 0.502808
Si Si5 0.007535 0.702945 0.595037
Si Si6 0.545913 0.576068 0.003374
Si Si7 0.703295 0.606729 0.253726
Si Si8 0.195238 0.540240 0.240440
O O1 0.711641 0.829246 0.033706
O O2 0.005463 0.671247 0.169554
O O3 0.649862 0.004103 0.324995
O O4 0.813022 0.937456 0.063871
O O5 0.430253 0.925899 0.118609
O O6 0.778132 0.620816 0.136107
O O7 0.690475 0.660515 0.840912
O O8 0.654910 0.200654 0.963582
O O9 0.918604 0.865329 0.755360
O O10 0.493695 0.811067 0.374875
O O11 0.500000 0.000000 0.500000
O O12 0.177929 0.194376 0.471613
O O13 0.126616 0.532094 0.652764
O O14 0.154747 0.612038 0.438866
O O15 0.664034 0.528439 0.143406
O O16 0.500000 0.500000 0.000000
O O17 0.677900 0.475657 0.826612
#
# Coordination Sequence:
#
# PCOD8043666 Si02
#       8
#     2   2   2   2   2   2   2   2
#     4  11  20  34  58  83 128 161 203 242 296 360
#     4  10  19  37  52  86 125 170 201 238 291 359
#     4  10  20  37  60  84 119 159 199 247 305 357
#     4  11  21  38  56  93 130 170 204 244 293 354
#     4  11  21  39  59  89 128 158 202 253 295 354
#     4  10  22  46  67  84 116 157 202 259 315 366
#     4  10  21  38  63  86 128 161 205 247 305 348
#     4   9  22  36  57  88 119 154 205 248 296 360
#
# _framework density 20.086203999999999
#
# number of rings (size 3 to 8) (size 9 to 14) (size 15 to 20)
#    0.000    2.000    3.750    2.250    3.500    0.500 
#    0.000    3.750    0.000    0.000    0.000    0.000 
#    0.000    0.000    0.000    0.000    0.000    0.000 
#
# Total GULP energy -198210.775413 kJ/mol
# GULP energy per Si atom -12388.173463 kJ/mol
# Density = 2.004049 g / cm^3
# Si number density = 20.086204 Si / 1000 Ang^3
#
#
#
# Elastic Constant Matrix: (Units=GPa)
#
#
# Indices 1 2 3 4 5 6 
#
# 1 61.0452 17.4780 35.4495 7.3250 -2.8391 21.6507
# 2 17.4780 87.6596 48.2449 -3.3036 -0.8619 3.2087
# 3 35.4495 48.2449 163.4216 11.6069 -25.1009 7.8256
# 4 7.3250 -3.3036 11.6069 34.0525 -9.0152 -0.6484
# 5 -2.8391 -0.8619 -25.1009 -9.0152 19.3975 0.4862
# 6 21.6507 3.2087 7.8256 -0.6484 0.4862 26.1545
#
#
#
# Elastic Compliance Matrix: (Units=1/GPa)
#
#
# Indices 1 2 3 4 5 6 
#
# 1 0.027899 -0.002604 -0.004446 -0.006247 -0.004149 -0.021523
# 2 -0.002604 0.014487 -0.004706 0.002339 -0.004789 0.001933
# 3 -0.004446 -0.004706 0.010350 0.000344 0.012670 0.000934
# 4 -0.006247 0.002339 0.000344 0.035110 0.015818 0.005357
# 5 -0.004149 -0.004789 0.012670 0.015818 0.074498 -0.000761
# 6 -0.021523 0.001933 0.000934 0.005357 -0.000761 0.055681
#
#
# Mechanical properties :
#
#
# Convention : Reuss Voigt Hill
#
# Bulk Modulus (GPa) = 34.21959 57.16349 45.69154
# Shear Modulus (GPa) = 19.89821 29.98448 24.94134
#
# Velocity S-wave (km/s) = 3.15086 3.86786 3.52762
# Velocity P-wave (km/s) = 5.50550 6.96189 6.27609
#
# Compressibility (1/GPa) = 0.02922303
#
# Stress axis : x y z
#
# Youngs Moduli (GPa) = 35.84402 69.02516 96.61999
#
# Poissons Ratio (x) = 0.17974 0.42958
# Poissons Ratio (y) = 0.09334 0.45473
# Poissons Ratio (z) = 0.15937 0.32486
#
# Static dielectric constant tensor:
#      x y z
#    x 2.997100 0.096260 0.049940 
#    y 0.096260 2.250170 -1.596970 
#    z 0.049940 -1.596970 2.417490 
# 
# 
# High freq. dielectric constant tensor:
#      x y z
#    x 1.717850 -0.015300 -0.016230 
#    y -0.015300 1.796440 0.003860 
#    z -0.016230 0.003860 1.802770 
# 
# From -- ./inp_files/313554.got.cif
#   From: 2010.06.25/outbox.cif.g09.slc.cpg/sg2_157_cif.got.tgz:313554.got - 2010.06.27 13:26:56.
