data_PCOD8043264
_publ_section_title
;
Structure prediction by ZEFSAII (Michael W. Deem and Ramdas Pophale) SiO2 
 PCOD8043264
Probable space group: P -1
;
_chemical_formula_sum "Si O2"
_cell_formula_units_Z 12
_cell_length_a 12.933959
_cell_length_b 9.818167
_cell_length_c 5.244920
_cell_angle_alpha 121.962550
_cell_angle_beta 78.366462
_cell_angle_gamma 82.924658
_cell_volume 531.849515
_symmetry_space_group_name_H-M "P -1"
_symmetry_group_IT_number 2
_symmetry_cell_setting 'triclinic'
loop_
_space_group_symop_operation_xyz
x,y,z
-x,-y,-z
loop_
_atom_site_type_symbol
_atom_site_label
_atom_site_fract_x
_atom_site_fract_y
_atom_site_fract_z
Si Si1 0.087034 0.160691 0.349827
Si Si2 0.826529 0.708937 0.065700
Si Si3 0.477347 0.820443 0.837418
Si Si4 0.429719 0.191734 0.720893
Si Si5 0.839371 0.330365 0.653020
Si Si6 0.764759 0.203140 0.062275
O O1 0.127602 0.261190 0.652302
O O2 0.956614 0.194235 0.462197
O O3 0.117665 0.213456 0.108641
O O4 0.136622 0.964352 0.167767
O O5 0.697508 0.798102 0.211257
O O6 0.856402 0.512595 0.810913
O O7 0.534600 0.720179 0.458237
O O8 0.348502 0.845285 0.933594
O O9 0.538473 0.719753 0.954713
O O10 0.500000 0.000000 0.000000
O O11 0.500000 0.000000 0.500000
O O12 0.770460 0.304879 0.416412
O O13 0.771467 0.315688 0.925697
#
# Coordination Sequence:
#
# PCOD8043264 Si02
#       6
#     2   2   2   2   2   2
#     4  12  23  43  69  94 126 178 222 255 307 393
#     4  12  24  42  68  97 129 171 217 266 316 380
#     4  10  20  37  62  90 117 157 214 261 302 371
#     4  10  19  36  60  90 117 154 212 263 299 363
#     4  12  26  43  62  99 138 166 207 271 333 373
#     4  12  24  43  67  96 131 170 212 268 323 380
#
# _framework density 22.562773
#
# number of rings (size 3 to 8) (size 9 to 14) (size 15 to 20)
#    0.000    0.667    0.000   11.000    0.000    0.000 
#    0.000    5.000    0.000    0.000    0.000    0.000 
#    0.000    0.000    0.000    0.000    0.000    0.000 
#
# Total GULP energy -148838.916240 kJ/mol
# GULP energy per Si atom -12403.243020 kJ/mol
# Density = 2.251142 g / cm^3
# Si number density = 22.562773 Si / 1000 Ang^3
#
#
#
# Elastic Constant Matrix: (Units=GPa)
#
#
# Indices 1 2 3 4 5 6 
#
# 1 94.6251 6.6036 34.1946 -24.4819 6.7092 -10.8268
# 2 6.6036 59.8052 37.5114 -30.0774 2.5196 0.7422
# 3 34.1946 37.5114 92.3920 -40.8316 20.4453 -10.1980
# 4 -24.4819 -30.0774 -40.8316 49.3260 -5.4993 9.5278
# 5 6.7092 2.5196 20.4453 -5.4993 37.7977 -8.6516
# 6 -10.8268 0.7422 -10.1980 9.5278 -8.6516 20.3816
#
#
#
# Elastic Compliance Matrix: (Units=1/GPa)
#
#
# Indices 1 2 3 4 5 6 
#
# 1 0.013339 0.003450 -0.004068 0.004875 0.001016 0.003077
# 2 0.003450 0.028692 -0.007831 0.014708 0.001729 -0.009273
# 3 -0.004068 -0.007831 0.022218 0.010490 -0.009143 0.000456
# 4 0.004875 0.014708 0.010490 0.042649 -0.004660 -0.014612
# 5 0.001016 0.001729 -0.009143 -0.004660 0.033217 0.012180
# 6 0.003077 -0.009273 0.000456 -0.014612 0.012180 0.063265
#
#
# Mechanical properties :
#
#
# Convention : Reuss Voigt Hill
#
# Bulk Modulus (GPa) = 21.11967 44.82684 32.97325
# Shear Modulus (GPa) = 21.18092 32.73523 26.95808
#
# Velocity S-wave (km/s) = 3.06724 3.81314 3.46034
# Velocity P-wave (km/s) = 4.68238 6.26877 5.53272
#
# Compressibility (1/GPa) = 0.04734923
#
# Stress axis : x y z
#
# Youngs Moduli (GPa) = 74.97002 34.85345 45.00794
#
# Poissons Ratio (x) = -0.12023 0.18309
# Poissons Ratio (y) = -0.25862 0.35247
# Poissons Ratio (z) = 0.30497 0.27295
#
# Static dielectric constant tensor:
#      x y z
#    x 3.228840 1.586180 -2.164300 
#    y 1.586180 0.604660 3.999270 
#    z -2.164300 3.999270 -1.454940 
# 
# 
# High freq. dielectric constant tensor:
#      x y z
#    x 1.903990 -0.007130 0.004730 
#    y -0.007130 1.882640 -0.029600 
#    z 0.004730 -0.029600 1.904200 
# 
# From -- ./inp_files/25484.got.cif
#   From: 2010.06.25/outbox.cif.g09.slc.cpg/sg2_13_cif.got.tgz:25484.got - 2010.06.27 13:26:56.
