data_PCOD8043415
_publ_section_title
;
Structure prediction by ZEFSAII (Michael W. Deem and Ramdas Pophale) SiO2 
 PCOD8043415
Probable space group: P -1
;
_chemical_formula_sum "Si O2"
_cell_formula_units_Z 16
_cell_length_a 11.499867
_cell_length_b 11.665176
_cell_length_c 7.905295
_cell_angle_alpha 60.756904
_cell_angle_beta 129.831037
_cell_angle_gamma 96.267429
_cell_volume 676.948463
_symmetry_space_group_name_H-M "P -1"
_symmetry_group_IT_number 2
_symmetry_cell_setting 'triclinic'
loop_
_space_group_symop_operation_xyz
x,y,z
-x,-y,-z
loop_
_atom_site_type_symbol
_atom_site_label
_atom_site_fract_x
_atom_site_fract_y
_atom_site_fract_z
Si Si1 0.161606 0.271912 0.589124
Si Si2 0.001706 0.259094 0.933136
Si Si3 0.253264 0.369213 0.262760
Si Si4 0.590507 0.366674 0.034626
Si Si5 0.749576 0.492528 0.345399
Si Si6 0.848953 0.314053 0.080729
Si Si7 0.515498 0.206033 0.396550
Si Si8 0.733743 0.929709 0.888101
O O1 0.258975 0.283588 0.503496
O O2 0.165716 0.387535 0.652108
O O3 0.978566 0.292695 0.364829
O O4 0.239372 0.122955 0.854913
O O5 0.860385 0.347937 0.619337
O O6 0.922145 0.216756 0.058806
O O7 0.115315 0.349601 0.027025
O O8 0.100480 0.122156 0.024438
O O9 0.427046 0.317246 0.375716
O O10 0.205676 0.529231 0.153313
O O11 0.689096 0.472323 0.112788
O O12 0.695849 0.279179 0.042702
O O13 0.578043 0.271977 0.248687
O O14 0.416626 0.452891 0.741465
O O15 0.393472 0.129462 0.276394
O O16 0.669299 0.095720 0.704477
#
# Coordination Sequence:
#
# PCOD8043415 Si02
#       8
#     2   2   2   2   2   2   2   2
#     4  11  20  37  63  93 111 156 197 240 288 348
#     4  10  20  37  59  89 117 153 196 240 286 347
#     4  10  19  36  62  89 122 143 196 249 286 343
#     4  11  24  36  56  87 129 153 184 242 300 350
#     4  11  20  37  57  92 120 148 190 237 302 351
#     4  11  21  37  59  93 124 147 184 250 301 344
#     4  10  22  42  55  85 119 160 198 239 283 342
#     4  10  22  38  66  80 112 162 208 235 274 345
#
# _framework density 23.635477000000002
#
# number of rings (size 3 to 8) (size 9 to 14) (size 15 to 20)
#    0.000    1.500    3.750    3.000    1.750    2.000 
#    2.250    3.125    0.000    0.000    0.000    0.000 
#    0.000    0.000    0.000    0.000    0.000    0.000 
#
# Total GULP energy -198347.907719 kJ/mol
# GULP energy per Si atom -12396.744232 kJ/mol
# Density = 2.358168 g / cm^3
# Si number density = 23.635477 Si / 1000 Ang^3
#
#
#
# Elastic Constant Matrix: (Units=GPa)
#
#
# Indices 1 2 3 4 5 6 
#
# 1 148.8317 2.2179 56.2440 -24.4333 1.2282 -26.7598
# 2 2.2179 18.1446 23.0729 -4.1326 3.9375 -8.8019
# 3 56.2440 23.0729 158.5603 -26.1662 9.4654 -18.2367
# 4 -24.4333 -4.1326 -26.1662 28.5934 -1.0992 2.5583
# 5 1.2282 3.9375 9.4654 -1.0992 33.0049 -1.6155
# 6 -26.7598 -8.8019 -18.2367 2.5583 -1.6155 20.6682
#
#
#
# Elastic Compliance Matrix: (Units=1/GPa)
#
#
# Indices 1 2 3 4 5 6 
#
# 1 0.011993 0.012228 -0.002722 0.007972 -0.000010 0.017346
# 2 0.012228 0.092050 -0.010715 0.009793 -0.005888 0.043906
# 3 -0.002722 -0.010715 0.009699 0.004975 -0.001248 -0.000243
# 4 0.007972 0.009793 0.004975 0.046557 -0.000702 0.013064
# 5 -0.000010 -0.005888 -0.001248 -0.000702 0.031283 -0.001090
# 6 0.017346 0.043906 -0.000243 0.013064 -0.001090 0.087623
#
#
# Mechanical properties :
#
#
# Convention : Reuss Voigt Hill
#
# Bulk Modulus (GPa) = 8.98277 54.28959 31.63618
# Shear Modulus (GPa) = 15.68718 32.72009 24.20364
#
# Velocity S-wave (km/s) = 2.57906 3.72474 3.20353
# Velocity P-wave (km/s) = 3.56055 6.44342 5.20553
#
# Compressibility (1/GPa) = 0.11132427
#
# Stress axis : x y z
#
# Youngs Moduli (GPa) = 83.38103 10.86363 103.10274
#
# Poissons Ratio (x) = -0.13284 0.28068
# Poissons Ratio (y) = -1.01958 1.10472
# Poissons Ratio (z) = 0.22699 0.11640
#
# Static dielectric constant tensor:
#      x y z
#    x 4.429020 -0.188270 0.274130 
#    y -0.188270 3.915650 -0.030640 
#    z 0.274130 -0.030640 4.457210 
# 
# 
# High freq. dielectric constant tensor:
#      x y z
#    x 1.945030 -0.012500 0.010990 
#    y -0.012500 1.884620 0.007610 
#    z 0.010990 0.007610 1.945930 
# 
# From -- ./inp_files/269884.got.cif
#   From: 2010.06.25/outbox.cif.g09.slc.cpg/sg2_135_cif.got.tgz:269884.got - 2010.06.27 13:26:56.
