data_PCOD8043062
_publ_section_title
;
Structure prediction by ZEFSAII (Michael W. Deem and Ramdas Pophale) SiO2 
 PCOD8043062
Probable space group: P -1
;
_chemical_formula_sum "Si O2"
_cell_formula_units_Z 16
_cell_length_a 11.512812
_cell_length_b 16.452040
_cell_length_c 9.238785
_cell_angle_alpha 123.994258
_cell_angle_beta 79.303176
_cell_angle_gamma 54.865613
_cell_volume 787.073645
_symmetry_space_group_name_H-M "P -1"
_symmetry_group_IT_number 2
_symmetry_cell_setting 'triclinic'
loop_
_space_group_symop_operation_xyz
x,y,z
-x,-y,-z
loop_
_atom_site_type_symbol
_atom_site_label
_atom_site_fract_x
_atom_site_fract_y
_atom_site_fract_z
Si Si1 0.892824 0.699094 0.353384
Si Si2 0.460285 0.068681 0.733731
Si Si3 0.353498 0.650732 0.064700
Si Si4 0.978133 0.179894 0.485269
Si Si5 0.425633 0.801664 0.071873
Si Si6 0.001446 0.408509 0.111203
Si Si7 0.631768 0.564278 0.525216
Si Si8 0.342876 0.636825 0.508910
O O1 0.013047 0.707456 0.410397
O O2 0.966348 0.550253 0.269577
O O3 0.632125 0.894353 0.624613
O O4 0.961173 0.649620 0.120431
O O5 0.504185 0.153970 0.807116
O O6 0.500000 0.000000 0.500000
O O7 0.205452 0.233957 0.990047
O O8 0.394334 0.738813 0.135829
O O9 0.111220 0.792600 0.308724
O O10 0.500000 0.500000 0.000000
O O11 0.423805 0.558721 0.802401
O O12 0.834729 0.232275 0.443522
O O13 0.208121 0.973540 0.207079
O O14 0.598136 0.657870 0.764306
O O15 0.790698 0.503459 0.314493
O O16 0.401756 0.699862 0.634331
O O17 0.732255 0.391779 0.385247
#
# Coordination Sequence:
#
# PCOD8043062 Si02
#       8
#     2   2   2   2   2   2   2   2
#     4   9  20  37  59  89 113 140 202 243 284 340
#     4   9  20  39  57  85 116 146 192 244 283 332
#     4   9  18  32  58  86 107 144 191 234 286 336
#     4  10  19  36  57  84 115 148 187 243 295 327
#     4  10  21  36  56  84 122 147 188 243 282 351
#     4  10  20  37  63  81 112 158 187 241 294 335
#     4  10  21  38  54  83 114 154 195 226 288 359
#     4   9  20  37  56  80 116 147 191 239 279 350
#
# _framework density 20.328465999999999
#
# number of rings (size 3 to 8) (size 9 to 14) (size 15 to 20)
#    0.000    2.500    0.000    1.125    5.250    1.000 
#    9.000    2.500    0.000    0.000    0.000    0.000 
#    0.000    0.000    0.000    0.000    0.000    0.000 
#
# Total GULP energy -198243.597586 kJ/mol
# GULP energy per Si atom -12390.224849 kJ/mol
# Density = 2.028220 g / cm^3
# Si number density = 20.328466 Si / 1000 Ang^3
#
#
#
# Elastic Constant Matrix: (Units=GPa)
#
#
# Indices 1 2 3 4 5 6 
#
# 1 110.7630 39.1141 43.3865 1.9811 4.3209 -2.2241
# 2 39.1141 70.8281 33.7460 2.3527 -4.7265 4.5744
# 3 43.3865 33.7460 66.6282 9.1356 -5.9154 11.1353
# 4 1.9811 2.3527 9.1356 25.5365 2.5476 -4.4753
# 5 4.3209 -4.7265 -5.9154 2.5476 33.8251 -0.5927
# 6 -2.2241 4.5744 11.1353 -4.4753 -0.5927 31.3230
#
#
#
# Elastic Compliance Matrix: (Units=1/GPa)
#
#
# Indices 1 2 3 4 5 6 
#
# 1 0.014233 -0.004410 -0.008800 0.003785 -0.004166 0.005245
# 2 -0.004410 0.020102 -0.007133 0.000737 0.002059 -0.000569
# 3 -0.008800 -0.007133 0.028271 -0.011297 0.005727 -0.011139
# 4 0.003785 0.000737 -0.011297 0.045243 -0.005579 0.010536
# 5 -0.004166 0.002059 0.005727 -0.005579 0.031756 -0.002829
# 6 0.005245 -0.000569 -0.011139 0.010536 -0.002829 0.037793
#
#
# Mechanical properties :
#
#
# Convention : Reuss Voigt Hill
#
# Bulk Modulus (GPa) = 45.61980 53.41250 49.51615
# Shear Modulus (GPa) = 22.18387 26.93510 24.55948
#
# Velocity S-wave (km/s) = 3.30702 3.64400 3.47959
# Velocity P-wave (km/s) = 6.08867 6.63602 6.36823
#
# Compressibility (1/GPa) = 0.02192031
#
# Stress axis : x y z
#
# Youngs Moduli (GPa) = 70.26118 49.74609 35.37206
#
# Poissons Ratio (x) = 0.21936 0.31127
# Poissons Ratio (y) = 0.30982 0.25231
# Poissons Ratio (z) = 0.61830 0.35484
#
# Static dielectric constant tensor:
#      x y z
#    x 3.851750 0.006460 -0.167490 
#    y 0.006460 3.603960 0.098460 
#    z -0.167490 0.098460 4.101730 
# 
# 
# High freq. dielectric constant tensor:
#      x y z
#    x 1.799600 -0.003550 0.004290 
#    y -0.003550 1.774410 0.008670 
#    z 0.004290 0.008670 1.788310 
# 
# From -- ./inp_files/274055.got.cif
#   From: 2010.06.25/outbox.cif.g09.slc.cpg/sg2_138_cif.got.tgz:274055.got - 2010.06.27 13:26:56.
