data_PCOD8043969
_publ_section_title
;
Structure prediction by ZEFSAII (Michael W. Deem and Ramdas Pophale) SiO2 
 PCOD8043969
Probable space group: P -1
;
_chemical_formula_sum "Si O2"
_cell_formula_units_Z 16
_cell_length_a 13.679003
_cell_length_b 7.975552
_cell_length_c 12.256495
_cell_angle_alpha 92.504438
_cell_angle_beta 127.835067
_cell_angle_gamma 125.852991
_cell_volume 665.080173
_symmetry_space_group_name_H-M "P -1"
_symmetry_group_IT_number 2
_symmetry_cell_setting 'triclinic'
loop_
_space_group_symop_operation_xyz
x,y,z
-x,-y,-z
loop_
_atom_site_type_symbol
_atom_site_label
_atom_site_fract_x
_atom_site_fract_y
_atom_site_fract_z
Si Si1 0.687240 0.490002 0.258929
Si Si2 0.272067 0.999180 0.879932
Si Si3 0.363324 0.926011 0.721191
Si Si4 0.059031 0.798375 0.068930
Si Si5 0.279047 0.162679 0.551680
Si Si6 0.721477 0.660696 0.830785
Si Si7 0.119353 0.180064 0.809191
Si Si8 0.189010 0.671857 0.987956
O O1 0.737690 0.366542 0.353803
O O2 0.750221 0.723191 0.373665
O O3 0.779573 0.585308 0.202028
O O4 0.452059 0.250810 0.085626
O O5 0.140036 0.019299 0.759939
O O6 0.367259 0.001272 0.846872
O O7 0.141493 0.730605 0.851283
O O8 0.244983 0.937982 0.569011
O O9 0.590217 0.164725 0.846825
O O10 0.153095 0.738696 0.074484
O O11 0.226720 0.115138 0.192919
O O12 0.859898 0.662969 0.870344
O O13 0.971894 0.650183 0.125797
O O14 0.491694 0.390688 0.647087
O O15 0.111848 0.021080 0.343182
O O16 0.775758 0.723794 0.998998
#
# Coordination Sequence:
#
# PCOD8043969 Si02
#       8
#     2   2   2   2   2   2   2   2
#     4  11  22  39  64  93 135 176 208 265 323 384
#     4  11  21  39  67 101 130 171 215 262 323 393
#     4  11  23  38  67  99 132 171 213 264 325 388
#     4  10  21  36  69  90 122 171 220 266 322 378
#     4  12  24  43  65  94 138 171 212 271 319 386
#     4  11  22  43  64  93 122 174 218 265 327 375
#     4  12  24  40  65  97 133 171 217 264 320 389
#     4  10  19  37  62 100 125 163 220 269 317 383
#
# _framework density 24.057251000000001
#
# number of rings (size 3 to 8) (size 9 to 14) (size 15 to 20)
#    0.000    1.000    5.000    3.750    1.750    0.500 
#    0.000    2.500    0.000    1.500    0.000    0.000 
#    0.000    0.000    0.000    0.000    0.000    0.000 
#
# Total GULP energy -198213.508928 kJ/mol
# GULP energy per Si atom -12388.344308 kJ/mol
# Density = 2.400250 g / cm^3
# Si number density = 24.057251 Si / 1000 Ang^3
#
#
#
# Elastic Constant Matrix: (Units=GPa)
#
#
# Indices 1 2 3 4 5 6 
#
# 1 82.5127 31.8155 26.1251 4.1241 22.4142 -10.7834
# 2 31.8155 170.7615 37.5759 13.0500 18.9054 -10.2287
# 3 26.1251 37.5759 70.7357 1.0263 26.6901 -6.6821
# 4 4.1241 13.0500 1.0263 20.7520 1.3931 10.1782
# 5 22.4142 18.9054 26.6901 1.3931 27.2600 -1.8226
# 6 -10.7834 -10.2287 -6.6821 10.1782 -1.8226 46.3782
#
#
#
# Elastic Compliance Matrix: (Units=1/GPa)
#
#
# Indices 1 2 3 4 5 6 
#
# 1 0.016669 -0.001137 -0.000679 -0.003669 -0.011806 0.003868
# 2 -0.001137 0.007315 -0.002836 -0.005169 -0.000962 0.002037
# 3 -0.000679 -0.002836 0.023875 0.001382 -0.020819 0.001535
# 4 -0.003669 -0.005169 0.001382 0.059250 0.001234 -0.014748
# 5 -0.011806 -0.000962 -0.020819 0.001234 0.067139 -0.003589
# 6 0.003868 0.002037 0.001535 -0.014748 -0.003589 0.026227
#
#
# Mechanical properties :
#
#
# Convention : Reuss Voigt Hill
#
# Bulk Modulus (GPa) = 25.93698 57.22701 41.58200
# Shear Modulus (GPa) = 22.45875 34.11091 28.28483
#
# Velocity S-wave (km/s) = 3.05873 3.76959 3.43261
# Velocity P-wave (km/s) = 4.82485 6.54110 5.74740
#
# Compressibility (1/GPa) = 0.03855499
#
# Stress axis : x y z
#
# Youngs Moduli (GPa) = 59.99254 136.69620 41.88553
#
# Poissons Ratio (x) = 0.15543 0.02844
# Poissons Ratio (y) = 0.06822 0.11878
# Poissons Ratio (z) = 0.04073 0.38766
#
# Static dielectric constant tensor:
#      x y z
#    x 4.541210 -0.250630 0.386140 
#    y -0.250630 5.136440 0.136890 
#    z 0.386140 0.136890 3.708300 
# 
# 
# High freq. dielectric constant tensor:
#      x y z
#    x 1.969970 -0.013140 0.033660 
#    y -0.013140 1.983170 0.011650 
#    z 0.033660 0.011650 1.900160 
# 
# From -- ./inp_files/327493.got.cif
#   From: 2010.06.25/outbox.cif.g09.slc.cpg/sg2_164_cif.got.tgz:327493.got - 2010.06.27 13:26:56.
