data_PCOD8043139
_publ_section_title
;
Structure prediction by ZEFSAII (Michael W. Deem and Ramdas Pophale) SiO2 
 PCOD8043139
Probable space group: P -1
;
_chemical_formula_sum "Si O2"
_cell_formula_units_Z 14
_cell_length_a 9.158785
_cell_length_b 11.976491
_cell_length_c 14.021376
_cell_angle_alpha 51.249177
_cell_angle_beta 48.469631
_cell_angle_gamma 37.587868
_cell_volume 685.065239
_symmetry_space_group_name_H-M "P -1"
_symmetry_group_IT_number 2
_symmetry_cell_setting 'triclinic'
loop_
_space_group_symop_operation_xyz
x,y,z
-x,-y,-z
loop_
_atom_site_type_symbol
_atom_site_label
_atom_site_fract_x
_atom_site_fract_y
_atom_site_fract_z
Si Si1 0.126293 0.257233 0.398590
Si Si2 0.989786 0.846708 0.046385
Si Si3 0.763918 0.171583 0.232735
Si Si4 0.806796 0.466117 0.729502
Si Si5 0.485734 0.946524 0.275364
Si Si6 0.745265 0.858470 0.394020
Si Si7 0.102355 0.921926 0.393714
O O1 0.053390 0.457737 0.327878
O O2 0.333311 0.133353 0.464670
O O3 0.898167 0.251668 0.525364
O O4 0.253319 0.164297 0.290136
O O5 0.700175 0.924763 0.132998
O O6 0.180168 0.657991 0.126616
O O7 0.082620 0.799433 0.922091
O O8 0.000000 0.000000 0.000000
O O9 0.483192 0.370406 0.265029
O O10 0.741914 0.025353 0.272832
O O11 0.919170 0.086562 0.309160
O O12 0.962468 0.339388 0.636831
O O13 0.587730 0.843857 0.390012
O O14 0.383920 0.860860 0.301534
O O15 0.000000 0.000000 0.500000
#
# Coordination Sequence:
#
# PCOD8043139 Si02
#       7
#     2   2   2   2   2   2   2
#     4  10  19  36  58  89 121 153 198 242 299 351
#     4  11  21  39  61  92 118 153 207 250 295 347
#     4  11  21  39  64  88 120 163 196 245 299 346
#     4  11  21  34  63  96 116 150 205 253 292 351
#     4  10  19  36  61  86 120 162 190 240 297 352
#     4  10  20  35  61  91 119 152 196 251 305 340
#     4   9  22  37  62  88 123 164 192 236 309 359
#
# _framework density 20.436011000000001
#
# number of rings (size 3 to 8) (size 9 to 14) (size 15 to 20)
#    0.000    1.714    4.286    1.286    4.000    0.571 
#    0.000    2.857   18.857    4.286    0.000    0.000 
#    0.000    0.000    0.000    0.000    0.000    0.000 
#
# Total GULP energy -173452.526373 kJ/mol
# GULP energy per Si atom -12389.466170 kJ/mol
# Density = 2.038950 g / cm^3
# Si number density = 20.436011 Si / 1000 Ang^3
#
#
#
# Elastic Constant Matrix: (Units=GPa)
#
#
# Indices 1 2 3 4 5 6 
#
# 1 129.8904 34.1603 55.3531 -5.1534 -15.3743 -13.1505
# 2 34.1603 84.0222 35.1216 -4.2734 -12.2708 -5.6692
# 3 55.3531 35.1216 115.4931 -4.6003 -9.8453 -4.3609
# 4 -5.1534 -4.2734 -4.6003 35.9750 -3.6318 -3.5610
# 5 -15.3743 -12.2708 -9.8453 -3.6318 39.6088 3.2026
# 6 -13.1505 -5.6692 -4.3609 -3.5610 3.2026 21.9200
#
#
#
# Elastic Compliance Matrix: (Units=1/GPa)
#
#
# Indices 1 2 3 4 5 6 
#
# 1 0.010819 -0.001904 -0.004157 0.001528 0.002306 0.005083
# 2 -0.001904 0.014634 -0.003151 0.001547 0.003005 0.001828
# 3 -0.004157 -0.003151 0.011626 0.000462 0.000422 -0.000982
# 4 0.001528 0.001547 0.000462 0.029162 0.003404 0.005649
# 5 0.002306 0.003005 0.000422 0.003404 0.027590 -0.001233
# 6 0.005083 0.001828 -0.000982 0.005649 -0.001233 0.050045
#
#
# Mechanical properties :
#
#
# Convention : Reuss Voigt Hill
#
# Bulk Modulus (GPa) = 53.60239 64.29729 58.94984
# Shear Modulus (GPa) = 29.67056 33.15215 31.41135
#
# Velocity S-wave (km/s) = 3.81448 4.03208 3.92479
# Velocity P-wave (km/s) = 6.75919 7.29437 7.03188
#
# Compressibility (1/GPa) = 0.01865589
#
# Stress axis : x y z
#
# Youngs Moduli (GPa) = 92.42909 68.33596 86.01094
#
# Poissons Ratio (x) = 0.13008 0.35756
# Poissons Ratio (y) = 0.17595 0.27101
# Poissons Ratio (z) = 0.38424 0.21532
#
# Static dielectric constant tensor:
#      x y z
#    x 4.265360 0.009270 -0.391170 
#    y 0.009270 3.699240 0.084160 
#    z -0.391170 0.084160 3.961860 
# 
# 
# High freq. dielectric constant tensor:
#      x y z
#    x 1.783650 0.002960 -0.008370 
#    y 0.002960 1.788650 0.008110 
#    z -0.008370 0.008110 1.803260 
# 
# From -- ./inp_files/252974.got.cif
#   From: 2010.06.25/outbox.cif.g09.slc.cpg/sg2_127_cif.got.tgz:252974.got - 2010.06.27 13:26:56.
