data_PCOD8043650
_publ_section_title
;
Structure prediction by ZEFSAII (Michael W. Deem and Ramdas Pophale) SiO2 
 PCOD8043650
Probable space group: P -1
;
_chemical_formula_sum "Si O2"
_cell_formula_units_Z 16
_cell_length_a 20.375786
_cell_length_b 9.019456
_cell_length_c 10.012132
_cell_angle_alpha 122.376147
_cell_angle_beta 120.729568
_cell_angle_gamma 31.427044
_cell_volume 804.138125
_symmetry_space_group_name_H-M "P -1"
_symmetry_group_IT_number 2
_symmetry_cell_setting 'triclinic'
loop_
_space_group_symop_operation_xyz
x,y,z
-x,-y,-z
loop_
_atom_site_type_symbol
_atom_site_label
_atom_site_fract_x
_atom_site_fract_y
_atom_site_fract_z
Si Si1 0.888093 0.848217 0.557804
Si Si2 0.251557 0.950219 0.220829
Si Si3 0.939961 0.125972 0.642598
Si Si4 0.511762 0.609490 0.939338
Si Si5 0.694539 0.754005 0.600145
Si Si6 0.909355 0.826567 0.088122
Si Si7 0.568319 0.722338 0.282932
Si Si8 0.719561 0.125046 0.267385
O O1 0.000000 0.500000 0.500000
O O2 0.822269 0.990110 0.701255
O O3 0.951515 0.918318 0.626452
O O4 0.773518 0.010660 0.417066
O O5 0.398125 0.621526 0.199715
O O6 0.239016 0.183178 0.330445
O O7 0.192144 0.977096 0.039334
O O8 0.793549 0.447737 0.631001
O O9 0.015145 0.129800 0.810193
O O10 0.000000 0.000000 0.500000
O O11 0.369595 0.882049 0.860015
O O12 0.500000 0.500000 0.000000
O O13 0.565993 0.687821 0.103564
O O14 0.647680 0.753807 0.410921
O O15 0.577546 0.990174 0.691088
O O16 0.841677 0.913463 0.199110
O O17 0.000000 0.500000 0.000000
O O18 0.630617 0.457871 0.313232
#
# Coordination Sequence:
#
# PCOD8043650 Si02
#       8
#     2   2   2   2   2   2   2   2
#     4  12  27  45  62  98 139 176 218 272 332 393
#     4  12  23  40  66  99 133 169 214 275 335 378
#     4  12  24  42  68  94 128 179 224 265 322 397
#     4  10  19  38  65  97 127 166 214 269 323 385
#     4  11  20  37  66 101 123 168 224 269 321 392
#     4  12  22  37  70  99 124 171 228 269 318 393
#     4  10  19  36  68  97 125 160 225 278 309 379
#     4  11  20  41  65  94 130 173 215 267 326 391
#
# _framework density 19.897079000000002
#
# number of rings (size 3 to 8) (size 9 to 14) (size 15 to 20)
#    0.000    0.750    8.750    1.500    0.000    1.000 
#    0.000    0.000    0.000    1.500    0.000    0.000 
#    0.000    0.000    0.000    0.000    0.000    0.000 
#
# Total GULP energy -198352.332067 kJ/mol
# GULP energy per Si atom -12397.020754 kJ/mol
# Density = 1.985179 g / cm^3
# Si number density = 19.897079 Si / 1000 Ang^3
#
#
#
# Elastic Constant Matrix: (Units=GPa)
#
#
# Indices 1 2 3 4 5 6 
#
# 1 98.9369 27.5458 35.9722 12.2249 11.9108 -0.1284
# 2 27.5458 104.2860 11.1704 15.6686 9.8761 -9.7228
# 3 35.9722 11.1704 97.6724 4.2493 29.4803 1.9305
# 4 12.2249 15.6686 4.2493 34.8935 -12.1349 0.3373
# 5 11.9108 9.8761 29.4803 -12.1349 44.7519 3.4520
# 6 -0.1284 -9.7228 1.9305 0.3373 3.4520 27.8215
#
#
#
# Elastic Compliance Matrix: (Units=1/GPa)
#
#
# Indices 1 2 3 4 5 6 
#
# 1 0.012742 -0.002364 -0.003920 -0.003327 -0.001166 -0.000311
# 2 -0.002364 0.011963 0.001164 -0.006432 -0.004890 0.004774
# 3 -0.003920 0.001164 0.014831 -0.004532 -0.010265 0.000688
# 4 -0.003327 -0.006432 -0.004532 0.038938 0.016191 -0.004430
# 5 -0.001166 -0.004890 -0.010265 0.016191 0.035318 -0.005581
# 6 -0.000311 0.004774 0.000688 -0.004430 -0.005581 0.038309
#
#
# Mechanical properties :
#
#
# Convention : Reuss Voigt Hill
#
# Bulk Modulus (GPa) = 34.13412 50.03023 42.08218
# Shear Modulus (GPa) = 29.05180 36.57385 32.81283
#
# Velocity S-wave (km/s) = 3.82528 4.29202 4.06535
# Velocity P-wave (km/s) = 6.05829 7.05415 6.57510
#
# Compressibility (1/GPa) = 0.02929620
#
# Stress axis : x y z
#
# Youngs Moduli (GPa) = 78.48089 83.58781 67.42759
#
# Poissons Ratio (x) = 0.19763 0.26429
# Poissons Ratio (y) = 0.18556 -0.07849
# Poissons Ratio (z) = 0.30762 -0.09730
#
# Static dielectric constant tensor:
#      x y z
#    x 2.260680 0.953770 -1.496330 
#    y 0.953770 2.530900 1.843270 
#    z -1.496330 1.843270 1.237160 
# 
# 
# High freq. dielectric constant tensor:
#      x y z
#    x 1.749690 -0.032700 0.023620 
#    y -0.032700 1.778470 0.007710 
#    z 0.023620 0.007710 1.792000 
# 
# From -- ./inp_files/343786.got.cif
#   From: 2010.06.25/outbox.cif.g09.slc.cpg/sg2_172_cif.got.tgz:343786.got - 2010.06.27 13:26:56.
