data_PCOD8043676
_publ_section_title
;
Structure prediction by ZEFSAII (Michael W. Deem and Ramdas Pophale) SiO2 
 PCOD8043676
Probable space group: P -1
;
_chemical_formula_sum "Si O2"
_cell_formula_units_Z 14
_cell_length_a 8.937654
_cell_length_b 13.386529
_cell_length_c 22.210859
_cell_angle_alpha 24.259999
_cell_angle_beta 104.782770
_cell_angle_gamma 88.558495
_cell_volume 803.308325
_symmetry_space_group_name_H-M "P -1"
_symmetry_group_IT_number 2
_symmetry_cell_setting 'triclinic'
loop_
_space_group_symop_operation_xyz
x,y,z
-x,-y,-z
loop_
_atom_site_type_symbol
_atom_site_label
_atom_site_fract_x
_atom_site_fract_y
_atom_site_fract_z
Si Si1 0.426285 0.060262 0.862125
Si Si2 0.473066 0.928331 0.470528
Si Si3 0.355902 0.917262 0.698869
Si Si4 0.614741 0.674819 0.974707
Si Si5 0.489682 0.366297 0.794151
Si Si6 0.964182 0.701287 0.828602
Si Si7 0.085558 0.709673 0.510190
O O1 0.563763 0.110258 0.888251
O O2 0.197022 0.405898 0.642978
O O3 0.517853 0.932570 0.876074
O O4 0.420213 0.811174 0.034969
O O5 0.561431 0.564719 0.677449
O O6 0.500000 0.000000 0.500000
O O7 0.604777 0.955207 0.424253
O O8 0.236799 0.181441 0.290135
O O9 0.405437 0.589155 0.866802
O O10 0.496998 0.859330 0.800049
O O11 0.121738 0.194458 0.540222
O O12 0.848941 0.514227 0.080355
O O13 0.240811 0.605863 0.638995
O O14 0.954522 0.991290 0.691323
O O15 0.000000 0.500000 0.000000
#
# Coordination Sequence:
#
# PCOD8043676 Si02
#       7
#     2   2   2   2   2   2   2
#     4   9  17  36  59  75 105 147 186 209 268 333
#     4  11  21  35  57  83 110 141 181 229 271 313
#     4  10  20  34  52  84 112 134 183 230 266 311
#     4  10  20  33  59  78 105 149 180 218 269 325
#     4   8  18  36  56  74 111 144 175 223 267 319
#     4  10  19  37  55  79 112 145 177 222 270 321
#     4   8  18  34  56  77 107 145 173 221 267 317
#
# _framework density 17.427928000000001
#
# number of rings (size 3 to 8) (size 9 to 14) (size 15 to 20)
#    0.857    1.714    1.429    0.857    0.000    1.714 
#    0.000    7.857    3.143    0.000    0.000    0.000 
#    0.000    0.000    0.000    0.000    0.000    0.000 
#
# Total GULP energy -173506.686932 kJ/mol
# GULP energy per Si atom -12393.334781 kJ/mol
# Density = 1.738826 g / cm^3
# Si number density = 17.427928 Si / 1000 Ang^3
#
#
#
# Elastic Constant Matrix: (Units=GPa)
#
#
# Indices 1 2 3 4 5 6 
#
# 1 100.8735 42.1147 54.4237 -1.1907 -11.1310 -12.6229
# 2 42.1147 109.1419 51.1647 -4.3423 -9.1044 -13.4871
# 3 54.4237 51.1647 109.5524 -5.6338 -15.0645 -14.4150
# 4 -1.1907 -4.3423 -5.6338 24.4576 -6.2740 4.9040
# 5 -11.1310 -9.1044 -15.0645 -6.2740 33.2946 0.8422
# 6 -12.6229 -13.4871 -14.4150 4.9040 0.8422 21.3662
#
#
#
# Elastic Compliance Matrix: (Units=1/GPa)
#
#
# Indices 1 2 3 4 5 6 
#
# 1 0.014478 -0.002550 -0.005420 -0.001363 0.001344 0.003547
# 2 -0.002550 0.012544 -0.003979 0.000687 0.000818 0.003538
# 3 -0.005420 -0.003979 0.014874 0.002852 0.004279 0.003498
# 4 -0.001363 0.000687 0.002852 0.046034 0.009935 -0.009405
# 5 0.001344 0.000818 0.004279 0.009935 0.034502 0.000557
# 6 0.003547 0.003538 0.003498 -0.009405 0.000557 0.055628
#
#
# Mechanical properties :
#
#
# Convention : Reuss Voigt Hill
#
# Bulk Modulus (GPa) = 55.55684 68.33046 61.94365
# Shear Modulus (GPa) = 24.04327 27.28132 25.66229
#
# Velocity S-wave (km/s) = 3.71830 3.96078 3.84145
# Velocity P-wave (km/s) = 7.09800 7.75948 7.43610
#
# Compressibility (1/GPa) = 0.01799958
#
# Stress axis : x y z
#
# Youngs Moduli (GPa) = 69.06847 79.71900 67.22975
#
# Poissons Ratio (x) = 0.20324 0.36441
# Poissons Ratio (y) = 0.17609 0.26749
# Poissons Ratio (z) = 0.37438 0.31718
#
# Static dielectric constant tensor:
#      x y z
#    x 3.793440 0.032580 0.856050 
#    y 0.032580 2.971310 -0.126200 
#    z 0.856050 -0.126200 4.704070 
# 
# 
# High freq. dielectric constant tensor:
#      x y z
#    x 1.663050 0.001530 -0.006220 
#    y 0.001530 1.650290 -0.003690 
#    z -0.006220 -0.003690 1.684530 
# 
# From -- ./inp_files/227909.got.cif
#   From: 2010.06.25/outbox.cif.g09.slc.cpg/sg2_114_cif.got.tgz:227909.got - 2010.06.27 13:26:56.
