data_PCOD8043545
_publ_section_title
;
Structure prediction by ZEFSAII (Michael W. Deem and Ramdas Pophale) SiO2 
 PCOD8043545
Probable space group: P -1
;
_chemical_formula_sum "Si O2"
_cell_formula_units_Z 16
_cell_length_a 10.797406
_cell_length_b 8.329900
_cell_length_c 9.412890
_cell_angle_alpha 117.467720
_cell_angle_beta 83.466123
_cell_angle_gamma 121.605674
_cell_volume 630.517625
_symmetry_space_group_name_H-M "P -1"
_symmetry_group_IT_number 2
_symmetry_cell_setting 'triclinic'
loop_
_space_group_symop_operation_xyz
x,y,z
-x,-y,-z
loop_
_atom_site_type_symbol
_atom_site_label
_atom_site_fract_x
_atom_site_fract_y
_atom_site_fract_z
Si Si1 0.752540 0.369623 0.318569
Si Si2 0.475312 0.907437 0.147094
Si Si3 0.264955 0.514610 0.175299
Si Si4 0.213045 0.919868 0.097659
Si Si5 0.783619 0.705022 0.631829
Si Si6 0.277863 0.152245 0.909540
Si Si7 0.974892 0.405387 0.784940
Si Si8 0.094426 0.796014 0.586555
O O1 0.598100 0.151941 0.265283
O O2 0.728735 0.563401 0.436603
O O3 0.871741 0.378573 0.421590
O O4 0.844317 0.424300 0.178284
O O5 0.360431 0.906978 0.048961
O O6 0.372844 0.769974 0.238021
O O7 0.556317 0.783999 0.041327
O O8 0.308971 0.458015 0.294666
O O9 0.098653 0.458143 0.176321
O O10 0.272939 0.364819 0.991730
O O11 0.249577 0.106721 0.284733
O O12 0.072682 0.704548 0.096718
O O13 0.172549 0.981186 0.977234
O O14 0.956409 0.798086 0.669625
O O15 0.231727 0.031553 0.714177
O O16 0.921655 0.228169 0.592507
#
# Coordination Sequence:
#
# PCOD8043545 Si02
#       8
#     2   2   2   2   2   2   2   2
#     4  10  19  36  64  90 124 157 201 253 310 351
#     4  10  22  39  60  85 125 167 205 239 311 364
#     4  10  19  36  65  91 115 158 214 249 286 366
#     4  10  23  38  63  88 126 164 201 249 304 367
#     4  10  19  37  64  89 128 154 201 258 307 351
#     4  10  22  40  66  86 128 159 202 253 314 352
#     4  10  19  40  66  92 122 156 204 255 305 359
#     4  10  19  37  65  94 120 154 203 255 314 348
#
# _framework density 25.375975
#
# number of rings (size 3 to 8) (size 9 to 14) (size 15 to 20)
#    0.000    2.000    2.500    1.500    0.000    5.000 
#    2.250    2.500   35.750    0.000    0.000    0.000 
#    0.000    0.000    0.000    0.000    0.000    0.000 
#
# Total GULP energy -198235.494728 kJ/mol
# GULP energy per Si atom -12389.718421 kJ/mol
# Density = 2.531822 g / cm^3
# Si number density = 25.375975 Si / 1000 Ang^3
#
#
#
# Elastic Constant Matrix: (Units=GPa)
#
#
# Indices 1 2 3 4 5 6 
#
# 1 78.5909 31.1747 44.0424 21.7380 -14.2206 11.0052
# 2 31.1747 99.7026 4.1826 16.3531 8.3839 14.0091
# 3 44.0424 4.1826 57.2133 12.5075 -16.8393 12.7953
# 4 21.7380 16.3531 12.5075 35.3042 -12.9014 2.5996
# 5 -14.2206 8.3839 -16.8393 -12.9014 37.8592 5.1810
# 6 11.0052 14.0091 12.7953 2.5996 5.1810 25.2558
#
#
#
# Elastic Compliance Matrix: (Units=1/GPa)
#
#
# Indices 1 2 3 4 5 6 
#
# 1 0.028878 -0.007423 -0.020537 -0.007029 0.000614 0.002536
# 2 -0.007423 0.014182 0.005985 -0.005183 -0.004174 -0.006275
# 3 -0.020537 0.005985 0.039720 0.001199 0.011355 -0.016947
# 4 -0.007029 -0.005183 0.001199 0.039340 0.012625 -0.001309
# 5 0.000614 -0.004174 0.011355 0.012625 0.038693 -0.012942
# 6 0.002536 -0.006275 -0.016947 -0.001309 -0.012942 0.053346
#
#
# Mechanical properties :
#
#
# Convention : Reuss Voigt Hill
#
# Bulk Modulus (GPa) = 25.75303 43.81179 34.78241
# Shear Modulus (GPa) = 18.44665 30.09099 24.26882
#
# Velocity S-wave (km/s) = 2.69910 3.44729 3.09588
# Velocity P-wave (km/s) = 4.45916 5.75740 5.14936
#
# Compressibility (1/GPa) = 0.03883039
#
# Stress axis : x y z
#
# Youngs Moduli (GPa) = 34.62877 70.50991 25.17604
#
# Poissons Ratio (x) = 0.52339 0.51704
# Poissons Ratio (y) = 0.25704 -0.15068
# Poissons Ratio (z) = 0.71117 -0.42200
#
# Static dielectric constant tensor:
#      x y z
#    x 4.443830 0.062460 -0.430200 
#    y 0.062460 4.511210 0.026280 
#    z -0.430200 0.026280 4.591580 
# 
# 
# High freq. dielectric constant tensor:
#      x y z
#    x 1.992200 0.008550 -0.022890 
#    y 0.008550 2.011380 0.007390 
#    z -0.022890 0.007390 2.014820 
# 
# From -- ./inp_files/419716.got.cif
#   From: 2010.06.25/outbox.cif.g09.slc.cpg/sg2_210_cif.got.tgz:419716.got - 2010.06.27 13:26:56.
