data_PCOD8043046
_publ_section_title
;
Structure prediction by ZEFSAII (Michael W. Deem and Ramdas Pophale) SiO2 
 PCOD8043046
Probable space group: P -1
;
_chemical_formula_sum "Si O2"
_cell_formula_units_Z 16
_cell_length_a 11.690420
_cell_length_b 11.615906
_cell_length_c 15.150595
_cell_angle_alpha 65.227201
_cell_angle_beta 28.710785
_cell_angle_gamma 74.727770
_cell_volume 871.456108
_symmetry_space_group_name_H-M "P -1"
_symmetry_group_IT_number 2
_symmetry_cell_setting 'triclinic'
loop_
_space_group_symop_operation_xyz
x,y,z
-x,-y,-z
loop_
_atom_site_type_symbol
_atom_site_label
_atom_site_fract_x
_atom_site_fract_y
_atom_site_fract_z
Si Si1 0.569619 0.863250 0.596109
Si Si2 0.791841 0.644742 0.584114
Si Si3 0.396211 0.179142 0.852420
Si Si4 0.394441 0.039682 0.271417
Si Si5 0.833922 0.222981 0.427499
Si Si6 0.683968 0.705677 0.828093
Si Si7 0.332969 0.647035 0.236428
Si Si8 0.841863 0.141874 0.256890
O O1 0.704753 0.744383 0.545523
O O2 0.480680 0.892088 0.744859
O O3 0.328094 0.817261 0.715249
O O4 0.754526 0.988494 0.387579
O O5 0.662471 0.639442 0.768572
O O6 0.722638 0.498780 0.637255
O O7 0.083799 0.695894 0.383031
O O8 0.584553 0.256473 0.624709
O O9 0.470871 0.249579 0.872665
O O10 0.418216 0.027748 0.888001
O O11 0.116647 0.177261 0.020805
O O12 0.301846 0.140189 0.240014
O O13 0.163151 0.924735 0.496400
O O14 0.832002 0.231779 0.320306
O O15 0.076590 0.316517 0.274917
O O16 0.441301 0.640196 0.067660
#
# Coordination Sequence:
#
# PCOD8043046 Si02
#       8
#     2   2   2   2   2   2   2   2
#     4   9  20  38  56  77 110 142 174 222 262 315
#     4  10  22  39  52  79 113 136 182 218 260 315
#     4  10  20  33  52  83 109 135 175 219 264 316
#     4   8  19  31  49  83 107 136 165 222 274 304
#     4   9  18  32  49  80 110 135 166 221 269 310
#     4  11  18  34  54  78 110 136 179 216 270 318
#     4  11  22  34  57  80 105 150 172 215 267 319
#     4  10  19  36  57  81 104 142 179 213 273 312
#
# _framework density 18.360078000000001
#
# number of rings (size 3 to 8) (size 9 to 14) (size 15 to 20)
#    0.750    1.500    2.500    0.750    1.750    2.000 
#    0.000    0.625    0.000    0.750    0.000    0.000 
#    0.000    0.000    0.000    0.000    0.000    0.000 
#
# Total GULP energy -198289.506943 kJ/mol
# GULP energy per Si atom -12393.094184 kJ/mol
# Density = 1.831829 g / cm^3
# Si number density = 18.360078 Si / 1000 Ang^3
#
#
#
# Elastic Constant Matrix: (Units=GPa)
#
#
# Indices 1 2 3 4 5 6 
#
# 1 101.4182 42.3984 30.7090 4.5836 -15.0569 -7.2864
# 2 42.3984 70.8727 24.2683 7.3535 -10.5094 -9.1576
# 3 30.7090 24.2683 74.4158 22.6494 -3.4161 -3.6874
# 4 4.5836 7.3535 22.6494 24.3307 -0.0352 -0.4453
# 5 -15.0569 -10.5094 -3.4161 -0.0352 22.1786 3.6109
# 6 -7.2864 -9.1576 -3.6874 -0.4453 3.6109 19.1377
#
#
#
# Elastic Compliance Matrix: (Units=1/GPa)
#
#
# Indices 1 2 3 4 5 6 
#
# 1 0.014874 -0.006674 -0.004776 0.003679 0.006128 0.000479
# 2 -0.006674 0.020648 -0.002824 -0.002239 0.003835 0.006020
# 3 -0.004776 -0.002824 0.022010 -0.018721 -0.001366 0.000893
# 4 0.003679 -0.002239 -0.018721 0.058479 -0.001075 -0.001714
# 5 0.006128 0.003835 -0.001366 -0.001075 0.051814 -0.005896
# 6 0.000479 0.006020 0.000893 -0.001714 -0.005896 0.056560
#
#
# Mechanical properties :
#
#
# Convention : Reuss Voigt Hill
#
# Bulk Modulus (GPa) = 34.50232 49.05088 41.77660
# Shear Modulus (GPa) = 19.04077 23.08478 21.06278
#
# Velocity S-wave (km/s) = 3.22386 3.54974 3.39072
# Velocity P-wave (km/s) = 5.71756 6.60113 6.17517
#
# Compressibility (1/GPa) = 0.02898356
#
# Stress axis : x y z
#
# Youngs Moduli (GPa) = 67.22940 48.43063 45.43488
#
# Poissons Ratio (x) = 0.32323 0.21701
# Poissons Ratio (y) = 0.44869 0.12830
# Poissons Ratio (z) = 0.32111 0.13676
#
# Static dielectric constant tensor:
#      x y z
#    x 3.162000 0.117780 0.008030 
#    y 0.117780 3.230230 0.115530 
#    z 0.008030 0.115530 3.228710 
# 
# 
# High freq. dielectric constant tensor:
#      x y z
#    x 1.693390 0.017430 -0.004230 
#    y 0.017430 1.695920 0.011660 
#    z -0.004230 0.011660 1.705470 
# 
# From -- ./inp_files/464641.got.cif
#   From: 2010.06.25/outbox.cif.g09.slc.cpg/sg2_233_cif.got.tgz:464641.got - 2010.06.27 13:26:56.
