data_PCOD8043003
_publ_section_title
;
Structure prediction by ZEFSAII (Michael W. Deem and Ramdas Pophale) SiO2 
 PCOD8043003
Probable space group: P -1
;
_chemical_formula_sum "Si O2"
_cell_formula_units_Z 14
_cell_length_a 21.688139
_cell_length_b 9.324937
_cell_length_c 8.792241
_cell_angle_alpha 49.118820
_cell_angle_beta 119.963273
_cell_angle_gamma 148.434282
_cell_volume 696.109080
_symmetry_space_group_name_H-M "P -1"
_symmetry_group_IT_number 2
_symmetry_cell_setting 'triclinic'
loop_
_space_group_symop_operation_xyz
x,y,z
-x,-y,-z
loop_
_atom_site_type_symbol
_atom_site_label
_atom_site_fract_x
_atom_site_fract_y
_atom_site_fract_z
Si Si1 0.770166 0.303041 0.528308
Si Si2 0.678044 0.082564 0.255154
Si Si3 0.499053 0.304991 0.933614
Si Si4 0.766809 0.911334 0.940950
Si Si5 0.392441 0.798939 0.394659
Si Si6 0.877473 0.765321 0.096891
Si Si7 0.325569 0.247494 0.735610
O O1 0.671575 0.033442 0.463750
O O2 0.713993 0.318509 0.573286
O O3 0.877874 0.644957 0.339282
O O4 0.819219 0.219958 0.727766
O O5 0.767573 0.450642 0.077681
O O6 0.544345 0.835067 0.196958
O O7 0.733074 0.017347 0.278530
O O8 0.447206 0.405261 0.841628
O O9 0.639056 0.594413 0.927444
O O10 0.434065 0.004179 0.158869
O O11 0.858890 0.946482 0.982200
O O12 0.759605 0.902105 0.120791
O O13 0.348547 0.494951 0.507198
O O14 0.500000 0.000000 0.500000
O O15 0.000000 0.000000 0.000000
#
# Coordination Sequence:
#
# PCOD8043003 Si02
#       7
#     2   2   2   2   2   2   2
#     4  10  21  38  56  91 110 153 202 223 293 349
#     4   8  22  39  53  89 122 144 191 244 286 333
#     4  10  21  35  57  89 129 143 190 226 287 356
#     4  12  20  36  65  83 116 163 183 232 293 347
#     4  12  19  33  60  83 121 163 189 214 289 357
#     4  10  23  44  59  80 114 153 204 246 285 336
#     4  10  19  36  55  85 122 150 183 235 278 345
#
# _framework density 20.111791
#
# number of rings (size 3 to 8) (size 9 to 14) (size 15 to 20)
#    1.714    0.000    4.286    1.286    0.000    2.857 
#    0.000    0.714    0.000    1.714    0.000    0.000 
#    0.000    0.000    0.000    0.000    0.000    0.000 
#
# Total GULP energy -173442.490072 kJ/mol
# GULP energy per Si atom -12388.749291 kJ/mol
# Density = 2.006602 g / cm^3
# Si number density = 20.111791 Si / 1000 Ang^3
#
#
#
# Elastic Constant Matrix: (Units=GPa)
#
#
# Indices 1 2 3 4 5 6 
#
# 1 94.9182 4.8973 40.7977 -14.9855 23.5710 1.9273
# 2 4.8973 18.5326 -2.4344 -5.6647 7.5540 -8.9987
# 3 40.7977 -2.4344 116.6347 -28.6241 24.7925 -3.2671
# 4 -14.9855 -5.6647 -28.6241 26.1970 -9.2364 -4.1647
# 5 23.5710 7.5540 24.7925 -9.2364 25.9492 -10.7303
# 6 1.9273 -8.9987 -3.2671 -4.1647 -10.7303 28.4818
#
#
#
# Elastic Compliance Matrix: (Units=1/GPa)
#
#
# Indices 1 2 3 4 5 6 
#
# 1 0.015391 -0.002942 -0.003018 -0.001254 -0.013884 -0.007731
# 2 -0.002942 0.085752 0.014277 0.032780 -0.012224 0.029118
# 3 -0.003018 0.014277 0.015982 0.016857 -0.008241 0.005909
# 4 -0.001254 0.032780 0.016857 0.071712 0.012401 0.027533
# 5 -0.013884 -0.012224 -0.008241 0.012401 0.078350 0.027463
# 6 -0.007731 0.029118 0.005909 0.027533 0.027463 0.059883
#
#
# Mechanical properties :
#
#
# Convention : Reuss Voigt Hill
#
# Bulk Modulus (GPa) = 7.47603 35.17850 21.32727
# Shear Modulus (GPa) = 14.08363 28.58061 21.33212
#
# Velocity S-wave (km/s) = 2.64913 3.77382 3.26034
# Velocity P-wave (km/s) = 3.61697 6.04305 4.98000
#
# Compressibility (1/GPa) = 0.13376084
#
# Stress axis : x y z
#
# Youngs Moduli (GPa) = 64.97216 11.66148 62.57167
#
# Poissons Ratio (x) = 0.03430 0.18885
# Poissons Ratio (y) = 0.19112 -0.89336
# Poissons Ratio (z) = 0.19609 -0.16650
#
# Static dielectric constant tensor:
#      x y z
#    x 3.542010 -0.356990 0.159200 
#    y -0.356990 3.235170 -0.206680 
#    z 0.159200 -0.206680 3.895520 
# 
# 
# High freq. dielectric constant tensor:
#      x y z
#    x 1.779270 -0.032060 0.004740 
#    y -0.032060 1.736050 -0.014190 
#    z 0.004740 -0.014190 1.795710 
# 
# From -- ./inp_files/342454.got.cif
#   From: 2010.06.25/outbox.cif.g09.slc.cpg/sg2_172_cif.got.tgz:342454.got - 2010.06.27 13:26:56.
