data_PCOD8043897
_publ_section_title
;
Structure prediction by ZEFSAII (Michael W. Deem and Ramdas Pophale) SiO2 
 PCOD8043897
Probable space group: P -1
;
_chemical_formula_sum "Si O2"
_cell_formula_units_Z 12
_cell_length_a 11.982198
_cell_length_b 6.412403
_cell_length_c 15.529610
_cell_angle_alpha 96.520129
_cell_angle_beta 139.987485
_cell_angle_gamma 105.129992
_cell_volume 639.199729
_symmetry_space_group_name_H-M "P -1"
_symmetry_group_IT_number 2
_symmetry_cell_setting 'triclinic'
loop_
_space_group_symop_operation_xyz
x,y,z
-x,-y,-z
loop_
_atom_site_type_symbol
_atom_site_label
_atom_site_fract_x
_atom_site_fract_y
_atom_site_fract_z
Si Si1 0.934506 0.795934 0.878921
Si Si2 0.202500 0.970405 0.326104
Si Si3 0.404812 0.757127 0.317118
Si Si4 0.227902 0.406625 0.880326
Si Si5 0.353456 0.840904 0.102252
Si Si6 0.496753 0.791092 0.932768
O O1 0.732566 0.541824 0.780825
O O2 0.881617 0.877774 0.762886
O O3 0.115383 0.750059 0.967551
O O4 0.000000 0.000000 0.000000
O O5 0.284910 0.864103 0.298891
O O6 0.018361 0.741077 0.260851
O O7 0.380831 0.155938 0.505747
O O8 0.456525 0.860688 0.255613
O O9 0.290031 0.524799 0.825487
O O10 0.351531 0.630977 0.032944
O O11 0.301532 0.216665 0.928444
O O12 0.489678 0.120711 0.154100
O O13 0.500000 0.000000 0.000000
#
# Coordination Sequence:
#
# PCOD8043897 Si02
#       6
#     2   2   2   2   2   2
#     4  12  21  35  57  85 113 153 194 227 273 333
#     4  11  22  38  56  83 123 152 179 228 291 337
#     4  11  24  36  53  89 122 149 181 230 285 339
#     4  10  19  37  61  82 110 148 189 239 277 328
#     4  11  20  35  58  85 111 146 195 233 272 329
#     4   9  20  35  59  87 106 138 198 241 277 321
#
# _framework density 18.773474
#
# number of rings (size 3 to 8) (size 9 to 14) (size 15 to 20)
#    0.000    1.333    5.000    2.000    0.000    0.000 
#    0.000    0.833    0.000    9.000    0.000    0.000 
#    0.000    0.000    0.000    0.000    0.000    0.000 
#
# Total GULP energy -148785.559912 kJ/mol
# GULP energy per Si atom -12398.796659 kJ/mol
# Density = 1.873074 g / cm^3
# Si number density = 18.773474 Si / 1000 Ang^3
#
#
#
# Elastic Constant Matrix: (Units=GPa)
#
#
# Indices 1 2 3 4 5 6 
#
# 1 87.4462 37.5243 38.4920 1.9704 -2.7822 21.1727
# 2 37.5243 104.8394 46.5487 -0.3042 -11.2534 20.5693
# 3 38.4920 46.5487 97.7813 -5.5305 -13.8251 15.0338
# 4 1.9704 -0.3042 -5.5305 23.5093 -1.7910 -0.2504
# 5 -2.7822 -11.2534 -13.8251 -1.7910 13.3750 -3.6682
# 6 21.1727 20.5693 15.0338 -0.2504 -3.6682 52.7236
#
#
#
# Elastic Compliance Matrix: (Units=1/GPa)
#
#
# Indices 1 2 3 4 5 6 
#
# 1 0.015994 -0.003317 -0.005158 -0.003124 -0.006342 -0.004114
# 2 -0.003317 0.013600 -0.003949 -0.000044 0.005998 -0.002430
# 3 -0.005158 -0.003949 0.016304 0.005216 0.013128 -0.000099
# 4 -0.003124 -0.000044 0.005216 0.044865 0.010920 0.000757
# 5 -0.006342 0.005998 0.013128 0.010920 0.094371 0.003081
# 6 -0.004114 -0.002430 -0.000099 0.000757 0.003081 0.021813
#
#
# Mechanical properties :
#
#
# Convention : Reuss Voigt Hill
#
# Bulk Modulus (GPa) = 47.50769 59.46630 53.48699
# Shear Modulus (GPa) = 20.93708 29.08836 25.01272
#
# Velocity S-wave (km/s) = 3.34316 3.94056 3.65409
# Velocity P-wave (km/s) = 6.34531 7.24213 6.80850
#
# Compressibility (1/GPa) = 0.02104922
#
# Stress axis : x y z
#
# Youngs Moduli (GPa) = 62.52282 73.53162 61.33622
#
# Poissons Ratio (x) = 0.24392 0.31636
# Poissons Ratio (y) = 0.20740 0.24222
# Poissons Ratio (z) = 0.32248 0.29038
#
# Static dielectric constant tensor:
#      x y z
#    x 3.881150 0.286100 0.020190 
#    y 0.286100 3.809230 -0.064690 
#    z 0.020190 -0.064690 3.159070 
# 
# 
# High freq. dielectric constant tensor:
#      x y z
#    x 1.741640 0.006560 0.003870 
#    y 0.006560 1.750230 -0.004550 
#    z 0.003870 -0.004550 1.687940 
# 
# From -- ./inp_files/18299.got.cif
#   From: 2010.06.25/outbox.cif.g09.slc.cpg/sg2_10_cif.got.tgz:18299.got - 2010.06.27 13:26:56.
