data_PCOD8043338
_publ_section_title
;
Structure prediction by ZEFSAII (Michael W. Deem and Ramdas Pophale) SiO2 
 PCOD8043338
Probable space group: P -1
;
_chemical_formula_sum "Si O2"
_cell_formula_units_Z 16
_cell_length_a 12.210966
_cell_length_b 14.166627
_cell_length_c 9.299418
_cell_angle_alpha 101.943687
_cell_angle_beta 34.744845
_cell_angle_gamma 83.606686
_cell_volume 774.367890
_symmetry_space_group_name_H-M "P -1"
_symmetry_group_IT_number 2
_symmetry_cell_setting 'triclinic'
loop_
_space_group_symop_operation_xyz
x,y,z
-x,-y,-z
loop_
_atom_site_type_symbol
_atom_site_label
_atom_site_fract_x
_atom_site_fract_y
_atom_site_fract_z
Si Si1 0.108393 0.998208 0.232280
Si Si2 0.085913 0.613623 0.834535
Si Si3 0.444605 0.576476 0.220425
Si Si4 0.562445 0.936606 0.189759
Si Si5 0.693615 0.560657 0.218688
Si Si6 0.746789 0.853808 0.267166
Si Si7 0.639687 0.197202 0.305583
Si Si8 0.697361 0.176724 0.564875
O O1 0.928335 0.099170 0.365743
O O2 0.312251 0.023655 0.044557
O O3 0.000000 0.000000 0.500000
O O4 0.187893 0.879183 0.029064
O O5 0.233732 0.579201 0.522396
O O6 0.236419 0.543653 0.784810
O O7 0.888438 0.589662 0.007653
O O8 0.989560 0.746973 0.008293
O O9 0.650195 0.529123 0.096621
O O10 0.388961 0.696438 0.259701
O O11 0.500000 0.500000 0.000000
O O12 0.728918 0.888982 0.131388
O O13 0.499773 0.845849 0.172754
O O14 0.315449 0.039033 0.532880
O O15 0.460737 0.668596 0.559868
O O16 0.567968 0.819730 0.490384
O O17 0.745772 0.156638 0.335749
#
# Coordination Sequence:
#
# PCOD8043338 Si02
#       8
#     2   2   2   2   2   2   2   2
#     4  11  22  34  55  89 121 145 177 231 293 345
#     4  10  19  36  61  88 117 146 193 241 289 347
#     4  11  24  39  58  85 117 152 195 245 292 341
#     4   9  18  35  56  82 116 145 186 231 278 342
#     4   9  20  38  61  86 114 154 193 240 291 338
#     4   8  15  31  59  86 106 143 188 235 272 322
#     4   8  17  35  58  83 112 145 190 229 271 341
#     4  10  21  38  60  78 104 155 198 229 278 338
#
# _framework density 20.662013999999999
#
# number of rings (size 3 to 8) (size 9 to 14) (size 15 to 20)
#    0.000    2.500    0.000    3.000    0.000    4.000 
#    0.000    1.250    0.000    3.000    0.000    0.000 
#    0.000    0.000    0.000    0.000    0.000    0.000 
#
# Total GULP energy -198310.264026 kJ/mol
# GULP energy per Si atom -12394.391502 kJ/mol
# Density = 2.061499 g / cm^3
# Si number density = 20.662014 Si / 1000 Ang^3
#
#
#
# Elastic Constant Matrix: (Units=GPa)
#
#
# Indices 1 2 3 4 5 6 
#
# 1 89.6514 47.7368 61.6134 23.5036 2.5719 -8.8944
# 2 47.7368 120.3974 67.9586 12.1198 5.8047 -5.9844
# 3 61.6134 67.9586 124.8565 7.9347 12.0999 -10.9433
# 4 23.5036 12.1198 7.9347 34.0518 1.3511 -7.7926
# 5 2.5719 5.8047 12.0999 1.3511 27.7895 10.4850
# 6 -8.8944 -5.9844 -10.9433 -7.7926 10.4850 30.2233
#
#
#
# Elastic Compliance Matrix: (Units=1/GPa)
#
#
# Indices 1 2 3 4 5 6 
#
# 1 0.021745 -0.002488 -0.009120 -0.012603 0.003837 -0.001976
# 2 -0.002488 0.012573 -0.005631 -0.001663 0.000466 -0.000872
# 3 -0.009120 -0.005631 0.016522 0.006266 -0.007952 0.006558
# 4 -0.012603 -0.001663 0.006266 0.040030 -0.007349 0.011101
# 5 0.003837 0.000466 -0.007952 -0.007349 0.046821 -0.019796
# 6 -0.001976 -0.000872 0.006558 0.011101 -0.019796 0.044437
#
#
# Mechanical properties :
#
#
# Convention : Reuss Voigt Hill
#
# Bulk Modulus (GPa) = 61.12423 76.61365 68.86894
# Shear Modulus (GPa) = 22.51629 28.91936 25.71783
#
# Velocity S-wave (km/s) = 3.30471 3.74523 3.53185
# Velocity P-wave (km/s) = 6.64895 7.47411 7.07357
#
# Compressibility (1/GPa) = 0.01636013
#
# Stress axis : x y z
#
# Youngs Moduli (GPa) = 45.98690 79.53821 60.52483
#
# Poissons Ratio (x) = 0.19792 0.55201
# Poissons Ratio (y) = 0.11443 0.34082
# Poissons Ratio (z) = 0.41942 0.44789
#
# Static dielectric constant tensor:
#      x y z
#    x 3.666340 -0.031980 -0.065260 
#    y -0.031980 4.214440 0.179090 
#    z -0.065260 0.179090 3.994880 
# 
# 
# High freq. dielectric constant tensor:
#      x y z
#    x 1.789740 0.005350 -0.030300 
#    y 0.005350 1.827710 -0.001950 
#    z -0.030300 -0.001950 1.789900 
# 
# From -- ./inp_files/273537.got.cif
#   From: 2010.06.25/outbox.cif.g09.slc.cpg/sg2_137_cif.got.tgz:273537.got - 2010.06.27 13:26:56.
