data_PCOD8043757
_publ_section_title
;
Structure prediction by ZEFSAII (Michael W. Deem and Ramdas Pophale) SiO2 
 PCOD8043757
Probable space group: P -1
;
_chemical_formula_sum "Si O2"
_cell_formula_units_Z 14
_cell_length_a 25.259888
_cell_length_b 25.311160
_cell_length_c 8.507588
_cell_angle_alpha 137.946348
_cell_angle_beta 138.079906
_cell_angle_gamma 11.607665
_cell_volume 727.413218
_symmetry_space_group_name_H-M "P -1"
_symmetry_group_IT_number 2
_symmetry_cell_setting 'triclinic'
loop_
_space_group_symop_operation_xyz
x,y,z
-x,-y,-z
loop_
_atom_site_type_symbol
_atom_site_label
_atom_site_fract_x
_atom_site_fract_y
_atom_site_fract_z
Si Si1 0.947440 0.854763 0.554280
Si Si2 0.812283 0.808262 0.163353
Si Si3 0.314866 0.311380 0.390106
Si Si4 0.514600 0.512480 0.733156
Si Si5 0.251658 0.251323 0.392745
Si Si6 0.549876 0.642278 0.234901
Si Si7 0.022655 0.018408 0.256131
O O1 0.251794 0.567067 0.647309
O O2 0.923809 0.938367 0.543057
O O3 0.864047 0.846927 0.298173
O O4 0.752214 0.067487 0.732499
O O5 0.047638 0.554314 0.235011
O O6 0.547528 0.054984 0.228802
O O7 0.788283 0.781057 0.891549
O O8 0.296183 0.286595 0.462493
O O9 0.364426 0.355364 0.643478
O O10 0.500000 0.500000 0.500000
O O11 0.244874 0.743006 0.721277
O O12 0.568181 0.555504 0.955717
O O13 0.741402 0.246225 0.720443
O O14 0.000000 0.500000 0.500000
O O15 0.500000 0.000000 0.500000
O O16 0.000000 0.000000 0.000000
#
# Coordination Sequence:
#
# PCOD8043757 Si02
#       7
#     2   2   2   2   2   2   2
#     4  10  20  35  62  88 107 147 203 247 270 324
#     4  10  21  40  63  87 114 151 201 232 275 352
#     4  10  21  39  65  83 111 159 198 232 278 343
#     4  12  24  38  55  87 121 155 191 238 293 345
#     4  12  24  40  60  91 125 147 183 238 299 343
#     4  10  19  37  58  85 114 148 198 239 280 338
#     4  12  21  38  63  82 114 155 200 237 285 335
#
# _framework density 19.246282000000001
#
# number of rings (size 3 to 8) (size 9 to 14) (size 15 to 20)
#    0.000    1.143    2.857    4.286    0.000    0.000 
#    5.143    0.000    0.000    0.000    0.000    0.000 
#    0.000    0.000    0.000    0.000    0.000    0.000 
#
# Total GULP energy -173569.011623 kJ/mol
# GULP energy per Si atom -12397.786545 kJ/mol
# Density = 1.920248 g / cm^3
# Si number density = 19.246282 Si / 1000 Ang^3
#
#
#
# Elastic Constant Matrix: (Units=GPa)
#
#
# Indices 1 2 3 4 5 6 
#
# 1 148.6894 72.1599 96.8997 3.7350 4.1357 5.9680
# 2 72.1599 164.3308 51.7865 0.9781 -11.1196 3.3201
# 3 96.8997 51.7865 139.7635 4.4475 3.6180 6.6136
# 4 3.7350 0.9781 4.4475 25.9319 1.9923 -5.6358
# 5 4.1357 -11.1196 3.6180 1.9923 37.6194 2.9541
# 6 5.9680 3.3201 6.6136 -5.6358 2.9541 35.4976
#
#
#
# Elastic Compliance Matrix: (Units=1/GPa)
#
#
# Indices 1 2 3 4 5 6 
#
# 1 0.013928 -0.003630 -0.008235 -0.000405 -0.001760 -0.000386
# 2 -0.003630 0.008043 -0.000525 0.000031 0.002847 -0.000276
# 3 -0.008235 -0.000525 0.013165 -0.001284 -0.000354 -0.001194
# 4 -0.000405 0.000031 -0.001284 0.040544 -0.002516 0.006951
# 5 -0.001760 0.002847 -0.000354 -0.002516 0.027991 -0.002633
# 6 -0.000386 -0.000276 -0.001194 0.006951 -0.002633 0.029807
#
#
# Mechanical properties :
#
#
# Convention : Reuss Voigt Hill
#
# Bulk Modulus (GPa) = 96.55603 99.38622 97.97113
# Shear Modulus (GPa) = 30.91951 35.27229 33.09590
#
# Velocity S-wave (km/s) = 4.01249 4.28563 4.15130
# Velocity P-wave (km/s) = 8.47020 8.73156 8.60187
#
# Compressibility (1/GPa) = 0.01035668
#
# Stress axis : x y z
#
# Youngs Moduli (GPa) = 71.79605 124.33623 75.95661
#
# Poissons Ratio (x) = 0.45133 0.62550
# Poissons Ratio (y) = 0.26061 0.03988
# Poissons Ratio (z) = 0.59124 0.06528
#
# Static dielectric constant tensor:
#      x y z
#    x 3.563180 0.030340 0.359220 
#    y 0.030340 3.857970 0.065370 
#    z 0.359220 0.065370 3.605650 
# 
# 
# High freq. dielectric constant tensor:
#      x y z
#    x 1.748760 -0.000770 0.023650 
#    y -0.000770 1.777200 0.004540 
#    z 0.023650 0.004540 1.744930 
# 
# From -- ./inp_files/48444.got.cif
#   From: 2010.06.25/outbox.cif.g09.slc.cpg/sg2_25_cif.got.tgz:48444.got - 2010.06.27 13:26:56.
