data_PCOD8043963
_publ_section_title
;
Structure prediction by ZEFSAII (Michael W. Deem and Ramdas Pophale) SiO2 
 PCOD8043963
Probable space group: P -1
;
_chemical_formula_sum "Si O2"
_cell_formula_units_Z 16
_cell_length_a 9.362742
_cell_length_b 15.303311
_cell_length_c 8.920222
_cell_angle_alpha 96.861460
_cell_angle_beta 87.694987
_cell_angle_gamma 40.127276
_cell_volume 800.344553
_symmetry_space_group_name_H-M "P -1"
_symmetry_group_IT_number 2
_symmetry_cell_setting 'triclinic'
loop_
_space_group_symop_operation_xyz
x,y,z
-x,-y,-z
loop_
_atom_site_type_symbol
_atom_site_label
_atom_site_fract_x
_atom_site_fract_y
_atom_site_fract_z
Si Si1 0.422509 0.938808 0.522236
Si Si2 0.527056 0.181856 0.214998
Si Si3 0.724524 0.279535 0.287249
Si Si4 0.635976 0.464644 0.840975
Si Si5 0.759153 0.590973 0.964581
Si Si6 0.881614 0.971437 0.937712
Si Si7 0.603757 0.182615 0.737931
Si Si8 0.116882 0.796060 0.404714
O O1 0.543034 0.845807 0.649150
O O2 0.520963 0.827441 0.367078
O O3 0.500000 0.000000 0.500000
O O4 0.150869 0.060861 0.567228
O O5 0.644263 0.215937 0.274505
O O6 0.311998 0.308205 0.145209
O O7 0.693322 0.037761 0.082613
O O8 0.532035 0.437417 0.271488
O O9 0.807692 0.269567 0.445550
O O10 0.930183 0.192700 0.138978
O O11 0.775151 0.485655 0.877616
O O12 0.815977 0.307316 0.745003
O O13 0.500000 0.500000 0.000000
O O14 0.574804 0.680425 0.123753
O O15 0.000000 0.500000 0.000000
O O16 0.774221 0.043267 0.797466
O O17 0.000000 0.000000 0.000000
O O18 0.750669 0.178332 0.631536
#
# Coordination Sequence:
#
# PCOD8043963 Si02
#       8
#     2   2   2   2   2   2   2   2
#     4  12  26  41  62  98 129 160 210 265 317 369
#     4   9  20  39  64  88 124 164 212 253 310 371
#     4  10  19  37  61  94 124 159 211 253 314 368
#     4  11  24  39  60  98 125 161 215 261 300 368
#     4  10  23  45  67  89 128 173 207 251 315 384
#     4   9  17  32  62  92 115 154 209 255 296 368
#     4  11  21  41  67  93 119 167 209 250 315 376
#     4  12  22  40  66  90 131 164 203 261 314 371
#
# _framework density 19.991391
#
# number of rings (size 3 to 8) (size 9 to 14) (size 15 to 20)
#    0.000    1.500    3.750    3.000    3.500    0.000 
#    2.250    3.125    0.000    0.000    0.000    0.000 
#    0.000    0.000    0.000    0.000    0.000    0.000 
#
# Total GULP energy -198338.493347 kJ/mol
# GULP energy per Si atom -12396.155834 kJ/mol
# Density = 1.994589 g / cm^3
# Si number density = 19.991391 Si / 1000 Ang^3
#
#
#
# Elastic Constant Matrix: (Units=GPa)
#
#
# Indices 1 2 3 4 5 6 
#
# 1 80.8313 28.0570 29.7179 -11.0246 6.8108 2.3666
# 2 28.0570 61.3222 28.5345 -5.8924 3.8965 -7.3677
# 3 29.7179 28.5345 110.6450 -13.6720 12.7930 5.2165
# 4 -11.0246 -5.8924 -13.6720 41.2578 7.4012 4.4911
# 5 6.8108 3.8965 12.7930 7.4012 23.9706 -3.0555
# 6 2.3666 -7.3677 5.2165 4.4911 -3.0555 32.6255
#
#
#
# Elastic Compliance Matrix: (Units=1/GPa)
#
#
# Indices 1 2 3 4 5 6 
#
# 1 0.016187 -0.006432 -0.001516 0.004064 -0.004427 -0.003358
# 2 -0.006432 0.021939 -0.004599 -0.001158 0.001901 0.006494
# 3 -0.001516 -0.004599 0.012279 0.004796 -0.007397 -0.004245
# 4 0.004064 -0.001158 0.004796 0.029923 -0.013621 -0.006718
# 5 -0.004427 0.001901 -0.007397 -0.013621 0.051926 0.008671
# 6 -0.003358 0.006494 -0.004245 -0.006718 0.008671 0.034776
#
#
# Mechanical properties :
#
#
# Convention : Reuss Voigt Hill
#
# Bulk Modulus (GPa) = 39.51101 47.26857 43.38979
# Shear Modulus (GPa) = 24.92994 30.67005 27.79999
#
# Velocity S-wave (km/s) = 3.53517 3.92109 3.73312
# Velocity P-wave (km/s) = 6.03905 6.64799 6.35082
#
# Compressibility (1/GPa) = 0.02530940
#
# Stress axis : x y z
#
# Youngs Moduli (GPa) = 61.77669 45.58186 81.43783
#
# Poissons Ratio (x) = 0.29320 0.12350
# Poissons Ratio (y) = 0.39737 0.37454
# Poissons Ratio (z) = 0.09368 0.20964
#
# Static dielectric constant tensor:
#      x y z
#    x 3.281910 -0.060070 0.083430 
#    y -0.060070 3.752110 0.069290 
#    z 0.083430 0.069290 3.983430 
# 
# 
# High freq. dielectric constant tensor:
#      x y z
#    x 1.743230 -0.001420 0.011460 
#    y -0.001420 1.780170 -0.001870 
#    z 0.011460 -0.001870 1.802920 
# 
# From -- ./inp_files/184395.got.cif
#   From: 2010.06.25/outbox.cif.g09.slc.cpg/sg2_93_cif.got.tgz:184395.got - 2010.06.27 13:26:56.
