data_PCOD8043784
_publ_section_title
;
Structure prediction by ZEFSAII (Michael W. Deem and Ramdas Pophale) SiO2 
 PCOD8043784
Probable space group: P -1
;
_chemical_formula_sum "Si O2"
_cell_formula_units_Z 16
_cell_length_a 13.287997
_cell_length_b 9.269640
_cell_length_c 14.062777
_cell_angle_alpha 59.552775
_cell_angle_beta 45.324755
_cell_angle_gamma 93.576884
_cell_volume 775.680764
_symmetry_space_group_name_H-M "P -1"
_symmetry_group_IT_number 2
_symmetry_cell_setting 'triclinic'
loop_
_space_group_symop_operation_xyz
x,y,z
-x,-y,-z
loop_
_atom_site_type_symbol
_atom_site_label
_atom_site_fract_x
_atom_site_fract_y
_atom_site_fract_z
Si Si1 0.689519 0.062211 0.741912
Si Si2 0.047274 0.408467 0.264651
Si Si3 0.743942 0.211281 0.862629
Si Si4 0.030256 0.639332 0.025054
Si Si5 0.719707 0.833782 0.326498
Si Si6 0.695327 0.605783 0.234335
Si Si7 0.880221 0.892590 0.710128
Si Si8 0.948817 0.041084 0.812670
O O1 0.761125 0.224866 0.732479
O O2 0.822114 0.199400 0.514435
O O3 0.693762 0.866138 0.832579
O O4 0.475785 0.954682 0.897488
O O5 0.149178 0.539747 0.251811
O O6 0.159865 0.336495 0.173004
O O7 0.074608 0.567370 0.112223
O O8 0.847588 0.136052 0.867340
O O9 0.205050 0.914330 0.801280
O O10 0.000000 0.500000 0.000000
O O11 0.829194 0.570175 0.201459
O O12 0.687877 0.751184 0.266802
O O13 0.509119 0.640234 0.579119
O O14 0.869065 0.830395 0.281272
O O15 0.792333 0.765648 0.023773
O O16 0.010319 0.067161 0.653182
O O17 0.000000 0.000000 0.500000
#
# Coordination Sequence:
#
# PCOD8043784 Si02
#       8
#     2   2   2   2   2   2   2   2
#     4   9  21  38  55  82 113 140 178 230 279 330
#     4  11  20  35  59  81 107 149 186 222 276 329
#     4  10  20  35  59  86 111 138 181 232 277 329
#     4  11  23  38  56  83 119 151 187 234 277 328
#     4  10  21  38  59  85 115 148 188 232 278 332
#     4  10  21  38  60  85 115 149 187 231 279 333
#     4   9  20  39  57  77 112 149 183 226 276 330
#     4  10  19  37  59  82 113 149 184 225 279 333
#
# _framework density 20.627043
#
# number of rings (size 3 to 8) (size 9 to 14) (size 15 to 20)
#    0.000    2.000    0.000    4.875    0.000    5.000 
#    0.000   12.500    0.000    0.000    0.000    0.000 
#    0.000    0.000    0.000    0.000    0.000    0.000 
#
# Total GULP energy -198288.286320 kJ/mol
# GULP energy per Si atom -12393.017895 kJ/mol
# Density = 2.058010 g / cm^3
# Si number density = 20.627043 Si / 1000 Ang^3
#
#
#
# Elastic Constant Matrix: (Units=GPa)
#
#
# Indices 1 2 3 4 5 6 
#
# 1 78.9696 24.9820 25.0467 -8.4182 -6.5582 -0.8667
# 2 24.9820 118.6523 21.1507 -3.2131 -9.9878 3.4123
# 3 25.0467 21.1507 80.2761 -10.7872 -15.2036 18.0317
# 4 -8.4182 -3.2131 -10.7872 27.3230 6.7859 4.4423
# 5 -6.5582 -9.9878 -15.2036 6.7859 27.0818 2.9735
# 6 -0.8667 3.4123 18.0317 4.4423 2.9735 18.8047
#
#
#
# Elastic Compliance Matrix: (Units=1/GPa)
#
#
# Indices 1 2 3 4 5 6 
#
# 1 0.015358 -0.002493 -0.005660 0.001518 -0.001468 0.006461
# 2 -0.002493 0.009367 -0.001038 -0.000524 0.002520 -0.001094
# 3 -0.005660 -0.001038 0.024279 0.009053 0.012626 -0.027488
# 4 0.001518 -0.000524 0.009053 0.044538 -0.003881 -0.018423
# 5 -0.001468 0.002520 0.012626 -0.003881 0.047674 -0.019254
# 6 0.006461 -0.001094 -0.027488 -0.018423 -0.019254 0.087430
#
#
# Mechanical properties :
#
#
# Convention : Reuss Voigt Hill
#
# Bulk Modulus (GPa) = 32.65591 46.69521 39.67556
# Shear Modulus (GPa) = 19.43749 28.42313 23.93031
#
# Velocity S-wave (km/s) = 3.07307 3.71611 3.40978
# Velocity P-wave (km/s) = 5.33457 6.41090 5.89734
#
# Compressibility (1/GPa) = 0.03062233
#
# Stress axis : x y z
#
# Youngs Moduli (GPa) = 65.11342 106.75543 41.18833
#
# Poissons Ratio (x) = 0.26612 0.23314
# Poissons Ratio (y) = 0.16232 0.04274
# Poissons Ratio (z) = 0.36856 0.11077
#
# Static dielectric constant tensor:
#      x y z
#    x 3.766900 -0.304890 0.015390 
#    y -0.304890 4.354850 0.044380 
#    z 0.015390 0.044380 3.671000 
# 
# 
# High freq. dielectric constant tensor:
#      x y z
#    x 1.808480 -0.005680 0.007390 
#    y -0.005680 1.818600 0.008880 
#    z 0.007390 0.008880 1.785620 
# 
# From -- ./inp_files/272728.got.cif
#   From: 2010.06.25/outbox.cif.g09.slc.cpg/sg2_137_cif.got.tgz:272728.got - 2010.06.27 13:26:56.
