data_PCOD8043364
_publ_section_title
;
Structure prediction by ZEFSAII (Michael W. Deem and Ramdas Pophale) SiO2 
 PCOD8043364
Probable space group: P -1
;
_chemical_formula_sum "Si O2"
_cell_formula_units_Z 14
_cell_length_a 13.935133
_cell_length_b 9.473879
_cell_length_c 9.653012
_cell_angle_alpha 60.905519
_cell_angle_beta 120.050049
_cell_angle_gamma 68.057515
_cell_volume 557.236115
_symmetry_space_group_name_H-M "P -1"
_symmetry_group_IT_number 2
_symmetry_cell_setting 'triclinic'
loop_
_space_group_symop_operation_xyz
x,y,z
-x,-y,-z
loop_
_atom_site_type_symbol
_atom_site_label
_atom_site_fract_x
_atom_site_fract_y
_atom_site_fract_z
Si Si1 0.295120 0.406259 0.310615
Si Si2 0.200773 0.676239 0.841643
Si Si3 0.880474 0.600965 0.580861
Si Si4 0.776396 0.241772 0.704273
Si Si5 0.692164 0.998011 0.846412
Si Si6 0.242978 0.942883 0.857084
Si Si7 0.820684 0.408698 0.419710
O O1 0.175812 0.415365 0.306568
O O2 0.316882 0.553953 0.331350
O O3 0.522001 0.088901 0.614577
O O4 0.190529 0.556701 0.015464
O O5 0.277840 0.486704 0.853326
O O6 0.334837 0.669845 0.987964
O O7 0.000000 0.000000 0.500000
O O8 0.803495 0.875427 0.386914
O O9 0.783534 0.622419 0.369973
O O10 0.110329 0.338334 0.853462
O O11 0.719011 0.124146 0.711106
O O12 0.721323 0.385492 0.448122
O O13 0.000000 0.000000 0.000000
O O14 0.630162 0.126197 0.897684
O O15 0.050249 0.115264 0.717046
#
# Coordination Sequence:
#
# PCOD8043364 Si02
#       7
#     2   2   2   2   2   2   2
#     4  11  22  37  62  90 118 161 205 250 293 356
#     4  10  20  36  62  88 124 157 198 250 305 353
#     4  10  22  39  66  88 118 161 205 243 300 359
#     4  11  16  33  59  90 113 155 201 250 289 349
#     4  11  20  34  64  90 120 149 215 249 289 350
#     4  10  19  36  61  92 119 159 198 249 302 355
#     4   9  18  33  60  85 120 154 194 245 298 351
#
# _framework density 25.123999000000001
#
# number of rings (size 3 to 8) (size 9 to 14) (size 15 to 20)
#    0.000    1.714    5.714    3.000    0.000    0.571 
#    0.000    3.571    3.143    7.714    0.000    0.000 
#    0.000    0.000    0.000    0.000    0.000    0.000 
#
# Total GULP energy -173484.965632 kJ/mol
# GULP energy per Si atom -12391.783259 kJ/mol
# Density = 2.506682 g / cm^3
# Si number density = 25.123999 Si / 1000 Ang^3
#
#
#
# Elastic Constant Matrix: (Units=GPa)
#
#
# Indices 1 2 3 4 5 6 
#
# 1 83.6087 33.3323 41.5265 9.0043 -22.4161 -16.4035
# 2 33.3323 56.7784 33.3062 24.1160 -22.4929 -10.1687
# 3 41.5265 33.3062 106.4509 28.6322 -14.6576 -18.1044
# 4 9.0043 24.1160 28.6322 30.5286 -13.2169 -13.9744
# 5 -22.4161 -22.4929 -14.6576 -13.2169 43.2616 2.6020
# 6 -16.4035 -10.1687 -18.1044 -13.9744 2.6020 22.4965
#
#
#
# Elastic Compliance Matrix: (Units=1/GPa)
#
#
# Indices 1 2 3 4 5 6 
#
# 1 0.024174 -0.012300 -0.006942 0.021793 0.009297 0.018943
# 2 -0.012300 0.036935 -0.000368 -0.027913 0.004807 -0.010465
# 3 -0.006942 -0.000368 0.015352 -0.013737 -0.002718 -0.001092
# 4 0.021793 -0.027913 -0.013737 0.089496 0.016708 0.045880
# 5 0.009297 0.004807 -0.002718 0.016708 0.033820 0.013232
# 6 0.018943 -0.010465 -0.001092 0.045880 0.013232 0.079624
#
#
# Mechanical properties :
#
#
# Convention : Reuss Voigt Hill
#
# Bulk Modulus (GPa) = 26.85212 51.46310 39.15761
# Shear Modulus (GPa) = 15.10413 28.50220 21.80316
#
# Velocity S-wave (km/s) = 2.45456 3.37183 2.94908
# Velocity P-wave (km/s) = 4.32946 5.97387 5.21686
#
# Compressibility (1/GPa) = 0.03724101
#
# Stress axis : x y z
#
# Youngs Moduli (GPa) = 41.36641 27.07447 65.13832
#
# Poissons Ratio (x) = 0.33303 0.45218
# Poissons Ratio (y) = 0.50883 0.02396
# Poissons Ratio (z) = 0.28716 0.00996
#
# Static dielectric constant tensor:
#      x y z
#    x 5.343070 0.164260 -1.412890 
#    y 0.164260 4.827750 0.179800 
#    z -1.412890 0.179800 6.660730 
# 
# 
# High freq. dielectric constant tensor:
#      x y z
#    x 1.998360 0.001630 -0.018110 
#    y 0.001630 1.967460 0.008850 
#    z -0.018110 0.008850 1.993570 
# 
# From -- ./inp_files/306763.got.cif
#   From: 2010.06.25/outbox.cif.g09.slc.cpg/sg2_154_cif.got.tgz:306763.got - 2010.06.27 13:26:56.
