data_PCOD8043696
_publ_section_title
;
Structure prediction by ZEFSAII (Michael W. Deem and Ramdas Pophale) SiO2 
 PCOD8043696
Probable space group: P -1
;
_chemical_formula_sum "Si O2"
_cell_formula_units_Z 14
_cell_length_a 13.079888
_cell_length_b 16.282260
_cell_length_c 9.436468
_cell_angle_alpha 134.427678
_cell_angle_beta 50.765163
_cell_angle_gamma 145.391740
_cell_volume 807.225418
_symmetry_space_group_name_H-M "P -1"
_symmetry_group_IT_number 2
_symmetry_cell_setting 'triclinic'
loop_
_space_group_symop_operation_xyz
x,y,z
-x,-y,-z
loop_
_atom_site_type_symbol
_atom_site_label
_atom_site_fract_x
_atom_site_fract_y
_atom_site_fract_z
Si Si1 0.239138 0.213789 0.162551
Si Si2 0.052998 0.528335 0.150704
Si Si3 0.991891 0.273201 0.400914
Si Si4 0.401206 0.642654 0.089719
Si Si5 0.945470 0.677560 0.914979
Si Si6 0.986844 0.962787 0.304440
Si Si7 0.735103 0.927185 0.278310
O O1 0.460272 0.341734 0.118891
O O2 0.164082 0.122969 0.267560
O O3 0.169546 0.300917 0.301421
O O4 0.163669 0.085988 0.949297
O O5 0.976768 0.594498 0.375363
O O6 0.273519 0.652879 0.123429
O O7 0.965918 0.363761 0.105639
O O8 0.000000 0.500000 0.000000
O O9 0.970220 0.291017 0.276136
O O10 0.807622 0.100756 0.409429
O O11 0.516799 0.786293 0.278285
O O12 0.274128 0.474334 0.080126
O O13 0.988104 0.827591 0.119163
O O14 0.000000 0.000000 0.500000
O O15 0.800899 0.909977 0.346838
#
# Coordination Sequence:
#
# PCOD8043696 Si02
#       7
#     2   2   2   2   2   2   2
#     4   9  18  37  57  85 105 142 182 230 274 320
#     4  10  24  37  53  82 114 150 180 226 282 324
#     4  11  18  35  64  77 109 149 190 217 266 345
#     4   8  20  35  58  80 114 141 184 229 277 313
#     4  10  19  37  56  81 109 148 188 222 265 336
#     4  11  20  32  59  89 113 139 183 231 278 323
#     4   9  18  36  57  84 106 143 182 228 270 322
#
# _framework density 17.343360000000001
#
# number of rings (size 3 to 8) (size 9 to 14) (size 15 to 20)
#    1.714    0.571    2.857    1.286    4.000    2.857 
#    0.000    4.286    0.000    1.714    0.000    0.000 
#    0.000    0.000    0.000    0.000    0.000    0.000 
#
# Total GULP energy -173443.363907 kJ/mol
# GULP energy per Si atom -12388.811708 kJ/mol
# Density = 1.730389 g / cm^3
# Si number density = 17.343360 Si / 1000 Ang^3
#
#
#
# Elastic Constant Matrix: (Units=GPa)
#
#
# Indices 1 2 3 4 5 6 
#
# 1 108.6003 32.7244 51.8229 3.1136 11.1844 -16.8501
# 2 32.7244 46.3416 30.7865 1.5120 0.2232 -16.4833
# 3 51.8229 30.7865 104.8275 8.4047 19.8975 -23.3647
# 4 3.1136 1.5120 8.4047 11.8333 -11.9159 -1.7284
# 5 11.1844 0.2232 19.8975 -11.9159 29.7257 -2.2727
# 6 -16.8501 -16.4833 -23.3647 -1.7284 -2.2727 37.0109
#
#
#
# Elastic Compliance Matrix: (Units=1/GPa)
#
#
# Indices 1 2 3 4 5 6 
#
# 1 0.013619 -0.007224 -0.003024 -0.005825 -0.005345 0.000474
# 2 -0.007224 0.036726 -0.012490 0.031476 0.024042 0.008129
# 3 -0.003024 -0.012490 0.028173 -0.057171 -0.040107 0.005713
# 4 -0.005825 0.031476 -0.057171 0.272493 0.149240 -0.002836
# 5 -0.005345 0.024042 -0.040107 0.149240 0.121945 -0.002588
# 6 0.000474 0.008129 0.005713 -0.002836 -0.002588 0.034171
#
#
# Mechanical properties :
#
#
# Convention : Reuss Voigt Hill
#
# Bulk Modulus (GPa) = 30.26443 54.49302 42.37872
# Shear Modulus (GPa) = 8.87129 25.34301 17.10715
#
# Velocity S-wave (km/s) = 2.26411 3.82678 3.14408
# Velocity P-wave (km/s) = 4.93183 7.14241 6.13746
#
# Compressibility (1/GPa) = 0.03304209
#
# Stress axis : x y z
#
# Youngs Moduli (GPa) = 73.42819 27.22851 35.49543
#
# Poissons Ratio (x) = 0.19669 0.10734
# Poissons Ratio (y) = 0.53042 0.44334
# Poissons Ratio (z) = 0.22205 0.34009
#
# Static dielectric constant tensor:
#      x y z
#    x 3.110740 -0.170960 0.179160 
#    y -0.170960 3.228600 -0.440850 
#    z 0.179160 -0.440850 4.730620 
# 
# 
# High freq. dielectric constant tensor:
#      x y z
#    x 1.661440 -0.013440 -0.004720 
#    y -0.013440 1.661790 0.003440 
#    z -0.004720 0.003440 1.653940 
# 
# From -- ./inp_files/268833.got.cif
#   From: 2010.06.25/outbox.cif.g09.slc.cpg/sg2_135_cif.got.tgz:268833.got - 2010.06.27 13:26:56.
