data_PCOD8043575
_publ_section_title
;
Structure prediction by ZEFSAII (Michael W. Deem and Ramdas Pophale) SiO2 
 PCOD8043575
Probable space group: P -1
;
_chemical_formula_sum "Si O2"
_cell_formula_units_Z 16
_cell_length_a 10.864127
_cell_length_b 8.573533
_cell_length_c 17.185292
_cell_angle_alpha 112.146148
_cell_angle_beta 147.336621
_cell_angle_gamma 59.864046
_cell_volume 743.548790
_symmetry_space_group_name_H-M "P -1"
_symmetry_group_IT_number 2
_symmetry_cell_setting 'triclinic'
loop_
_space_group_symop_operation_xyz
x,y,z
-x,-y,-z
loop_
_atom_site_type_symbol
_atom_site_label
_atom_site_fract_x
_atom_site_fract_y
_atom_site_fract_z
Si Si1 0.053549 0.499031 0.347337
Si Si2 0.576624 0.262412 0.596153
Si Si3 0.536670 0.844098 0.927296
Si Si4 0.477841 0.997979 0.598629
Si Si5 0.072709 0.739021 0.652058
Si Si6 0.882654 0.215596 0.483220
Si Si7 0.384243 0.195877 0.213986
Si Si8 0.041443 0.540503 0.173211
O O1 0.326421 0.424452 0.517248
O O2 0.978377 0.716008 0.362195
O O3 0.048456 0.455250 0.246143
O O4 0.881178 0.421182 0.290755
O O5 0.494664 0.196834 0.458856
O O6 0.802083 0.329364 0.722260
O O7 0.641688 0.096581 0.661694
O O8 0.279537 0.820877 0.790971
O O9 0.596833 0.887874 0.878627
O O10 0.758071 0.658026 0.029810
O O11 0.500000 0.000000 0.000000
O O12 0.572272 0.969053 0.732631
O O13 0.193778 0.109003 0.450823
O O14 0.087027 0.678939 0.558583
O O15 0.595883 0.273500 0.358084
O O16 0.000000 0.000000 0.500000
O O17 0.133958 0.371035 0.129980
#
# Coordination Sequence:
#
# PCOD8043575 Si02
#       8
#     2   2   2   2   2   2   2   2
#     4  11  22  37  65  96 128 158 208 266 320 378
#     4  10  20  35  62  99 125 160 193 259 324 378
#     4  11  27  44  65  86 126 178 220 257 304 383
#     4  10  19  36  64  96 130 148 201 264 321 373
#     4  10  23  40  61  94 128 164 207 261 318 372
#     4  11  21  35  63  96 131 159 201 263 323 381
#     4  11  22  41  64  96 123 163 213 261 318 372
#     4  12  23  41  66  88 128 169 214 254 315 378
#
# _framework density 21.518426999999999
#
# number of rings (size 3 to 8) (size 9 to 14) (size 15 to 20)
#    0.000    1.250    3.750    2.625    3.500    0.500 
#    0.000    0.625    2.750    0.000    0.000    0.000 
#    0.000    0.000    0.000    0.000    0.000    0.000 
#
# Total GULP energy -198246.503741 kJ/mol
# GULP energy per Si atom -12390.406484 kJ/mol
# Density = 2.146945 g / cm^3
# Si number density = 21.518427 Si / 1000 Ang^3
#
#
#
# Elastic Constant Matrix: (Units=GPa)
#
#
# Indices 1 2 3 4 5 6 
#
# 1 131.0401 39.5999 26.4811 -2.1533 -26.5529 6.1593
# 2 39.5999 78.5804 22.7280 -4.0780 -13.6898 -11.9994
# 3 26.4811 22.7280 63.5759 -11.6914 -10.9490 -4.8950
# 4 -2.1533 -4.0780 -11.6914 28.9710 -7.4639 -3.7020
# 5 -26.5529 -13.6898 -10.9490 -7.4639 36.8101 -2.0178
# 6 6.1593 -11.9994 -4.8950 -3.7020 -2.0178 37.6662
#
#
#
# Elastic Compliance Matrix: (Units=1/GPa)
#
#
# Indices 1 2 3 4 5 6 
#
# 1 0.010567 -0.004226 -0.002157 0.000298 0.005303 -0.003041
# 2 -0.004226 0.017392 -0.002889 0.002661 0.003445 0.006302
# 3 -0.002157 -0.002889 0.020673 0.009666 0.005664 0.003372
# 4 0.000298 0.002661 0.009666 0.043111 0.013205 0.007000
# 5 0.005303 0.003445 0.005664 0.013205 0.036867 0.004239
# 6 -0.003041 0.006302 0.003372 0.007000 0.004239 0.030407
#
#
# Mechanical properties :
#
#
# Convention : Reuss Voigt Hill
#
# Bulk Modulus (GPa) = 33.23688 50.09049 41.66369
# Shear Modulus (GPa) = 26.65382 32.98193 29.81788
#
# Velocity S-wave (km/s) = 3.52327 3.91926 3.72652
# Velocity P-wave (km/s) = 5.65955 6.61886 6.15791
#
# Compressibility (1/GPa) = 0.03008706
#
# Stress axis : x y z
#
# Youngs Moduli (GPa) = 94.63822 57.49787 48.37249
#
# Poissons Ratio (x) = 0.24301 0.10432
# Poissons Ratio (y) = 0.39997 0.13976
# Poissons Ratio (z) = 0.20409 0.16613
#
# Static dielectric constant tensor:
#      x y z
#    x 4.291060 -0.017730 -0.083300 
#    y -0.017730 3.761360 -0.134250 
#    z -0.083300 -0.134250 3.677450 
# 
# 
# High freq. dielectric constant tensor:
#      x y z
#    x 1.867360 -0.007300 -0.006510 
#    y -0.007300 1.842640 -0.012390 
#    z -0.006510 -0.012390 1.811990 
# 
# From -- ./inp_files/308445.got.cif
#   From: 2010.06.25/outbox.cif.g09.slc.cpg/sg2_155_cif.got.tgz:308445.got - 2010.06.27 13:26:56.
