data_PCOD8043098
_publ_section_title
;
Structure prediction by ZEFSAII (Michael W. Deem and Ramdas Pophale) SiO2 
 PCOD8043098
Probable space group: P -1
;
_chemical_formula_sum "Si O2"
_cell_formula_units_Z 16
_cell_length_a 9.072610
_cell_length_b 9.229735
_cell_length_c 12.489212
_cell_angle_alpha 46.990467
_cell_angle_beta 95.596051
_cell_angle_gamma 110.706046
_cell_volume 699.390901
_symmetry_space_group_name_H-M "P -1"
_symmetry_group_IT_number 2
_symmetry_cell_setting 'triclinic'
loop_
_space_group_symop_operation_xyz
x,y,z
-x,-y,-z
loop_
_atom_site_type_symbol
_atom_site_label
_atom_site_fract_x
_atom_site_fract_y
_atom_site_fract_z
Si Si1 0.723951 0.517081 0.603495
Si Si2 0.608981 0.408394 0.203331
Si Si3 0.444121 0.002245 0.716396
Si Si4 0.395274 0.515778 0.602444
Si Si5 0.744478 0.611714 0.782741
Si Si6 0.121323 0.217439 0.085189
Si Si7 0.222077 0.832199 0.969720
Si Si8 0.261168 0.919360 0.161485
O O1 0.528356 0.409231 0.666898
O O2 0.741044 0.607047 0.436691
O O3 0.797383 0.681035 0.626173
O O4 0.799730 0.338389 0.701659
O O5 0.616036 0.180716 0.287546
O O6 0.686355 0.488952 0.286264
O O7 0.424519 0.377154 0.207683
O O8 0.712971 0.589558 0.036354
O O9 0.295850 0.977340 0.797379
O O10 0.509967 0.232682 0.549081
O O11 0.576672 0.960941 0.820165
O O12 0.880128 0.773431 0.789529
O O13 0.726911 0.368814 0.922201
O O14 0.970866 0.252007 0.007251
O O15 0.122637 0.990233 0.161849
O O16 0.287380 0.978385 0.007182
#
# Coordination Sequence:
#
# PCOD8043098 Si02
#       8
#     2   2   2   2   2   2   2   2
#     4   8  18  36  58  83 111 144 188 236 280 325
#     4  11  21  35  59  89 116 149 188 235 281 337
#     4  11  20  36  60  85 115 149 194 235 274 337
#     4   9  19  35  58  86 111 148 195 235 274 324
#     4  10  19  36  58  83 114 148 188 232 281 334
#     4  12  22  36  58  88 122 145 182 237 295 341
#     4  11  23  36  56  88 118 151 184 234 293 337
#     4  10  21  37  58  87 116 147 189 236 287 337
#
# _framework density 22.877047999999998
#
# number of rings (size 3 to 8) (size 9 to 14) (size 15 to 20)
#    0.000    1.750    2.500    2.625    0.000    5.000 
#    0.000    0.000    0.000   19.500    0.000    0.000 
#    0.000    0.000    0.000    0.000    0.000    0.000 
#
# Total GULP energy -198276.817706 kJ/mol
# GULP energy per Si atom -12392.301107 kJ/mol
# Density = 2.282498 g / cm^3
# Si number density = 22.877048 Si / 1000 Ang^3
#
#
#
# Elastic Constant Matrix: (Units=GPa)
#
#
# Indices 1 2 3 4 5 6 
#
# 1 40.9948 14.1659 17.6188 0.8999 8.9967 -5.1286
# 2 14.1659 99.3295 40.9399 34.0421 4.4282 -18.6633
# 3 17.6188 40.9399 66.0161 29.3482 14.4741 -3.8113
# 4 0.8999 34.0421 29.3482 48.8410 -2.1425 5.1304
# 5 8.9967 4.4282 14.4741 -2.1425 16.5547 0.6799
# 6 -5.1286 -18.6633 -3.8113 5.1304 0.6799 23.3018
#
#
#
# Elastic Compliance Matrix: (Units=1/GPa)
#
#
# Indices 1 2 3 4 5 6 
#
# 1 0.030289 -0.001903 -0.005956 0.003501 -0.010443 0.003702
# 2 -0.001903 0.020360 -0.004319 -0.013618 -0.003148 0.018271
# 3 -0.005956 -0.004319 0.034900 -0.019764 -0.028931 0.006134
# 4 0.003501 -0.013618 -0.019764 0.045448 0.025893 -0.024131
# 5 -0.010443 -0.003148 -0.028931 0.025893 0.096311 -0.018063
# 6 0.003702 0.018271 0.006134 -0.024131 -0.018063 0.065207
#
#
# Mechanical properties :
#
#
# Convention : Reuss Voigt Hill
#
# Bulk Modulus (GPa) = 16.34243 39.08773 27.71508
# Shear Modulus (GPa) = 14.82498 26.64722 20.73610
#
# Velocity S-wave (km/s) = 2.54840 3.41662 3.01394
# Velocity P-wave (km/s) = 3.97721 5.71730 4.92472
#
# Compressibility (1/GPa) = 0.06119040
#
# Stress axis : x y z
#
# Youngs Moduli (GPa) = 33.01535 49.11704 28.65367
#
# Poissons Ratio (x) = 0.09349 0.17067
# Poissons Ratio (y) = 0.06284 0.12376
# Poissons Ratio (z) = 0.19665 0.21214
#
# Static dielectric constant tensor:
#      x y z
#    x 3.727980 -0.304220 0.281580 
#    y -0.304220 4.481190 0.660440 
#    z 0.281580 0.660440 4.156640 
# 
# 
# High freq. dielectric constant tensor:
#      x y z
#    x 1.867820 -0.029380 0.030630 
#    y -0.029380 1.919500 0.035090 
#    z 0.030630 0.035090 1.888170 
# 
# From -- ./inp_files/237870.got.cif
#   From: 2010.06.25/outbox.cif.g09.slc.cpg/sg2_119_cif.got.tgz:237870.got - 2010.06.27 13:26:56.
