data_PCOD8043986
_publ_section_title
;
Structure prediction by ZEFSAII (Michael W. Deem and Ramdas Pophale) SiO2 
 PCOD8043986
Probable space group: P -1
;
_chemical_formula_sum "Si O2"
_cell_formula_units_Z 16
_cell_length_a 19.453837
_cell_length_b 13.492379
_cell_length_c 16.002491
_cell_angle_alpha 41.840234
_cell_angle_beta 25.691627
_cell_angle_gamma 27.025379
_cell_volume 791.079639
_symmetry_space_group_name_H-M "P -1"
_symmetry_group_IT_number 2
_symmetry_cell_setting 'triclinic'
loop_
_space_group_symop_operation_xyz
x,y,z
-x,-y,-z
loop_
_atom_site_type_symbol
_atom_site_label
_atom_site_fract_x
_atom_site_fract_y
_atom_site_fract_z
Si Si1 0.287328 0.777397 0.253506
Si Si2 0.021526 0.854900 0.775326
Si Si3 0.275860 0.411964 0.682808
Si Si4 0.162838 0.105243 0.306412
Si Si5 0.384891 0.700075 0.757165
Si Si6 0.569794 0.200268 0.648064
Si Si7 0.911477 0.512951 0.916090
Si Si8 0.936069 0.887809 0.040804
O O1 0.537250 0.504877 0.148420
O O2 0.094510 0.792112 0.488604
O O3 0.336835 0.880338 0.197978
O O4 0.195709 0.903133 0.185976
O O5 0.085475 0.660109 0.778302
O O6 0.279565 0.756461 0.554404
O O7 0.919446 0.905339 0.947792
O O8 0.395971 0.397672 0.478303
O O9 0.485459 0.201998 0.648118
O O10 0.108902 0.393724 0.848461
O O11 0.159449 0.279133 0.176007
O O12 0.263223 0.035012 0.335865
O O13 0.155819 0.833583 0.865138
O O14 0.313793 0.875850 0.792941
O O15 0.322644 0.406691 0.840637
O O16 0.023925 0.315012 0.850969
#
# Coordination Sequence:
#
# PCOD8043986 Si02
#       8
#     2   2   2   2   2   2   2   2
#     4  10  19  37  62  86 119 159 196 245 296 359
#     4  11  21  39  63  90 119 156 203 246 299 349
#     4  12  21  37  61  90 122 151 197 253 296 348
#     4  10  20  36  58  93 123 151 194 247 309 347
#     4  11  23  43  61  86 120 165 205 234 297 361
#     4  11  22  33  61  89 121 154 196 249 297 347
#     4  12  22  37  59  94 125 151 195 253 305 347
#     4  11  25  40  62  89 120 163 203 241 292 364
#
# _framework density 20.225524
#
# number of rings (size 3 to 8) (size 9 to 14) (size 15 to 20)
#    0.000    1.000    5.000    4.125    0.000    1.000 
#    0.000    0.000    0.000    0.750    0.000    0.000 
#    0.000    0.000    0.000    0.000    0.000    0.000 
#
# Total GULP energy -198288.471251 kJ/mol
# GULP energy per Si atom -12393.029453 kJ/mol
# Density = 2.017949 g / cm^3
# Si number density = 20.225524 Si / 1000 Ang^3
#
#
#
# Elastic Constant Matrix: (Units=GPa)
#
#
# Indices 1 2 3 4 5 6 
#
# 1 88.9606 48.9517 33.0517 7.2579 13.6315 -3.4556
# 2 48.9517 134.5653 35.8022 6.5418 21.5455 10.5591
# 3 33.0517 35.8022 36.0254 1.5465 17.7152 0.3651
# 4 7.2579 6.5418 1.5465 23.4843 3.7010 -0.8275
# 5 13.6315 21.5455 17.7152 3.7010 28.2572 5.6956
# 6 -3.4556 10.5591 0.3651 -0.8275 5.6956 37.0597
#
#
#
# Elastic Compliance Matrix: (Units=1/GPa)
#
#
# Indices 1 2 3 4 5 6 
#
# 1 0.018635 -0.003169 -0.015340 -0.004286 0.003159 0.002210
# 2 -0.003169 0.011083 -0.007255 -0.001500 -0.001536 -0.003179
# 3 -0.015340 -0.007255 0.062509 0.007234 -0.028112 0.004503
# 4 -0.004286 -0.001500 0.007234 0.045132 -0.007667 0.002143
# 5 0.003159 -0.001536 -0.028112 -0.007667 0.055206 -0.007647
# 6 0.002210 -0.003179 0.004503 0.002143 -0.007647 0.029274
#
#
# Mechanical properties :
#
#
# Convention : Reuss Voigt Hill
#
# Bulk Modulus (GPa) = 24.56961 55.01805 39.79383
# Shear Modulus (GPa) = 17.42569 27.20994 22.31782
#
# Velocity S-wave (km/s) = 2.93843 3.67185 3.32542
# Velocity P-wave (km/s) = 4.86690 6.72592 5.87046
#
# Compressibility (1/GPa) = 0.04070069
#
# Stress axis : x y z
#
# Youngs Moduli (GPa) = 53.66179 90.23193 15.99758
#
# Poissons Ratio (x) = 0.28591 0.24540
# Poissons Ratio (y) = 0.17003 0.11606
# Poissons Ratio (z) = 0.82316 0.65462
#
# Static dielectric constant tensor:
#      x y z
#    x 3.891200 -0.141950 -0.063800 
#    y -0.141950 3.757590 -0.014760 
#    z -0.063800 -0.014760 3.507160 
# 
# 
# High freq. dielectric constant tensor:
#      x y z
#    x 1.795810 -0.018850 -0.017510 
#    y -0.018850 1.786030 -0.012790 
#    z -0.017510 -0.012790 1.764440 
# 
# From -- ./inp_files/278185.got.cif
#   From: 2010.06.25/outbox.cif.g09.slc.cpg/sg2_140_cif.got.tgz:278185.got - 2010.06.27 13:26:56.
