data_PCOD8043994
_publ_section_title
;
Structure prediction by ZEFSAII (Michael W. Deem and Ramdas Pophale) SiO2 
 PCOD8043994
Probable space group: P -1
;
_chemical_formula_sum "Si O2"
_cell_formula_units_Z 16
_cell_length_a 15.780371
_cell_length_b 19.877111
_cell_length_c 5.055447
_cell_angle_alpha 120.010998
_cell_angle_beta 120.340877
_cell_angle_gamma 25.643114
_cell_volume 587.985275
_symmetry_space_group_name_H-M "P -1"
_symmetry_group_IT_number 2
_symmetry_cell_setting 'triclinic'
loop_
_space_group_symop_operation_xyz
x,y,z
-x,-y,-z
loop_
_atom_site_type_symbol
_atom_site_label
_atom_site_fract_x
_atom_site_fract_y
_atom_site_fract_z
Si Si1 0.540071 0.350407 0.318246
Si Si2 0.763687 0.530350 0.254643
Si Si3 0.682926 0.967589 0.355191
Si Si4 0.997496 0.775910 0.868749
Si Si5 0.526972 0.205925 0.292808
Si Si6 0.803473 0.298746 0.450288
Si Si7 0.184812 0.374067 0.845767
Si Si8 0.218002 0.256178 0.174679
O O1 0.605825 0.237162 0.402654
O O2 0.737775 0.256895 0.342243
O O3 0.392521 0.514289 0.537484
O O4 0.425615 0.389057 0.975493
O O5 0.911594 0.371480 0.323595
O O6 0.670893 0.655068 0.558485
O O7 0.883725 0.493482 0.131831
O O8 0.767981 0.922619 0.700409
O O9 0.706345 0.033901 0.364491
O O10 0.454304 0.103516 0.255430
O O11 0.813233 0.812763 0.095255
O O12 0.090242 0.775037 0.810184
O O13 0.041813 0.773906 0.232112
O O14 0.424088 0.227227 0.933778
O O15 0.142550 0.331268 0.497443
O O16 0.115609 0.388368 0.058584
#
# Coordination Sequence:
#
# PCOD8043994 Si02
#       8
#     2   2   2   2   2   2   2   2
#     4   9  20  35  65  90 114 159 201 237 277 352
#     4  10  19  37  62  90 117 150 197 244 287 341
#     4  10  23  41  61  86 119 157 195 240 297 350
#     4  11  24  39  59  88 123 154 188 247 302 339
#     4  10  19  37  62  89 115 154 200 237 283 350
#     4  10  22  39  62  88 122 152 199 238 291 343
#     4  10  19  37  62  88 112 146 201 248 279 337
#     4  10  22  39  64  85 112 156 205 237 280 361
#
# _framework density 27.211565
#
# number of rings (size 3 to 8) (size 9 to 14) (size 15 to 20)
#    0.000    2.000    3.750    0.000    1.750    9.000 
#    0.000    2.500    0.000    0.000    0.000    0.000 
#    0.000    0.000    0.000    0.000    0.000    0.000 
#
# Total GULP energy -198275.031927 kJ/mol
# GULP energy per Si atom -12392.189495 kJ/mol
# Density = 2.714963 g / cm^3
# Si number density = 27.211565 Si / 1000 Ang^3
#
#
#
# Elastic Constant Matrix: (Units=GPa)
#
#
# Indices 1 2 3 4 5 6 
#
# 1 176.5384 61.3682 39.4442 2.0883 10.1145 27.1303
# 2 61.3682 127.4634 34.3599 -18.3320 4.9873 32.1109
# 3 39.4442 34.3599 82.5575 -15.8814 9.2094 13.2583
# 4 2.0883 -18.3320 -15.8814 26.5317 0.3331 -3.6053
# 5 10.1145 4.9873 9.2094 0.3331 43.8646 2.0997
# 6 27.1303 32.1109 13.2583 -3.6053 2.0997 47.7333
#
#
#
# Elastic Compliance Matrix: (Units=1/GPa)
#
#
# Indices 1 2 3 4 5 6 
#
# 1 0.007804 -0.003165 -0.002969 -0.004816 -0.000693 -0.001815
# 2 -0.003165 0.012116 -0.001264 0.007125 -0.000175 -0.005454
# 3 -0.002969 -0.001264 0.016263 0.008966 -0.002597 -0.001188
# 4 -0.004816 0.007125 0.008966 0.048273 -0.001910 -0.000816
# 5 -0.000693 -0.000175 -0.002597 -0.001910 0.023534 0.000054
# 6 -0.001815 -0.005454 -0.001188 -0.000816 0.000054 0.025916
#
#
# Mechanical properties :
#
#
# Convention : Reuss Voigt Hill
#
# Bulk Modulus (GPa) = 46.76040 72.98931 59.87486
# Shear Modulus (GPa) = 32.08619 40.38507 36.23563
#
# Velocity S-wave (km/s) = 3.43758 3.85660 3.65310
# Velocity P-wave (km/s) = 5.74259 6.83464 6.31227
#
# Compressibility (1/GPa) = 0.02138562
#
# Stress axis : x y z
#
# Youngs Moduli (GPa) = 128.14474 82.53729 61.49088
#
# Poissons Ratio (x) = 0.26125 0.18256
# Poissons Ratio (y) = 0.40561 0.07773
# Poissons Ratio (z) = 0.38044 0.10434
#
# Static dielectric constant tensor:
#      x y z
#    x 5.010290 0.346900 0.073740 
#    y 0.346900 5.203240 -0.238580 
#    z 0.073740 -0.238580 4.844840 
# 
# 
# High freq. dielectric constant tensor:
#      x y z
#    x 2.111690 0.005890 0.004170 
#    y 0.005890 2.099880 -0.023530 
#    z 0.004170 -0.023530 2.093140 
# 
# From -- ./inp_files/112293.got.cif
#   From: 2010.06.25/outbox.cif.g09.slc.cpg/sg2_57_cif.got.tgz:112293.got - 2010.06.27 13:26:56.
