data_PCOD8043615
_publ_section_title
;
Structure prediction by ZEFSAII (Michael W. Deem and Ramdas Pophale) SiO2 
 PCOD8043615
Probable space group: P -1
;
_chemical_formula_sum "Si O2"
_cell_formula_units_Z 12
_cell_length_a 12.743076
_cell_length_b 5.505804
_cell_length_c 18.735036
_cell_angle_alpha 112.153817
_cell_angle_beta 21.451364
_cell_angle_gamma 104.864177
_cell_volume 427.568692
_symmetry_space_group_name_H-M "P -1"
_symmetry_group_IT_number 2
_symmetry_cell_setting 'triclinic'
loop_
_space_group_symop_operation_xyz
x,y,z
-x,-y,-z
loop_
_atom_site_type_symbol
_atom_site_label
_atom_site_fract_x
_atom_site_fract_y
_atom_site_fract_z
Si Si1 0.353357 0.804199 0.145719
Si Si2 0.459031 0.283883 0.625986
Si Si3 0.727307 0.910936 0.610831
Si Si4 0.699922 0.149452 0.247409
Si Si5 0.454525 0.504027 0.810179
Si Si6 0.871354 0.023659 0.846207
O O1 0.202905 0.963162 0.188761
O O2 0.500000 0.500000 0.000000
O O3 0.086020 0.850381 0.376884
O O4 0.614436 0.904891 0.029620
O O5 0.672018 0.984561 0.320741
O O6 0.301819 0.535718 0.700193
O O7 0.373556 0.406381 0.773432
O O8 0.805254 0.187218 0.375659
O O9 0.587467 0.239601 0.746468
O O10 0.596463 0.833726 0.609986
O O11 0.669714 0.703145 0.684618
O O12 0.000000 0.000000 0.000000
O O13 0.160865 0.690083 0.059495
#
# Coordination Sequence:
#
# PCOD8043615 Si02
#       6
#     2   2   2   2   2   2
#     4  11  23  39  59  88 121 158 203 245 287 359
#     4  10  21  41  59  90 123 148 200 246 285 358
#     4  10  22  41  57  87 126 149 202 249 285 354
#     4  10  19  36  66  88 114 159 195 239 303 348
#     4  10  22  39  61  85 119 163 193 242 295 346
#     4  11  24  38  62  87 119 163 197 239 301 349
#
# _framework density 28.065667999999999
#
# number of rings (size 3 to 8) (size 9 to 14) (size 15 to 20)
#    0.000    1.667    3.333    2.500    4.667    1.333 
#    0.000    0.000    0.000   24.000    0.000    0.000 
#    0.000    0.000    0.000    0.000    0.000    0.000 
#
# Total GULP energy -148665.621441 kJ/mol
# GULP energy per Si atom -12388.801787 kJ/mol
# Density = 2.800179 g / cm^3
# Si number density = 28.065668 Si / 1000 Ang^3
#
#
#
# Elastic Constant Matrix: (Units=GPa)
#
#
# Indices 1 2 3 4 5 6 
#
# 1 52.6068 21.1397 12.8694 8.4963 7.2548 -4.6065
# 2 21.1397 234.9858 52.8984 12.6338 -17.5816 -46.4583
# 3 12.8694 52.8984 134.0674 22.5024 -13.3746 -5.0259
# 4 8.4963 12.6338 22.5024 61.7456 3.6184 2.4487
# 5 7.2548 -17.5816 -13.3746 3.6184 34.3817 11.9423
# 6 -4.6065 -46.4583 -5.0259 2.4487 11.9423 41.5577
#
#
#
# Elastic Compliance Matrix: (Units=1/GPa)
#
#
# Indices 1 2 3 4 5 6 
#
# 1 0.021438 -0.001424 -0.001774 -0.001724 -0.006658 0.002585
# 2 -0.001424 0.006142 -0.001880 -0.000661 0.000572 0.006356
# 3 -0.001774 -0.001880 0.009173 -0.002864 0.004040 -0.002182
# 4 -0.001724 -0.000661 -0.002864 0.017817 -0.002394 -0.001638
# 5 -0.006658 0.000572 0.004040 -0.002394 0.036017 -0.009819
# 6 0.002585 0.006356 -0.002182 -0.001638 -0.009819 0.034109
#
#
# Mechanical properties :
#
#
# Convention : Reuss Voigt Hill
#
# Bulk Modulus (GPa) = 37.59826 66.16388 51.88107
# Shear Modulus (GPa) = 34.79031 49.85382 42.32207
#
# Velocity S-wave (km/s) = 3.52462 4.21922 3.88747
# Velocity P-wave (km/s) = 5.47627 6.88198 6.21897
#
# Compressibility (1/GPa) = 0.02659698
#
# Stress axis : x y z
#
# Youngs Moduli (GPa) = 46.64596 162.81867 109.01243
#
# Poissons Ratio (x) = 0.23178 0.19339
# Poissons Ratio (y) = 0.06640 0.20499
# Poissons Ratio (z) = 0.08275 0.30618
#
# Static dielectric constant tensor:
#      x y z
#    x 6.131220 0.535340 0.922110 
#    y 0.535340 7.048730 0.483110 
#    z 0.922110 0.483110 5.610690 
# 
# 
# High freq. dielectric constant tensor:
#      x y z
#    x 2.123260 -0.004490 0.010900 
#    y -0.004490 2.157260 0.008210 
#    z 0.010900 0.008210 2.144640 
# 
# From -- ./inp_files/286667.got.cif
#   From: 2010.06.25/outbox.cif.g09.slc.cpg/sg2_144_cif.got.tgz:286667.got - 2010.06.27 13:26:56.
