data_PCOD8043810
_publ_section_title
;
Structure prediction by ZEFSAII (Michael W. Deem and Ramdas Pophale) SiO2 
 PCOD8043810
Probable space group: P -1
;
_chemical_formula_sum "Si O2"
_cell_formula_units_Z 16
_cell_length_a 11.211163
_cell_length_b 23.635521
_cell_length_c 17.082326
_cell_angle_alpha 27.854407
_cell_angle_beta 31.370682
_cell_angle_gamma 21.229273
_cell_volume 753.932936
_symmetry_space_group_name_H-M "P -1"
_symmetry_group_IT_number 2
_symmetry_cell_setting 'triclinic'
loop_
_space_group_symop_operation_xyz
x,y,z
-x,-y,-z
loop_
_atom_site_type_symbol
_atom_site_label
_atom_site_fract_x
_atom_site_fract_y
_atom_site_fract_z
Si Si1 0.170895 0.470921 0.595497
Si Si2 0.845701 0.772025 0.738825
Si Si3 0.552845 0.501982 0.729796
Si Si4 0.862302 0.089713 0.203026
Si Si5 0.826916 0.268007 0.542779
Si Si6 0.256361 0.832421 0.004337
Si Si7 0.328866 0.168562 0.501151
Si Si8 0.795285 0.381021 0.917502
O O1 0.326264 0.427892 0.474122
O O2 0.420951 0.432692 0.569551
O O3 0.823719 0.678175 0.539474
O O4 0.092132 0.361266 0.793845
O O5 0.633226 0.735445 0.923085
O O6 0.148280 0.661641 0.766248
O O7 0.013865 0.698355 0.648748
O O8 0.591811 0.984187 0.625781
O O9 0.665574 0.463880 0.802414
O O10 0.708442 0.326104 0.810855
O O11 0.873325 0.092643 0.100724
O O12 0.499118 0.180428 0.322069
O O13 0.947161 0.187235 0.073482
O O14 0.129905 0.885517 0.328747
O O15 0.026495 0.203629 0.591162
O O16 0.000000 0.000000 0.000000
O O17 0.500000 0.500000 0.000000
#
# Coordination Sequence:
#
# PCOD8043810 Si02
#       8
#     2   2   2   2   2   2   2   2
#     4  11  23  39  64  90 121 166 205 253 297 362
#     4  10  19  37  59  88 125 161 190 251 309 364
#     4  10  24  39  61  91 121 161 208 249 302 359
#     4  10  20  38  62  89 121 162 195 253 301 359
#     4  10  20  36  63  93 124 153 202 251 310 360
#     4  11  20  36  58  90 128 160 195 244 313 367
#     4  11  18  37  66  91 127 154 203 245 312 363
#     4  11  23  44  64  84 121 164 212 250 298 358
#
# _framework density 21.222045999999999
#
# number of rings (size 3 to 8) (size 9 to 14) (size 15 to 20)
#    0.000    1.500    3.750    2.625    0.000    0.500 
#    2.250    0.625    2.750    0.000    0.000    0.000 
#    0.000    0.000    0.000    0.000    0.000    0.000 
#
# Total GULP energy -198284.513180 kJ/mol
# GULP energy per Si atom -12392.782074 kJ/mol
# Density = 2.117374 g / cm^3
# Si number density = 21.222046 Si / 1000 Ang^3
#
#
#
# Elastic Constant Matrix: (Units=GPa)
#
#
# Indices 1 2 3 4 5 6 
#
# 1 49.4161 18.7742 14.2977 3.7263 -6.1717 -2.1724
# 2 18.7742 92.0327 18.6662 6.0209 -9.0735 -1.4025
# 3 14.2977 18.6662 106.9443 12.5123 -17.8081 3.0880
# 4 3.7263 6.0209 12.5123 29.3875 -1.1369 1.3898
# 5 -6.1717 -9.0735 -17.8081 -1.1369 30.0783 0.3891
# 6 -2.1724 -1.4025 3.0880 1.3898 0.3891 30.5029
#
#
#
# Elastic Compliance Matrix: (Units=1/GPa)
#
#
# Indices 1 2 3 4 5 6 
#
# 1 0.022723 -0.003921 -0.001869 -0.001271 0.002304 0.001656
# 2 -0.003921 0.012203 -0.001083 -0.001478 0.002174 0.000431
# 3 -0.001869 -0.001083 0.011269 -0.004056 0.005824 -0.001213
# 4 -0.001271 -0.001478 -0.004056 0.036218 -0.001722 -0.001376
# 5 0.002304 0.002174 0.005824 -0.001722 0.037767 -0.000729
# 6 0.001656 0.000431 -0.001213 -0.001376 -0.000729 0.033116
#
#
# Mechanical properties :
#
#
# Convention : Reuss Voigt Hill
#
# Bulk Modulus (GPa) = 30.81784 39.09660 34.95722
# Shear Modulus (GPa) = 28.11220 31.10408 29.60814
#
# Velocity S-wave (km/s) = 3.64355 3.83253 3.73924
# Velocity P-wave (km/s) = 5.67924 6.16823 5.92878
#
# Compressibility (1/GPa) = 0.03244874
#
# Stress axis : x y z
#
# Youngs Moduli (GPa) = 44.00815 81.94833 88.73874
#
# Poissons Ratio (x) = 0.32130 0.16586
# Poissons Ratio (y) = 0.17255 0.09613
# Poissons Ratio (z) = 0.08225 0.08877
#
# Static dielectric constant tensor:
#      x y z
#    x 3.498130 -0.013640 -0.208570 
#    y -0.013640 3.906310 -0.084990 
#    z -0.208570 -0.084990 4.154320 
# 
# 
# High freq. dielectric constant tensor:
#      x y z
#    x 1.796730 -0.002770 -0.002830 
#    y -0.002770 1.835230 -0.000460 
#    z -0.002830 -0.000460 1.845100 
# 
# From -- ./inp_files/218975.got.cif
#   From: 2010.06.25/outbox.cif.g09.slc.cpg/sg2_110_cif.got.tgz:218975.got - 2010.06.27 13:26:56.
