data_PCOD8043425
_publ_section_title
;
Structure prediction by ZEFSAII (Michael W. Deem and Ramdas Pophale) SiO2 
 PCOD8043425
Probable space group: P -1
;
_chemical_formula_sum "Si O2"
_cell_formula_units_Z 16
_cell_length_a 16.082669
_cell_length_b 26.803321
_cell_length_c 8.366355
_cell_angle_alpha 132.574187
_cell_angle_beta 130.548311
_cell_angle_gamma 17.370228
_cell_volume 792.721625
_symmetry_space_group_name_H-M "P -1"
_symmetry_group_IT_number 2
_symmetry_cell_setting 'triclinic'
loop_
_space_group_symop_operation_xyz
x,y,z
-x,-y,-z
loop_
_atom_site_type_symbol
_atom_site_label
_atom_site_fract_x
_atom_site_fract_y
_atom_site_fract_z
Si Si1 0.456083 0.442814 0.935681
Si Si2 0.967777 0.647718 0.332670
Si Si3 0.732135 0.127950 0.032961
Si Si4 0.894214 0.297697 0.196552
Si Si5 0.223899 0.465448 0.934818
Si Si6 0.414442 0.923602 0.137250
Si Si7 0.301081 0.804335 0.505718
Si Si8 0.785502 0.614221 0.721605
O O1 0.199344 0.631066 0.946918
O O2 0.642543 0.302927 0.722550
O O3 0.665476 0.373981 0.143161
O O4 0.325088 0.462072 0.927600
O O5 0.627436 0.845874 0.346202
O O6 0.111943 0.630222 0.554141
O O7 0.059751 0.597904 0.155605
O O8 0.066389 0.522914 0.271182
O O9 0.479630 0.280036 0.926994
O O10 0.678612 0.201366 0.288657
O O11 0.772091 0.024828 0.888141
O O12 0.000000 0.000000 0.000000
O O13 0.205568 0.090197 0.138049
O O14 0.021452 0.523285 0.724417
O O15 0.617287 0.765421 0.937335
O O16 0.550318 0.708536 0.528438
O O17 0.000000 0.000000 0.500000
#
# Coordination Sequence:
#
# PCOD8043425 Si02
#       8
#     2   2   2   2   2   2   2   2
#     4  11  24  39  58  85 127 167 195 240 302 368
#     4  11  19  40  64  88 117 159 204 253 301 352
#     4  11  20  35  63  94 120 145 204 261 295 346
#     4  11  23  40  56  84 125 168 201 232 308 369
#     4  11  20  38  64  91 113 153 211 256 294 351
#     4  10  19  36  62  91 116 152 200 252 306 351
#     4  11  21  38  58  88 125 156 192 241 311 354
#     4  10  19  38  65  89 118 153 200 253 307 351
#
# _framework density 20.183629
#
# number of rings (size 3 to 8) (size 9 to 14) (size 15 to 20)
#    0.000    1.250    5.000    4.125    0.000    1.000 
#    0.000    5.000    0.000    0.000    0.000    0.000 
#    0.000    0.000    0.000    0.000    0.000    0.000 
#
# Total GULP energy -198242.994073 kJ/mol
# GULP energy per Si atom -12390.187130 kJ/mol
# Density = 2.013769 g / cm^3
# Si number density = 20.183629 Si / 1000 Ang^3
#
#
#
# Elastic Constant Matrix: (Units=GPa)
#
#
# Indices 1 2 3 4 5 6 
#
# 1 70.2961 13.5030 9.8304 13.5890 10.6954 2.1361
# 2 13.5030 133.1613 8.9668 -1.8976 8.7100 12.6584
# 3 9.8304 8.9668 58.0456 2.8224 22.1012 -6.8419
# 4 13.5890 -1.8976 2.8224 26.1007 0.1419 6.9828
# 5 10.6954 8.7100 22.1012 0.1419 18.8041 -4.7703
# 6 2.1361 12.6584 -6.8419 6.9828 -4.7703 28.8579
#
#
#
# Elastic Compliance Matrix: (Units=1/GPa)
#
#
# Indices 1 2 3 4 5 6 
#
# 1 0.017858 -0.001319 0.002274 -0.009605 -0.012116 0.000117
# 2 -0.001319 0.008446 -0.000193 0.002683 -0.004224 -0.005000
# 3 0.002274 -0.000193 0.031884 -0.005086 -0.038026 0.002420
# 4 -0.009605 0.002683 -0.005086 0.047225 0.006804 -0.011974
# 5 -0.012116 -0.004224 -0.038026 0.006804 0.109243 0.010146
# 6 0.000117 -0.005000 0.002420 -0.011974 0.010146 0.041986
#
#
# Mechanical properties :
#
#
# Convention : Reuss Voigt Hill
#
# Bulk Modulus (GPa) = 16.74759 36.23370 26.49065
# Shear Modulus (GPa) = 18.18032 30.03272 24.10652
#
# Velocity S-wave (km/s) = 3.00450 3.86161 3.45970
# Velocity P-wave (km/s) = 4.51128 6.15416 5.39562
#
# Compressibility (1/GPa) = 0.05971007
#
# Stress axis : x y z
#
# Youngs Moduli (GPa) = 55.99869 118.39479 31.36398
#
# Poissons Ratio (x) = 0.15621 -0.07131
# Poissons Ratio (y) = 0.07389 0.00605
# Poissons Ratio (z) = -0.12732 0.02284
#
# Static dielectric constant tensor:
#      x y z
#    x 3.637090 -0.297060 0.483620 
#    y -0.297060 4.031390 -0.363570 
#    z 0.483620 -0.363570 3.878920 
# 
# 
# High freq. dielectric constant tensor:
#      x y z
#    x 1.770200 -0.009250 0.031060 
#    y -0.009250 1.806240 -0.018480 
#    z 0.031060 -0.018480 1.782250 
# 
# From -- ./inp_files/258856.got.cif
#   From: 2010.06.25/outbox.cif.g09.slc.cpg/sg2_130_cif.got.tgz:258856.got - 2010.06.27 13:26:56.
