data_PCOD8043070
_publ_section_title
;
Structure prediction by ZEFSAII (Michael W. Deem and Ramdas Pophale) SiO2 
 PCOD8043070
Probable space group: P -1
;
_chemical_formula_sum "Si O2"
_cell_formula_units_Z 16
_cell_length_a 20.764170
_cell_length_b 11.647645
_cell_length_c 14.972445
_cell_angle_alpha 126.406782
_cell_angle_beta 149.800212
_cell_angle_gamma 32.411996
_cell_volume 842.762798
_symmetry_space_group_name_H-M "P -1"
_symmetry_group_IT_number 2
_symmetry_cell_setting 'triclinic'
loop_
_space_group_symop_operation_xyz
x,y,z
-x,-y,-z
loop_
_atom_site_type_symbol
_atom_site_label
_atom_site_fract_x
_atom_site_fract_y
_atom_site_fract_z
Si Si1 0.396832 0.208866 0.638536
Si Si2 0.763181 0.645705 0.801272
Si Si3 0.316391 0.963348 0.946628
Si Si4 0.665446 0.724868 0.920120
Si Si5 0.197865 0.580582 0.417383
Si Si6 0.030425 0.544787 0.682371
Si Si7 0.822370 0.867212 0.423484
Si Si8 0.196342 0.877019 0.617131
O O1 0.284233 0.394210 0.509207
O O2 0.214583 0.285440 0.508494
O O3 0.578980 0.933087 0.692081
O O4 0.510614 0.216839 0.847905
O O5 0.748109 0.602891 0.864785
O O6 0.724741 0.545594 0.644581
O O7 0.000000 0.500000 0.000000
O O8 0.368230 0.804661 0.855031
O O9 0.068455 0.169465 0.782469
O O10 0.346457 0.093620 0.003602
O O11 0.427370 0.872021 0.722674
O O12 0.842519 0.504565 0.103111
O O13 0.304333 0.640848 0.588823
O O14 0.994438 0.699658 0.635571
O O15 0.177271 0.281680 0.698394
O O16 0.902044 0.923790 0.482014
O O17 0.000000 0.000000 0.500000
#
# Coordination Sequence:
#
# PCOD8043070 Si02
#       8
#     2   2   2   2   2   2   2   2
#     4  11  20  35  61  93 112 146 200 245 288 337
#     4  11  20  37  61  87 117 152 192 250 288 328
#     4  10  19  36  57  87 120 146 190 241 292 334
#     4  11  20  36  59  89 120 145 196 248 289 326
#     4  11  21  38  57  85 119 160 190 229 291 347
#     4  11  20  34  61  92 117 146 194 244 296 336
#     4  11  22  36  58  90 119 153 188 241 294 343
#     4  10  22  39  59  80 123 160 185 230 292 362
#
# _framework density 18.985175000000002
#
# number of rings (size 3 to 8) (size 9 to 14) (size 15 to 20)
#    0.000    1.250    7.500    1.500    0.000    0.500 
#    0.000    3.125    0.000    0.750    0.000    0.000 
#    0.000    0.000    0.000    0.000    0.000    0.000 
#
# Total GULP energy -198375.435509 kJ/mol
# GULP energy per Si atom -12398.464719 kJ/mol
# Density = 1.894196 g / cm^3
# Si number density = 18.985175 Si / 1000 Ang^3
#
#
#
# Elastic Constant Matrix: (Units=GPa)
#
#
# Indices 1 2 3 4 5 6 
#
# 1 125.3273 38.1463 40.6918 4.0497 -16.0883 -3.4848
# 2 38.1463 84.8933 34.1999 20.4481 -7.4969 -14.8199
# 3 40.6918 34.1999 72.2003 5.2409 -16.7979 -9.0948
# 4 4.0497 20.4481 5.2409 37.6099 -9.8955 -0.0451
# 5 -16.0883 -7.4969 -16.7979 -9.8955 30.7502 1.2854
# 6 -3.4848 -14.8199 -9.0948 -0.0451 1.2854 22.6902
#
#
#
# Elastic Compliance Matrix: (Units=1/GPa)
#
#
# Indices 1 2 3 4 5 6 
#
# 1 0.010751 -0.004043 -0.003868 0.002481 0.003439 -0.002730
# 2 -0.004043 0.020090 -0.006214 -0.010797 -0.004514 0.010244
# 3 -0.003868 -0.006214 0.021249 0.003194 0.008957 0.003364
# 4 0.002481 -0.010797 0.003194 0.034865 0.011881 -0.005994
# 5 0.003439 -0.004514 0.008957 0.011881 0.041984 -0.001185
# 6 -0.002730 0.010244 0.003364 -0.005994 -0.001185 0.051747
#
#
# Mechanical properties :
#
#
# Convention : Reuss Voigt Hill
#
# Bulk Modulus (GPa) = 41.94529 56.49964 49.22246
# Shear Modulus (GPa) = 23.05390 29.50224 26.27807
#
# Velocity S-wave (km/s) = 3.48848 3.94631 3.72443
# Velocity P-wave (km/s) = 6.19416 7.11259 6.66920
#
# Compressibility (1/GPa) = 0.02384058
#
# Stress axis : x y z
#
# Youngs Moduli (GPa) = 93.01507 49.77664 47.06047
#
# Poissons Ratio (x) = 0.20125 0.18203
# Poissons Ratio (y) = 0.37607 0.29241
# Poissons Ratio (z) = 0.35978 0.30929
#
# Static dielectric constant tensor:
#      x y z
#    x 3.603930 -0.201260 -0.234610 
#    y -0.201260 3.682340 0.217890 
#    z -0.234610 0.217890 3.708220 
# 
# 
# High freq. dielectric constant tensor:
#      x y z
#    x 1.740310 -0.013860 -0.018400 
#    y -0.013860 1.709370 -0.007640 
#    z -0.018400 -0.007640 1.737050 
# 
# From -- ./inp_files/423507.got.cif
#   From: 2010.06.25/outbox.cif.g09.slc.cpg/sg2_212_cif.got.tgz:423507.got - 2010.06.27 13:26:56.
