data_PCOD8043203
_publ_section_title
;
Structure prediction by ZEFSAII (Michael W. Deem and Ramdas Pophale) SiO2 
 PCOD8043203
Probable space group: P -1
;
_chemical_formula_sum "Si O2"
_cell_formula_units_Z 16
_cell_length_a 12.070920
_cell_length_b 8.725111
_cell_length_c 19.026069
_cell_angle_alpha 117.439448
_cell_angle_beta 29.181074
_cell_angle_gamma 103.094025
_cell_volume 792.331062
_symmetry_space_group_name_H-M "P -1"
_symmetry_group_IT_number 2
_symmetry_cell_setting 'triclinic'
loop_
_space_group_symop_operation_xyz
x,y,z
-x,-y,-z
loop_
_atom_site_type_symbol
_atom_site_label
_atom_site_fract_x
_atom_site_fract_y
_atom_site_fract_z
Si Si1 0.132257 0.882350 0.519231
Si Si2 0.527942 0.824105 0.400063
Si Si3 0.658481 0.071113 0.136179
Si Si4 0.813090 0.477728 0.654469
Si Si5 0.406289 0.102662 0.145561
Si Si6 0.161387 0.082835 0.853755
Si Si7 0.542487 0.683327 0.503599
Si Si8 0.832286 0.745883 0.474871
O O1 0.266883 0.868072 0.515933
O O2 0.276345 0.684602 0.355715
O O3 0.853287 0.905277 0.691935
O O4 0.135234 0.056862 0.508447
O O5 0.746155 0.779308 0.211943
O O6 0.595080 0.660545 0.385727
O O7 0.500000 0.000000 0.500000
O O8 0.600931 0.997264 0.077982
O O9 0.400357 0.230798 0.340925
O O10 0.765859 0.909744 0.102872
O O11 0.865222 0.155632 0.026150
O O12 0.596976 0.688012 0.821244
O O13 0.000000 0.500000 0.500000
O O14 0.931232 0.416046 0.653837
O O15 0.500000 0.000000 0.000000
O O16 0.302873 0.869126 0.699894
O O17 0.500000 0.500000 0.500000
O O18 0.785190 0.678393 0.409858
#
# Coordination Sequence:
#
# PCOD8043203 Si02
#       8
#     2   2   2   2   2   2   2   2
#     4  11  21  38  69  87 122 162 206 258 297 372
#     4  10  19  36  59  93 116 159 208 245 313 362
#     4  10  19  37  61  86 119 156 207 243 312 356
#     4  10  22  38  62  91 115 162 211 249 294 377
#     4  11  26  39  62  92 125 163 201 259 317 357
#     4   9  20  36  62  83 118 162 202 250 293 375
#     4  10  22  33  59  89 124 157 198 260 304 366
#     4  11  20  39  62  90 118 161 215 245 307 362
#
# _framework density 20.193577999999999
#
# number of rings (size 3 to 8) (size 9 to 14) (size 15 to 20)
#    0.000    1.750    6.250    0.375    7.000    0.000 
#    0.000    0.625    5.500    4.500    0.000    0.000 
#    0.000    0.000    0.000    0.000    0.000    0.000 
#
# Total GULP energy -198229.631650 kJ/mol
# GULP energy per Si atom -12389.351978 kJ/mol
# Density = 2.014762 g / cm^3
# Si number density = 20.193578 Si / 1000 Ang^3
#
#
#
# Elastic Constant Matrix: (Units=GPa)
#
#
# Indices 1 2 3 4 5 6 
#
# 1 185.2398 52.1544 46.4208 -14.0014 -8.7513 -11.1737
# 2 52.1544 133.0945 31.6679 -7.5641 1.1713 -9.0611
# 3 46.4208 31.6679 60.0554 -13.1008 1.1395 -0.4417
# 4 -14.0014 -7.5641 -13.1008 28.6782 5.3736 5.1137
# 5 -8.7513 1.1713 1.1395 5.3736 24.4255 -8.5154
# 6 -11.1737 -9.0611 -0.4417 5.1137 -8.5154 34.3256
#
#
#
# Elastic Compliance Matrix: (Units=1/GPa)
#
#
# Indices 1 2 3 4 5 6 
#
# 1 0.007462 -0.001566 -0.005087 -0.000410 0.004135 0.003037
# 2 -0.001566 0.009105 -0.003650 -0.000347 -0.000098 0.001874
# 3 -0.005087 -0.003650 0.024823 0.010191 -0.006983 -0.005551
# 4 -0.000410 -0.000347 0.010191 0.043574 -0.013670 -0.009977
# 5 0.004135 -0.000098 -0.006983 -0.013670 0.051339 0.016003
# 6 0.003037 0.001874 -0.005551 -0.009977 0.016003 0.036001
#
#
# Mechanical properties :
#
#
# Convention : Reuss Voigt Hill
#
# Bulk Modulus (GPa) = 48.11903 70.98621 59.55262
# Shear Modulus (GPa) = 25.02019 34.02897 29.52458
#
# Velocity S-wave (km/s) = 3.52379 4.10950 3.82786
# Velocity P-wave (km/s) = 6.35899 7.59911 7.00654
#
# Compressibility (1/GPa) = 0.02078180
#
# Stress axis : x y z
#
# Youngs Moduli (GPa) = 134.01487 109.83577 40.28485
#
# Poissons Ratio (x) = 0.17206 0.20494
# Poissons Ratio (y) = 0.20993 0.14704
# Poissons Ratio (z) = 0.68179 0.40090
#
# Static dielectric constant tensor:
#      x y z
#    x 4.438260 -0.752830 -0.249390 
#    y -0.752830 4.759070 0.167640 
#    z -0.249390 0.167640 3.714950 
# 
# 
# High freq. dielectric constant tensor:
#      x y z
#    x 1.816050 -0.008810 -0.002470 
#    y -0.008810 1.779760 -0.020010 
#    z -0.002470 -0.020010 1.745880 
# 
# From -- ./inp_files/593669.got.cif
#   From: 2010.06.25/outbox.cif.g09.slc.cpg/sg2_297_cif.got.tgz:593669.got - 2010.06.27 13:26:56.
