data_PCOD8043860
_publ_section_title
;
Structure prediction by ZEFSAII (Michael W. Deem and Ramdas Pophale) SiO2 
 PCOD8043860
Probable space group: P -1
;
_chemical_formula_sum "Si O2"
_cell_formula_units_Z 16
_cell_length_a 12.055802
_cell_length_b 11.419784
_cell_length_c 6.899030
_cell_angle_alpha 79.690544
_cell_angle_beta 124.992485
_cell_angle_gamma 87.037616
_cell_volume 751.396017
_symmetry_space_group_name_H-M "P -1"
_symmetry_group_IT_number 2
_symmetry_cell_setting 'triclinic'
loop_
_space_group_symop_operation_xyz
x,y,z
-x,-y,-z
loop_
_atom_site_type_symbol
_atom_site_label
_atom_site_fract_x
_atom_site_fract_y
_atom_site_fract_z
Si Si1 0.593199 0.771677 0.392890
Si Si2 0.714029 0.154505 0.030802
Si Si3 0.449125 0.478920 0.665464
Si Si4 0.783255 0.875848 0.274972
Si Si5 0.319754 0.641491 0.792595
Si Si6 0.190772 0.265650 0.055003
Si Si7 0.987687 0.239319 0.177003
Si Si8 0.088637 0.530785 0.753727
O O1 0.428333 0.815901 0.244170
O O2 0.630286 0.634195 0.385883
O O3 0.651034 0.856929 0.271850
O O4 0.667409 0.778272 0.671588
O O5 0.679602 0.218704 0.189772
O O6 0.833850 0.208566 0.021991
O O7 0.763339 0.013353 0.147441
O O8 0.500000 0.500000 0.500000
O O9 0.354206 0.603836 0.614017
O O10 0.579964 0.450463 0.942617
O O11 0.922668 0.846539 0.548664
O O12 0.795711 0.791933 0.124943
O O13 0.171408 0.618527 0.699546
O O14 0.062312 0.222243 0.047308
O O15 0.171627 0.410680 0.973502
O O16 0.990980 0.380342 0.187820
O O17 0.000000 0.500000 0.500000
#
# Coordination Sequence:
#
# PCOD8043860 Si02
#       8
#     2   2   2   2   2   2   2   2
#     4  10  23  40  63  94 123 161 211 253 308 371
#     4  10  22  43  63  89 127 166 211 256 300 366
#     4  10  19  37  60  87 122 156 188 248 311 364
#     4  11  22  42  66  87 124 170 211 255 302 358
#     4   9  21  37  57  87 120 153 200 243 301 364
#     4  11  23  39  64  93 125 162 202 260 312 364
#     4  10  23  42  62  94 124 160 211 253 313 371
#     4  11  20  39  63  89 121 158 200 252 308 370
#
# _framework density 21.293697999999999
#
# number of rings (size 3 to 8) (size 9 to 14) (size 15 to 20)
#    0.000    1.750    1.250    2.625    1.750    3.000 
#    6.750    6.250    0.000    0.000    0.000    0.000 
#    0.000    0.000    0.000    0.000    0.000    0.000 
#
# Total GULP energy -198317.519848 kJ/mol
# GULP energy per Si atom -12394.844990 kJ/mol
# Density = 2.124523 g / cm^3
# Si number density = 21.293698 Si / 1000 Ang^3
#
#
#
# Elastic Constant Matrix: (Units=GPa)
#
#
# Indices 1 2 3 4 5 6 
#
# 1 92.2776 6.2267 42.1369 -1.2224 15.1700 8.3478
# 2 6.2267 74.1203 2.7290 -23.1277 4.9156 3.2852
# 3 42.1369 2.7290 77.7947 -5.2203 0.2949 3.5163
# 4 -1.2224 -23.1277 -5.2203 22.7323 0.8941 5.0685
# 5 15.1700 4.9156 0.2949 0.8941 32.9518 3.7442
# 6 8.3478 3.2852 3.5163 5.0685 3.7442 30.5534
#
#
#
# Elastic Compliance Matrix: (Units=1/GPa)
#
#
# Indices 1 2 3 4 5 6 
#
# 1 0.016200 -0.000858 -0.008697 -0.001217 -0.006960 -0.002278
# 2 -0.000858 0.021207 0.001553 0.023277 -0.002761 -0.005748
# 3 -0.008697 0.001553 0.017909 0.005346 0.003601 -0.001180
# 4 -0.001217 0.023277 0.005346 0.072164 -0.003287 -0.014354
# 5 -0.006960 -0.002761 0.003601 -0.003287 0.034233 -0.001866
# 6 -0.002278 -0.005748 -0.001180 -0.014354 -0.001866 0.036716
#
#
# Mechanical properties :
#
#
# Convention : Reuss Voigt Hill
#
# Bulk Modulus (GPa) = 25.43701 38.48641 31.96171
# Shear Modulus (GPa) = 21.97441 30.12083 26.04762
#
# Velocity S-wave (km/s) = 3.21591 3.76512 3.50130
# Velocity P-wave (km/s) = 5.07555 6.08398 5.60250
#
# Compressibility (1/GPa) = 0.03931280
#
# Stress axis : x y z
#
# Youngs Moduli (GPa) = 61.72723 47.15327 55.83793
#
# Poissons Ratio (x) = 0.04046 0.48562
# Poissons Ratio (y) = 0.05296 -0.08671
# Poissons Ratio (z) = 0.53684 -0.07323
#
# Static dielectric constant tensor:
#      x y z
#    x 3.875100 -0.189400 0.043180 
#    y -0.189400 4.260560 0.200930 
#    z 0.043180 0.200930 3.847180 
# 
# 
# High freq. dielectric constant tensor:
#      x y z
#    x 1.838690 0.000010 0.008410 
#    y 0.000010 1.832370 0.007010 
#    z 0.008410 0.007010 1.829470 
# 
# From -- ./inp_files/70139.got.cif
#   From: 2010.06.25/outbox.cif.g09.slc.cpg/sg2_36_cif.got.tgz:70139.got - 2010.06.27 13:26:56.
