data_PCOD8043728
_publ_section_title
;
Structure prediction by ZEFSAII (Michael W. Deem and Ramdas Pophale) SiO2 
 PCOD8043728
Probable space group: P -1
;
_chemical_formula_sum "Si O2"
_cell_formula_units_Z 16
_cell_length_a 11.826903
_cell_length_b 10.668543
_cell_length_c 11.519965
_cell_angle_alpha 61.625377
_cell_angle_beta 36.405996
_cell_angle_gamma 71.292170
_cell_volume 753.713880
_symmetry_space_group_name_H-M "P -1"
_symmetry_group_IT_number 2
_symmetry_cell_setting 'triclinic'
loop_
_space_group_symop_operation_xyz
x,y,z
-x,-y,-z
loop_
_atom_site_type_symbol
_atom_site_label
_atom_site_fract_x
_atom_site_fract_y
_atom_site_fract_z
Si Si1 0.094057 0.866090 0.850034
Si Si2 0.187392 0.439764 0.422547
Si Si3 0.136787 0.894896 0.288878
Si Si4 0.291410 0.166533 0.914605
Si Si5 0.561498 0.284783 0.818022
Si Si6 0.018082 0.816041 0.183474
Si Si7 0.543420 0.027458 0.587465
Si Si8 0.297358 0.200109 0.286312
O O1 0.078953 0.037308 0.791923
O O2 0.269742 0.850832 0.624341
O O3 0.900526 0.774542 0.001693
O O4 0.138637 0.812064 0.966808
O O5 0.345328 0.558276 0.293236
O O6 0.136386 0.325275 0.619471
O O7 0.282471 0.360214 0.274008
O O8 0.000000 0.500000 0.500000
O O9 0.272660 0.818614 0.297438
O O10 0.148957 0.809472 0.193146
O O11 0.917531 0.883047 0.522114
O O12 0.225739 0.057620 0.122005
O O13 0.443518 0.289284 0.791827
O O14 0.373435 0.090309 0.768508
O O15 0.415177 0.212121 0.066007
O O16 0.590126 0.884563 0.675946
O O17 0.500000 0.000000 0.500000
#
# Coordination Sequence:
#
# PCOD8043728 Si02
#       8
#     2   2   2   2   2   2   2   2
#     4  10  20  39  59  90 123 152 206 268 308 348
#     4  11  21  41  63  90 125 167 208 254 304 368
#     4  10  19  37  57  88 123 159 200 257 303 353
#     4  11  24  37  59  93 130 164 199 255 319 366
#     4  12  24  39  58  90 133 168 202 244 312 389
#     4   9  17  35  65  83 113 160 200 257 311 337
#     4  12  22  36  67  97 119 157 214 263 307 363
#     4  11  23  38  63  94 118 164 209 256 312 355
#
# _framework density 21.228214999999999
#
# number of rings (size 3 to 8) (size 9 to 14) (size 15 to 20)
#    0.000    1.250    7.500    3.000    0.000    1.500 
#    0.000    0.625    0.000    0.750    0.000    0.000 
#    0.000    0.000    0.000    0.000    0.000    0.000 
#
# Total GULP energy -198258.687070 kJ/mol
# GULP energy per Si atom -12391.167942 kJ/mol
# Density = 2.117990 g / cm^3
# Si number density = 21.228215 Si / 1000 Ang^3
#
#
#
# Elastic Constant Matrix: (Units=GPa)
#
#
# Indices 1 2 3 4 5 6 
#
# 1 103.5984 15.5040 25.8964 -5.9512 -16.1394 10.9102
# 2 15.5040 25.3702 12.2417 -2.0136 -8.3865 4.2246
# 3 25.8964 12.2417 101.2095 -3.0365 -9.7919 3.5206
# 4 -5.9512 -2.0136 -3.0365 25.4844 -3.4639 -9.7221
# 5 -16.1394 -8.3865 -9.7919 -3.4639 33.2136 -5.1168
# 6 10.9102 4.2246 3.5206 -9.7221 -5.1168 23.5768
#
#
#
# Elastic Compliance Matrix: (Units=1/GPa)
#
#
# Indices 1 2 3 4 5 6 
#
# 1 0.011785 -0.004402 -0.001972 0.001569 0.003749 -0.002910
# 2 -0.004402 0.047357 -0.003602 0.002243 0.008507 -0.003139
# 3 -0.001972 -0.003602 0.010981 0.001043 0.001585 0.000692
# 4 0.001569 0.002243 0.001043 0.049388 0.010063 0.021266
# 5 0.003749 0.008507 0.001585 0.010063 0.036930 0.008669
# 6 -0.002910 -0.003139 0.000692 0.021266 0.008669 0.054871
#
#
# Mechanical properties :
#
#
# Convention : Reuss Voigt Hill
#
# Bulk Modulus (GPa) = 19.93166 37.49580 28.71373
# Shear Modulus (GPa) = 20.16217 28.22404 24.19310
#
# Velocity S-wave (km/s) = 3.08520 3.65026 3.37956
# Velocity P-wave (km/s) = 4.70116 5.95545 5.36508
#
# Compressibility (1/GPa) = 0.05017144
#
# Stress axis : x y z
#
# Youngs Moduli (GPa) = 84.85373 21.11600 91.06369
#
# Poissons Ratio (x) = 0.09295 0.17957
# Poissons Ratio (y) = 0.37353 0.32803
# Poissons Ratio (z) = 0.16733 0.07606
#
# Static dielectric constant tensor:
#      x y z
#    x 3.982810 -0.045120 -0.158140 
#    y -0.045120 3.423620 -0.031270 
#    z -0.158140 -0.031270 4.246170 
# 
# 
# High freq. dielectric constant tensor:
#      x y z
#    x 1.835930 -0.000230 -0.012490 
#    y -0.000230 1.776840 0.004820 
#    z -0.012490 0.004820 1.849540 
# 
# From -- ./inp_files/425420.got.cif
#   From: 2010.06.25/outbox.cif.g09.slc.cpg/sg2_213_cif.got.tgz:425420.got - 2010.06.27 13:26:56.
