data_PCOD8043421
_publ_section_title
;
Structure prediction by ZEFSAII (Michael W. Deem and Ramdas Pophale) SiO2 
 PCOD8043421
Probable space group: P -1
;
_chemical_formula_sum "Si O2"
_cell_formula_units_Z 12
_cell_length_a 7.380578
_cell_length_b 15.814856
_cell_length_c 11.793080
_cell_angle_alpha 24.618479
_cell_angle_beta 116.178153
_cell_angle_gamma 126.144183
_cell_volume 444.193707
_symmetry_space_group_name_H-M "P -1"
_symmetry_group_IT_number 2
_symmetry_cell_setting 'triclinic'
loop_
_space_group_symop_operation_xyz
x,y,z
-x,-y,-z
loop_
_atom_site_type_symbol
_atom_site_label
_atom_site_fract_x
_atom_site_fract_y
_atom_site_fract_z
Si Si1 0.862996 0.729502 0.754771
Si Si2 0.767012 0.808769 0.280759
Si Si3 0.980621 0.302670 0.817104
Si Si4 0.468070 0.849960 0.967028
Si Si5 0.085182 0.467754 0.214985
Si Si6 0.552689 0.336405 0.407625
O O1 0.975800 0.704038 0.699280
O O2 0.592906 0.643841 0.762040
O O3 0.000000 0.000000 0.500000
O O4 0.896675 0.557727 0.061808
O O5 0.621846 0.756325 0.187595
O O6 0.910979 0.668547 0.502084
O O7 0.591613 0.729277 0.435592
O O8 0.957728 0.085974 0.000563
O O9 0.755717 0.202221 0.956047
O O10 0.000000 0.500000 0.500000
O O11 0.215192 0.410729 0.825077
O O12 0.352634 0.699438 0.002946
O O13 0.612573 0.130652 0.644228
#
# Coordination Sequence:
#
# PCOD8043421 Si02
#       6
#     2   2   2   2   2   2
#     4  10  20  40  67  86 115 166 205 242 299 362
#     4  10  20  35  60  89 127 156 192 253 299 353
#     4  11  19  35  60  92 124 163 201 233 303 369
#     4  11  19  35  61  91 126 154 193 254 300 350
#     4  10  22  37  61  96 119 151 210 248 295 359
#     4  10  19  36  62  90 117 163 204 238 299 359
#
# _framework density 27.015241
#
# number of rings (size 3 to 8) (size 9 to 14) (size 15 to 20)
#    0.000    1.667    5.000    1.500    0.000    0.000 
#    0.000    5.833    0.000    0.000    0.000    0.000 
#    0.000    0.000    0.000    0.000    0.000    0.000 
#
# Total GULP energy -148698.092524 kJ/mol
# GULP energy per Si atom -12391.507710 kJ/mol
# Density = 2.695375 g / cm^3
# Si number density = 27.015241 Si / 1000 Ang^3
#
#
#
# Elastic Constant Matrix: (Units=GPa)
#
#
# Indices 1 2 3 4 5 6 
#
# 1 42.3893 34.9319 18.9975 7.1494 19.4749 13.2614
# 2 34.9319 217.1419 54.7700 -0.7431 35.5034 32.7542
# 3 18.9975 54.7700 118.3068 10.0897 49.4385 25.3469
# 4 7.1494 -0.7431 10.0897 61.3948 10.8812 17.7145
# 5 19.4749 35.5034 49.4385 10.8812 45.9639 7.1800
# 6 13.2614 32.7542 25.3469 17.7145 7.1800 51.6927
#
#
#
# Elastic Compliance Matrix: (Units=1/GPa)
#
#
# Indices 1 2 3 4 5 6 
#
# 1 0.033050 -0.002861 0.003425 -0.000059 -0.014477 -0.006314
# 2 -0.002861 0.006171 -0.000779 0.001898 -0.002686 -0.003072
# 3 0.003425 -0.000779 0.017628 0.002147 -0.019210 -0.007096
# 4 -0.000059 0.001898 0.002147 0.019520 -0.007132 -0.007939
# 5 -0.014477 -0.002686 -0.019210 -0.007132 0.050717 0.010235
# 6 -0.006314 -0.003072 -0.007096 -0.007939 0.010235 0.027690
#
#
# Mechanical properties :
#
#
# Convention : Reuss Voigt Hill
#
# Bulk Modulus (GPa) = 17.72445 66.13742 41.93093
# Shear Modulus (GPa) = 28.73361 49.75285 39.24323
#
# Velocity S-wave (km/s) = 3.26484 4.29611 3.81548
# Velocity P-wave (km/s) = 4.55932 7.01024 5.91315
#
# Compressibility (1/GPa) = 0.05641924
#
# Stress axis : x y z
#
# Youngs Moduli (GPa) = 30.25691 162.04649 56.72822
#
# Poissons Ratio (x) = 0.46369 -0.19430
# Poissons Ratio (y) = 0.08658 0.04417
# Poissons Ratio (z) = -0.10363 0.12617
#
# Static dielectric constant tensor:
#      x y z
#    x 4.748610 0.118130 0.645880 
#    y 0.118130 6.014380 -0.249330 
#    z 0.645880 -0.249330 5.468510 
# 
# 
# High freq. dielectric constant tensor:
#      x y z
#    x 2.062120 0.003380 0.030070 
#    y 0.003380 2.112040 -0.004780 
#    z 0.030070 -0.004780 2.087090 
# 
# From -- ./inp_files/34944.got.cif
#   From: 2010.06.25/outbox.cif.g09.slc.cpg/sg2_18_cif.got.tgz:34944.got - 2010.06.27 13:26:56.
