data_PCOD8043892
_publ_section_title
;
Structure prediction by ZEFSAII (Michael W. Deem and Ramdas Pophale) SiO2 
 PCOD8043892
Probable space group: P -1
;
_chemical_formula_sum "Si O2"
_cell_formula_units_Z 16
_cell_length_a 8.410007
_cell_length_b 25.533315
_cell_length_c 25.584846
_cell_angle_alpha 168.841924
_cell_angle_beta 135.107225
_cell_angle_gamma 45.151368
_cell_volume 748.274508
_symmetry_space_group_name_H-M "P -1"
_symmetry_group_IT_number 2
_symmetry_cell_setting 'triclinic'
loop_
_space_group_symop_operation_xyz
x,y,z
-x,-y,-z
loop_
_atom_site_type_symbol
_atom_site_label
_atom_site_fract_x
_atom_site_fract_y
_atom_site_fract_z
Si Si1 0.568228 0.974665 0.763843
Si Si2 0.715740 0.799328 0.217912
Si Si3 0.340711 0.765406 0.719924
Si Si4 0.068084 0.707484 0.495435
Si Si5 0.227480 0.790556 0.060126
Si Si6 0.033221 0.223212 0.267800
Si Si7 0.934091 0.301140 0.719108
Si Si8 0.275056 0.516595 0.249134
O O1 0.723586 0.088760 0.867070
O O2 0.455793 0.711390 0.458462
O O3 0.377218 0.205538 0.964803
O O4 0.716422 0.854244 0.728587
O O5 0.452758 0.741189 0.099125
O O6 0.815256 0.810243 0.311204
O O7 0.756590 0.073150 0.463948
O O8 0.853608 0.561139 0.987548
O O9 0.500000 0.500000 0.500000
O O10 0.234587 0.773416 0.645535
O O11 0.140728 0.771921 0.720844
O O12 0.500000 0.000000 0.000000
O O13 0.216941 0.598317 0.374584
O O14 0.932327 0.995876 0.734288
O O15 0.891108 0.484715 0.248760
O O16 0.000000 0.500000 0.500000
O O17 0.000000 0.000000 0.000000
O O18 0.941461 0.408532 0.765880
#
# Coordination Sequence:
#
# PCOD8043892 Si02
#       8
#     2   2   2   2   2   2   2   2
#     4  12  25  43  72  93 132 169 230 270 320 387
#     4  10  20  35  66  96 134 172 220 268 328 375
#     4  12  28  48  67  93 133 175 210 263 344 405
#     4  12  28  43  67  94 139 169 220 271 335 400
#     4  12  22  45  66  98 127 182 219 271 322 393
#     4  12  28  46  68 100 127 164 220 278 322 387
#     4  10  19  37  61 102 133 169 218 277 315 385
#     4  12  24  43  67 102 131 176 219 276 325 385
#
# _framework density 21.382525999999999
#
# number of rings (size 3 to 8) (size 9 to 14) (size 15 to 20)
#    0.000    0.500    3.750    4.500    7.000    0.000 
#    0.000    1.250    0.000    0.000    0.000    0.000 
#    0.000    0.000    0.000    0.000    0.000    0.000 
#
# Total GULP energy -198326.876954 kJ/mol
# GULP energy per Si atom -12395.429810 kJ/mol
# Density = 2.133386 g / cm^3
# Si number density = 21.382526 Si / 1000 Ang^3
#
#
#
# Elastic Constant Matrix: (Units=GPa)
#
#
# Indices 1 2 3 4 5 6 
#
# 1 68.1924 32.0950 3.7621 -0.0588 -7.5979 11.5232
# 2 32.0950 178.4403 33.0522 0.5721 6.9290 6.2580
# 3 3.7621 33.0522 115.7212 2.3536 6.4883 -4.8882
# 4 -0.0588 0.5721 2.3536 40.4824 -8.0750 -2.7900
# 5 -7.5979 6.9290 6.4883 -8.0750 36.3300 -2.1031
# 6 11.5232 6.2580 -4.8882 -2.7900 -2.1031 33.9638
#
#
#
# Elastic Compliance Matrix: (Units=1/GPa)
#
#
# Indices 1 2 3 4 5 6 
#
# 1 0.017441 -0.003094 -0.000138 0.000543 0.004090 -0.005069
# 2 -0.003094 0.006561 -0.001692 -0.000377 -0.001711 -0.000540
# 3 -0.000138 -0.001692 0.009289 -0.000695 -0.001430 0.001550
# 4 0.000543 -0.000377 -0.000695 0.026157 0.006258 0.002321
# 5 0.004090 -0.001711 -0.001430 0.006258 0.030418 0.001120
# 6 -0.005069 -0.000540 0.001550 0.002321 0.001120 0.031745
#
#
# Mechanical properties :
#
#
# Convention : Reuss Voigt Hill
#
# Bulk Modulus (GPa) = 42.65846 55.57474 49.11660
# Shear Modulus (GPa) = 35.90040 41.71823 38.80932
#
# Velocity S-wave (km/s) = 4.10196 4.42185 4.26491
# Velocity P-wave (km/s) = 6.51369 7.21925 6.87553
#
# Compressibility (1/GPa) = 0.02344201
#
# Stress axis : x y z
#
# Youngs Moduli (GPa) = 57.33599 152.42184 107.65321
#
# Poissons Ratio (x) = 0.47164 0.01482
# Poissons Ratio (y) = 0.17741 0.18220
# Poissons Ratio (z) = 0.00790 0.25797
#
# Static dielectric constant tensor:
#      x y z
#    x 3.629390 0.032750 -0.047090 
#    y 0.032750 4.489410 -0.037400 
#    z -0.047090 -0.037400 4.119370 
# 
# 
# High freq. dielectric constant tensor:
#      x y z
#    x 1.810900 0.000240 -0.005180 
#    y 0.000240 1.863840 0.000700 
#    z -0.005180 0.000700 1.865060 
# 
# From -- ./inp_files/226577.got.cif
#   From: 2010.06.25/outbox.cif.g09.slc.cpg/sg2_114_cif.got.tgz:226577.got - 2010.06.27 13:26:56.
