data_PCOD8043572
_publ_section_title
;
Structure prediction by ZEFSAII (Michael W. Deem and Ramdas Pophale) SiO2 
 PCOD8043572
Probable space group: P -1
;
_chemical_formula_sum "Si O2"
_cell_formula_units_Z 14
_cell_length_a 16.778868
_cell_length_b 7.371152
_cell_length_c 5.154119
_cell_angle_alpha 110.779510
_cell_angle_beta 63.047652
_cell_angle_gamma 97.229914
_cell_volume 530.792265
_symmetry_space_group_name_H-M "P -1"
_symmetry_group_IT_number 2
_symmetry_cell_setting 'triclinic'
loop_
_space_group_symop_operation_xyz
x,y,z
-x,-y,-z
loop_
_atom_site_type_symbol
_atom_site_label
_atom_site_fract_x
_atom_site_fract_y
_atom_site_fract_z
Si Si1 0.138098 0.093329 0.340665
Si Si2 0.234785 0.964982 0.620883
Si Si3 0.139768 0.569786 0.566176
Si Si4 0.397506 0.566405 0.667111
Si Si5 0.320207 0.381565 0.188025
Si Si6 0.042736 0.697584 0.286950
Si Si7 0.397994 0.985681 0.721278
O O1 0.213797 0.084567 0.449832
O O2 0.067339 0.283632 0.557522
O O3 0.077524 0.910358 0.391461
O O4 0.181155 0.076028 0.986296
O O5 0.339963 0.974360 0.536820
O O6 0.208994 0.742036 0.525992
O O7 0.210361 0.378605 0.374412
O O8 0.074023 0.564633 0.415126
O O9 0.078931 0.597647 0.922631
O O10 0.500000 0.500000 0.500000
O O11 0.360936 0.511979 0.413763
O O12 0.384957 0.798711 0.827595
O O13 0.339916 0.469429 0.922311
O O14 0.365353 0.168045 0.035442
O O15 0.500000 0.000000 0.500000
#
# Coordination Sequence:
#
# PCOD8043572 Si02
#       7
#     2   2   2   2   2   2   2
#     4   9  18  34  59  97 133 174 228 285 342 415
#     4  10  21  37  62  93 138 179 227 289 346 408
#     4  10  19  36  64  95 137 179 224 285 345 413
#     4  12  27  49  74 102 141 187 243 302 355 419
#     4  12  27  47  73 105 145 190 236 294 359 422
#     4   9  17  32  62  97 131 176 229 276 346 421
#     4  12  28  49  74 107 142 194 242 293 359 424
#
# _framework density 26.375667
#
# number of rings (size 3 to 8) (size 9 to 14) (size 15 to 20)
#    0.000    1.429    2.857    2.143    4.000    6.286 
#    0.000    0.000    0.000    5.143    0.000    0.000 
#    0.000    0.000    0.000    0.000    0.000    0.000 
#
# Total GULP energy -173737.854183 kJ/mol
# GULP energy per Si atom -12409.846727 kJ/mol
# Density = 2.631563 g / cm^3
# Si number density = 26.375667 Si / 1000 Ang^3
#
#
#
# Elastic Constant Matrix: (Units=GPa)
#
#
# Indices 1 2 3 4 5 6 
#
# 1 214.2962 37.3212 64.5905 2.3023 -31.0645 -12.5762
# 2 37.3212 145.4495 46.0451 17.2271 -14.8118 -23.7662
# 3 64.5905 46.0451 131.9751 7.5234 -14.2978 -26.9516
# 4 2.3023 17.2271 7.5234 48.1364 -5.2626 -5.7550
# 5 -31.0645 -14.8118 -14.2978 -5.2626 61.3449 -5.1117
# 6 -12.5762 -23.7662 -26.9516 -5.7550 -5.1117 46.5888
#
#
#
# Elastic Compliance Matrix: (Units=1/GPa)
#
#
# Indices 1 2 3 4 5 6 
#
# 1 0.005827 -0.000526 -0.002398 0.000569 0.002334 0.000244
# 2 -0.000526 0.008482 -0.001804 -0.002211 0.001424 0.003024
# 3 -0.002398 -0.001804 0.010452 -0.000200 0.001150 0.004580
# 4 0.000569 -0.002211 -0.000200 0.021978 0.001744 0.001816
# 5 0.002334 0.001424 0.001150 0.001744 0.018601 0.004278
# 6 0.000244 0.003024 0.004580 0.001816 0.004278 0.026416
#
#
# Mechanical properties :
#
#
# Convention : Reuss Voigt Hill
#
# Bulk Modulus (GPa) = 65.33834 87.51492 76.42663
# Shear Modulus (GPa) = 47.03001 54.13162 50.58082
#
# Velocity S-wave (km/s) = 4.22724 4.53518 4.38391
# Velocity P-wave (km/s) = 6.97510 7.78948 7.39351
#
# Compressibility (1/GPa) = 0.01530495
#
# Stress axis : x y z
#
# Youngs Moduli (GPa) = 171.60184 117.89136 95.67743
#
# Poissons Ratio (x) = 0.06200 0.22947
# Poissons Ratio (y) = 0.09024 0.17261
# Poissons Ratio (z) = 0.41156 0.21269
#
# Static dielectric constant tensor:
#      x y z
#    x 5.378960 0.064280 -0.069380 
#    y 0.064280 5.297130 0.285640 
#    z -0.069380 0.285640 4.719400 
# 
# 
# High freq. dielectric constant tensor:
#      x y z
#    x 2.088090 0.015740 -0.009080 
#    y 0.015740 2.102730 0.011840 
#    z -0.009080 0.011840 2.059000 
# 
# From -- ./inp_files/91104.got.cif
#   From: 2010.06.25/outbox.cif.g09.slc.cpg/sg2_46_cif.got.tgz:91104.got - 2010.06.27 13:26:56.
