data_PCOD8043205
_publ_section_title
;
Structure prediction by ZEFSAII (Michael W. Deem and Ramdas Pophale) SiO2 
 PCOD8043205
Probable space group: P -1
;
_chemical_formula_sum "Si O2"
_cell_formula_units_Z 16
_cell_length_a 9.326537
_cell_length_b 25.504623
_cell_length_c 9.348793
_cell_angle_alpha 51.126804
_cell_angle_beta 63.692185
_cell_angle_gamma 28.662007
_cell_volume 795.251350
_symmetry_space_group_name_H-M "P -1"
_symmetry_group_IT_number 2
_symmetry_cell_setting 'triclinic'
loop_
_space_group_symop_operation_xyz
x,y,z
-x,-y,-z
loop_
_atom_site_type_symbol
_atom_site_label
_atom_site_fract_x
_atom_site_fract_y
_atom_site_fract_z
Si Si1 0.906193 0.455427 0.635180
Si Si2 0.153783 0.165146 0.085661
Si Si3 0.797093 0.000602 0.704041
Si Si4 0.281935 0.921120 0.704980
Si Si5 0.220309 0.651257 0.590885
Si Si6 0.267399 0.056873 0.626180
Si Si7 0.978676 0.673126 0.925879
Si Si8 0.132503 0.260982 0.675344
O O1 0.552035 0.565490 0.560229
O O2 0.000000 0.500000 0.500000
O O3 0.129255 0.333978 0.634694
O O4 0.937094 0.419383 0.848274
O O5 0.998598 0.262802 0.116093
O O6 0.055956 0.122918 0.201357
O O7 0.532276 0.031111 0.168179
O O8 0.021974 0.244107 0.863536
O O9 0.708520 0.074705 0.476640
O O10 0.479484 0.112024 0.740909
O O11 0.055766 0.939614 0.798907
O O12 0.630643 0.782163 0.841266
O O13 0.120314 0.041586 0.654795
O O14 0.988985 0.795790 0.478737
O O15 0.213315 0.598666 0.814222
O O16 0.104891 0.652624 0.500124
O O17 0.500000 0.000000 0.500000
#
# Coordination Sequence:
#
# PCOD8043205 Si02
#       8
#     2   2   2   2   2   2   2   2
#     4  11  28  45  58  85 121 161 209 255 298 341
#     4  10  19  36  59  93 124 151 190 240 303 366
#     4  11  19  33  58  96 128 148 184 243 315 355
#     4  10  20  33  59  95 124 147 188 249 305 352
#     4  12  21  40  69  83 116 166 207 243 290 356
#     4  11  17  35  61  91 119 153 197 240 294 368
#     4  10  20  44  65  87 116 159 209 244 285 373
#     4  11  23  40  61  86 125 155 201 246 294 367
#
# _framework density 20.119426000000001
#
# number of rings (size 3 to 8) (size 9 to 14) (size 15 to 20)
#    0.000    1.250    6.250    1.125    1.750    1.000 
#    0.000    2.500    0.000    0.000    0.000    0.000 
#    0.000    0.000    0.000    0.000    0.000    0.000 
#
# Total GULP energy -198277.126824 kJ/mol
# GULP energy per Si atom -12392.320426 kJ/mol
# Density = 2.007363 g / cm^3
# Si number density = 20.119426 Si / 1000 Ang^3
#
#
#
# Elastic Constant Matrix: (Units=GPa)
#
#
# Indices 1 2 3 4 5 6 
#
# 1 144.9023 21.2985 46.4702 4.3525 -1.7383 -4.6986
# 2 21.2985 44.9291 18.7598 2.8838 0.4383 -0.8211
# 3 46.4702 18.7598 104.5511 7.7876 -0.7518 6.0835
# 4 4.3525 2.8838 7.7876 21.0597 8.2765 -2.4106
# 5 -1.7383 0.4383 -0.7518 8.2765 24.7032 1.5787
# 6 -4.6986 -0.8211 6.0835 -2.4106 1.5787 23.5950
#
#
#
# Elastic Compliance Matrix: (Units=1/GPa)
#
#
# Indices 1 2 3 4 5 6 
#
# 1 0.008463 -0.002531 -0.003449 0.000007 0.000376 0.002462
# 2 -0.002531 0.024955 -0.003313 -0.001419 -0.000316 0.001095
# 3 -0.003449 -0.003313 0.012327 -0.004733 0.002071 -0.004602
# 4 0.000007 -0.001419 -0.004733 0.058340 -0.020207 0.008485
# 5 0.000376 -0.000316 0.002071 -0.020207 0.047712 -0.005727
# 6 0.002462 0.001095 -0.004602 0.008485 -0.005727 0.045347
#
#
# Mechanical properties :
#
#
# Convention : Reuss Voigt Hill
#
# Bulk Modulus (GPa) = 36.81908 51.93774 44.37841
# Shear Modulus (GPa) = 22.24379 27.72851 24.98615
#
# Velocity S-wave (km/s) = 3.32865 3.71643 3.52787
# Velocity P-wave (km/s) = 5.75440 6.65482 6.22092
#
# Compressibility (1/GPa) = 0.02715983
#
# Stress axis : x y z
#
# Youngs Moduli (GPa) = 118.15642 40.07274 81.12158
#
# Poissons Ratio (x) = 0.10143 0.27976
# Poissons Ratio (y) = 0.29908 0.26874
# Poissons Ratio (z) = 0.40748 0.13275
#
# Static dielectric constant tensor:
#      x y z
#    x 3.938920 0.109130 0.154360 
#    y 0.109130 3.710420 -0.036330 
#    z 0.154360 -0.036330 3.884080 
# 
# 
# High freq. dielectric constant tensor:
#      x y z
#    x 1.785100 0.010550 0.015790 
#    y 0.010550 1.768310 0.000800 
#    z 0.015790 0.000800 1.788120 
# 
# From -- ./inp_files/225354.got.cif
#   From: 2010.06.25/outbox.cif.g09.slc.cpg/sg2_113_cif.got.tgz:225354.got - 2010.06.27 13:26:56.
