data_PCOD8043178
_publ_section_title
;
Structure prediction by ZEFSAII (Michael W. Deem and Ramdas Pophale) SiO2 
 PCOD8043178
Probable space group: P -1
;
_chemical_formula_sum "Si O2"
_cell_formula_units_Z 16
_cell_length_a 21.179865
_cell_length_b 9.152437
_cell_length_c 11.028963
_cell_angle_alpha 138.070425
_cell_angle_beta 40.834434
_cell_angle_gamma 141.169349
_cell_volume 811.858909
_symmetry_space_group_name_H-M "P -1"
_symmetry_group_IT_number 2
_symmetry_cell_setting 'triclinic'
loop_
_space_group_symop_operation_xyz
x,y,z
-x,-y,-z
loop_
_atom_site_type_symbol
_atom_site_label
_atom_site_fract_x
_atom_site_fract_y
_atom_site_fract_z
Si Si1 0.379761 0.520665 0.312967
Si Si2 0.157958 0.540513 0.997300
Si Si3 0.732385 0.231943 0.252222
Si Si4 0.838090 0.946965 0.651010
Si Si5 0.932095 0.770523 0.617288
Si Si6 0.093330 0.704086 0.771456
Si Si7 0.379969 0.344970 0.943280
Si Si8 0.195808 0.263355 0.983562
O O1 0.359751 0.750545 0.520549
O O2 0.278236 0.271363 0.366745
O O3 0.495036 0.562442 0.226505
O O4 0.382546 0.509826 0.156110
O O5 0.232345 0.574795 0.792213
O O6 0.207630 0.456310 0.982434
O O7 0.028179 0.345977 0.045182
O O8 0.172993 0.810964 0.166992
O O9 0.847001 0.324287 0.214547
O O10 0.680070 0.945642 0.107058
O O11 0.857478 0.844433 0.687594
O O12 0.939596 0.013853 0.452788
O O13 0.912968 0.492551 0.442213
O O14 0.899173 0.770362 0.804014
O O15 0.162631 0.993527 0.804041
O O16 0.314870 0.382876 0.950327
#
# Coordination Sequence:
#
# PCOD8043178 Si02
#       8
#     2   2   2   2   2   2   2   2
#     4  11  20  38  64  85 106 146 199 241 284 320
#     4  11  23  36  55  89 123 153 183 228 287 349
#     4  11  20  37  60  86 111 146 195 238 279 331
#     4  10  19  36  59  87 112 143 192 238 277 334
#     4  10  20  37  59  87 114 149 189 237 286 334
#     4  10  21  36  58  84 114 153 190 229 280 337
#     4  10  22  39  62  83 111 146 196 244 276 332
#     4  11  22  40  55  83 125 155 183 229 288 342
#
# _framework density 19.707857000000001
#
# number of rings (size 3 to 8) (size 9 to 14) (size 15 to 20)
#    0.000    1.500    3.750    1.875    1.750    2.000 
#    2.250    1.250    0.000    0.000    0.000    0.000 
#    0.000    0.000    0.000    0.000    0.000    0.000 
#
# Total GULP energy -198397.757647 kJ/mol
# GULP energy per Si atom -12399.859853 kJ/mol
# Density = 1.966300 g / cm^3
# Si number density = 19.707857 Si / 1000 Ang^3
#
#
#
# Elastic Constant Matrix: (Units=GPa)
#
#
# Indices 1 2 3 4 5 6 
#
# 1 78.4478 15.8128 51.4997 -19.4102 -6.8890 29.9507
# 2 15.8128 14.8082 28.6224 -13.1171 4.2740 49.5228
# 3 51.4997 28.6224 93.3254 0.4421 -11.2483 -9.1330
# 4 -19.4102 -13.1171 0.4421 28.4467 7.5777 -5.2193
# 5 -6.8890 4.2740 -11.2483 7.5777 18.6676 -19.3012
# 6 29.9507 49.5228 -9.1330 -5.2193 -19.3012 -11.7599
#
#
#
# Elastic Compliance Matrix: (Units=1/GPa)
#
#
# Indices 1 2 3 4 5 6 
#
# 1 0.021650 -0.010942 -0.007752 0.009015 0.005051 0.002791
# 2 -0.010942 0.015405 0.004193 -0.000576 0.011255 0.015533
# 3 -0.007752 0.004193 0.012812 -0.004409 -0.001755 -0.007200
# 4 0.009015 -0.000576 -0.004409 0.044607 -0.004822 0.012073
# 5 0.005051 0.011255 -0.001755 -0.004822 0.044377 -0.009071
# 6 0.002791 0.015533 -0.007200 0.012073 -0.009071 0.002606
#
#
# Mechanical properties :
#
#
# Convention : Reuss Voigt Hill
#
# Bulk Modulus (GPa) = 47.92826 42.05015 44.98920
# Shear Modulus (GPa) = 28.18240 13.11399 20.64820
#
# Velocity S-wave (km/s) = 3.78565 2.58237 3.24035
# Velocity P-wave (km/s) = 6.59396 5.50223 6.07268
#
# Compressibility (1/GPa) = 0.02086452
#
# Stress axis : x y z
#
# Youngs Moduli (GPa) = 46.18832 64.91221 78.05199
#
# Poissons Ratio (x) = 0.71029 0.60508
# Poissons Ratio (y) = 0.50541 -0.32726
# Poissons Ratio (z) = 0.35806 -0.27217
#
# Static dielectric constant tensor:
#      x y z
#    x 3.385990 0.219140 -0.109320 
#    y 0.219140 3.708340 0.030810 
#    z -0.109320 0.030810 3.748660 
# 
# 
# High freq. dielectric constant tensor:
#      x y z
#    x 1.741430 0.019320 -0.007830 
#    y 0.019320 1.759870 0.008080 
#    z -0.007830 0.008080 1.780300 
# 
# From -- ./inp_files/282670.got.cif
#   From: 2010.06.25/outbox.cif.g09.slc.cpg/sg2_142_cif.got.tgz:282670.got - 2010.06.27 13:26:56.
