data_PCOD8043278
_publ_section_title
;
Structure prediction by ZEFSAII (Michael W. Deem and Ramdas Pophale) SiO2 
 PCOD8043278
Probable space group: P -1
;
_chemical_formula_sum "Si O2"
_cell_formula_units_Z 16
_cell_length_a 12.885699
_cell_length_b 16.297016
_cell_length_c 8.380855
_cell_angle_alpha 119.328641
_cell_angle_beta 71.016162
_cell_angle_gamma 56.792676
_cell_volume 746.243159
_symmetry_space_group_name_H-M "P -1"
_symmetry_group_IT_number 2
_symmetry_cell_setting 'triclinic'
loop_
_space_group_symop_operation_xyz
x,y,z
-x,-y,-z
loop_
_atom_site_type_symbol
_atom_site_label
_atom_site_fract_x
_atom_site_fract_y
_atom_site_fract_z
Si Si1 0.485433 0.293190 0.364689
Si Si2 0.927843 0.293638 0.143972
Si Si3 0.172647 0.827270 0.372561
Si Si4 0.492344 0.296261 0.741011
Si Si5 0.629076 0.993682 0.868651
Si Si6 0.383177 0.994059 0.491992
Si Si7 0.692017 0.308057 0.140033
Si Si8 0.914862 0.296636 0.530168
O O1 0.255684 0.499809 0.622085
O O2 0.499232 0.294371 0.546830
O O3 0.683176 0.206031 0.103774
O O4 0.511761 0.167946 0.174593
O O5 0.904758 0.206222 0.993234
O O6 0.911230 0.295185 0.341665
O O7 0.152092 0.168376 0.855114
O O8 0.288906 0.818553 0.414195
O O9 0.073778 0.818539 0.521681
O O10 0.342312 0.657594 0.001278
O O11 0.000000 0.000000 0.500000
O O12 0.482064 0.195655 0.702915
O O13 0.287987 0.499883 0.105705
O O14 0.628962 0.999631 0.685146
O O15 0.873626 0.803911 0.619047
O O16 0.500000 0.000000 0.000000
O O17 0.500000 0.000000 0.500000
O O18 0.500000 0.500000 0.500000
#
# Coordination Sequence:
#
# PCOD8043278 Si02
#       8
#     2   2   2   2   2   2   2   2
#     4  11  23  42  67  97 131 170 214 267 325 385
#     4  11  23  42  67  97 131 170 214 267 325 385
#     4  12  24  40  65  97 134 174 214 264 323 387
#     4  12  24  42  67  99 133 173 216 266 324 387
#     4  12  26  46  67  94 128 169 219 271 322 384
#     4  12  26  46  67  94 128 169 219 271 322 384
#     4  10  19  36  60  91 126 162 201 254 312 375
#     4  12  24  42  67  99 133 173 216 266 324 387
#
# _framework density 21.440729999999999
#
# number of rings (size 3 to 8) (size 9 to 14) (size 15 to 20)
#    0.000    0.500    0.000   11.625    0.000    1.000 
#    0.000    8.750    0.000    0.000    0.000    0.000 
#    0.000    0.000    0.000    0.000    0.000    0.000 
#
# Total GULP energy -198393.967414 kJ/mol
# GULP energy per Si atom -12399.622963 kJ/mol
# Density = 2.139193 g / cm^3
# Si number density = 21.440730 Si / 1000 Ang^3
#
#
#
# Elastic Constant Matrix: (Units=GPa)
#
#
# Indices 1 2 3 4 5 6 
#
# 1 174.1661 76.2851 58.9461 -3.3969 -5.3613 12.9601
# 2 76.2851 166.1100 61.8146 -17.9115 2.7965 -15.6533
# 3 58.9461 61.8146 122.4629 -3.4715 -0.7597 -0.7522
# 4 -3.3969 -17.9115 -3.4715 54.2948 -6.0650 9.6980
# 5 -5.3613 2.7965 -0.7597 -6.0650 40.7045 -8.4980
# 6 12.9601 -15.6533 -0.7522 9.6980 -8.4980 42.8333
#
#
#
# Elastic Compliance Matrix: (Units=1/GPa)
#
#
# Indices 1 2 3 4 5 6 
#
# 1 0.008252 -0.003270 -0.002341 -0.000007 0.000509 -0.003630
# 2 -0.003270 0.009211 -0.002997 0.001951 -0.000024 0.003857
# 3 -0.002341 -0.002997 0.010792 -0.000426 0.000015 -0.000098
# 4 -0.000007 0.001951 -0.000426 0.019872 0.002114 -0.003372
# 5 0.000509 -0.000024 0.000015 0.002114 0.025890 0.004495
# 6 -0.003630 0.003857 -0.000098 -0.003372 0.004495 0.027508
#
#
# Mechanical properties :
#
#
# Convention : Reuss Voigt Hill
#
# Bulk Modulus (GPa) = 90.57322 95.20339 92.88831
# Shear Modulus (GPa) = 40.84294 45.27940 43.06117
#
# Velocity S-wave (km/s) = 4.36928 4.60046 4.48636
# Velocity P-wave (km/s) = 8.23343 8.52751 8.38176
#
# Compressibility (1/GPa) = 0.01104079
#
# Stress axis : x y z
#
# Youngs Moduli (GPa) = 121.18634 108.56416 92.65770
#
# Poissons Ratio (x) = 0.35500 0.21688
# Poissons Ratio (y) = 0.39627 0.27766
# Poissons Ratio (z) = 0.28366 0.32533
#
# Static dielectric constant tensor:
#      x y z
#    x 4.578190 -0.999980 0.508910 
#    y -0.999980 6.452040 -1.250980 
#    z 0.508910 -1.250980 4.628950 
# 
# 
# High freq. dielectric constant tensor:
#      x y z
#    x 1.849740 -0.005730 0.006870 
#    y -0.005730 1.857860 -0.010560 
#    z 0.006870 -0.010560 1.865030 
# 
# From -- ./inp_files/274060.got.cif
#   From: 2010.06.25/outbox.cif.g09.slc.cpg/sg2_138_cif.got.tgz:274060.got - 2010.06.27 13:26:56.
