data_PCOD8043274
_publ_section_title
;
Structure prediction by ZEFSAII (Michael W. Deem and Ramdas Pophale) SiO2 
 PCOD8043274
Probable space group: P -1
;
_chemical_formula_sum "Si O2"
_cell_formula_units_Z 16
_cell_length_a 11.584803
_cell_length_b 14.904119
_cell_length_c 9.485687
_cell_angle_alpha 60.079397
_cell_angle_beta 62.986149
_cell_angle_gamma 29.018544
_cell_volume 687.965317
_symmetry_space_group_name_H-M "P -1"
_symmetry_group_IT_number 2
_symmetry_cell_setting 'triclinic'
loop_
_space_group_symop_operation_xyz
x,y,z
-x,-y,-z
loop_
_atom_site_type_symbol
_atom_site_label
_atom_site_fract_x
_atom_site_fract_y
_atom_site_fract_z
Si Si1 0.336684 0.390199 0.124325
Si Si2 0.418148 0.641942 0.204514
Si Si3 0.134374 0.180493 0.032673
Si Si4 0.845897 0.214595 0.311810
Si Si5 0.348418 0.379736 0.679502
Si Si6 0.050179 0.767173 0.462231
Si Si7 0.606655 0.169136 0.423869
Si Si8 0.646120 0.790438 0.956651
O O1 0.410728 0.329488 0.291929
O O2 0.092163 0.619980 0.080050
O O3 0.558115 0.291474 0.989102
O O4 0.290648 0.307031 0.149084
O O5 0.607834 0.428801 0.222488
O O6 0.478253 0.656757 0.307959
O O7 0.170322 0.745488 0.277309
O O8 0.194736 0.213515 0.107983
O O9 0.071528 0.109275 0.183874
O O10 0.366577 0.010265 0.940316
O O11 0.872378 0.218052 0.458081
O O12 0.813379 0.116651 0.371183
O O13 0.129170 0.594447 0.570141
O O14 0.477755 0.236416 0.590579
O O15 0.271370 0.341239 0.858858
O O16 0.761727 0.964559 0.451334
#
# Coordination Sequence:
#
# PCOD8043274 Si02
#       8
#     2   2   2   2   2   2   2   2
#     4  10  24  38  57  92 127 153 188 248 304 350
#     4   9  18  36  54  80 120 160 196 233 285 350
#     4  10  22  41  67  87 111 157 207 251 285 342
#     4  10  19  36  60  91 119 153 199 246 289 350
#     4  10  20  38  59  86 118 154 201 247 285 348
#     4  11  20  34  57  86 124 162 197 233 285 358
#     4  12  23  34  58  95 128 157 183 236 315 361
#     4  10  22  43  68  87 108 155 214 247 287 344
#
# _framework density 23.256985
#
# number of rings (size 3 to 8) (size 9 to 14) (size 15 to 20)
#    0.000    1.750    2.500    3.000    3.500    3.500 
#    0.000    0.625    0.000    9.000    0.000    0.000 
#    0.000    0.000    0.000    0.000    0.000    0.000 
#
# Total GULP energy -198304.179076 kJ/mol
# GULP energy per Si atom -12394.011192 kJ/mol
# Density = 2.320405 g / cm^3
# Si number density = 23.256985 Si / 1000 Ang^3
#
#
#
# Elastic Constant Matrix: (Units=GPa)
#
#
# Indices 1 2 3 4 5 6 
#
# 1 33.5994 3.8524 2.8050 -2.4607 -8.6458 2.2536
# 2 3.8524 103.6618 7.3428 -8.7798 0.1934 -0.7530
# 3 2.8050 7.3428 41.7658 2.7417 9.5759 -3.5084
# 4 -2.4607 -8.7798 2.7417 20.6558 6.3761 -3.5200
# 5 -8.6458 0.1934 9.5759 6.3761 12.8173 -0.6033
# 6 2.2536 -0.7530 -3.5084 -3.5200 -0.6033 23.7106
#
#
#
# Elastic Compliance Matrix: (Units=1/GPa)
#
#
# Indices 1 2 3 4 5 6 
#
# 1 0.040970 -0.001447 -0.011609 -0.007449 0.039766 -0.005752
# 2 -0.001447 0.010265 -0.001345 0.005391 -0.002761 0.000995
# 3 -0.011609 -0.001345 0.033117 0.005452 -0.034988 0.005880
# 4 -0.007449 0.005391 0.005452 0.063197 -0.040144 0.010046
# 5 0.039766 -0.002761 -0.034988 -0.040144 0.150469 -0.011175
# 6 -0.005752 0.000995 0.005880 0.010046 -0.011175 0.044831
#
#
# Mechanical properties :
#
#
# Convention : Reuss Voigt Hill
#
# Bulk Modulus (GPa) = 18.00145 23.00304 20.50225
# Shear Modulus (GPa) = 12.81504 22.43854 17.62679
#
# Velocity S-wave (km/s) = 2.34993 3.10951 2.75601
# Velocity P-wave (km/s) = 3.88843 4.77539 4.35455
#
# Compressibility (1/GPa) = 0.05555107
#
# Stress axis : x y z
#
# Youngs Moduli (GPa) = 24.40785 97.42070 30.19602
#
# Poissons Ratio (x) = 0.14098 0.35054
# Poissons Ratio (y) = 0.03532 0.04060
# Poissons Ratio (z) = 0.28334 0.13100
#
# Static dielectric constant tensor:
#      x y z
#    x 3.945610 0.198990 -0.268370 
#    y 0.198990 4.499830 -0.123110 
#    z -0.268370 -0.123110 3.923030 
# 
# 
# High freq. dielectric constant tensor:
#      x y z
#    x 1.880140 0.011360 -0.018430 
#    y 0.011360 1.937770 -0.002100 
#    z -0.018430 -0.002100 1.895210 
# 
# From -- ./inp_files/272445.got.cif
#   From: 2010.06.25/outbox.cif.g09.slc.cpg/sg2_137_cif.got.tgz:272445.got - 2010.06.27 13:26:56.
