data_PCOD8043225
_publ_section_title
;
Structure prediction by ZEFSAII (Michael W. Deem and Ramdas Pophale) SiO2 
 PCOD8043225
Probable space group: P -1
;
_chemical_formula_sum "Si O2"
_cell_formula_units_Z 14
_cell_length_a 12.242902
_cell_length_b 7.920640
_cell_length_c 14.659379
_cell_angle_alpha 96.587966
_cell_angle_beta 142.998677
_cell_angle_gamma 65.514498
_cell_volume 715.322429
_symmetry_space_group_name_H-M "P -1"
_symmetry_group_IT_number 2
_symmetry_cell_setting 'triclinic'
loop_
_space_group_symop_operation_xyz
x,y,z
-x,-y,-z
loop_
_atom_site_type_symbol
_atom_site_label
_atom_site_fract_x
_atom_site_fract_y
_atom_site_fract_z
Si Si1 0.432431 0.411863 0.869688
Si Si2 0.407959 0.040692 0.654057
Si Si3 0.417033 0.413129 0.658377
Si Si4 0.947414 0.556633 0.116455
Si Si5 0.974043 0.586715 0.647861
Si Si6 0.411179 0.015318 0.041779
Si Si7 0.326989 0.415841 0.232994
O O1 0.428509 0.496048 0.771568
O O2 0.612528 0.174332 0.974462
O O3 0.196813 0.452727 0.734474
O O4 0.500000 0.500000 0.000000
O O5 0.520951 0.168254 0.713778
O O6 0.157925 0.181460 0.463894
O O7 0.423249 0.999715 0.770734
O O8 0.525637 0.825958 0.668272
O O9 0.166061 0.514994 0.468411
O O10 0.533361 0.481722 0.670325
O O11 0.987270 0.407770 0.217750
O O12 0.172728 0.508689 0.223138
O O13 0.812989 0.524476 0.948691
O O14 0.820706 0.782950 0.085658
O O15 0.500000 0.000000 0.000000
#
# Coordination Sequence:
#
# PCOD8043225 Si02
#       7
#     2   2   2   2   2   2   2
#     4  11  21  36  59  89 118 153 196 245 293 351
#     4   8  21  37  58  87 118 155 190 246 290 343
#     4   9  21  37  60  83 123 154 191 243 294 347
#     4  10  21  36  65  87 114 160 195 245 288 345
#     4  10  20  39  57  86 121 155 190 243 306 336
#     4  10  19  36  60  83 118 151 194 240 290 344
#     4  10  20  42  61  86 118 156 204 235 289 351
#
# _framework density 19.571594000000001
#
# number of rings (size 3 to 8) (size 9 to 14) (size 15 to 20)
#    0.857    1.429    1.429    1.286    2.000    1.143 
#    2.571   13.571    0.000    0.000    0.000    0.000 
#    0.000    0.000    0.000    0.000    0.000    0.000 
#
# Total GULP energy -173453.249586 kJ/mol
# GULP energy per Si atom -12389.517828 kJ/mol
# Density = 1.952705 g / cm^3
# Si number density = 19.571594 Si / 1000 Ang^3
#
#
#
# Elastic Constant Matrix: (Units=GPa)
#
#
# Indices 1 2 3 4 5 6 
#
# 1 90.9694 39.2844 16.5686 -18.2813 8.4668 -6.3277
# 2 39.2844 97.5624 31.5319 -18.1707 6.1759 -7.1663
# 3 16.5686 31.5319 71.8939 -20.5120 -3.4773 0.0598
# 4 -18.2813 -18.1707 -20.5120 22.0908 5.4045 4.2242
# 5 8.4668 6.1759 -3.4773 5.4045 37.0162 4.0537
# 6 -6.3277 -7.1663 0.0598 4.2242 4.0537 29.8582
#
#
#
# Elastic Compliance Matrix: (Units=1/GPa)
#
#
# Indices 1 2 3 4 5 6 
#
# 1 0.015314 -0.004088 0.001288 0.011365 -0.004497 0.001264
# 2 -0.004088 0.014510 -0.004147 0.004957 -0.002852 0.002310
# 3 0.001288 -0.004147 0.020319 0.017095 0.000161 -0.003204
# 4 0.011365 0.004957 0.017095 0.078849 -0.012690 -0.005868
# 5 -0.004497 -0.002852 0.000161 -0.012690 0.030829 -0.004028
# 6 0.001264 0.002310 -0.003204 -0.005868 -0.004028 0.035698
#
#
# Mechanical properties :
#
#
# Convention : Reuss Voigt Hill
#
# Bulk Modulus (GPa) = 27.58829 48.35505 37.97167
# Shear Modulus (GPa) = 22.57360 29.32908 25.95134
#
# Velocity S-wave (km/s) = 3.39984 3.87532 3.64534
# Velocity P-wave (km/s) = 5.43494 6.69212 6.09602
#
# Compressibility (1/GPa) = 0.03624726
#
# Stress axis : x y z
#
# Youngs Moduli (GPa) = 65.29950 68.91841 49.21427
#
# Poissons Ratio (x) = 0.28176 -0.06337
# Poissons Ratio (y) = 0.26697 0.20411
# Poissons Ratio (z) = -0.08408 0.28583
#
# Static dielectric constant tensor:
#      x y z
#    x 3.535630 -0.090600 -0.193310 
#    y -0.090600 3.455550 -0.207290 
#    z -0.193310 -0.207290 3.638020 
# 
# 
# High freq. dielectric constant tensor:
#      x y z
#    x 1.753070 -0.009220 -0.020400 
#    y -0.009220 1.745170 -0.009130 
#    z -0.020400 -0.009130 1.759550 
# 
# From -- ./inp_files/176021.got.cif
#   From: 2010.06.25/outbox.cif.g09.slc.cpg/sg2_89_cif.got.tgz:176021.got - 2010.06.27 13:26:56.
