data_PCOD8043344
_publ_section_title
;
Structure prediction by ZEFSAII (Michael W. Deem and Ramdas Pophale) SiO2 
 PCOD8043344
Probable space group: P -1
;
_chemical_formula_sum "Si O2"
_cell_formula_units_Z 12
_cell_length_a 14.604683
_cell_length_b 8.266138
_cell_length_c 7.678834
_cell_angle_alpha 36.093569
_cell_angle_beta 57.266461
_cell_angle_gamma 70.357141
_cell_volume 449.786571
_symmetry_space_group_name_H-M "P -1"
_symmetry_group_IT_number 2
_symmetry_cell_setting 'triclinic'
loop_
_space_group_symop_operation_xyz
x,y,z
-x,-y,-z
loop_
_atom_site_type_symbol
_atom_site_label
_atom_site_fract_x
_atom_site_fract_y
_atom_site_fract_z
Si Si1 0.623212 0.030494 0.651786
Si Si2 0.672504 0.625510 0.231728
Si Si3 0.771849 0.687933 0.599977
Si Si4 0.425698 0.622437 0.104762
Si Si5 0.899176 0.832778 0.998331
Si Si6 0.971349 0.572419 0.659804
O O1 0.702480 0.916920 0.531859
O O2 0.651616 0.366497 0.341385
O O3 0.639123 0.895044 0.941818
O O4 0.493547 0.935807 0.806469
O O5 0.593330 0.553344 0.543403
O O6 0.801734 0.689714 0.094296
O O7 0.693971 0.403661 0.845141
O O8 0.855638 0.842845 0.232058
O O9 0.841475 0.597993 0.769632
O O10 0.500000 0.500000 0.000000
O O11 0.000480 0.663628 0.034258
O O12 0.948940 0.140910 0.609872
O O13 0.000000 0.500000 0.500000
#
# Coordination Sequence:
#
# PCOD8043344 Si02
#       6
#     2   2   2   2   2   2
#     4  11  23  40  60  88 121 156 191 239 296 349
#     4  11  23  41  61  87 122 156 190 238 296 350
#     4   9  20  38  61  88 117 153 199 243 287 345
#     4   9  20  41  64  89 116 153 199 242 287 346
#     4  10  21  38  61  87 116 155 199 241 287 343
#     4  10  19  36  61  89 115 151 198 247 287 335
#
# _framework density 26.679321000000002
#
# number of rings (size 3 to 8) (size 9 to 14) (size 15 to 20)
#    0.000    2.000    0.000    4.000    0.000    4.000 
#    0.000   28.333    0.000    0.000    0.000    0.000 
#    0.000    0.000    0.000    0.000    0.000    0.000 
#
# Total GULP energy -148758.442740 kJ/mol
# GULP energy per Si atom -12396.536895 kJ/mol
# Density = 2.661860 g / cm^3
# Si number density = 26.679321 Si / 1000 Ang^3
#
#
#
# Elastic Constant Matrix: (Units=GPa)
#
#
# Indices 1 2 3 4 5 6 
#
# 1 83.8029 27.3333 31.8142 -1.2815 -35.8126 5.1742
# 2 27.3333 61.2102 12.7368 -3.3998 2.7917 11.9032
# 3 31.8142 12.7368 67.2936 -25.4814 -13.2390 -0.2184
# 4 -1.2815 -3.3998 -25.4814 33.2441 4.9959 -1.3164
# 5 -35.8126 2.7917 -13.2390 4.9959 35.9068 -4.6861
# 6 5.1742 11.9032 -0.2184 -1.3164 -4.6861 33.7091
#
#
#
# Elastic Compliance Matrix: (Units=1/GPa)
#
#
# Indices 1 2 3 4 5 6 
#
# 1 0.038431 -0.017937 -0.013458 -0.016131 0.037653 0.004952
# 2 -0.017937 0.027271 0.001287 0.005951 -0.021622 -0.009642
# 3 -0.013458 0.001287 0.028223 0.022215 -0.005969 0.001832
# 4 -0.016131 0.005951 0.022215 0.049391 -0.015189 0.000336
# 5 0.037653 -0.021622 -0.005969 -0.015189 0.068398 0.010732
# 6 0.004952 -0.009642 0.001832 0.000336 0.010732 0.033827
#
#
# Mechanical properties :
#
#
# Convention : Reuss Voigt Hill
#
# Bulk Modulus (GPa) = 29.66683 39.56393 34.61538
# Shear Modulus (GPa) = 15.77322 29.93349 22.85335
#
# Velocity S-wave (km/s) = 2.43413 3.35322 2.92994
# Velocity P-wave (km/s) = 4.36393 5.46386 4.94458
#
# Compressibility (1/GPa) = 0.03370768
#
# Stress axis : x y z
#
# Youngs Moduli (GPa) = 26.02094 36.66934 35.43220
#
# Poissons Ratio (x) = 0.65774 0.47685
# Poissons Ratio (y) = 0.46674 -0.04560
# Poissons Ratio (z) = 0.35019 -0.04719
#
# Static dielectric constant tensor:
#      x y z
#    x 5.917020 0.061170 -0.386880 
#    y 0.061170 4.750590 0.078010 
#    z -0.386880 0.078010 4.662580 
# 
# 
# High freq. dielectric constant tensor:
#      x y z
#    x 2.085380 0.006990 -0.019280 
#    y 0.006990 2.069960 0.006990 
#    z -0.019280 0.006990 2.056680 
# 
# From -- ./inp_files/29593.got.cif
#   From: 2010.06.25/outbox.cif.g09.slc.cpg/sg2_15_cif.got.tgz:29593.got - 2010.06.27 13:26:56.
