data_PCOD8043280
_publ_section_title
;
Structure prediction by ZEFSAII (Michael W. Deem and Ramdas Pophale) SiO2 
 PCOD8043280
Probable space group: P -1
;
_chemical_formula_sum "Si O2"
_cell_formula_units_Z 16
_cell_length_a 18.418709
_cell_length_b 17.843039
_cell_length_c 12.359942
_cell_angle_alpha 151.752440
_cell_angle_beta 26.085737
_cell_angle_gamma 153.148912
_cell_volume 739.109023
_symmetry_space_group_name_H-M "P -1"
_symmetry_group_IT_number 2
_symmetry_cell_setting 'triclinic'
loop_
_space_group_symop_operation_xyz
x,y,z
-x,-y,-z
loop_
_atom_site_type_symbol
_atom_site_label
_atom_site_fract_x
_atom_site_fract_y
_atom_site_fract_z
Si Si1 0.696201 0.989079 0.123681
Si Si2 0.304880 0.505722 0.689321
Si Si3 0.816161 0.402365 0.249628
Si Si4 0.450586 0.364772 0.797553
Si Si5 0.812186 0.333372 0.787324
Si Si6 0.974741 0.163326 0.785210
Si Si7 0.433527 0.575666 0.898626
Si Si8 0.674518 0.999037 0.410431
O O1 0.543079 0.045673 0.360405
O O2 0.757619 0.048808 0.241351
O O3 0.606607 0.771306 0.951905
O O4 0.888774 0.103363 0.944037
O O5 0.180940 0.499954 0.742981
O O6 0.492656 0.498470 0.395369
O O7 0.180619 0.340653 0.728883
O O8 0.341563 0.686131 0.937702
O O9 0.624252 0.346234 0.496043
O O10 0.979161 0.542591 0.289570
O O11 0.838223 0.221360 0.974001
O O12 0.363463 0.430341 0.903098
O O13 0.302802 0.169330 0.792370
O O14 0.500000 0.500000 0.000000
O O15 0.791583 0.147036 0.533862
O O16 0.755340 0.416627 0.866871
O O17 0.000000 0.000000 0.500000
#
# Coordination Sequence:
#
# PCOD8043280 Si02
#       8
#     2   2   2   2   2   2   2   2
#     4  10  19  36  60  92 118 163 206 254 300 374
#     4  10  21  40  62  87 126 168 202 248 316 377
#     4  10  23  42  63  90 126 167 207 252 316 372
#     4  11  21  40  67  89 118 170 213 249 308 379
#     4  10  21  39  61  89 127 160 200 265 309 358
#     4  11  19  33  61  94 119 156 211 250 296 366
#     4  10  20  36  63  89 122 159 209 253 308 363
#     4  10  21  38  63  87 124 161 212 251 309 362
#
# _framework density 21.647684999999999
#
# number of rings (size 3 to 8) (size 9 to 14) (size 15 to 20)
#    0.000    1.750    3.750    1.875    0.000    0.000 
#    0.000   13.750    2.750    0.000    0.000    0.000 
#    0.000    0.000    0.000    0.000    0.000    0.000 
#
# Total GULP energy -198216.928292 kJ/mol
# GULP energy per Si atom -12388.558018 kJ/mol
# Density = 2.159841 g / cm^3
# Si number density = 21.647685 Si / 1000 Ang^3
#
#
#
# Elastic Constant Matrix: (Units=GPa)
#
#
# Indices 1 2 3 4 5 6 
#
# 1 83.9607 59.6955 32.5041 8.2501 9.6375 -10.2113
# 2 59.6955 82.7332 31.2883 15.5539 7.6767 -24.1886
# 3 32.5041 31.2883 92.2771 20.0808 15.0866 -12.4533
# 4 8.2501 15.5539 20.0808 37.9003 -1.3010 2.9816
# 5 9.6375 7.6767 15.0866 -1.3010 44.6724 0.1737
# 6 -10.2113 -24.1886 -12.4533 2.9816 0.1737 35.3359
#
#
#
# Elastic Compliance Matrix: (Units=1/GPa)
#
#
# Indices 1 2 3 4 5 6 
#
# 1 0.027792 -0.022100 -0.004882 0.006331 -0.000329 -0.009350
# 2 -0.022100 0.035764 0.001325 -0.012188 -0.002257 0.019601
# 3 -0.004882 0.001325 0.015427 -0.008259 -0.004647 0.005653
# 4 0.006331 -0.012188 -0.008259 0.035521 0.004601 -0.012444
# 5 -0.000329 -0.002257 -0.004647 0.004601 0.024562 -0.003786
# 6 -0.009350 0.019601 0.005653 -0.012444 -0.003786 0.042077
#
#
# Mechanical properties :
#
#
# Convention : Reuss Voigt Hill
#
# Bulk Modulus (GPa) = 36.14240 56.21629 46.17934
# Shear Modulus (GPa) = 20.68853 32.61394 26.65123
#
# Velocity S-wave (km/s) = 3.09478 3.88568 3.51256
# Velocity P-wave (km/s) = 5.43159 6.79385 6.15055
#
# Compressibility (1/GPa) = 0.02766834
#
# Stress axis : x y z
#
# Youngs Moduli (GPa) = 35.98190 27.96134 64.82018
#
# Poissons Ratio (x) = 0.61795 0.31644
# Poissons Ratio (y) = 0.79520 -0.08587
# Poissons Ratio (z) = 0.17566 -0.03704
#
# Static dielectric constant tensor:
#      x y z
#    x 4.025340 -0.389170 0.097440 
#    y -0.389170 3.888820 0.165510 
#    z 0.097440 0.165510 4.291580 
# 
# 
# High freq. dielectric constant tensor:
#      x y z
#    x 1.850000 -0.020190 0.003770 
#    y -0.020190 1.817060 0.008730 
#    z 0.003770 0.008730 1.869670 
# 
# From -- ./inp_files/338587.got.cif
#   From: 2010.06.25/outbox.cif.g09.slc.cpg/sg2_170_cif.got.tgz:338587.got - 2010.06.27 13:26:56.
