data_PCOD8043072
_publ_section_title
;
Structure prediction by ZEFSAII (Michael W. Deem and Ramdas Pophale) SiO2 
 PCOD8043072
Probable space group: P -1
;
_chemical_formula_sum "Si O2"
_cell_formula_units_Z 14
_cell_length_a 12.709688
_cell_length_b 9.126955
_cell_length_c 14.460298
_cell_angle_alpha 58.787374
_cell_angle_beta 29.423451
_cell_angle_gamma 57.293038
_cell_volume 688.780054
_symmetry_space_group_name_H-M "P -1"
_symmetry_group_IT_number 2
_symmetry_cell_setting 'triclinic'
loop_
_space_group_symop_operation_xyz
x,y,z
-x,-y,-z
loop_
_atom_site_type_symbol
_atom_site_label
_atom_site_fract_x
_atom_site_fract_y
_atom_site_fract_z
Si Si1 0.383488 0.006188 0.308470
Si Si2 0.612428 0.720271 0.922117
Si Si3 0.286614 0.310362 0.413863
Si Si4 0.794776 0.400420 0.772517
Si Si5 0.209183 0.719006 0.627377
Si Si6 0.717788 0.719737 0.049908
Si Si7 0.500030 0.570319 0.613412
O O1 0.205439 0.896635 0.514350
O O2 0.610304 0.874740 0.151255
O O3 0.288222 0.126966 0.253364
O O4 0.424390 0.138366 0.314507
O O5 0.757197 0.528242 0.849018
O O6 0.368592 0.733996 0.061298
O O7 0.603107 0.753842 0.026878
O O8 0.262875 0.485867 0.314054
O O9 0.416451 0.324221 0.403255
O O10 0.039278 0.285554 0.628961
O O11 0.380092 0.709486 0.584234
O O12 0.286815 0.554973 0.553316
O O13 0.973108 0.713822 0.849224
O O14 0.677575 0.537500 0.180043
#
# Coordination Sequence:
#
# PCOD8043072 Si02
#       7
#     2   2   2   2   2   2   2
#     4  10  24  37  55  89 122 145 186 233 288 344
#     4  10  19  36  57  88 117 147 188 233 280 344
#     4  10  19  38  59  85 115 149 187 238 282 332
#     4   9  19  33  60  87 114 147 190 231 282 337
#     4  10  23  40  59  84 114 151 193 236 278 335
#     4  11  21  39  60  85 115 154 185 234 285 335
#     4  10  21  41  63  82 109 150 202 235 270 335
#
# _framework density 20.325792
#
# number of rings (size 3 to 8) (size 9 to 14) (size 15 to 20)
#    0.000    2.000    1.429    1.714    2.000    1.143 
#    0.000    0.714    0.000    0.000    0.000    0.000 
#    0.000    0.000    0.000    0.000    0.000    0.000 
#
# Total GULP energy -173595.172596 kJ/mol
# GULP energy per Si atom -12399.655185 kJ/mol
# Density = 2.027953 g / cm^3
# Si number density = 20.325792 Si / 1000 Ang^3
#
#
#
# Elastic Constant Matrix: (Units=GPa)
#
#
# Indices 1 2 3 4 5 6 
#
# 1 89.4010 44.2798 36.4726 5.1762 5.5976 21.9459
# 2 44.2798 77.2617 39.5866 2.2982 1.0761 7.9153
# 3 36.4726 39.5866 114.4693 12.4557 2.7359 2.9506
# 4 5.1762 2.2982 12.4557 23.5665 -0.1537 12.5153
# 5 5.5976 1.0761 2.7359 -0.1537 24.9318 1.3373
# 6 21.9459 7.9153 2.9506 12.5153 1.3373 21.5378
#
#
#
# Elastic Compliance Matrix: (Units=1/GPa)
#
#
# Indices 1 2 3 4 5 6 
#
# 1 0.023782 -0.008394 -0.005326 0.013223 -0.002813 -0.027927
# 2 -0.008394 0.019901 -0.004471 0.001941 0.001494 0.000631
# 3 -0.005326 -0.004471 0.012957 -0.011693 -0.000756 0.012137
# 4 0.013223 0.001941 -0.011693 0.075601 0.001734 -0.056623
# 5 -0.002813 0.001494 -0.000756 0.001734 0.040830 -0.001122
# 6 -0.027927 0.000631 0.012137 -0.056623 -0.001122 0.105964
#
#
# Mechanical properties :
#
#
# Convention : Reuss Voigt Hill
#
# Bulk Modulus (GPa) = 49.36436 57.97889 53.67163
# Shear Modulus (GPa) = 15.51971 24.72675 20.12323
#
# Velocity S-wave (km/s) = 2.76623 3.49165 3.14989
# Velocity P-wave (km/s) = 5.87725 6.69643 6.30017
#
# Compressibility (1/GPa) = 0.02025753
#
# Stress axis : x y z
#
# Youngs Moduli (GPa) = 42.04868 50.24798 77.17921
#
# Poissons Ratio (x) = 0.42177 0.41109
# Poissons Ratio (y) = 0.35295 0.34508
# Poissons Ratio (z) = 0.22397 0.22467
#
# Static dielectric constant tensor:
#      x y z
#    x 3.504170 0.095290 0.291320 
#    y 0.095290 3.545510 -0.033130 
#    z 0.291320 -0.033130 3.872100 
# 
# 
# High freq. dielectric constant tensor:
#      x y z
#    x 1.777640 0.013670 0.019650 
#    y 0.013670 1.781390 -0.000330 
#    z 0.019650 -0.000330 1.804250 
# 
# From -- ./inp_files/255553.got.cif
#   From: 2010.06.25/outbox.cif.g09.slc.cpg/sg2_128_cif.got.tgz:255553.got - 2010.06.27 13:26:56.
