data_PCOD8043652
_publ_section_title
;
Structure prediction by ZEFSAII (Michael W. Deem and Ramdas Pophale) SiO2 
 PCOD8043652
Probable space group: P -1
;
_chemical_formula_sum "Si O2"
_cell_formula_units_Z 16
_cell_length_a 11.978994
_cell_length_b 11.819107
_cell_length_c 11.753430
_cell_angle_alpha 129.853016
_cell_angle_beta 38.421063
_cell_angle_gamma 124.729006
_cell_volume 785.856680
_symmetry_space_group_name_H-M "P -1"
_symmetry_group_IT_number 2
_symmetry_cell_setting 'triclinic'
loop_
_space_group_symop_operation_xyz
x,y,z
-x,-y,-z
loop_
_atom_site_type_symbol
_atom_site_label
_atom_site_fract_x
_atom_site_fract_y
_atom_site_fract_z
Si Si1 0.723236 0.618391 0.352387
Si Si2 0.550101 0.667572 0.887629
Si Si3 0.356591 0.560394 0.491041
Si Si4 0.949905 0.814846 0.705794
Si Si5 0.173503 0.621387 0.246671
Si Si6 0.013891 0.705410 0.821442
Si Si7 0.001600 0.153082 0.838538
Si Si8 0.751807 0.315998 0.014431
O O1 0.522777 0.642565 0.485852
O O2 0.731861 0.584643 0.458615
O O3 0.852006 0.769572 0.318021
O O4 0.787218 0.478147 0.147283
O O5 0.590321 0.501357 0.714204
O O6 0.732810 0.770945 0.842569
O O7 0.395753 0.655355 0.103144
O O8 0.458273 0.729141 0.886072
O O9 0.220412 0.678163 0.655419
O O10 0.065755 0.705659 0.477603
O O11 0.004228 0.816123 0.795147
O O12 0.002805 0.978127 0.717824
O O13 0.120973 0.667212 0.190092
O O14 0.117956 0.446066 0.197973
O O15 0.948225 0.785640 0.036353
O O16 0.806589 0.193076 0.978291
#
# Coordination Sequence:
#
# PCOD8043652 Si02
#       8
#     2   2   2   2   2   2   2   2
#     4  10  19  37  64  98 123 156 210 265 319 365
#     4   9  22  42  62  99 120 161 216 257 317 363
#     4  10  19  36  68  98 119 156 220 266 302 364
#     4  12  27  42  60  93 135 175 202 248 313 387
#     4  10  22  44  66  93 121 164 216 263 307 363
#     4  12  22  42  67  90 127 169 218 253 299 376
#     4  12  23  41  63  93 133 165 202 262 324 364
#     4   9  19  39  67  92 115 159 212 265 305 366
#
# _framework density 20.359946999999998
#
# number of rings (size 3 to 8) (size 9 to 14) (size 15 to 20)
#    0.750    0.750    3.750    1.875    0.000    1.500 
#    4.500    0.625    0.000    0.000    0.000    0.000 
#    0.000    0.000    0.000    0.000    0.000    0.000 
#
# Total GULP energy -198298.664203 kJ/mol
# GULP energy per Si atom -12393.666513 kJ/mol
# Density = 2.031361 g / cm^3
# Si number density = 20.359947 Si / 1000 Ang^3
#
#
#
# Elastic Constant Matrix: (Units=GPa)
#
#
# Indices 1 2 3 4 5 6 
#
# 1 66.6371 22.4850 9.5276 -8.2798 -17.2652 -4.3014
# 2 22.4850 61.5809 16.5580 2.8830 -15.8749 -4.0351
# 3 9.5276 16.5580 69.4502 -17.0204 -9.4019 12.6893
# 4 -8.2798 2.8830 -17.0204 23.3042 2.6837 1.3560
# 5 -17.2652 -15.8749 -9.4019 2.6837 30.2944 -6.7143
# 6 -4.3014 -4.0351 12.6893 1.3560 -6.7143 25.6906
#
#
#
# Elastic Compliance Matrix: (Units=1/GPa)
#
#
# Indices 1 2 3 4 5 6 
#
# 1 0.020237 -0.005195 0.000647 0.006976 0.009353 0.004329
# 2 -0.005195 0.024677 -0.008983 -0.013341 0.010796 0.010969
# 3 0.000647 -0.008983 0.023673 0.019703 -0.001961 -0.014548
# 4 0.006976 -0.013341 0.019703 0.063016 -0.005925 -0.015534
# 5 0.009353 0.010796 -0.001961 -0.005925 0.047682 0.017005
# 6 0.004329 0.010969 -0.014548 -0.015534 0.017005 0.053822
#
#
# Mechanical properties :
#
#
# Convention : Reuss Voigt Hill
#
# Bulk Modulus (GPa) = 24.08124 32.75659 28.41892
# Shear Modulus (GPa) = 18.24751 25.79769 22.02260
#
# Velocity S-wave (km/s) = 2.99698 3.56347 3.29243
# Velocity P-wave (km/s) = 4.88153 5.74933 5.33311
#
# Compressibility (1/GPa) = 0.04152610
#
# Stress axis : x y z
#
# Youngs Moduli (GPa) = 49.41555 40.52319 42.24236
#
# Poissons Ratio (x) = 0.21051 -0.02734
# Poissons Ratio (y) = 0.25671 0.37945
# Poissons Ratio (z) = -0.03199 0.36401
#
# Static dielectric constant tensor:
#      x y z
#    x 3.729050 -0.076410 -0.078430 
#    y -0.076410 3.324240 -0.190680 
#    z -0.078430 -0.190680 3.721830 
# 
# 
# High freq. dielectric constant tensor:
#      x y z
#    x 1.800180 -0.003510 -0.006000 
#    y -0.003510 1.755890 -0.016960 
#    z -0.006000 -0.016960 1.798760 
# 
# From -- ./inp_files/428846.got.cif
#   From: 2010.06.25/outbox.cif.g09.slc.cpg/sg2_215_cif.got.tgz:428846.got - 2010.06.27 13:26:56.
