data_PCOD8043464
_publ_section_title
;
Structure prediction by ZEFSAII (Michael W. Deem and Ramdas Pophale) SiO2 
 PCOD8043464
Probable space group: P -1
;
_chemical_formula_sum "Si O2"
_cell_formula_units_Z 16
_cell_length_a 9.711279
_cell_length_b 18.303751
_cell_length_c 9.311079
_cell_angle_alpha 144.953498
_cell_angle_beta 72.452060
_cell_angle_gamma 110.711143
_cell_volume 888.768842
_symmetry_space_group_name_H-M "P -1"
_symmetry_group_IT_number 2
_symmetry_cell_setting 'triclinic'
loop_
_space_group_symop_operation_xyz
x,y,z
-x,-y,-z
loop_
_atom_site_type_symbol
_atom_site_label
_atom_site_fract_x
_atom_site_fract_y
_atom_site_fract_z
Si Si1 0.052744 0.910101 0.458611
Si Si2 0.872838 0.937643 0.833412
Si Si3 0.828900 0.564162 0.596847
Si Si4 0.344139 0.260445 0.232213
Si Si5 0.633327 0.088231 0.184293
Si Si6 0.633539 0.985696 0.334183
Si Si7 0.084838 0.683559 0.889977
Si Si8 0.346253 0.677563 0.623815
O O1 0.214335 0.969484 0.559069
O O2 0.935562 0.892734 0.594832
O O3 0.053663 0.765929 0.168510
O O4 0.000000 0.000000 0.500000
O O5 0.771392 0.812508 0.734004
O O6 0.779743 0.048512 0.011106
O O7 0.000000 0.000000 0.000000
O O8 0.718125 0.621885 0.625649
O O9 0.908794 0.467765 0.318957
O O10 0.735929 0.473704 0.606941
O O11 0.949801 0.679090 0.812297
O O12 0.494657 0.321421 0.360134
O O13 0.377031 0.164398 0.942793
O O14 0.622993 0.068347 0.326368
O O15 0.637909 0.240920 0.398393
O O16 0.500000 0.000000 0.000000
O O17 0.500000 0.000000 0.500000
O O18 0.243285 0.748458 0.874695
#
# Coordination Sequence:
#
# PCOD8043464 Si02
#       8
#     2   2   2   2   2   2   2   2
#     4  12  23  37  60  91 125 155 196 252 306 352
#     4  11  23  37  58  91 124 159 193 243 307 358
#     4   9  21  38  61  87 113 160 210 241 290 353
#     4  11  20  38  60  87 119 157 199 239 298 364
#     4  11  21  39  61  87 121 160 195 241 302 365
#     4  11  24  37  58  93 125 151 193 252 310 352
#     4   9  21  37  59  88 112 157 204 239 299 340
#     4  10  19  36  63  83 112 155 204 239 291 353
#
# _framework density 18.002431000000001
#
# number of rings (size 3 to 8) (size 9 to 14) (size 15 to 20)
#    0.750    0.750    5.000    2.625    3.500    0.000 
#    0.000    0.625    0.000    1.500    0.000    0.000 
#    0.000    0.000    0.000    0.000    0.000    0.000 
#
# Total GULP energy -198275.354332 kJ/mol
# GULP energy per Si atom -12392.209646 kJ/mol
# Density = 1.796146 g / cm^3
# Si number density = 18.002431 Si / 1000 Ang^3
#
#
#
# Elastic Constant Matrix: (Units=GPa)
#
#
# Indices 1 2 3 4 5 6 
#
# 1 144.6992 48.0829 21.2100 -5.7919 -4.4752 -5.1383
# 2 48.0829 94.3238 23.7180 -5.4590 -10.7993 -7.8105
# 3 21.2100 23.7180 69.5128 -19.0002 -12.3730 -3.9449
# 4 -5.7919 -5.4590 -19.0002 31.0167 2.6614 -7.5306
# 5 -4.4752 -10.7993 -12.3730 2.6614 25.4627 0.9486
# 6 -5.1383 -7.8105 -3.9449 -7.5306 0.9486 37.9104
#
#
#
# Elastic Compliance Matrix: (Units=1/GPa)
#
#
# Indices 1 2 3 4 5 6 
#
# 1 0.008433 -0.004046 -0.001278 0.000214 -0.000886 0.000241
# 2 -0.004046 0.013951 -0.002674 0.000219 0.003809 0.001996
# 3 -0.001278 -0.002674 0.020483 0.012102 0.007194 0.003631
# 4 0.000214 0.000219 0.012102 0.041964 0.001266 0.009638
# 5 -0.000886 0.003809 0.007194 0.001266 0.044075 0.000562
# 6 0.000241 0.001996 0.003631 0.009638 0.000562 0.029100
#
#
# Mechanical properties :
#
#
# Convention : Reuss Voigt Hill
#
# Bulk Modulus (GPa) = 37.21727 54.95084 46.08406
# Shear Modulus (GPa) = 27.32846 33.24631 30.28738
#
# Velocity S-wave (km/s) = 3.90043 4.30207 4.10616
# Velocity P-wave (km/s) = 6.40335 7.43421 6.93795
#
# Compressibility (1/GPa) = 0.02686924
#
# Stress axis : x y z
#
# Youngs Moduli (GPa) = 118.58857 71.67955 48.82146
#
# Poissons Ratio (x) = 0.29004 0.06239
# Poissons Ratio (y) = 0.47986 0.13056
# Poissons Ratio (z) = 0.15154 0.19169
#
# Static dielectric constant tensor:
#      x y z
#    x 3.611070 0.098270 -0.113820 
#    y 0.098270 3.916700 -0.090020 
#    z -0.113820 -0.090020 3.205590 
# 
# 
# High freq. dielectric constant tensor:
#      x y z
#    x 1.727670 0.002680 -0.006340 
#    y 0.002680 1.687800 0.010930 
#    z -0.006340 0.010930 1.669640 
# 
# From -- ./inp_files/218839.got.cif
#   From: 2010.06.25/outbox.cif.g09.slc.cpg/sg2_110_cif.got.tgz:218839.got - 2010.06.27 13:26:56.
