data_PCOD8043523
_publ_section_title
;
Structure prediction by ZEFSAII (Michael W. Deem and Ramdas Pophale) SiO2 
 PCOD8043523
Probable space group: P -1
;
_chemical_formula_sum "Si O2"
_cell_formula_units_Z 12
_cell_length_a 9.804678
_cell_length_b 13.259812
_cell_length_c 13.782627
_cell_angle_alpha 20.768948
_cell_angle_beta 97.867693
_cell_angle_gamma 87.571488
_cell_volume 550.427326
_symmetry_space_group_name_H-M "P -1"
_symmetry_group_IT_number 2
_symmetry_cell_setting 'triclinic'
loop_
_space_group_symop_operation_xyz
x,y,z
-x,-y,-z
loop_
_atom_site_type_symbol
_atom_site_label
_atom_site_fract_x
_atom_site_fract_y
_atom_site_fract_z
Si Si1 0.152623 0.691088 0.667617
Si Si2 0.160623 0.051038 0.176164
Si Si3 0.336081 0.035677 0.829184
Si Si4 0.882194 0.364194 0.083317
Si Si5 0.387483 0.866911 0.194492
Si Si6 0.807277 0.395060 0.840893
O O1 0.230441 0.579969 0.883354
O O2 0.239277 0.827907 0.480982
O O3 0.146141 0.400854 0.872691
O O4 0.975658 0.980131 0.412432
O O5 0.261122 0.870527 0.254150
O O6 0.984268 0.099379 0.105443
O O7 0.512686 0.982032 0.879476
O O8 0.216797 0.338736 0.481196
O O9 0.297361 0.090576 0.891439
O O10 0.323028 0.720916 0.079152
O O11 0.786201 0.541222 0.817010
O O12 0.000000 0.500000 0.000000
O O13 0.500000 0.500000 0.500000
#
# Coordination Sequence:
#
# PCOD8043523 Si02
#       6
#     2   2   2   2   2   2
#     4  10  20  35  58 101 125 170 198 258 308 390
#     4  11  24  38  68  95 131 162 221 259 317 371
#     4  11  25  43  64  91 130 168 215 257 331 371
#     4  10  19  36  63  97 139 162 199 251 338 377
#     4  11  26  49  65  88 125 187 210 256 327 394
#     4  11  22  39  65 103 123 161 208 280 301 373
#
# _framework density 21.801242999999999
#
# number of rings (size 3 to 8) (size 9 to 14) (size 15 to 20)
#    0.000    1.333    5.000    2.000    7.000    1.333 
#    0.000    0.000    0.000    6.000    0.000    0.000 
#    0.000    0.000    0.000    0.000    0.000    0.000 
#
# Total GULP energy -148680.446948 kJ/mol
# GULP energy per Si atom -12390.037246 kJ/mol
# Density = 2.175162 g / cm^3
# Si number density = 21.801243 Si / 1000 Ang^3
#
#
#
# Elastic Constant Matrix: (Units=GPa)
#
#
# Indices 1 2 3 4 5 6 
#
# 1 54.0049 40.5569 29.1018 23.0637 -18.5297 7.1913
# 2 40.5569 130.1000 64.2515 39.5804 -5.8760 -4.8839
# 3 29.1018 64.2515 103.6262 22.3597 -27.1375 -11.4353
# 4 23.0637 39.5804 22.3597 51.5207 -0.4589 -21.9635
# 5 -18.5297 -5.8760 -27.1375 -0.4589 30.3191 2.3053
# 6 7.1913 -4.8839 -11.4353 -21.9635 2.3053 39.3205
#
#
#
# Elastic Compliance Matrix: (Units=1/GPa)
#
#
# Indices 1 2 3 4 5 6 
#
# 1 0.050684 -0.007589 0.002526 -0.029577 0.033444 -0.027959
# 2 -0.007589 0.015814 -0.009224 -0.005652 -0.009769 -0.001915
# 3 0.002526 -0.009224 0.019746 -0.001482 0.017233 0.002297
# 4 -0.029577 -0.005652 -0.001482 0.052262 -0.022351 0.034779
# 5 0.033444 -0.009769 0.017233 -0.022351 0.068044 -0.018792
# 6 -0.027959 -0.001915 0.002297 0.034779 -0.018792 0.051504
#
#
# Mechanical properties :
#
#
# Convention : Reuss Voigt Hill
#
# Bulk Modulus (GPa) = 17.33978 61.72793 39.53386
# Shear Modulus (GPa) = 16.34789 34.48680 25.41735
#
# Velocity S-wave (km/s) = 2.74133 3.98159 3.41818
# Velocity P-wave (km/s) = 4.24154 7.03654 5.80963
#
# Compressibility (1/GPa) = 0.05767084
#
# Stress axis : x y z
#
# Youngs Moduli (GPa) = 19.73023 63.23605 50.64342
#
# Poissons Ratio (x) = 0.47987 -0.12794
# Poissons Ratio (y) = 0.14972 0.46713
# Poissons Ratio (z) = -0.04984 0.58329
#
# Static dielectric constant tensor:
#      x y z
#    x 3.785100 -0.065140 -0.439000 
#    y -0.065140 4.317180 0.552470 
#    z -0.439000 0.552470 4.139110 
# 
# 
# High freq. dielectric constant tensor:
#      x y z
#    x 1.817830 0.001580 -0.049480 
#    y 0.001580 1.866000 0.026450 
#    z -0.049480 0.026450 1.856110 
# 
# From -- ./inp_files/289257.got.cif
#   From: 2010.06.25/outbox.cif.g09.slc.cpg/sg2_145_cif.got.tgz:289257.got - 2010.06.27 13:26:56.
