data_PCOD8043117
_publ_section_title
;
Structure prediction by ZEFSAII (Michael W. Deem and Ramdas Pophale) SiO2 
 PCOD8043117
Probable space group: P -1
;
_chemical_formula_sum "Si O2"
_cell_formula_units_Z 14
_cell_length_a 9.197208
_cell_length_b 7.578905
_cell_length_c 16.965412
_cell_angle_alpha 127.387349
_cell_angle_beta 130.136832
_cell_angle_gamma 47.069624
_cell_volume 631.381600
_symmetry_space_group_name_H-M "P -1"
_symmetry_group_IT_number 2
_symmetry_cell_setting 'triclinic'
loop_
_space_group_symop_operation_xyz
x,y,z
-x,-y,-z
loop_
_atom_site_type_symbol
_atom_site_label
_atom_site_fract_x
_atom_site_fract_y
_atom_site_fract_z
Si Si1 0.141918 0.645760 0.224344
Si Si2 0.855219 0.364465 0.315392
Si Si3 0.977913 0.963542 0.852572
Si Si4 0.562512 0.437578 0.416115
Si Si5 0.739704 0.915492 0.901658
Si Si6 0.290591 0.980568 0.753638
Si Si7 0.724278 0.762972 0.492616
O O1 0.118759 0.812718 0.184595
O O2 0.351932 0.601882 0.333842
O O3 0.154054 0.384417 0.130356
O O4 0.937208 0.774169 0.246784
O O5 0.693356 0.251224 0.248950
O O6 0.750036 0.663489 0.382872
O O7 0.075450 0.198217 0.399224
O O8 0.918085 0.309009 0.230112
O O9 0.790101 0.982680 0.850121
O O10 0.169787 0.970957 0.970056
O O11 0.500000 0.500000 0.500000
O O12 0.664351 0.137058 0.351726
O O13 0.741555 0.523680 0.482957
O O14 0.481447 0.046025 0.859760
O O15 0.500000 0.000000 0.500000
#
# Coordination Sequence:
#
# PCOD8043117 Si02
#       7
#     2   2   2   2   2   2   2
#     4  10  21  41  63  87 123 165 202 247 313 366
#     4   9  20  35  58  84 122 154 196 247 298 358
#     4  10  21  41  64  91 126 162 202 255 306 366
#     4  10  22  38  59  88 122 158 205 254 304 360
#     4  10  22  40  65  93 124 158 206 257 302 363
#     4   9  20  40  59  88 123 157 203 252 305 365
#     4  10  19  36  58  86 114 158 200 243 300 363
#
# _framework density 22.173597000000001
#
# number of rings (size 3 to 8) (size 9 to 14) (size 15 to 20)
#    0.000    2.286    0.000    2.143    4.000    2.857 
#    2.571   11.429    0.000    0.000    0.000    0.000 
#    0.000    0.000    0.000    0.000    0.000    0.000 
#
# Total GULP energy -173482.133030 kJ/mol
# GULP energy per Si atom -12391.580931 kJ/mol
# Density = 2.212313 g / cm^3
# Si number density = 22.173597 Si / 1000 Ang^3
#
#
#
# Elastic Constant Matrix: (Units=GPa)
#
#
# Indices 1 2 3 4 5 6 
#
# 1 119.0848 35.6312 61.4503 -10.8946 1.5120 -13.9488
# 2 35.6312 77.4234 23.0481 12.5908 -13.4337 -23.0187
# 3 61.4503 23.0481 119.4486 5.6783 -15.5118 -6.9765
# 4 -10.8946 12.5908 5.6783 21.6294 -6.2272 -5.7651
# 5 1.5120 -13.4337 -15.5118 -6.2272 46.7621 3.7215
# 6 -13.9488 -23.0187 -6.9765 -5.7651 3.7215 39.4036
#
#
#
# Elastic Compliance Matrix: (Units=1/GPa)
#
#
# Indices 1 2 3 4 5 6 
#
# 1 0.016368 -0.007347 -0.008001 0.014256 -0.003595 0.002511
# 2 -0.007347 0.021033 0.001354 -0.013007 0.004391 0.007608
# 3 -0.008001 0.001354 0.013038 -0.007385 0.004085 -0.001199
# 4 0.014256 -0.013007 -0.007385 0.064831 0.001550 0.005480
# 5 -0.003595 0.004391 0.004085 0.001550 0.024328 -0.000055
# 6 0.002511 0.007608 -0.001199 0.005480 -0.000055 0.031307
#
#
# Mechanical properties :
#
#
# Convention : Reuss Voigt Hill
#
# Bulk Modulus (GPa) = 44.53870 61.80180 53.17025
# Shear Modulus (GPa) = 24.22752 34.61416 29.42084
#
# Velocity S-wave (km/s) = 3.30908 3.95530 3.64653
# Velocity P-wave (km/s) = 5.89322 6.98509 6.46226
#
# Compressibility (1/GPa) = 0.02245238
#
# Stress axis : x y z
#
# Youngs Moduli (GPa) = 61.09396 47.54399 76.69821
#
# Poissons Ratio (x) = 0.34928 0.61366
# Poissons Ratio (y) = 0.44883 -0.10385
# Poissons Ratio (z) = 0.48881 -0.06437
#
# Static dielectric constant tensor:
#      x y z
#    x 4.290670 -0.309440 -0.012630 
#    y -0.309440 3.808680 0.401450 
#    z -0.012630 0.401450 4.224360 
# 
# 
# High freq. dielectric constant tensor:
#      x y z
#    x 1.886720 -0.025850 0.008630 
#    y -0.025850 1.840700 0.027190 
#    z 0.008630 0.027190 1.879220 
# 
# From -- ./inp_files/196452.got.cif
#   From: 2010.06.25/outbox.cif.g09.slc.cpg/sg2_99_cif.got.tgz:196452.got - 2010.06.27 13:26:56.
