data_PCOD8043394
_publ_section_title
;
Structure prediction by ZEFSAII (Michael W. Deem and Ramdas Pophale) SiO2 
 PCOD8043394
Probable space group: P -1
;
_chemical_formula_sum "Si O2"
_cell_formula_units_Z 16
_cell_length_a 7.090863
_cell_length_b 12.185638
_cell_length_c 14.055388
_cell_angle_alpha 113.061529
_cell_angle_beta 43.003024
_cell_angle_gamma 99.933486
_cell_volume 749.450765
_symmetry_space_group_name_H-M "P -1"
_symmetry_group_IT_number 2
_symmetry_cell_setting 'triclinic'
loop_
_space_group_symop_operation_xyz
x,y,z
-x,-y,-z
loop_
_atom_site_type_symbol
_atom_site_label
_atom_site_fract_x
_atom_site_fract_y
_atom_site_fract_z
Si Si1 0.783498 0.288602 0.198939
Si Si2 0.200486 0.874560 0.272940
Si Si3 0.245132 0.160977 0.856367
Si Si4 0.715330 0.759126 0.334498
Si Si5 0.233178 0.468777 0.643785
Si Si6 0.133669 0.377213 0.460191
Si Si7 0.378415 0.888908 0.663323
Si Si8 0.949029 0.866244 0.558666
O O1 0.932166 0.403451 0.210419
O O2 0.464472 0.342559 0.302475
O O3 0.811758 0.200418 0.250882
O O4 0.938204 0.218210 0.027910
O O5 0.540324 0.836225 0.131655
O O6 0.028070 0.785222 0.253791
O O7 0.176975 0.879048 0.398723
O O8 0.094968 0.012468 0.317981
O O9 0.323185 0.237032 0.762990
O O10 0.227875 0.027117 0.778049
O O11 0.686771 0.624607 0.331063
O O12 0.463208 0.856044 0.510356
O O13 0.500000 0.500000 0.500000
O O14 0.064344 0.403666 0.606913
O O15 0.983513 0.260926 0.449874
O O16 0.000000 0.500000 0.500000
O O17 0.663075 0.858617 0.607070
#
# Coordination Sequence:
#
# PCOD8043394 Si02
#       8
#     2   2   2   2   2   2   2   2
#     4  10  21  40  57  85 123 155 194 245 295 353
#     4   9  18  35  56  84 123 150 181 241 305 345
#     4  11  23  35  62  91 122 158 188 238 315 353
#     4  11  20  39  61  89 119 150 206 250 278 356
#     4  10  19  39  59  80 116 153 194 253 285 339
#     4  10  19  36  62  85 108 159 210 241 284 348
#     4   9  17  37  63  83 115 161 198 238 293 348
#     4   8  15  32  57  82 112 148 194 250 277 336
#
# _framework density 21.348967999999999
#
# number of rings (size 3 to 8) (size 9 to 14) (size 15 to 20)
#    0.000    2.250    5.000    1.500    0.000    2.500 
#    4.500    0.625    0.000    3.000    0.000    0.000 
#    0.000    0.000    0.000    0.000    0.000    0.000 
#
# Total GULP energy -198238.084880 kJ/mol
# GULP energy per Si atom -12389.880305 kJ/mol
# Density = 2.130038 g / cm^3
# Si number density = 21.348968 Si / 1000 Ang^3
#
#
#
# Elastic Constant Matrix: (Units=GPa)
#
#
# Indices 1 2 3 4 5 6 
#
# 1 33.8248 20.2322 14.3657 0.6631 -3.9802 -4.7562
# 2 20.2322 174.3266 43.2090 4.3489 -3.4295 -11.6311
# 3 14.3657 43.2090 112.8551 11.8445 2.3895 -10.1497
# 4 0.6631 4.3489 11.8445 21.7505 -5.0710 2.9156
# 5 -3.9802 -3.4295 2.3895 -5.0710 18.9634 1.3158
# 6 -4.7562 -11.6311 -10.1497 2.9156 1.3158 30.9205
#
#
#
# Elastic Compliance Matrix: (Units=1/GPa)
#
#
# Indices 1 2 3 4 5 6 
#
# 1 0.033921 -0.002835 -0.003481 0.002889 0.007651 0.002411
# 2 -0.002835 0.006691 -0.002079 -0.000130 0.000747 0.001379
# 3 -0.003481 -0.002079 0.011237 -0.007116 -0.004650 0.003240
# 4 0.002889 -0.000130 -0.007116 0.054718 0.016653 -0.007808
# 5 0.007651 0.000747 -0.004650 0.016653 0.059803 -0.004184
# 6 0.002411 0.001379 0.003240 -0.007808 -0.004184 0.035208
#
#
# Mechanical properties :
#
#
# Convention : Reuss Voigt Hill
#
# Bulk Modulus (GPa) = 28.52360 52.95783 40.74072
# Shear Modulus (GPa) = 21.73413 30.54020 26.13716
#
# Velocity S-wave (km/s) = 3.19414 3.78633 3.50277
# Velocity P-wave (km/s) = 5.19548 6.63134 5.95683
#
# Compressibility (1/GPa) = 0.03505869
#
# Stress axis : x y z
#
# Youngs Moduli (GPa) = 29.48058 149.46408 88.99462
#
# Poissons Ratio (x) = 0.42369 0.30978
# Poissons Ratio (y) = 0.08357 0.18502
# Poissons Ratio (z) = 0.10262 0.31073
#
# Static dielectric constant tensor:
#      x y z
#    x 3.633290 0.227530 0.049190 
#    y 0.227530 4.502050 0.181250 
#    z 0.049190 0.181250 3.681160 
# 
# 
# High freq. dielectric constant tensor:
#      x y z
#    x 1.810360 0.003270 -0.004300 
#    y 0.003270 1.862710 0.004920 
#    z -0.004300 0.004920 1.796430 
# 
# From -- ./inp_files/449903.got.cif
#   From: 2010.06.25/outbox.cif.g09.slc.cpg/sg2_225_cif.got.tgz:449903.got - 2010.06.27 13:26:56.
