data_PCOD8043552
_publ_section_title
;
Structure prediction by ZEFSAII (Michael W. Deem and Ramdas Pophale) SiO2 
 PCOD8043552
Probable space group: P -1
;
_chemical_formula_sum "Si O2"
_cell_formula_units_Z 16
_cell_length_a 12.797556
_cell_length_b 8.857687
_cell_length_c 9.054426
_cell_angle_alpha 73.553758
_cell_angle_beta 87.141795
_cell_angle_gamma 57.251847
_cell_volume 821.109715
_symmetry_space_group_name_H-M "P -1"
_symmetry_group_IT_number 2
_symmetry_cell_setting 'triclinic'
loop_
_space_group_symop_operation_xyz
x,y,z
-x,-y,-z
loop_
_atom_site_type_symbol
_atom_site_label
_atom_site_fract_x
_atom_site_fract_y
_atom_site_fract_z
Si Si1 0.360025 0.048557 0.514059
Si Si2 0.998817 0.109559 0.181038
Si Si3 0.866631 0.531855 0.532198
Si Si4 0.258406 0.935573 0.303761
Si Si5 0.362505 0.668477 0.127940
Si Si6 0.619828 0.288277 0.217881
Si Si7 0.107212 0.718391 0.150748
Si Si8 0.814159 0.277133 0.405912
O O1 0.254563 0.254621 0.524082
O O2 0.500000 0.000000 0.500000
O O3 0.315744 0.033526 0.359507
O O4 0.360978 0.898382 0.663030
O O5 0.938951 0.146693 0.337149
O O6 0.132413 0.088826 0.183605
O O7 0.007839 0.922701 0.172528
O O8 0.918969 0.279574 0.022873
O O9 0.894003 0.445160 0.718647
O O10 0.829688 0.431090 0.442048
O O11 0.000000 0.500000 0.500000
O O12 0.368069 0.798614 0.217522
O O13 0.209738 0.834435 0.439111
O O14 0.476952 0.456012 0.192144
O O15 0.245186 0.664463 0.184368
O O16 0.342585 0.758296 0.942962
O O17 0.699137 0.359379 0.274662
#
# Coordination Sequence:
#
# PCOD8043552 Si02
#       8
#     2   2   2   2   2   2   2   2
#     4  11  26  43  61  91 132 168 201 249 320 374
#     4  10  19  36  64  92 115 155 212 256 302 345
#     4  12  26  40  60  93 134 165 201 253 315 374
#     4  10  22  37  67  89 121 159 212 254 296 369
#     4  10  19  41  65  98 112 154 220 261 299 345
#     4  10  23  38  71  88 122 158 210 260 300 368
#     4  10  21  37  63  88 127 158 199 262 303 362
#     4  11  21  37  63  93 118 159 212 252 299 367
#
# _framework density 19.485824000000001
#
# number of rings (size 3 to 8) (size 9 to 14) (size 15 to 20)
#    0.000    1.500    3.750    1.875    5.250    1.000 
#    0.000    4.375    0.000    0.000    0.000    0.000 
#    0.000    0.000    0.000    0.000    0.000    0.000 
#
# Total GULP energy -198296.113326 kJ/mol
# GULP energy per Si atom -12393.507083 kJ/mol
# Density = 1.944147 g / cm^3
# Si number density = 19.485824 Si / 1000 Ang^3
#
#
#
# Elastic Constant Matrix: (Units=GPa)
#
#
# Indices 1 2 3 4 5 6 
#
# 1 99.7469 55.7070 30.3963 1.8472 1.3624 5.6997
# 2 55.7070 93.2145 49.6797 11.8539 0.0914 1.5371
# 3 30.3963 49.6797 98.6149 8.3196 6.2799 -2.0786
# 4 1.8472 11.8539 8.3196 36.3533 -1.6691 3.9763
# 5 1.3624 0.0914 6.2799 -1.6691 29.2011 5.4914
# 6 5.6997 1.5371 -2.0786 3.9763 5.4914 30.5688
#
#
#
# Elastic Compliance Matrix: (Units=1/GPa)
#
#
# Indices 1 2 3 4 5 6 
#
# 1 0.015460 -0.009348 -0.000342 0.002649 0.000058 -0.002791
# 2 -0.009348 0.020773 -0.007284 -0.004616 0.001576 0.000521
# 3 -0.000342 -0.007284 0.014294 -0.001281 -0.003523 0.002201
# 4 0.002649 -0.004616 -0.001281 0.029815 0.002759 -0.004723
# 5 0.000058 0.001576 -0.003523 0.002759 0.036516 -0.007248
# 6 -0.002791 0.000521 0.002201 -0.004723 -0.007248 0.035273
#
#
# Mechanical properties :
#
#
# Convention : Reuss Voigt Hill
#
# Bulk Modulus (GPa) = 60.31283 62.57137 61.44210
# Shear Modulus (GPa) = 26.09542 29.61086 27.85314
#
# Velocity S-wave (km/s) = 3.66348 3.90245 3.78485
# Velocity P-wave (km/s) = 6.99386 7.24475 7.12041
#
# Compressibility (1/GPa) = 0.01658022
#
# Stress axis : x y z
#
# Youngs Moduli (GPa) = 64.68413 48.13911 69.95924
#
# Poissons Ratio (x) = 0.44999 0.02393
# Poissons Ratio (y) = 0.60464 0.50956
# Poissons Ratio (z) = 0.02212 0.35063
#
# Static dielectric constant tensor:
#      x y z
#    x 3.740200 -0.070980 0.249620 
#    y -0.070980 3.650680 0.217910 
#    z 0.249620 0.217910 3.733130 
# 
# 
# High freq. dielectric constant tensor:
#      x y z
#    x 1.763380 -0.016750 0.014340 
#    y -0.016750 1.748840 0.016080 
#    z 0.014340 0.016080 1.768200 
# 
# From -- ./inp_files/242508.got.cif
#   From: 2010.06.25/outbox.cif.g09.slc.cpg/sg2_122_cif.got.tgz:242508.got - 2010.06.27 13:26:56.
