data_PCOD8043882
_publ_section_title
;
Structure prediction by ZEFSAII (Michael W. Deem and Ramdas Pophale) SiO2 
 PCOD8043882
Probable space group: P -1
;
_chemical_formula_sum "Si O2"
_cell_formula_units_Z 16
_cell_length_a 16.336490
_cell_length_b 9.160276
_cell_length_c 7.645641
_cell_angle_alpha 82.120265
_cell_angle_beta 135.319657
_cell_angle_gamma 123.328958
_cell_volume 606.349106
_symmetry_space_group_name_H-M "P -1"
_symmetry_group_IT_number 2
_symmetry_cell_setting 'triclinic'
loop_
_space_group_symop_operation_xyz
x,y,z
-x,-y,-z
loop_
_atom_site_type_symbol
_atom_site_label
_atom_site_fract_x
_atom_site_fract_y
_atom_site_fract_z
Si Si1 0.175763 0.248269 0.457248
Si Si2 0.989466 0.366072 0.152398
Si Si3 0.240788 0.066473 0.297138
Si Si4 0.728856 0.780722 0.040725
Si Si5 0.174992 0.680142 0.777084
Si Si6 0.571611 0.327855 0.327233
Si Si7 0.598120 0.379329 0.761171
Si Si8 0.251951 0.776548 0.530288
O O1 0.031116 0.231509 0.182670
O O2 0.173427 0.113797 0.337332
O O3 0.335685 0.468862 0.667769
O O4 0.153048 0.170621 0.635753
O O5 0.143452 0.547725 0.455375
O O6 0.837477 0.246335 0.065665
O O7 0.000000 0.500000 0.000000
O O8 0.186632 0.073599 0.020594
O O9 0.423255 0.199230 0.574893
O O10 0.185225 0.847413 0.279785
O O11 0.608646 0.793471 0.945883
O O12 0.628956 0.570572 0.834875
O O13 0.256833 0.851496 0.721975
O O14 0.000000 0.500000 0.500000
O O15 0.283390 0.627104 0.960045
O O16 0.629950 0.387105 0.604080
O O17 0.597061 0.179707 0.322601
#
# Coordination Sequence:
#
# PCOD8043882 Si02
#       8
#     2   2   2   2   2   2   2   2
#     4  11  21  40  67  92 124 169 217 266 319 385
#     4  10  22  44  72  89 119 174 226 262 304 386
#     4  11  24  41  60 102 136 162 204 272 348 373
#     4  11  21  36  63  93 133 169 212 258 319 398
#     4  10  21  39  62  89 121 167 223 263 306 376
#     4  10  19  37  60  91 128 168 214 257 320 388
#     4  11  20  37  67  95 127 168 218 269 316 395
#     4  10  23  40  61  96 132 164 210 274 323 381
#
# _framework density 26.387440999999999
#
# number of rings (size 3 to 8) (size 9 to 14) (size 15 to 20)
#    0.000    1.500    2.500    4.875    1.750    2.500 
#    4.500    1.250    0.000    0.000    0.000    0.000 
#    0.000    0.000    0.000    0.000    0.000    0.000 
#
# Total GULP energy -198239.532321 kJ/mol
# GULP energy per Si atom -12389.970770 kJ/mol
# Density = 2.632738 g / cm^3
# Si number density = 26.387441 Si / 1000 Ang^3
#
#
#
# Elastic Constant Matrix: (Units=GPa)
#
#
# Indices 1 2 3 4 5 6 
#
# 1 201.6709 55.7213 72.1872 -37.0513 -18.1888 -17.7097
# 2 55.7213 114.8471 28.9166 -21.2694 -2.2768 -14.8356
# 3 72.1872 28.9166 144.8051 -42.4803 -12.8993 -3.5947
# 4 -37.0513 -21.2694 -42.4803 36.9769 4.4096 2.9873
# 5 -18.1888 -2.2768 -12.8993 4.4096 46.1456 -12.4391
# 6 -17.7097 -14.8356 -3.5947 2.9873 -12.4391 27.8542
#
#
#
# Elastic Compliance Matrix: (Units=1/GPa)
#
#
# Indices 1 2 3 4 5 6 
#
# 1 0.007498 -0.001849 -0.001956 0.003446 0.003229 0.004602
# 2 -0.001849 0.010936 0.000122 0.004134 0.000669 0.004520
# 3 -0.001956 0.000122 0.011113 0.010761 0.001218 -0.000355
# 4 0.003446 0.004134 0.010761 0.045068 0.000590 0.001211
# 5 0.003229 0.000669 0.001218 0.000590 0.027210 0.014654
# 6 0.004602 0.004520 -0.000355 0.001211 0.014654 0.047604
#
#
# Mechanical properties :
#
#
# Convention : Reuss Voigt Hill
#
# Bulk Modulus (GPa) = 45.08151 86.10814 65.59482
# Shear Modulus (GPa) = 30.45280 42.49522 36.47401
#
# Velocity S-wave (km/s) = 3.40084 4.01737 3.72189
# Velocity P-wave (km/s) = 5.70460 7.36357 6.58652
#
# Compressibility (1/GPa) = 0.02218204
#
# Stress axis : x y z
#
# Youngs Moduli (GPa) = 133.37090 91.44013 89.98506
#
# Poissons Ratio (x) = 0.16904 0.17600
# Poissons Ratio (y) = 0.24656 -0.01099
# Poissons Ratio (z) = 0.26086 -0.01117
#
# Static dielectric constant tensor:
#      x y z
#    x 0.000000 0.000000 0.000000 
#    y 0.000000 0.000000 0.000000 
#    z 0.000000 0.000000 0.000000 
# 
# 
# High freq. dielectric constant tensor:
#      x y z
#    x 2.081310 -0.004120 -0.007020 
#    y -0.004120 2.047060 -0.005490 
#    z -0.007020 -0.005490 2.073470 
# 
# From -- ./inp_files/328785.got.cif
#   From: 2010.06.25/outbox.cif.g09.slc.cpg/sg2_165_cif.got.tgz:328785.got - 2010.06.27 13:26:56.
