data_PCOD8043658
_publ_section_title
;
Structure prediction by ZEFSAII (Michael W. Deem and Ramdas Pophale) SiO2 
 PCOD8043658
Probable space group: P -1
;
_chemical_formula_sum "Si O2"
_cell_formula_units_Z 16
_cell_length_a 12.212616
_cell_length_b 9.765451
_cell_length_c 8.199570
_cell_angle_alpha 104.925781
_cell_angle_beta 106.654563
_cell_angle_gamma 118.437392
_cell_volume 728.153502
_symmetry_space_group_name_H-M "P -1"
_symmetry_group_IT_number 2
_symmetry_cell_setting 'triclinic'
loop_
_space_group_symop_operation_xyz
x,y,z
-x,-y,-z
loop_
_atom_site_type_symbol
_atom_site_label
_atom_site_fract_x
_atom_site_fract_y
_atom_site_fract_z
Si Si1 0.021118 0.889384 0.250235
Si Si2 0.920381 0.349336 0.286122
Si Si3 0.401547 0.412577 0.277673
Si Si4 0.300535 0.745085 0.088535
Si Si5 0.850086 0.017384 0.320272
Si Si6 0.146803 0.427129 0.143019
Si Si7 0.555057 0.745206 0.263576
Si Si8 0.678743 0.916984 0.710720
O O1 0.054209 0.882653 0.450046
O O2 0.927395 0.962965 0.217478
O O3 0.933220 0.691758 0.086179
O O4 0.161810 0.011957 0.241765
O O5 0.834063 0.154893 0.266594
O O6 0.000000 0.500000 0.500000
O O7 0.038382 0.377174 0.224302
O O8 0.801572 0.352778 0.141333
O O9 0.500000 0.500000 0.500000
O O10 0.259895 0.397682 0.247566
O O11 0.483964 0.535423 0.191024
O O12 0.366335 0.218221 0.197430
O O13 0.222888 0.628577 0.181912
O O14 0.446179 0.767094 0.128104
O O15 0.334578 0.934092 0.187210
O O16 0.697696 0.839001 0.248339
O O17 0.581617 0.828429 0.481223
#
# Coordination Sequence:
#
# PCOD8043658 Si02
#       8
#     2   2   2   2   2   2   2   2
#     4  10  21  40  68  94 122 169 210 266 314 379
#     4  12  26  40  62  95 134 163 210 268 322 370
#     4   9  20  39  61  96 122 160 219 262 307 364
#     4  11  23  40  66  93 125 173 214 255 316 383
#     4  10  23  41  64  94 135 164 206 261 326 373
#     4  11  23  41  68  91 125 165 222 258 317 375
#     4   9  21  41  63  92 131 169 207 254 323 378
#     4  10  19  36  69  95 123 159 221 267 303 375
#
# _framework density 21.973388
#
# number of rings (size 3 to 8) (size 9 to 14) (size 15 to 20)
#    0.000    1.750    1.250    2.250    5.250    2.500 
#    0.000    3.750    0.000    0.000    0.000    0.000 
#    0.000    0.000    0.000    0.000    0.000    0.000 
#
# Total GULP energy -198401.724732 kJ/mol
# GULP energy per Si atom -12400.107796 kJ/mol
# Density = 2.192338 g / cm^3
# Si number density = 21.973388 Si / 1000 Ang^3
#
#
#
# Elastic Constant Matrix: (Units=GPa)
#
#
# Indices 1 2 3 4 5 6 
#
# 1 100.3670 49.8000 37.9540 -2.4645 24.1922 0.2799
# 2 49.8000 161.4594 26.9093 8.5001 7.2663 -15.7639
# 3 37.9540 26.9093 73.2212 0.7230 18.1855 -7.9697
# 4 -2.4645 8.5001 0.7230 28.8980 -5.0750 3.1079
# 5 24.1922 7.2663 18.1855 -5.0750 35.3804 -0.0337
# 6 0.2799 -15.7639 -7.9697 3.1079 -0.0337 27.5772
#
#
#
# Elastic Compliance Matrix: (Units=1/GPa)
#
#
# Indices 1 2 3 4 5 6 
#
# 1 0.015822 -0.004193 -0.005447 0.001980 -0.006878 -0.004363
# 2 -0.004193 0.008170 -0.000516 -0.003098 0.001015 0.004914
# 3 -0.005447 -0.000516 0.018828 -0.002460 -0.006195 0.005472
# 4 0.001980 -0.003098 -0.002460 0.037509 0.005921 -0.006722
# 5 -0.006878 0.001015 -0.006195 0.005921 0.036791 -0.001763
# 6 -0.004363 0.004914 0.005472 -0.006722 -0.001763 0.041452
#
#
# Mechanical properties :
#
#
# Convention : Reuss Voigt Hill
#
# Bulk Modulus (GPa) = 44.42401 62.70824 53.56613
# Shear Modulus (GPa) = 26.82594 33.06341 29.94467
#
# Velocity S-wave (km/s) = 3.49784 3.88326 3.69558
# Velocity P-wave (km/s) = 6.04766 6.97900 6.52996
#
# Compressibility (1/GPa) = 0.02251035
#
# Stress axis : x y z
#
# Youngs Moduli (GPa) = 63.20180 122.39925 53.11100
#
# Poissons Ratio (x) = 0.51324 0.28927
# Poissons Ratio (y) = 0.26501 0.02738
# Poissons Ratio (z) = 0.34423 0.06310
#
# Static dielectric constant tensor:
#      x y z
#    x 4.089680 0.025730 0.148550 
#    y 0.025730 4.476910 0.143690 
#    z 0.148550 0.143690 4.194100 
# 
# 
# High freq. dielectric constant tensor:
#      x y z
#    x 1.851640 -0.000690 0.024660 
#    y -0.000690 1.879670 0.003260 
#    z 0.024660 0.003260 1.866430 
# 
# From -- ./inp_files/186049.got.cif
#   From: 2010.06.25/outbox.cif.g09.slc.cpg/sg2_94_cif.got.tgz:186049.got - 2010.06.27 13:26:56.
