data_PCOD8043284
_publ_section_title
;
Structure prediction by ZEFSAII (Michael W. Deem and Ramdas Pophale) SiO2 
 PCOD8043284
Probable space group: P -1
;
_chemical_formula_sum "Si O2"
_cell_formula_units_Z 16
_cell_length_a 11.213131
_cell_length_b 18.203707
_cell_length_c 7.986840
_cell_angle_alpha 56.125676
_cell_angle_beta 114.586372
_cell_angle_gamma 145.406326
_cell_volume 765.317588
_symmetry_space_group_name_H-M "P -1"
_symmetry_group_IT_number 2
_symmetry_cell_setting 'triclinic'
loop_
_space_group_symop_operation_xyz
x,y,z
-x,-y,-z
loop_
_atom_site_type_symbol
_atom_site_label
_atom_site_fract_x
_atom_site_fract_y
_atom_site_fract_z
Si Si1 0.036968 0.924580 0.198104
Si Si2 0.041807 0.310412 0.286435
Si Si3 0.359318 0.007596 0.470472
Si Si4 0.413817 0.079169 0.768703
Si Si5 0.191373 0.137008 0.544702
Si Si6 0.892338 0.662823 0.340382
Si Si7 0.168428 0.770113 0.059399
Si Si8 0.558537 0.572221 0.766176
O O1 0.889650 0.844404 0.377245
O O2 0.959622 0.801942 0.195467
O O3 0.289250 0.041274 0.242180
O O4 0.000000 0.000000 0.000000
O O5 0.049821 0.354097 0.425571
O O6 0.274700 0.402867 0.258247
O O7 0.870193 0.142238 0.407598
O O8 0.953003 0.323837 0.063671
O O9 0.473532 0.112701 0.562102
O O10 0.500000 0.000000 0.500000
O O11 0.314606 0.118895 0.717127
O O12 0.629833 0.186176 0.862221
O O13 0.251001 0.914804 0.924074
O O14 0.341655 0.277521 0.338739
O O15 0.000000 0.000000 0.500000
O O16 0.643281 0.524996 0.346093
O O17 0.011720 0.674892 0.245745
O O18 0.500000 0.500000 0.000000
#
# Coordination Sequence:
#
# PCOD8043284 Si02
#       8
#     2   2   2   2   2   2   2   2
#     4  11  23  36  62  98 132 165 207 277 335 382
#     4  10  20  38  58  90 123 159 213 271 304 379
#     4  10  19  36  60  92 127 167 212 262 330 383
#     4  10  20  35  64  88 133 164 212 266 325 384
#     4  12  23  42  61  95 134 162 210 277 333 380
#     4  11  22  39  63  92 129 165 223 263 321 385
#     4  10  20  38  61  98 119 174 214 262 319 401
#     4  12  24  40  68  93 124 179 218 267 328 392
#
# _framework density 20.906352999999999
#
# number of rings (size 3 to 8) (size 9 to 14) (size 15 to 20)
#    0.000    1.250    5.000    3.375    1.750    2.000 
#    0.000    0.625    0.000    0.750    0.000    0.000 
#    0.000    0.000    0.000    0.000    0.000    0.000 
#
# Total GULP energy -198232.405692 kJ/mol
# GULP energy per Si atom -12389.525356 kJ/mol
# Density = 2.085877 g / cm^3
# Si number density = 20.906353 Si / 1000 Ang^3
#
#
#
# Elastic Constant Matrix: (Units=GPa)
#
#
# Indices 1 2 3 4 5 6 
#
# 1 90.7336 23.9982 40.6496 16.4222 6.6064 26.4690
# 2 23.9982 118.6768 55.1260 27.8572 -0.9166 17.8376
# 3 40.6496 55.1260 112.3909 24.1919 -2.5727 13.1247
# 4 16.4222 27.8572 24.1919 42.1392 -0.2343 3.3212
# 5 6.6064 -0.9166 -2.5727 -0.2343 38.1522 4.9495
# 6 26.4690 17.8376 13.1247 3.3212 4.9495 33.8079
#
#
#
# Elastic Compliance Matrix: (Units=1/GPa)
#
#
# Indices 1 2 3 4 5 6 
#
# 1 0.016950 0.001382 -0.004649 -0.003949 -0.001741 -0.011552
# 2 0.001382 0.012494 -0.004786 -0.005629 0.000394 -0.005321
# 3 -0.004649 -0.004786 0.013448 -0.002816 0.001449 0.001009
# 4 -0.003949 -0.005629 -0.002816 0.030278 0.000002 0.004180
# 5 -0.001741 0.000394 0.001449 0.000002 0.027056 -0.003368
# 6 -0.011552 -0.005321 0.001009 0.004180 -0.003368 0.041121
#
#
# Mechanical properties :
#
#
# Convention : Reuss Voigt Hill
#
# Bulk Modulus (GPa) = 37.33317 62.37212 49.85265
# Shear Modulus (GPa) = 30.05109 36.28834 33.16972
#
# Velocity S-wave (km/s) = 3.79544 4.17076 3.98752
# Velocity P-wave (km/s) = 6.09124 7.28646 6.71549
#
# Compressibility (1/GPa) = 0.02678583
#
# Stress axis : x y z
#
# Youngs Moduli (GPa) = 58.99627 80.03884 74.36071
#
# Poissons Ratio (x) = -0.11060 0.34571
# Poissons Ratio (y) = -0.08153 0.35589
# Poissons Ratio (z) = 0.27428 0.38306
#
# Static dielectric constant tensor:
#      x y z
#    x 3.469780 0.308870 -0.004090 
#    y 0.308870 3.988910 0.508790 
#    z -0.004090 0.508790 4.095570 
# 
# 
# High freq. dielectric constant tensor:
#      x y z
#    x 1.805440 0.029050 -0.015350 
#    y 0.029050 1.807470 0.032750 
#    z -0.015350 0.032750 1.815870 
# 
# From -- ./inp_files/282916.got.cif
#   From: 2010.06.25/outbox.cif.g09.slc.cpg/sg2_142_cif.got.tgz:282916.got - 2010.06.27 13:26:56.
