data_PCOD8043168
_publ_section_title
;
Structure prediction by ZEFSAII (Michael W. Deem and Ramdas Pophale) SiO2 
 PCOD8043168
Probable space group: P -1
;
_chemical_formula_sum "Si O2"
_cell_formula_units_Z 14
_cell_length_a 9.393375
_cell_length_b 20.757576
_cell_length_c 11.144702
_cell_angle_alpha 33.381382
_cell_angle_beta 60.375668
_cell_angle_gamma 37.297927
_cell_volume 623.309256
_symmetry_space_group_name_H-M "P -1"
_symmetry_group_IT_number 2
_symmetry_cell_setting 'triclinic'
loop_
_space_group_symop_operation_xyz
x,y,z
-x,-y,-z
loop_
_atom_site_type_symbol
_atom_site_label
_atom_site_fract_x
_atom_site_fract_y
_atom_site_fract_z
Si Si1 0.799196 0.032819 0.375603
Si Si2 0.854749 0.577806 0.636792
Si Si3 0.632662 0.159386 0.875819
Si Si4 0.322069 0.405305 0.853272
Si Si5 0.915996 0.208947 0.590483
Si Si6 0.250727 0.964915 0.340271
Si Si7 0.831168 0.741399 0.175748
O O1 0.785054 0.975859 0.598063
O O2 0.493809 0.249552 0.132276
O O3 0.916083 0.875616 0.472674
O O4 0.001352 0.027452 0.307253
O O5 0.544942 0.735052 0.562746
O O6 0.916800 0.659179 0.403505
O O7 0.050082 0.483421 0.818533
O O8 0.933278 0.419387 0.770539
O O9 0.516646 0.294670 0.828479
O O10 0.716677 0.209930 0.665048
O O11 0.421238 0.198052 0.839182
O O12 0.881894 0.932492 0.162794
O O13 0.249803 0.578379 0.650482
O O14 0.251581 0.076557 0.079552
#
# Coordination Sequence:
#
# PCOD8043168 Si02
#       7
#     2   2   2   2   2   2   2
#     4  10  25  40  57  86 115 154 203 229 276 353
#     4  10  22  38  62  92 114 146 195 237 289 348
#     4   9  19  34  57  92 118 146 193 234 288 351
#     4  10  21  38  59  89 119 149 189 238 289 337
#     4  10  19  36  59  84 121 155 185 238 289 337
#     4  11  23  42  60  81 118 157 191 239 285 336
#     4  10  21  38  61  88 117 148 190 243 291 337
#
# _framework density 22.460760000000001
#
# number of rings (size 3 to 8) (size 9 to 14) (size 15 to 20)
#    0.000    2.000    0.000    2.571    0.000    9.714 
#    0.000   12.857    0.000    0.000    0.000    0.000 
#    0.000    0.000    0.000    0.000    0.000    0.000 
#
# Total GULP energy -173602.648542 kJ/mol
# GULP energy per Si atom -12400.189182 kJ/mol
# Density = 2.240964 g / cm^3
# Si number density = 22.460760 Si / 1000 Ang^3
#
#
#
# Elastic Constant Matrix: (Units=GPa)
#
#
# Indices 1 2 3 4 5 6 
#
# 1 65.7405 11.6056 23.1284 -4.1049 23.1708 -9.2594
# 2 11.6056 62.4691 12.9217 -13.8704 5.4708 1.1418
# 3 23.1284 12.9217 79.6411 -17.3413 10.4096 2.8222
# 4 -4.1049 -13.8704 -17.3413 30.5475 2.1840 9.4312
# 5 23.1708 5.4708 10.4096 2.1840 29.0661 -4.9568
# 6 -9.2594 1.1418 2.8222 9.4312 -4.9568 26.4646
#
#
#
# Elastic Compliance Matrix: (Units=1/GPa)
#
#
# Indices 1 2 3 4 5 6 
#
# 1 0.023675 -0.002540 -0.005111 -0.001863 -0.015275 0.006741
# 2 -0.002540 0.019237 0.000758 0.011091 -0.003803 -0.006464
# 3 -0.005111 0.000758 0.017705 0.012915 -0.004955 -0.009240
# 4 -0.001863 0.011091 0.012915 0.053203 -0.013312 -0.023961
# 5 -0.015275 -0.003803 -0.004955 -0.013312 0.051740 0.009783
# 6 0.006741 -0.006464 -0.009240 -0.023961 0.009783 0.051780
#
#
# Mechanical properties :
#
#
# Convention : Reuss Voigt Hill
#
# Bulk Modulus (GPa) = 21.35403 33.68467 27.51935
# Shear Modulus (GPa) = 20.26452 27.89530 24.07991
#
# Velocity S-wave (km/s) = 3.00695 3.52796 3.27783
# Velocity P-wave (km/s) = 4.64582 5.62362 5.15794
#
# Compressibility (1/GPa) = 0.04682957
#
# Stress axis : x y z
#
# Youngs Moduli (GPa) = 42.23911 51.98316 56.48141
#
# Poissons Ratio (x) = 0.13205 0.28868
# Poissons Ratio (y) = 0.10729 -0.04280
# Poissons Ratio (z) = 0.21589 -0.03939
#
# Static dielectric constant tensor:
#      x y z
#    x 3.919880 0.099530 0.369090 
#    y 0.099530 4.227380 -0.174260 
#    z 0.369090 -0.174260 3.983500 
# 
# 
# High freq. dielectric constant tensor:
#      x y z
#    x 1.880100 0.007210 0.022250 
#    y 0.007210 1.892120 -0.018290 
#    z 0.022250 -0.018290 1.872490 
# 
# From -- ./inp_files/405262.got.cif
#   From: 2010.06.25/outbox.cif.g09.slc.cpg/sg2_203_cif.got.tgz:405262.got - 2010.06.27 13:26:56.
