data_PCOD8043726
_publ_section_title
;
Structure prediction by ZEFSAII (Michael W. Deem and Ramdas Pophale) SiO2 
 PCOD8043726
Probable space group: P -1
;
_chemical_formula_sum "Si O2"
_cell_formula_units_Z 16
_cell_length_a 11.073757
_cell_length_b 9.312525
_cell_length_c 20.527443
_cell_angle_alpha 41.870462
_cell_angle_beta 148.249736
_cell_angle_gamma 126.545733
_cell_volume 739.191826
_symmetry_space_group_name_H-M "P -1"
_symmetry_group_IT_number 2
_symmetry_cell_setting 'triclinic'
loop_
_space_group_symop_operation_xyz
x,y,z
-x,-y,-z
loop_
_atom_site_type_symbol
_atom_site_label
_atom_site_fract_x
_atom_site_fract_y
_atom_site_fract_z
Si Si1 0.733562 0.264234 0.940214
Si Si2 0.600488 0.039971 0.601333
Si Si3 0.639279 0.701497 0.491243
Si Si4 0.094660 0.155701 0.766657
Si Si5 0.285037 0.147381 0.717310
Si Si6 0.052609 0.630552 0.619500
Si Si7 0.212234 0.333857 0.090909
Si Si8 0.555776 0.111325 0.235926
O O1 0.493001 0.291174 0.781810
O O2 0.735423 0.424334 0.948913
O O3 0.938854 0.314214 0.968493
O O4 0.765073 0.019225 0.063651
O O5 0.388253 0.180713 0.491710
O O6 0.822298 0.170549 0.650713
O O7 0.500000 0.000000 0.500000
O O8 0.671637 0.818328 0.747234
O O9 0.500000 0.500000 0.500000
O O10 0.904211 0.627995 0.618950
O O11 0.525501 0.869490 0.328337
O O12 0.151863 0.089349 0.740795
O O13 0.174222 0.390818 0.740510
O O14 0.105446 0.289454 0.541083
O O15 0.386457 0.921818 0.803273
O O16 0.240738 0.795290 0.661709
O O17 0.320797 0.265641 0.092666
#
# Coordination Sequence:
#
# PCOD8043726 Si02
#       8
#     2   2   2   2   2   2   2   2
#     4  10  22  42  63  87 120 167 207 253 300 369
#     4  10  22  33  62  93 121 154 205 257 303 358
#     4  10  19  37  57  87 125 155 196 247 308 358
#     4  11  23  39  59  93 122 163 208 251 305 364
#     4  11  23  37  64  89 123 159 210 245 308 370
#     4  11  23  40  63  92 129 162 198 259 313 358
#     4   9  21  42  63  83 127 162 202 253 312 358
#     4  10  23  39  63  92 124 163 199 260 311 358
#
# _framework density 21.645261999999999
#
# number of rings (size 3 to 8) (size 9 to 14) (size 15 to 20)
#    0.000    1.750    1.250    3.000    7.000    0.500 
#    0.000    2.500    2.750    0.000    0.000    0.000 
#    0.000    0.000    0.000    0.000    0.000    0.000 
#
# Total GULP energy -198358.535500 kJ/mol
# GULP energy per Si atom -12397.408469 kJ/mol
# Density = 2.159600 g / cm^3
# Si number density = 21.645262 Si / 1000 Ang^3
#
#
#
# Elastic Constant Matrix: (Units=GPa)
#
#
# Indices 1 2 3 4 5 6 
#
# 1 136.3359 28.1038 16.9871 -2.8999 19.2360 -20.0427
# 2 28.1038 94.5528 31.8787 -5.8139 1.7896 1.5933
# 3 16.9871 31.8787 43.1175 1.5012 6.0976 3.5750
# 4 -2.8999 -5.8139 1.5012 29.8784 -6.9559 8.9330
# 5 19.2360 1.7896 6.0976 -6.9559 25.2792 -2.5666
# 6 -20.0427 1.5933 3.5750 8.9330 -2.5666 39.4181
#
#
#
# Elastic Compliance Matrix: (Units=1/GPa)
#
#
# Indices 1 2 3 4 5 6 
#
# 1 0.009765 -0.002603 -0.001257 -0.002760 -0.007160 0.005344
# 2 -0.002603 0.015290 -0.010971 0.004894 0.004714 -0.001749
# 3 -0.001257 -0.010971 0.033312 -0.005002 -0.007942 -0.002601
# 4 -0.002760 0.004894 -0.005002 0.040268 0.013084 -0.009421
# 5 -0.007160 0.004714 -0.007942 0.013084 0.049902 -0.002827
# 6 0.005344 -0.001749 -0.002601 -0.009421 -0.002827 0.030344
#
#
# Mechanical properties :
#
#
# Convention : Reuss Voigt Hill
#
# Bulk Modulus (GPa) = 34.83720 47.54950 41.19335
# Shear Modulus (GPa) = 22.92416 32.05091 27.48754
#
# Velocity S-wave (km/s) = 3.25789 3.85221 3.56745
# Velocity P-wave (km/s) = 5.50285 6.46539 6.00344
#
# Compressibility (1/GPa) = 0.02870495
#
# Stress axis : x y z
#
# Youngs Moduli (GPa) = 102.40535 65.40300 30.01910
#
# Poissons Ratio (x) = 0.17023 0.03774
# Poissons Ratio (y) = 0.26655 0.32934
# Poissons Ratio (z) = 0.12874 0.71754
#
# Static dielectric constant tensor:
#      x y z
#    x 4.958190 -0.190730 0.670120 
#    y -0.190730 4.051190 -0.218060 
#    z 0.670120 -0.218060 3.773420 
# 
# 
# High freq. dielectric constant tensor:
#      x y z
#    x 1.868940 -0.002190 0.025040 
#    y -0.002190 1.854400 -0.010530 
#    z 0.025040 -0.010530 1.816310 
# 
# From -- ./inp_files/342714.got.cif
#   From: 2010.06.25/outbox.cif.g09.slc.cpg/sg2_172_cif.got.tgz:342714.got - 2010.06.27 13:26:56.
