data_PCOD8043184
_publ_section_title
;
Structure prediction by ZEFSAII (Michael W. Deem and Ramdas Pophale) SiO2 
 PCOD8043184
Probable space group: P -1
;
_chemical_formula_sum "Si O2"
_cell_formula_units_Z 12
_cell_length_a 10.381313
_cell_length_b 10.929941
_cell_length_c 8.938637
_cell_angle_alpha 58.959484
_cell_angle_beta 132.422694
_cell_angle_gamma 141.017024
_cell_volume 470.916564
_symmetry_space_group_name_H-M "P -1"
_symmetry_group_IT_number 2
_symmetry_cell_setting 'triclinic'
loop_
_space_group_symop_operation_xyz
x,y,z
-x,-y,-z
loop_
_atom_site_type_symbol
_atom_site_label
_atom_site_fract_x
_atom_site_fract_y
_atom_site_fract_z
Si Si1 0.102799 0.383806 0.763218
Si Si2 0.931357 0.570303 0.626338
Si Si3 0.436423 0.185894 0.572081
Si Si4 0.253930 0.945579 0.837466
Si Si5 0.349165 0.982414 0.213732
Si Si6 0.249683 0.194809 0.134076
O O1 0.160957 0.413804 0.612609
O O2 0.121070 0.550773 0.747739
O O3 0.831727 0.180933 0.701771
O O4 0.288186 0.378689 0.993814
O O5 0.707771 0.387372 0.660921
O O6 0.045669 0.746349 0.716405
O O7 0.437741 0.014315 0.639845
O O8 0.273879 0.193166 0.333062
O O9 0.310009 0.123425 0.676002
O O10 0.192261 0.931925 0.972651
O O11 0.500000 0.000000 0.000000
O O12 0.445709 0.190638 0.220510
O O13 0.000000 0.000000 0.000000
#
# Coordination Sequence:
#
# PCOD8043184 Si02
#       6
#     2   2   2   2   2   2
#     4   9  20  37  60  85 114 150 189 242 283 327
#     4  10  21  40  61  85 115 148 196 236 280 343
#     4  10  21  37  60  86 114 154 190 233 286 334
#     4  10  21  37  61  86 114 153 190 233 284 341
#     4   9  19  35  61  87 114 151 189 233 286 341
#     4  10  19  36  59  87 117 146 193 238 282 338
#
# _framework density 25.482220999999999
#
# number of rings (size 3 to 8) (size 9 to 14) (size 15 to 20)
#    0.000    2.333    0.000    2.500    0.000   13.333 
#    0.000    7.500    0.000   13.000    0.000    0.000 
#    0.000    0.000    0.000    0.000    0.000    0.000 
#
# Total GULP energy -148687.852783 kJ/mol
# GULP energy per Si atom -12390.654399 kJ/mol
# Density = 2.542422 g / cm^3
# Si number density = 25.482221 Si / 1000 Ang^3
#
#
#
# Elastic Constant Matrix: (Units=GPa)
#
#
# Indices 1 2 3 4 5 6 
#
# 1 17.3598 19.8864 18.0817 -13.6796 -10.3479 0.3424
# 2 19.8864 57.8749 52.1891 -11.9542 -21.6175 1.9324
# 3 18.0817 52.1891 176.0906 -30.7214 -13.5916 -14.0278
# 4 -13.6796 -11.9542 -30.7214 45.9853 -3.4069 5.3208
# 5 -10.3479 -21.6175 -13.5916 -3.4069 46.8948 -3.6324
# 6 0.3424 1.9324 -14.0278 5.3208 -3.6324 28.6023
#
#
#
# Elastic Compliance Matrix: (Units=1/GPa)
#
#
# Indices 1 2 3 4 5 6 
#
# 1 0.129713 -0.035435 0.004134 0.033465 0.015813 -0.001348
# 2 -0.035435 0.038887 -0.008621 -0.005149 0.006878 -0.004599
# 3 0.004134 -0.008621 0.008933 0.004495 0.000172 0.004100
# 4 0.033465 -0.005149 0.004495 0.034365 0.008566 -0.003153
# 5 0.015813 0.006878 0.000172 0.008566 0.028772 0.001491
# 6 -0.001348 -0.004599 0.004100 -0.003153 0.001491 0.038076
#
#
# Mechanical properties :
#
#
# Convention : Reuss Voigt Hill
#
# Bulk Modulus (GPa) = 10.23638 47.95998 29.09818
# Shear Modulus (GPa) = 12.78270 35.04100 23.91185
#
# Velocity S-wave (km/s) = 2.24214 3.71228 3.06661
# Velocity P-wave (km/s) = 3.27548 6.10217 4.89720
#
# Compressibility (1/GPa) = 0.09769080
#
# Stress axis : x y z
#
# Youngs Moduli (GPa) = 7.70931 25.71535 111.93899
#
# Poissons Ratio (x) = 0.91123 -0.46277
# Poissons Ratio (y) = 0.27318 0.96498
# Poissons Ratio (z) = -0.03187 0.22168
#
# Static dielectric constant tensor:
#      x y z
#    x 5.416790 -0.289870 -0.342000 
#    y -0.289870 4.472430 -0.594700 
#    z -0.342000 -0.594700 5.347750 
# 
# 
# High freq. dielectric constant tensor:
#      x y z
#    x 1.997750 0.013810 -0.005780 
#    y 0.013810 1.999240 -0.020130 
#    z -0.005780 -0.020130 2.033250 
# 
# From -- ./inp_files/154391.got.cif
#   From: 2010.06.25/outbox.cif.g09.slc.cpg/sg2_78_cif.got.tgz:154391.got - 2010.06.27 13:26:56.
