data_PCOD8043844
_publ_section_title
;
Structure prediction by ZEFSAII (Michael W. Deem and Ramdas Pophale) SiO2 
 PCOD8043844
Probable space group: P -1
;
_chemical_formula_sum "Si O2"
_cell_formula_units_Z 14
_cell_length_a 14.513372
_cell_length_b 6.625923
_cell_length_c 20.216448
_cell_angle_alpha 75.506459
_cell_angle_beta 30.609777
_cell_angle_gamma 97.923492
_cell_volume 668.526547
_symmetry_space_group_name_H-M "P -1"
_symmetry_group_IT_number 2
_symmetry_cell_setting 'triclinic'
loop_
_space_group_symop_operation_xyz
x,y,z
-x,-y,-z
loop_
_atom_site_type_symbol
_atom_site_label
_atom_site_fract_x
_atom_site_fract_y
_atom_site_fract_z
Si Si1 0.161788 0.926059 0.404105
Si Si2 0.035945 0.877917 0.223080
Si Si3 0.490675 0.560816 0.575799
Si Si4 0.037244 0.408305 0.577943
Si Si5 0.621647 0.761614 0.202799
Si Si6 0.289024 0.446093 0.953570
Si Si7 0.019807 0.413619 0.851811
O O1 0.047960 0.669604 0.549684
O O2 0.145306 0.814218 0.350817
O O3 0.459390 0.214761 0.212103
O O4 0.000000 0.000000 0.500000
O O5 0.788356 0.827275 0.393690
O O6 0.098889 0.792585 0.255583
O O7 0.982507 0.667940 0.215482
O O8 0.269579 0.227279 0.031670
O O9 0.500000 0.500000 0.500000
O O10 0.361182 0.279964 0.726738
O O11 0.309145 0.617066 0.687139
O O12 0.330048 0.569427 0.374934
O O13 0.713449 0.638088 0.113198
O O14 0.806215 0.111251 0.050443
O O15 0.041038 0.391978 0.121285
#
# Coordination Sequence:
#
# PCOD8043844 Si02
#       7
#     2   2   2   2   2   2   2
#     4  11  22  38  62  87 114 151 197 239 291 349
#     4   9  22  39  58  86 121 151 192 239 287 343
#     4   9  19  38  59  85 119 160 188 234 287 342
#     4  10  21  39  61  85 114 155 195 237 289 346
#     4  10  19  37  60  85 118 151 198 234 285 347
#     4  11  22  37  59  89 117 152 193 244 285 340
#     4  10  20  37  59  85 119 156 191 237 288 337
#
# _framework density 20.941575
#
# number of rings (size 3 to 8) (size 9 to 14) (size 15 to 20)
#    0.000    2.000    2.857    0.429    0.000    2.857 
#    0.000    1.429    0.000    0.000    0.000    0.000 
#    0.000    0.000    0.000    0.000    0.000    0.000 
#
# Total GULP energy -173530.291437 kJ/mol
# GULP energy per Si atom -12395.020817 kJ/mol
# Density = 2.089391 g / cm^3
# Si number density = 20.941575 Si / 1000 Ang^3
#
#
#
# Elastic Constant Matrix: (Units=GPa)
#
#
# Indices 1 2 3 4 5 6 
#
# 1 112.9006 37.6461 36.2699 -9.4675 32.0641 -15.4809
# 2 37.6461 105.4774 28.4558 1.0252 11.8320 -21.8172
# 3 36.2699 28.4558 64.2690 -2.3435 25.9047 -4.1205
# 4 -9.4675 1.0252 -2.3435 31.8632 -9.6004 -5.9491
# 5 32.0641 11.8320 25.9047 -9.6004 40.2460 0.9621
# 6 -15.4809 -21.8172 -4.1205 -5.9491 0.9621 25.0585
#
#
#
# Elastic Compliance Matrix: (Units=1/GPa)
#
#
# Indices 1 2 3 4 5 6 
#
# 1 0.014085 -0.001643 -0.003379 0.003015 -0.008030 0.007739
# 2 -0.001643 0.013284 -0.004336 0.000665 0.000114 0.009991
# 3 -0.003379 -0.004336 0.024057 -0.003188 -0.012226 -0.002194
# 4 0.003015 0.000665 -0.003188 0.036307 0.007870 0.010235
# 5 -0.008030 0.000114 -0.012226 0.007870 0.041115 -0.006582
# 6 0.007739 0.009991 -0.002194 0.010235 -0.006582 0.055709
#
#
# Mechanical properties :
#
#
# Convention : Reuss Voigt Hill
#
# Bulk Modulus (GPa) = 30.57047 54.15449 42.36248
# Shear Modulus (GPa) = 23.34531 31.45188 27.39860
#
# Velocity S-wave (km/s) = 3.34246 3.87962 3.62102
# Velocity P-wave (km/s) = 5.43376 6.78119 6.14452
#
# Compressibility (1/GPa) = 0.03271131
#
# Stress axis : x y z
#
# Youngs Moduli (GPa) = 70.99600 75.27731 41.56798
#
# Poissons Ratio (x) = 0.12371 0.14044
# Poissons Ratio (y) = 0.11668 0.18022
# Poissons Ratio (z) = 0.23987 0.32636
#
# Static dielectric constant tensor:
#      x y z
#    x 4.052330 -0.211370 -0.134530 
#    y -0.211370 3.631710 0.071050 
#    z -0.134530 0.071050 4.070080 
# 
# 
# High freq. dielectric constant tensor:
#      x y z
#    x 1.821650 -0.016580 0.004340 
#    y -0.016580 1.802120 0.002740 
#    z 0.004340 0.002740 1.824970 
# 
# From -- ./inp_files/32373.got.cif
#   From: 2010.06.25/outbox.cif.g09.slc.cpg/sg2_17_cif.got.tgz:32373.got - 2010.06.27 13:26:56.
