data_PCOD8043206
_publ_section_title
;
Structure prediction by ZEFSAII (Michael W. Deem and Ramdas Pophale) SiO2 
 PCOD8043206
Probable space group: P -1
;
_chemical_formula_sum "Si O2"
_cell_formula_units_Z 14
_cell_length_a 8.740927
_cell_length_b 11.084623
_cell_length_c 9.895541
_cell_angle_alpha 67.223916
_cell_angle_beta 73.295461
_cell_angle_gamma 111.387766
_cell_volume 713.217675
_symmetry_space_group_name_H-M "P -1"
_symmetry_group_IT_number 2
_symmetry_cell_setting 'triclinic'
loop_
_space_group_symop_operation_xyz
x,y,z
-x,-y,-z
loop_
_atom_site_type_symbol
_atom_site_label
_atom_site_fract_x
_atom_site_fract_y
_atom_site_fract_z
Si Si1 0.422587 0.334341 0.658135
Si Si2 0.967601 0.280490 0.517914
Si Si3 0.241068 0.624063 0.279883
Si Si4 0.471566 0.106839 0.059823
Si Si5 0.155016 0.087157 0.624306
Si Si6 0.646023 0.015550 0.567318
Si Si7 0.863349 0.878674 0.977187
O O1 0.500000 0.500000 0.500000
O O2 0.604437 0.336268 0.661379
O O3 0.326826 0.197603 0.632912
O O4 0.268761 0.290253 0.841096
O O5 0.895511 0.320683 0.655421
O O6 0.800760 0.194765 0.487023
O O7 0.130598 0.444076 0.343337
O O8 0.045112 0.172139 0.581818
O O9 0.349812 0.717034 0.077180
O O10 0.273262 0.077713 0.076706
O O11 0.471162 0.068949 0.232378
O O12 0.500000 0.000000 0.000000
O O13 0.243911 0.065206 0.476618
O O14 0.012355 0.913292 0.802240
O O15 0.500000 0.000000 0.500000
O O16 0.000000 0.000000 0.000000
#
# Coordination Sequence:
#
# PCOD8043206 Si02
#       7
#     2   2   2   2   2   2   2
#     4  10  19  36  59  93 127 158 201 254 309 363
#     4  11  21  39  62  89 121 162 203 261 302 363
#     4  10  21  38  63  91 119 157 212 254 305 358
#     4  11  21  40  63  90 119 162 212 251 301 370
#     4  11  21  39  59  91 125 158 208 252 311 367
#     4  12  26  41  62  89 128 167 201 258 317 368
#     4   9  20  33  60  89 117 156 203 251 291 361
#
# _framework density 19.629352000000001
#
# number of rings (size 3 to 8) (size 9 to 14) (size 15 to 20)
#    0.000    1.429    4.286    1.286    4.000    0.000 
#    0.000    2.857    0.000    0.000    0.000    0.000 
#    0.000    0.000    0.000    0.000    0.000    0.000 
#
# Total GULP energy -173437.211068 kJ/mol
# GULP energy per Si atom -12388.372219 kJ/mol
# Density = 1.958468 g / cm^3
# Si number density = 19.629352 Si / 1000 Ang^3
#
#
#
# Elastic Constant Matrix: (Units=GPa)
#
#
# Indices 1 2 3 4 5 6 
#
# 1 80.2506 31.0902 50.4309 -7.6460 3.9018 15.0127
# 2 31.0902 92.1602 71.3199 -16.2014 -7.0152 12.6253
# 3 50.4309 71.3199 180.3381 -17.3449 -5.2047 1.6753
# 4 -7.6460 -16.2014 -17.3449 36.8083 5.6349 -6.7512
# 5 3.9018 -7.0152 -5.2047 5.6349 30.1143 3.5095
# 6 15.0127 12.6253 1.6753 -6.7512 3.5095 36.4832
#
#
#
# Elastic Compliance Matrix: (Units=1/GPa)
#
#
# Indices 1 2 3 4 5 6 
#
# 1 0.016966 -0.002065 -0.003942 0.000107 -0.002704 -0.005806
# 2 -0.002065 0.017591 -0.005938 0.003149 0.003298 -0.004700
# 3 -0.003942 -0.005938 0.009108 0.001507 0.000007 0.003537
# 4 0.000107 0.003149 0.001507 0.031044 -0.005419 0.005063
# 5 -0.002704 0.003298 0.000007 -0.005419 0.035863 -0.004481
# 6 -0.005806 -0.004700 0.003537 0.005063 -0.004481 0.032631
#
#
# Mechanical properties :
#
#
# Convention : Reuss Voigt Hill
#
# Bulk Modulus (GPa) = 50.56574 73.15900 61.86237
# Shear Modulus (GPa) = 28.78822 34.00835 31.39829
#
# Velocity S-wave (km/s) = 3.83376 4.16688 4.00379
# Velocity P-wave (km/s) = 6.73893 7.77828 7.27718
#
# Compressibility (1/GPa) = 0.01977623
#
# Stress axis : x y z
#
# Youngs Moduli (GPa) = 58.94266 56.84885 109.79447
#
# Poissons Ratio (x) = 0.11737 0.43277
# Poissons Ratio (y) = 0.12170 0.65192
# Poissons Ratio (z) = 0.23233 0.33755
#
# Static dielectric constant tensor:
#      x y z
#    x 3.737210 0.196780 -0.238920 
#    y 0.196780 3.504430 -0.292710 
#    z -0.238920 -0.292710 4.174210 
# 
# 
# High freq. dielectric constant tensor:
#      x y z
#    x 1.777080 0.018380 -0.012000 
#    y 0.018380 1.734940 -0.016470 
#    z -0.012000 -0.016470 1.776730 
# 
# From -- ./inp_files/176160.got.cif
#   From: 2010.06.25/outbox.cif.g09.slc.cpg/sg2_89_cif.got.tgz:176160.got - 2010.06.27 13:26:56.
