data_PCOD8043934
_publ_section_title
;
Structure prediction by ZEFSAII (Michael W. Deem and Ramdas Pophale) SiO2 
 PCOD8043934
Probable space group: P -1
;
_chemical_formula_sum "Si O2"
_cell_formula_units_Z 14
_cell_length_a 11.871145
_cell_length_b 9.659820
_cell_length_c 9.049743
_cell_angle_alpha 59.435697
_cell_angle_beta 128.449472
_cell_angle_gamma 98.405892
_cell_volume 677.202303
_symmetry_space_group_name_H-M "P -1"
_symmetry_group_IT_number 2
_symmetry_cell_setting 'triclinic'
loop_
_space_group_symop_operation_xyz
x,y,z
-x,-y,-z
loop_
_atom_site_type_symbol
_atom_site_label
_atom_site_fract_x
_atom_site_fract_y
_atom_site_fract_z
Si Si1 0.671321 0.683494 0.343718
Si Si2 0.502549 0.323849 0.529901
Si Si3 0.097920 0.176805 0.679079
Si Si4 0.836224 0.181982 0.946129
Si Si5 0.885144 0.360742 0.176209
Si Si6 0.955773 0.382981 0.722890
Si Si7 0.441537 0.532314 0.095788
O O1 0.627611 0.735479 0.452697
O O2 0.734199 0.822279 0.234568
O O3 0.792090 0.507652 0.516313
O O4 0.517293 0.667813 0.155821
O O5 0.500000 0.500000 0.500000
O O6 0.463994 0.361226 0.304479
O O7 0.664929 0.199835 0.750763
O O8 0.000300 0.208703 0.433121
O O9 0.029665 0.330207 0.651474
O O10 0.095842 0.002325 0.840654
O O11 0.858215 0.318505 0.008200
O O12 0.935062 0.213493 0.871685
O O13 0.939388 0.530246 0.141079
O O14 0.729597 0.383382 0.117446
O O15 0.500000 0.500000 0.000000
#
# Coordination Sequence:
#
# PCOD8043934 Si02
#       7
#     2   2   2   2   2   2   2
#     4  10  19  40  62  84 120 160 208 240 290 372
#     4  10  19  37  61  88 113 160 208 241 296 349
#     4  11  25  38  60  94 129 158 194 251 318 347
#     4  12  22  40  62  92 126 159 199 254 302 361
#     4  11  22  38  62  91 117 161 211 241 294 361
#     4  11  21  40  63  89 119 164 205 248 295 363
#     4  11  19  35  64  90 114 149 211 255 284 346
#
# _framework density 20.673290000000001
#
# number of rings (size 3 to 8) (size 9 to 14) (size 15 to 20)
#    0.000    1.143    5.714    4.714    0.000    1.714 
#    0.000    0.000    0.000    1.714    0.000    0.000 
#    0.000    0.000    0.000    0.000    0.000    0.000 
#
# Total GULP energy -173508.166068 kJ/mol
# GULP energy per Si atom -12393.440433 kJ/mol
# Density = 2.062624 g / cm^3
# Si number density = 20.673290 Si / 1000 Ang^3
#
#
#
# Elastic Constant Matrix: (Units=GPa)
#
#
# Indices 1 2 3 4 5 6 
#
# 1 133.8648 20.1262 30.6953 7.0626 -3.4778 10.2494
# 2 20.1262 45.4185 11.9365 -1.8760 -0.5833 11.5911
# 3 30.6953 11.9365 68.2845 -1.6592 -1.8792 11.9275
# 4 7.0626 -1.8760 -1.6592 20.4049 1.7728 -8.1071
# 5 -3.4778 -0.5833 -1.8792 1.7728 39.7495 7.9625
# 6 10.2494 11.5911 11.9275 -8.1071 7.9625 35.2777
#
#
#
# Elastic Compliance Matrix: (Units=1/GPa)
#
#
# Indices 1 2 3 4 5 6 
#
# 1 0.009074 -0.002837 -0.003332 -0.004522 0.001173 -0.001882
# 2 -0.002837 0.025651 -0.001896 0.000173 0.001485 -0.007258
# 3 -0.003332 -0.001896 0.017301 0.000498 0.001368 -0.004453
# 4 -0.004522 0.000173 0.000498 0.057370 -0.006061 0.015641
# 5 0.001173 0.001485 0.001368 -0.006061 0.027393 -0.008867
# 6 -0.001882 -0.007258 -0.004453 0.015641 -0.008867 0.038380
#
#
# Mechanical properties :
#
#
# Convention : Reuss Voigt Hill
#
# Bulk Modulus (GPa) = 27.85706 41.45376 34.65541
# Shear Modulus (GPa) = 24.59843 31.40708 28.00275
#
# Velocity S-wave (km/s) = 3.45318 3.90193 3.68440
# Velocity P-wave (km/s) = 5.42250 6.35574 5.90758
#
# Compressibility (1/GPa) = 0.03589754
#
# Stress axis : x y z
#
# Youngs Moduli (GPa) = 110.20674 38.98427 57.79879
#
# Poissons Ratio (x) = 0.11059 0.19258
# Poissons Ratio (y) = 0.31262 0.10958
# Poissons Ratio (z) = 0.36720 0.07391
#
# Static dielectric constant tensor:
#      x y z
#    x 4.556780 0.092570 -0.248080 
#    y 0.092570 3.321090 0.107570 
#    z -0.248080 0.107570 3.432930 
# 
# 
# High freq. dielectric constant tensor:
#      x y z
#    x 1.838800 0.007150 -0.007340 
#    y 0.007150 1.761040 0.009090 
#    z -0.007340 0.009090 1.806530 
# 
# From -- ./inp_files/156575.got.cif
#   From: 2010.06.25/outbox.cif.g09.slc.cpg/sg2_79_cif.got.tgz:156575.got - 2010.06.27 13:26:56.
