data_PCOD8043406
_publ_section_title
;
Structure prediction by ZEFSAII (Michael W. Deem and Ramdas Pophale) SiO2 
 PCOD8043406
Probable space group: P -1
;
_chemical_formula_sum "Si O2"
_cell_formula_units_Z 16
_cell_length_a 16.920140
_cell_length_b 9.781246
_cell_length_c 11.643154
_cell_angle_alpha 55.858258
_cell_angle_beta 131.919222
_cell_angle_gamma 83.636029
_cell_volume 729.351743
_symmetry_space_group_name_H-M "P -1"
_symmetry_group_IT_number 2
_symmetry_cell_setting 'triclinic'
loop_
_space_group_symop_operation_xyz
x,y,z
-x,-y,-z
loop_
_atom_site_type_symbol
_atom_site_label
_atom_site_fract_x
_atom_site_fract_y
_atom_site_fract_z
Si Si1 0.510716 0.197349 0.648759
Si Si2 0.789411 0.618679 0.159884
Si Si3 0.777211 0.679811 0.605767
Si Si4 0.139230 0.967962 0.127674
Si Si5 0.089521 0.456664 0.444880
Si Si6 0.859602 0.906835 0.692549
Si Si7 0.926534 0.118589 0.498007
Si Si8 0.723569 0.236447 0.876514
O O1 0.392747 0.224254 0.600256
O O2 0.635804 0.168244 0.857449
O O3 0.388004 0.469119 0.324152
O O4 0.630178 0.927961 0.812972
O O5 0.783488 0.654853 0.274644
O O6 0.772531 0.444736 0.195297
O O7 0.974272 0.438239 0.369937
O O8 0.799241 0.712728 0.481002
O O9 0.757932 0.865454 0.579334
O O10 0.939516 0.374442 0.951732
O O11 0.226524 0.912979 0.360017
O O12 0.281677 0.736069 0.282091
O O13 0.046258 0.232450 0.851033
O O14 0.000000 0.000000 0.000000
O O15 0.848902 0.047336 0.510208
O O16 0.000000 0.000000 0.500000
O O17 0.080979 0.999612 0.781631
#
# Coordination Sequence:
#
# PCOD8043406 Si02
#       8
#     2   2   2   2   2   2   2   2
#     4  11  23  39  64  95 136 160 203 280 325 378
#     4  11  21  38  61  96 127 163 214 261 322 378
#     4  10  21  40  63  93 129 167 216 262 321 377
#     4  11  17  35  66  91 117 161 223 269 291 367
#     4  10  19  36  62  88 122 173 215 254 304 388
#     4  10  21  38  65  93 121 167 226 259 304 384
#     4  12  23  41  66  94 127 174 218 261 309 393
#     4  11  21  41  63  98 127 165 220 256 327 381
#
# _framework density 21.937290999999998
#
# number of rings (size 3 to 8) (size 9 to 14) (size 15 to 20)
#    0.000    1.250    5.000    2.250    0.000    0.500 
#    0.000    4.375    0.000    0.000    0.000    0.000 
#    0.000    0.000    0.000    0.000    0.000    0.000 
#
# Total GULP energy -198303.685407 kJ/mol
# GULP energy per Si atom -12393.980338 kJ/mol
# Density = 2.188736 g / cm^3
# Si number density = 21.937291 Si / 1000 Ang^3
#
#
#
# Elastic Constant Matrix: (Units=GPa)
#
#
# Indices 1 2 3 4 5 6 
#
# 1 118.0146 57.9309 16.7489 6.6723 -2.8853 2.6990
# 2 57.9309 122.3495 29.3407 -13.9152 -9.4391 -5.2645
# 3 16.7489 29.3407 46.6222 -24.1941 -1.6602 4.0694
# 4 6.6723 -13.9152 -24.1941 32.0167 7.9070 -6.4678
# 5 -2.8853 -9.4391 -1.6602 7.9070 32.0706 -0.0449
# 6 2.6990 -5.2645 4.0694 -6.4678 -0.0449 37.9392
#
#
#
# Elastic Compliance Matrix: (Units=1/GPa)
#
#
# Indices 1 2 3 4 5 6 
#
# 1 0.013024 -0.005871 -0.006485 -0.011226 0.001872 -0.002957
# 2 -0.005871 0.012669 -0.004122 0.003765 0.002064 0.003262
# 3 -0.006485 -0.004122 0.044292 0.035287 -0.008202 0.001145
# 4 -0.011226 0.003765 0.035287 0.067312 -0.014658 0.008994
# 5 0.001872 0.002064 -0.008202 -0.014658 0.035144 -0.001424
# 6 -0.002957 0.003262 0.001145 0.008994 -0.001424 0.028430
#
#
# Mechanical properties :
#
#
# Convention : Reuss Voigt Hill
#
# Bulk Modulus (GPa) = 27.00443 55.00303 41.00373
# Shear Modulus (GPa) = 20.31113 32.60301 26.45707
#
# Velocity S-wave (km/s) = 3.04612 3.85930 3.47656
# Velocity P-wave (km/s) = 4.97075 6.70717 5.90316
#
# Compressibility (1/GPa) = 0.03703096
#
# Stress axis : x y z
#
# Youngs Moduli (GPa) = 76.78161 78.93052 22.57719
#
# Poissons Ratio (x) = 0.46341 0.14641
# Poissons Ratio (y) = 0.45080 0.09305
# Poissons Ratio (z) = 0.49790 0.32532
#
# Static dielectric constant tensor:
#      x y z
#    x 3.911090 0.030170 -0.126590 
#    y 0.030170 4.097560 -0.213620 
#    z -0.126590 -0.213620 3.775740 
# 
# 
# High freq. dielectric constant tensor:
#      x y z
#    x 1.866960 0.015340 -0.009320 
#    y 0.015340 1.859690 -0.025220 
#    z -0.009320 -0.025220 1.829710 
# 
# From -- ./inp_files/461110.got.cif
#   From: 2010.06.25/outbox.cif.g09.slc.cpg/sg2_231_cif.got.tgz:461110.got - 2010.06.27 13:26:56.
