data_PCOD8043946
_publ_section_title
;
Structure prediction by ZEFSAII (Michael W. Deem and Ramdas Pophale) SiO2 
 PCOD8043946
Probable space group: P -1
;
_chemical_formula_sum "Si O2"
_cell_formula_units_Z 16
_cell_length_a 24.102128
_cell_length_b 8.207976
_cell_length_c 9.914165
_cell_angle_alpha 103.371382
_cell_angle_beta 44.545069
_cell_angle_gamma 137.527504
_cell_volume 727.712645
_symmetry_space_group_name_H-M "P -1"
_symmetry_group_IT_number 2
_symmetry_cell_setting 'triclinic'
loop_
_space_group_symop_operation_xyz
x,y,z
-x,-y,-z
loop_
_atom_site_type_symbol
_atom_site_label
_atom_site_fract_x
_atom_site_fract_y
_atom_site_fract_z
Si Si1 0.149860 0.406781 0.525863
Si Si2 0.250447 0.859261 0.919344
Si Si3 0.287624 0.141867 0.384083
Si Si4 0.030547 0.702315 0.377483
Si Si5 0.985166 0.158237 0.310489
Si Si6 0.662106 0.029469 0.514992
Si Si7 0.592170 0.223523 0.006686
Si Si8 0.427656 0.162351 0.923983
O O1 0.242262 0.644588 0.535557
O O2 0.092919 0.463856 0.548150
O O3 0.026332 0.063550 0.737582
O O4 0.247035 0.457428 0.270091
O O5 0.312550 0.951415 0.681554
O O6 0.387843 0.127774 0.831660
O O7 0.162859 0.878040 0.088159
O O8 0.146862 0.515016 0.067903
O O9 0.408207 0.502240 0.252818
O O10 0.129126 0.941092 0.602018
O O11 0.292405 0.056164 0.501784
O O12 0.318342 0.068827 0.193989
O O13 0.057380 0.905459 0.468822
O O14 0.000000 0.500000 0.500000
O O15 0.488628 0.758339 0.785708
O O16 0.598750 0.082392 0.072142
O O17 0.500000 0.000000 0.000000
#
# Coordination Sequence:
#
# PCOD8043946 Si02
#       8
#     2   2   2   2   2   2   2   2
#     4  11  22  38  63  98 126 170 220 261 316 382
#     4  11  25  42  63  95 137 169 207 267 331 384
#     4  11  22  39  68  93 121 170 220 263 315 382
#     4  10  20  38  62  90 127 164 212 262 313 373
#     4  11  23  39  66  97 127 169 216 269 317 379
#     4  11  24  40  63  95 132 172 209 266 329 385
#     4  10  19  37  61  89 125 161 213 265 306 375
#     4  11  22  40  65  94 124 167 217 266 315 382
#
# _framework density 21.986698000000001
#
# number of rings (size 3 to 8) (size 9 to 14) (size 15 to 20)
#    0.000    1.250    3.750    4.875    1.750    3.500 
#    0.000    1.250    0.000    0.000    0.000    0.000 
#    0.000    0.000    0.000    0.000    0.000    0.000 
#
# Total GULP energy -198249.285643 kJ/mol
# GULP energy per Si atom -12390.580353 kJ/mol
# Density = 2.193666 g / cm^3
# Si number density = 21.986698 Si / 1000 Ang^3
#
#
#
# Elastic Constant Matrix: (Units=GPa)
#
#
# Indices 1 2 3 4 5 6 
#
# 1 101.1690 17.2529 24.3159 17.2271 1.3115 20.1268
# 2 17.2529 41.9256 7.6817 3.1667 12.7495 14.4603
# 3 24.3159 7.6817 76.1536 23.4914 9.3602 20.5570
# 4 17.2271 3.1667 23.4914 31.6071 5.8765 8.4262
# 5 1.3115 12.7495 9.3602 5.8765 31.1810 -2.2455
# 6 20.1268 14.4603 20.5570 8.4262 -2.2455 33.6947
#
#
#
# Elastic Compliance Matrix: (Units=1/GPa)
#
#
# Indices 1 2 3 4 5 6 
#
# 1 0.012373 -0.003912 -0.001396 -0.004774 0.002144 -0.003524
# 2 -0.003912 0.035768 0.003165 0.003990 -0.017394 -0.017101
# 3 -0.001396 0.003165 0.020108 -0.010565 -0.006040 -0.010553
# 4 -0.004774 0.003990 -0.010565 0.043995 -0.006829 -0.003872
# 5 0.002144 -0.017394 -0.006040 -0.006829 0.043234 0.014458
# 6 -0.003524 -0.017101 -0.010553 -0.003872 0.014458 0.047492
#
#
# Mechanical properties :
#
#
# Convention : Reuss Voigt Hill
#
# Bulk Modulus (GPa) = 15.63416 35.30548 25.46982
# Shear Modulus (GPa) = 21.87436 30.62973 26.25204
#
# Velocity S-wave (km/s) = 3.15761 3.73648 3.45917
# Velocity P-wave (km/s) = 4.51887 5.89131 5.25013
#
# Compressibility (1/GPa) = 0.06396249
#
# Stress axis : x y z
#
# Youngs Moduli (GPa) = 80.82000 27.95772 49.73188
#
# Poissons Ratio (x) = 0.10937 0.06942
# Poissons Ratio (y) = 0.31618 -0.15739
# Poissons Ratio (z) = 0.11282 -0.08848
#
# Static dielectric constant tensor:
#      x y z
#    x 3.781270 0.130040 -0.068760 
#    y 0.130040 3.969100 -0.055840 
#    z -0.068760 -0.055840 3.844460 
# 
# 
# High freq. dielectric constant tensor:
#      x y z
#    x 1.875080 0.003470 -0.007810 
#    y 0.003470 1.860690 -0.012900 
#    z -0.007810 -0.012900 1.830830 
# 
# From -- ./inp_files/352244.got.cif
#   From: 2010.06.25/outbox.cif.g09.slc.cpg/sg2_177_cif.got.tgz:352244.got - 2010.06.27 13:26:56.
