data_PCOD8043012
_publ_section_title
;
Structure prediction by ZEFSAII (Michael W. Deem and Ramdas Pophale) SiO2 
 PCOD8043012
Probable space group: P -1
;
_chemical_formula_sum "Si O2"
_cell_formula_units_Z 14
_cell_length_a 16.322889
_cell_length_b 15.345213
_cell_length_c 7.786318
_cell_angle_alpha 77.151762
_cell_angle_beta 92.065488
_cell_angle_gamma 27.494891
_cell_volume 750.734611
_symmetry_space_group_name_H-M "P -1"
_symmetry_group_IT_number 2
_symmetry_cell_setting 'triclinic'
loop_
_space_group_symop_operation_xyz
x,y,z
-x,-y,-z
loop_
_atom_site_type_symbol
_atom_site_label
_atom_site_fract_x
_atom_site_fract_y
_atom_site_fract_z
Si Si1 0.265951 0.832995 0.129894
Si Si2 0.045347 0.950320 0.777143
Si Si3 0.925229 0.478116 0.558570
Si Si4 0.747635 0.358726 0.371596
Si Si5 0.726869 0.583115 0.186780
Si Si6 0.041559 0.556808 0.044692
Si Si7 0.746852 0.953780 0.061996
O O1 0.116558 0.967003 0.223600
O O2 0.507982 0.583388 0.309525
O O3 0.216229 0.978221 0.981647
O O4 0.202566 0.819025 0.997824
O O5 0.903296 0.178575 0.617390
O O6 0.196921 0.764908 0.721701
O O7 0.763382 0.603851 0.352681
O O8 0.000000 0.500000 0.500000
O O9 0.123542 0.212383 0.691474
O O10 0.831159 0.574768 0.705046
O O11 0.788725 0.418933 0.293633
O O12 0.845212 0.500381 0.066713
O O13 0.488744 0.833353 0.013360
O O14 0.000000 0.500000 0.000000
O O15 0.823790 0.825164 0.951366
#
# Coordination Sequence:
#
# PCOD8043012 Si02
#       7
#     2   2   2   2   2   2   2
#     4  10  19  36  56  79 114 145 181 231 269 327
#     4  10  20  34  56  84 108 148 184 222 278 324
#     4  10  21  38  59  84 111 146 189 233 281 337
#     4  10  21  34  56  81 112 145 185 225 275 329
#     4  11  20  41  59  80 120 150 182 241 278 329
#     4  10  21  38  59  84 111 146 189 233 281 337
#     4   9  22  37  57  86 114 148 192 229 282 337
#
# _framework density 18.648399999999999
#
# number of rings (size 3 to 8) (size 9 to 14) (size 15 to 20)
#    0.857    1.143    1.429    2.571    0.000    2.286 
#    2.571    1.429   12.571    0.000    0.000    0.000 
#    0.000    0.000    0.000    0.000    0.000    0.000 
#
# Total GULP energy -173500.207899 kJ/mol
# GULP energy per Si atom -12392.871993 kJ/mol
# Density = 1.860596 g / cm^3
# Si number density = 18.648400 Si / 1000 Ang^3
#
#
#
# Elastic Constant Matrix: (Units=GPa)
#
#
# Indices 1 2 3 4 5 6 
#
# 1 99.0308 22.2543 18.5134 -10.2468 -6.2366 -9.9520
# 2 22.2543 59.3101 4.4980 -2.3494 -3.9638 -5.3034
# 3 18.5134 4.4980 50.3014 10.7866 -4.2729 -10.2478
# 4 -10.2468 -2.3494 10.7866 29.2104 2.1861 -0.9823
# 5 -6.2366 -3.9638 -4.2729 2.1861 24.6147 6.8759
# 6 -9.9520 -5.3034 -10.2478 -0.9823 6.8759 26.2944
#
#
#
# Elastic Compliance Matrix: (Units=1/GPa)
#
#
# Indices 1 2 3 4 5 6 
#
# 1 0.012844 -0.003954 -0.005211 0.006140 0.000578 0.002111
# 2 -0.003954 0.018594 0.000339 -0.000062 0.001501 0.001991
# 3 -0.005211 0.000339 0.025831 -0.011265 0.002218 0.007162
# 4 0.006140 -0.000062 -0.011265 0.040875 -0.004192 0.000544
# 5 0.000578 0.001501 0.002218 -0.004192 0.044693 -0.010458
# 6 0.002111 0.001991 0.007162 0.000544 -0.010458 0.044778
#
#
# Mechanical properties :
#
#
# Convention : Reuss Voigt Hill
#
# Bulk Modulus (GPa) = 25.24134 33.24153 29.24143
# Shear Modulus (GPa) = 22.88607 26.91568 24.90087
#
# Velocity S-wave (km/s) = 3.50700 3.80323 3.65812
# Velocity P-wave (km/s) = 5.47389 6.09510 5.79283
#
# Compressibility (1/GPa) = 0.03961755
#
# Stress axis : x y z
#
# Youngs Moduli (GPa) = 77.85478 53.78014 38.71309
#
# Poissons Ratio (x) = 0.21263 0.20174
# Poissons Ratio (y) = 0.30781 -0.01312
# Poissons Ratio (z) = 0.40572 -0.01822
#
# Static dielectric constant tensor:
#      x y z
#    x 3.435120 0.062370 -0.104470 
#    y 0.062370 3.244480 -0.055550 
#    z -0.104470 -0.055550 3.364310 
# 
# 
# High freq. dielectric constant tensor:
#      x y z
#    x 1.736590 0.000430 -0.009480 
#    y 0.000430 1.716610 0.000480 
#    z -0.009480 0.000480 1.718460 
# 
# From -- ./inp_files/215630.got.cif
#   From: 2010.06.25/outbox.cif.g09.slc.cpg/sg2_108_cif.got.tgz:215630.got - 2010.06.27 13:26:56.
