data_PCOD8043970
_publ_section_title
;
Structure prediction by ZEFSAII (Michael W. Deem and Ramdas Pophale) SiO2 
 PCOD8043970
Probable space group: P -1
;
_chemical_formula_sum "Si O2"
_cell_formula_units_Z 14
_cell_length_a 17.242589
_cell_length_b 8.286918
_cell_length_c 10.152406
_cell_angle_alpha 122.836289
_cell_angle_beta 52.097079
_cell_angle_gamma 147.064540
_cell_volume 621.134498
_symmetry_space_group_name_H-M "P -1"
_symmetry_group_IT_number 2
_symmetry_cell_setting 'triclinic'
loop_
_space_group_symop_operation_xyz
x,y,z
-x,-y,-z
loop_
_atom_site_type_symbol
_atom_site_label
_atom_site_fract_x
_atom_site_fract_y
_atom_site_fract_z
Si Si1 0.112684 0.577924 0.232109
Si Si2 0.207582 0.714212 0.643305
Si Si3 0.343574 0.306515 0.723197
Si Si4 0.310370 0.190661 0.415797
Si Si5 0.127179 0.167649 0.100250
Si Si6 0.826296 0.733968 0.613495
Si Si7 0.885559 0.494611 0.076113
O O1 0.088811 0.335495 0.215561
O O2 0.950386 0.421474 0.291131
O O3 0.198657 0.841224 0.362530
O O4 0.205141 0.699337 0.049236
O O5 0.236026 0.577248 0.456907
O O6 0.218596 0.636486 0.744680
O O7 0.337530 0.068871 0.654692
O O8 0.281640 0.246528 0.612562
O O9 0.518095 0.631883 0.695484
O O10 0.249283 0.292726 0.917963
O O11 0.279571 0.296297 0.380975
O O12 0.188730 0.203119 0.196469
O O13 0.972155 0.818885 0.085306
O O14 0.000000 0.000000 0.500000
O O15 0.000000 0.500000 0.000000
#
# Coordination Sequence:
#
# PCOD8043970 Si02
#       7
#     2   2   2   2   2   2   2
#     4  11  23  40  69 100 135 176 229 277 329 395
#     4  11  23  41  69  99 140 175 222 279 337 399
#     4  11  27  47  68  95 140 182 224 271 342 405
#     4  11  27  49  66  96 138 184 222 281 332 401
#     4  12  24  40  69 107 132 175 224 278 338 397
#     4  12  24  41  71 102 135 171 225 281 336 389
#     4  10  19  37  62 103 133 164 220 279 328 380
#
# _framework density 22.539401000000002
#
# number of rings (size 3 to 8) (size 9 to 14) (size 15 to 20)
#    0.000    0.857    5.714    2.143    4.000    2.857 
#    0.000    0.000    0.000    0.000    0.000    0.000 
#    0.000    0.000    0.000    0.000    0.000    0.000 
#
# Total GULP energy -173570.491536 kJ/mol
# GULP energy per Si atom -12397.892253 kJ/mol
# Density = 2.248810 g / cm^3
# Si number density = 22.539401 Si / 1000 Ang^3
#
#
#
# Elastic Constant Matrix: (Units=GPa)
#
#
# Indices 1 2 3 4 5 6 
#
# 1 107.8179 25.1318 43.1226 11.0756 15.4358 -9.2359
# 2 25.1318 57.9580 11.1544 8.5126 -1.8293 -11.4972
# 3 43.1226 11.1544 128.4727 2.2629 26.3050 6.6304
# 4 11.0756 8.5126 2.2629 34.0921 -10.9825 -1.8937
# 5 15.4358 -1.8293 26.3050 -10.9825 39.8605 14.8679
# 6 -9.2359 -11.4972 6.6304 -1.8937 14.8679 29.7307
#
#
#
# Elastic Compliance Matrix: (Units=1/GPa)
#
#
# Indices 1 2 3 4 5 6 
#
# 1 0.013452 -0.003334 -0.002959 -0.005365 -0.007480 0.006949
# 2 -0.003334 0.020902 -0.000775 -0.004041 -0.001167 0.007547
# 3 -0.002959 -0.000775 0.010059 -0.001368 -0.005632 -0.000733
# 4 -0.005365 -0.004041 -0.001368 0.036912 0.016201 -0.008675
# 5 -0.007480 -0.001167 -0.005632 0.016201 0.044614 -0.022798
# 6 0.006949 0.007547 -0.000733 -0.008675 -0.022798 0.049724
#
#
# Mechanical properties :
#
#
# Convention : Reuss Voigt Hill
#
# Bulk Modulus (GPa) = 33.02595 50.34067 41.68331
# Shear Modulus (GPa) = 25.01344 35.05933 30.03638
#
# Velocity S-wave (km/s) = 3.33493 3.94822 3.65446
# Velocity P-wave (km/s) = 5.43262 6.57021 6.02831
#
# Compressibility (1/GPa) = 0.03027922
#
# Stress axis : x y z
#
# Youngs Moduli (GPa) = 74.33580 47.84148 99.41225
#
# Poissons Ratio (x) = 0.15948 0.29411
# Poissons Ratio (y) = 0.24780 0.07708
# Poissons Ratio (z) = 0.21992 0.03709
#
# Static dielectric constant tensor:
#      x y z
#    x 4.217990 -0.354820 0.488110 
#    y -0.354820 3.946110 0.171730 
#    z 0.488110 0.171730 4.549320 
# 
# 
# High freq. dielectric constant tensor:
#      x y z
#    x 1.890490 -0.028460 0.023690 
#    y -0.028460 1.861490 0.021310 
#    z 0.023690 0.021310 1.902940 
# 
# From -- ./inp_files/460754.got.cif
#   From: 2010.06.25/outbox.cif.g09.slc.cpg/sg2_231_cif.got.tgz:460754.got - 2010.06.27 13:26:56.
