data_PCOD8043788
_publ_section_title
;
Structure prediction by ZEFSAII (Michael W. Deem and Ramdas Pophale) SiO2 
 PCOD8043788
Probable space group: P -1
;
_chemical_formula_sum "Si O2"
_cell_formula_units_Z 16
_cell_length_a 25.086613
_cell_length_b 21.083927
_cell_length_c 9.225455
_cell_angle_alpha 28.781611
_cell_angle_beta 26.095294
_cell_angle_gamma 20.034818
_cell_volume 717.752570
_symmetry_space_group_name_H-M "P -1"
_symmetry_group_IT_number 2
_symmetry_cell_setting 'triclinic'
loop_
_space_group_symop_operation_xyz
x,y,z
-x,-y,-z
loop_
_atom_site_type_symbol
_atom_site_label
_atom_site_fract_x
_atom_site_fract_y
_atom_site_fract_z
Si Si1 0.978166 0.771211 0.715518
Si Si2 0.012359 0.526904 0.654269
Si Si3 0.028188 0.100646 0.125508
Si Si4 0.278309 0.273218 0.258701
Si Si5 0.731558 0.435576 0.348555
Si Si6 0.672453 0.036160 0.157766
Si Si7 0.071057 0.749370 0.225620
Si Si8 0.470193 0.451859 0.820108
O O1 0.152863 0.678359 0.561939
O O2 0.972870 0.850304 0.415574
O O3 0.994971 0.602991 0.977306
O O4 0.802249 0.942969 0.889283
O O5 0.163015 0.391789 0.441294
O O6 0.041433 0.623557 0.498288
O O7 0.831660 0.690761 0.682078
O O8 0.871302 0.326439 0.092112
O O9 0.000000 0.000000 0.500000
O O10 0.007557 0.087512 0.030013
O O11 0.216674 0.013420 0.870721
O O12 0.403368 0.052836 0.445593
O O13 0.367740 0.343848 0.856159
O O14 0.593380 0.425178 0.692873
O O15 0.515900 0.261332 0.069730
O O16 0.274298 0.617882 0.019313
O O17 0.500000 0.500000 0.500000
#
# Coordination Sequence:
#
# PCOD8043788 Si02
#       8
#     2   2   2   2   2   2   2   2
#     4   9  22  35  61  90 121 152 198 252 294 350
#     4   9  15  32  58  90 117 149 201 242 295 345
#     4  11  18  34  62  82 110 155 210 236 270 350
#     4   9  15  32  62  90 104 154 209 250 268 345
#     4  10  19  37  59  83 124 157 200 237 301 354
#     4  10  20  38  63  90 113 153 209 244 288 351
#     4  12  21  36  60  93 123 152 193 250 309 348
#     4  12  23  38  61  87 121 159 198 243 301 360
#
# _framework density 22.291803999999999
#
# number of rings (size 3 to 8) (size 9 to 14) (size 15 to 20)
#    0.000    1.750    5.000    1.875    0.000    0.500 
#    0.000   11.250    2.750    3.000    0.000    1.750 
#    0.000    0.000    0.000    0.000    0.000    0.000 
#
# Total GULP energy -198236.703326 kJ/mol
# GULP energy per Si atom -12389.793958 kJ/mol
# Density = 2.224107 g / cm^3
# Si number density = 22.291804 Si / 1000 Ang^3
#
#
#
# Elastic Constant Matrix: (Units=GPa)
#
#
# Indices 1 2 3 4 5 6 
#
# 1 100.4795 4.0338 22.4286 0.7477 17.6822 -3.1516
# 2 4.0338 54.6732 21.5383 -18.8113 8.0598 -2.2262
# 3 22.4286 21.5383 92.9658 -24.1869 15.7959 -1.0889
# 4 0.7477 -18.8113 -24.1869 41.4560 -2.1632 -1.9104
# 5 17.6822 8.0598 15.7959 -2.1632 43.6215 -5.1954
# 6 -3.1516 -2.2262 -1.0889 -1.9104 -5.1954 14.8251
#
#
#
# Elastic Compliance Matrix: (Units=1/GPa)
#
#
# Indices 1 2 3 4 5 6 
#
# 1 0.011197 0.000133 -0.002575 -0.001801 -0.003636 0.000705
# 2 0.000133 0.022864 -0.002543 0.008923 -0.002492 0.003551
# 3 -0.002575 -0.002543 0.014384 0.007103 -0.003359 -0.000134
# 4 -0.001801 0.008923 0.007103 0.032523 -0.001255 0.005230
# 5 -0.003636 -0.002492 -0.003359 -0.001255 0.026953 0.007890
# 6 0.000705 0.003551 -0.000134 0.005230 0.007890 0.071565
#
#
# Mechanical properties :
#
#
# Convention : Reuss Voigt Hill
#
# Bulk Modulus (GPa) = 25.98948 38.23556 32.11252
# Shear Modulus (GPa) = 24.71806 33.32167 29.01987
#
# Velocity S-wave (km/s) = 3.33354 3.87045 3.61199
# Velocity P-wave (km/s) = 5.14788 6.09618 5.64199
#
# Compressibility (1/GPa) = 0.03847710
#
# Stress axis : x y z
#
# Youngs Moduli (GPa) = 89.30895 43.73603 69.52092
#
# Poissons Ratio (x) = -0.00583 0.17899
# Poissons Ratio (y) = -0.01190 0.17679
# Poissons Ratio (z) = 0.22994 0.11122
#
# Static dielectric constant tensor:
#      x y z
#    x 4.157770 -0.011780 -0.275660 
#    y -0.011780 3.761430 -0.499690 
#    z -0.275660 -0.499690 4.266890 
# 
# 
# High freq. dielectric constant tensor:
#      x y z
#    x 1.875350 -0.007200 -0.012660 
#    y -0.007200 1.834460 -0.040830 
#    z -0.012660 -0.040830 1.879140 
# 
# From -- ./inp_files/355242.got.cif
#   From: 2010.06.25/outbox.cif.g09.slc.cpg/sg2_178_cif.got.tgz:355242.got - 2010.06.27 13:26:56.
