data_PCOD8043893
_publ_section_title
;
Structure prediction by ZEFSAII (Michael W. Deem and Ramdas Pophale) SiO2 
 PCOD8043893
Probable space group: P -1
;
_chemical_formula_sum "Si O2"
_cell_formula_units_Z 14
_cell_length_a 10.185043
_cell_length_b 9.903259
_cell_length_c 22.267364
_cell_angle_alpha 32.709029
_cell_angle_beta 33.599794
_cell_angle_gamma 42.026674
_cell_volume 664.980959
_symmetry_space_group_name_H-M "P -1"
_symmetry_group_IT_number 2
_symmetry_cell_setting 'triclinic'
loop_
_space_group_symop_operation_xyz
x,y,z
-x,-y,-z
loop_
_atom_site_type_symbol
_atom_site_label
_atom_site_fract_x
_atom_site_fract_y
_atom_site_fract_z
Si Si1 0.256460 0.273510 0.705565
Si Si2 0.262495 0.239886 0.038643
Si Si3 0.835020 0.213664 0.123569
Si Si4 0.491164 0.504549 0.633092
Si Si5 0.415351 0.983275 0.414588
Si Si6 0.633332 0.292144 0.779054
Si Si7 0.992221 0.405723 0.422229
O O1 0.291051 0.380988 0.718003
O O2 0.067638 0.465993 0.667620
O O3 0.151170 0.004413 0.851045
O O4 0.514149 0.218733 0.591714
O O5 0.068444 0.174331 0.089549
O O6 0.300146 0.001574 0.158714
O O7 0.188766 0.506225 0.001843
O O8 0.500995 0.278642 0.897565
O O9 0.606453 0.184013 0.265742
O O10 0.464957 0.444110 0.735886
O O11 0.753313 0.374443 0.561263
O O12 0.446045 0.808816 0.527968
O O13 0.147973 0.130966 0.455467
O O14 0.868289 0.421472 0.652734
#
# Coordination Sequence:
#
# PCOD8043893 Si02
#       7
#     2   2   2   2   2   2   2
#     4   9  20  37  57  83 114 148 182 220 280 336
#     4  10  19  37  61  75 108 152 192 227 269 326
#     4   9  18  36  60  81 104 146 195 228 261 331
#     4  11  23  36  53  89 122 137 176 238 283 323
#     4   9  19  36  59  83 109 147 186 220 276 336
#     4  11  21  36  57  86 107 146 191 228 277 326
#     4  11  19  37  61  82 112 151 183 222 275 339
#
# _framework density 21.053234
#
# number of rings (size 3 to 8) (size 9 to 14) (size 15 to 20)
#    0.857    1.143    2.857    2.143    0.000    2.857 
#    5.143    1.429    0.000    0.000    0.000    0.000 
#    0.000    0.000    0.000    0.000    0.000    0.000 
#
# Total GULP energy -173459.305095 kJ/mol
# GULP energy per Si atom -12389.950364 kJ/mol
# Density = 2.100532 g / cm^3
# Si number density = 21.053234 Si / 1000 Ang^3
#
#
#
# Elastic Constant Matrix: (Units=GPa)
#
#
# Indices 1 2 3 4 5 6 
#
# 1 92.6899 13.1946 35.3069 -21.8669 -4.1761 -12.2546
# 2 13.1946 112.2440 18.6406 -28.0254 0.9285 -20.2112
# 3 35.3069 18.6406 54.7798 -30.4062 -6.1580 -1.2750
# 4 -21.8669 -28.0254 -30.4062 39.8167 -6.4011 0.6165
# 5 -4.1761 0.9285 -6.1580 -6.4011 25.3742 -2.4983
# 6 -12.2546 -20.2112 -1.2750 0.6165 -2.4983 18.5137
#
#
#
# Elastic Compliance Matrix: (Units=1/GPa)
#
#
# Indices 1 2 3 4 5 6 
#
# 1 0.016837 0.003431 -0.007978 0.005929 0.003646 0.014636
# 2 0.003431 0.015357 0.001973 0.014888 0.006158 0.019508
# 3 -0.007978 0.001973 0.042612 0.032298 0.017208 0.001054
# 4 0.005929 0.014888 0.032298 0.067594 0.027673 0.023886
# 5 0.003646 0.006158 0.017208 0.027673 0.052566 0.016493
# 6 0.014636 0.019508 0.001054 0.023886 0.016493 0.086502
#
#
# Mechanical properties :
#
#
# Convention : Reuss Voigt Hill
#
# Bulk Modulus (GPa) = 14.35570 43.77755 29.06663
# Shear Modulus (GPa) = 16.13762 29.57902 22.85832
#
# Velocity S-wave (km/s) = 2.77160 3.75235 3.29863
# Velocity P-wave (km/s) = 4.13231 6.29384 5.32392
#
# Compressibility (1/GPa) = 0.06965872
#
# Stress axis : x y z
#
# Youngs Moduli (GPa) = 59.39208 65.11571 23.46761
#
# Poissons Ratio (x) = -0.22343 0.18723
# Poissons Ratio (y) = -0.20380 -0.04630
# Poissons Ratio (z) = 0.47384 -0.12847
#
# Static dielectric constant tensor:
#      x y z
#    x 3.419060 -0.182760 -0.218420 
#    y -0.182760 3.887730 -0.408150 
#    z -0.218420 -0.408150 3.840500 
# 
# 
# High freq. dielectric constant tensor:
#      x y z
#    x 1.791100 -0.018310 -0.030880 
#    y -0.018310 1.826270 -0.030360 
#    z -0.030880 -0.030360 1.813810 
# 
# From -- ./inp_files/607149.got.cif
#   From: 2010.06.25/outbox.cif.g09.slc.cpg/sg2_304_cif.got.tgz:607149.got - 2010.06.27 13:26:56.
