data_PCOD8043279
_publ_section_title
;
Structure prediction by ZEFSAII (Michael W. Deem and Ramdas Pophale) SiO2 
 PCOD8043279
Probable space group: P -1
;
_chemical_formula_sum "Si O2"
_cell_formula_units_Z 16
_cell_length_a 9.199559
_cell_length_b 7.661921
_cell_length_c 11.810138
_cell_angle_alpha 90.101524
_cell_angle_beta 112.087862
_cell_angle_gamma 91.078228
_cell_volume 771.185990
_symmetry_space_group_name_H-M "P -1"
_symmetry_group_IT_number 2
_symmetry_cell_setting 'triclinic'
loop_
_space_group_symop_operation_xyz
x,y,z
-x,-y,-z
loop_
_atom_site_type_symbol
_atom_site_label
_atom_site_fract_x
_atom_site_fract_y
_atom_site_fract_z
Si Si1 0.529887 0.661150 0.426122
Si Si2 0.916272 0.019403 0.811597
Si Si3 0.891561 0.355822 0.409849
Si Si4 0.475627 0.251953 0.012569
Si Si5 0.615288 0.528333 0.208811
Si Si6 0.797985 0.298482 0.622179
Si Si7 0.249627 0.944197 0.004631
Si Si8 0.830441 0.711955 0.639632
O O1 0.500000 0.500000 0.500000
O O2 0.544168 0.601476 0.302283
O O3 0.373538 0.773690 0.388197
O O4 0.685778 0.762187 0.515505
O O5 0.919097 0.171769 0.718035
O O6 0.818926 0.090562 0.890232
O O7 0.830165 0.836207 0.749519
O O8 0.099560 0.987663 0.885179
O O9 0.779513 0.439792 0.283808
O O10 0.799131 0.265233 0.486537
O O11 0.000000 0.500000 0.500000
O O12 0.008689 0.229402 0.378139
O O13 0.365752 0.316438 0.877158
O O14 0.653311 0.217695 0.017771
O O15 0.491401 0.392014 0.117655
O O16 0.384293 0.093578 0.044881
O O17 0.829307 0.503072 0.666593
#
# Coordination Sequence:
#
# PCOD8043279 Si02
#       8
#     2   2   2   2   2   2   2   2
#     4  10  19  36  60  91 131 156 203 259 306 381
#     4  11  24  42  64  88 134 163 214 262 324 369
#     4  10  19  36  60  91 131 156 203 259 306 381
#     4  10  24  40  68  88 122 174 212 264 314 358
#     4  11  20  38  68  96 122 165 218 252 318 381
#     4  10  22  38  61  93 125 169 201 258 318 376
#     4  10  24  46  56  90 126 166 216 276 294 376
#     4  10  22  38  61  93 125 169 201 258 318 376
#
# _framework density 20.747264999999999
#
# number of rings (size 3 to 8) (size 9 to 14) (size 15 to 20)
#    0.000    1.750    3.750    1.500    7.000    1.000 
#    0.000    3.750    0.000    0.000    0.000    0.000 
#    0.000    0.000    0.000    0.000    0.000    0.000 
#
# Total GULP energy -198258.910181 kJ/mol
# GULP energy per Si atom -12391.181886 kJ/mol
# Density = 2.070004 g / cm^3
# Si number density = 20.747265 Si / 1000 Ang^3
#
#
#
# Elastic Constant Matrix: (Units=GPa)
#
#
# Indices 1 2 3 4 5 6 
#
# 1 113.8550 6.5763 37.7476 4.9292 14.6982 -10.5176
# 2 6.5763 56.7768 19.2882 -5.5844 7.0036 -3.1512
# 3 37.7476 19.2882 117.2411 -9.4541 14.5307 -9.2738
# 4 4.9292 -5.5844 -9.4541 29.0733 -5.8029 -1.2496
# 5 14.6982 7.0036 14.5307 -5.8029 22.9623 -4.2182
# 6 -10.5176 -3.1512 -9.2738 -1.2496 -4.2182 16.4888
#
#
#
# Elastic Compliance Matrix: (Units=1/GPa)
#
#
# Indices 1 2 3 4 5 6 
#
# 1 0.010937 0.000234 -0.002882 -0.003684 -0.005497 0.003715
# 2 0.000234 0.019177 -0.002478 0.002198 -0.003567 0.001674
# 3 -0.002882 -0.002478 0.010717 0.003075 -0.002811 0.003230
# 4 -0.003684 0.002198 0.003075 0.038780 0.010540 0.005435
# 5 -0.005497 -0.003567 -0.002811 0.010540 0.054235 0.008904
# 6 0.003715 0.001674 0.003230 0.005435 0.008904 0.067843
#
#
# Mechanical properties :
#
#
# Convention : Reuss Voigt Hill
#
# Bulk Modulus (GPa) = 32.70264 46.12189 39.41226
# Shear Modulus (GPa) = 22.50891 28.65559 25.58225
#
# Velocity S-wave (km/s) = 3.29737 3.72045 3.51528
# Velocity P-wave (km/s) = 5.50395 6.38234 5.95935
#
# Compressibility (1/GPa) = 0.03057857
#
# Stress axis : x y z
#
# Youngs Moduli (GPa) = 91.42945 52.14619 93.31108
#
# Poissons Ratio (x) = -0.01221 0.26891
# Poissons Ratio (y) = -0.02140 0.23127
# Poissons Ratio (z) = 0.26349 0.12924
#
# Static dielectric constant tensor:
#      x y z
#    x 4.194540 -0.613540 0.260940 
#    y -0.613540 3.113140 0.223330 
#    z 0.260940 0.223330 3.733280 
# 
# 
# High freq. dielectric constant tensor:
#      x y z
#    x 1.824590 -0.015370 0.003880 
#    y -0.015370 1.781840 -0.001650 
#    z 0.003880 -0.001650 1.820410 
# 
# From -- ./inp_files/379306.got.cif
#   From: 2010.06.25/outbox.cif.g09.slc.cpg/sg2_190_cif.got.tgz:379306.got - 2010.06.27 13:26:56.
