data_PCOD8043054
_publ_section_title
;
Structure prediction by ZEFSAII (Michael W. Deem and Ramdas Pophale) SiO2 
 PCOD8043054
Probable space group: P -1
;
_chemical_formula_sum "Si O2"
_cell_formula_units_Z 16
_cell_length_a 8.954780
_cell_length_b 13.620490
_cell_length_c 12.291960
_cell_angle_alpha 70.199323
_cell_angle_beta 39.460122
_cell_angle_gamma 46.600727
_cell_volume 629.815969
_symmetry_space_group_name_H-M "P -1"
_symmetry_group_IT_number 2
_symmetry_cell_setting 'triclinic'
loop_
_space_group_symop_operation_xyz
x,y,z
-x,-y,-z
loop_
_atom_site_type_symbol
_atom_site_label
_atom_site_fract_x
_atom_site_fract_y
_atom_site_fract_z
Si Si1 0.145755 0.505759 0.522998
Si Si2 0.744754 0.815797 0.051171
Si Si3 0.976088 0.746821 0.173489
Si Si4 0.357809 0.468600 0.791028
Si Si5 0.899609 0.518819 0.866357
Si Si6 0.656084 0.163832 0.098897
Si Si7 0.789288 0.025626 0.866604
Si Si8 0.472625 0.198948 0.427481
O O1 0.311213 0.566700 0.392945
O O2 0.872657 0.602650 0.741341
O O3 0.416658 0.330032 0.469201
O O4 0.000000 0.500000 0.500000
O O5 0.716390 0.853432 0.180708
O O6 0.385103 0.889477 0.181653
O O7 0.844010 0.884676 0.898771
O O8 0.035648 0.640337 0.936207
O O9 0.136213 0.584072 0.124699
O O10 0.779960 0.806674 0.376838
O O11 0.274564 0.736289 0.006931
O O12 0.265306 0.431868 0.748337
O O13 0.385007 0.383030 0.915053
O O14 0.542386 0.144727 0.057540
O O15 0.408524 0.229209 0.319631
O O16 0.000000 0.000000 0.000000
O O17 0.156820 0.960242 0.694488
#
# Coordination Sequence:
#
# PCOD8043054 Si02
#       8
#     2   2   2   2   2   2   2   2
#     4  11  22  37  59  87 116 152 195 238 285 344
#     4  10  19  36  59  85 110 148 188 236 277 339
#     4  10  19  36  59  84 117 146 192 233 280 347
#     4  10  19  40  62  80 119 154 188 238 289 335
#     4   9  21  37  61  88 110 156 194 231 293 341
#     4  10  19  36  57  83 111 154 190 229 281 341
#     4  10  20  35  58  84 112 145 194 228 283 337
#     4  10  20  37  58  80 116 153 181 236 292 322
#
# _framework density 25.404246000000001
#
# number of rings (size 3 to 8) (size 9 to 14) (size 15 to 20)
#    0.000    2.000    3.750    1.125    0.000    4.000 
#    0.000    7.500    0.000    0.000    0.000    0.000 
#    0.000    0.000    0.000    0.000    0.000    0.000 
#
# Total GULP energy -198215.620840 kJ/mol
# GULP energy per Si atom -12388.476302 kJ/mol
# Density = 2.534643 g / cm^3
# Si number density = 25.404246 Si / 1000 Ang^3
#
#
#
# Elastic Constant Matrix: (Units=GPa)
#
#
# Indices 1 2 3 4 5 6 
#
# 1 93.8176 3.4242 45.0983 -18.5692 4.4530 -3.7276
# 2 3.4242 36.9836 19.4521 -7.9539 4.3440 1.9482
# 3 45.0983 19.4521 167.7382 -29.1305 6.2453 -7.9703
# 4 -18.5692 -7.9539 -29.1305 38.4394 -0.0618 12.8661
# 5 4.4530 4.3440 6.2453 -0.0618 45.2133 -12.6271
# 6 -3.7276 1.9482 -7.9703 12.8661 -12.6271 40.6708
#
#
#
# Elastic Compliance Matrix: (Units=1/GPa)
#
#
# Indices 1 2 3 4 5 6 
#
# 1 0.012944 0.001591 -0.002825 0.004923 -0.001435 -0.001446
# 2 0.001591 0.030627 -0.002920 0.006658 -0.004165 -0.005293
# 3 -0.002825 -0.002920 0.007757 0.003906 -0.000505 0.000009
# 4 0.004923 0.006658 0.003906 0.036850 -0.005057 -0.012330
# 5 -0.001435 -0.004165 -0.000505 -0.005057 0.025359 0.009442
# 6 -0.001446 -0.005293 0.000009 -0.012330 0.009442 0.031542
#
#
# Mechanical properties :
#
#
# Convention : Reuss Voigt Hill
#
# Bulk Modulus (GPa) = 23.24432 48.27651 35.76041
# Shear Modulus (GPa) = 29.81028 40.23569 35.02299
#
# Velocity S-wave (km/s) = 3.42926 3.98404 3.71702
# Velocity P-wave (km/s) = 4.98492 6.34098 5.70339
#
# Compressibility (1/GPa) = 0.04302126
#
# Stress axis : x y z
#
# Youngs Moduli (GPa) = 77.25639 32.65056 128.90974
#
# Poissons Ratio (x) = -0.05194 0.36416
# Poissons Ratio (y) = -0.12290 0.37636
# Poissons Ratio (z) = 0.21824 0.09533
#
# Static dielectric constant tensor:
#      x y z
#    x 5.026090 -0.073050 0.546960 
#    y -0.073050 5.094640 -0.023070 
#    z 0.546960 -0.023070 5.004580 
# 
# 
# High freq. dielectric constant tensor:
#      x y z
#    x 2.020060 -0.006700 0.014450 
#    y -0.006700 2.017950 -0.013850 
#    z 0.014450 -0.013850 1.995470 
# 
# From -- ./inp_files/398877.got.cif
#   From: 2010.06.25/outbox.cif.g09.slc.cpg/sg2_200_cif.got.tgz:398877.got - 2010.06.27 13:26:56.
