data_PCOD8043058
_publ_section_title
;
Structure prediction by ZEFSAII (Michael W. Deem and Ramdas Pophale) SiO2 
 PCOD8043058
Probable space group: P -1
;
_chemical_formula_sum "Si O2"
_cell_formula_units_Z 14
_cell_length_a 5.214021
_cell_length_b 11.237702
_cell_length_c 15.560891
_cell_angle_alpha 71.922868
_cell_angle_beta 73.911682
_cell_angle_gamma 114.695066
_cell_volume 694.695369
_symmetry_space_group_name_H-M "P -1"
_symmetry_group_IT_number 2
_symmetry_cell_setting 'triclinic'
loop_
_space_group_symop_operation_xyz
x,y,z
-x,-y,-z
loop_
_atom_site_type_symbol
_atom_site_label
_atom_site_fract_x
_atom_site_fract_y
_atom_site_fract_z
Si Si1 0.229530 0.410198 0.770507
Si Si2 0.947647 0.768359 0.876943
Si Si3 0.869498 0.991130 0.607745
Si Si4 0.689755 0.330864 0.728935
Si Si5 0.570714 0.317546 0.191384
Si Si6 0.391428 0.077536 0.675974
Si Si7 0.186683 0.176825 0.938392
O O1 0.584906 0.450124 0.703081
O O2 0.247371 0.530060 0.806534
O O3 0.040751 0.243939 0.870933
O O4 0.065108 0.410994 0.695950
O O5 0.654047 0.675000 0.859811
O O6 0.161470 0.698665 0.875509
O O7 0.789652 0.753656 0.986523
O O8 0.171803 0.942965 0.792073
O O9 0.648238 0.818051 0.693381
O O10 0.656412 0.060642 0.609451
O O11 0.000000 0.000000 0.500000
O O12 0.166365 0.084408 0.624488
O O13 0.579323 0.231768 0.676083
O O14 0.534365 0.234290 0.853487
O O15 0.000000 0.000000 0.000000
#
# Coordination Sequence:
#
# PCOD8043058 Si02
#       7
#     2   2   2   2   2   2   2
#     4  10  22  36  52  78 110 155 177 218 265 315
#     4  10  20  34  54  79 109 146 183 221 265 308
#     4  10  21  37  62  85 104 134 177 227 276 325
#     4  10  21  36  55  79 109 149 183 217 264 309
#     4  10  22  37  55  77 112 145 176 222 277 322
#     4  10  19  36  57  84 109 137 175 226 271 318
#     4  10  22  35  54  80 110 146 191 225 250 305
#
# _framework density 20.152719000000001
#
# number of rings (size 3 to 8) (size 9 to 14) (size 15 to 20)
#    0.857    1.143    1.429    2.143    2.000    2.857 
#    0.000    0.000    0.000    5.143    0.000    0.000 
#    0.000    0.000    0.000    0.000    0.000    0.000 
#
# Total GULP energy -173490.629668 kJ/mol
# GULP energy per Si atom -12392.187833 kJ/mol
# Density = 2.010685 g / cm^3
# Si number density = 20.152719 Si / 1000 Ang^3
#
#
#
# Elastic Constant Matrix: (Units=GPa)
#
#
# Indices 1 2 3 4 5 6 
#
# 1 122.3463 24.8595 14.4578 4.6111 4.5379 10.7464
# 2 24.8595 89.2341 10.3662 18.8237 6.9679 1.3734
# 3 14.4578 10.3662 70.9440 18.8995 -8.3583 -2.1712
# 4 4.6111 18.8237 18.8995 19.6478 0.5225 2.7800
# 5 4.5379 6.9679 -8.3583 0.5225 19.4086 8.1069
# 6 10.7464 1.3734 -2.1712 2.7800 8.1069 27.1498
#
#
#
# Elastic Compliance Matrix: (Units=1/GPa)
#
#
# Indices 1 2 3 4 5 6 
#
# 1 0.009324 -0.002974 -0.002691 0.003825 -0.000734 -0.003928
# 2 -0.002974 0.015685 0.002368 -0.017014 -0.005055 0.003825
# 3 -0.002691 0.002368 0.021483 -0.022876 0.008632 0.002428
# 4 0.003825 -0.017014 -0.022876 0.089918 -0.002485 -0.010948
# 5 -0.000734 -0.005055 0.008632 -0.002485 0.064747 -0.017843
# 6 -0.003928 0.003825 0.002428 -0.010948 -0.017843 0.044837
#
#
# Mechanical properties :
#
#
# Convention : Reuss Voigt Hill
#
# Bulk Modulus (GPa) = 25.06395 42.43237 33.74816
# Shear Modulus (GPa) = 18.80493 28.76398 23.78445
#
# Velocity S-wave (km/s) = 3.05802 3.78206 3.43915
# Velocity P-wave (km/s) = 4.99326 6.33823 5.70551
#
# Compressibility (1/GPa) = 0.03989794
#
# Stress axis : x y z
#
# Youngs Moduli (GPa) = 107.25128 63.75623 46.54736
#
# Poissons Ratio (x) = 0.18961 0.12527
# Poissons Ratio (y) = 0.31897 -0.11023
# Poissons Ratio (z) = 0.28863 -0.15098
#
# Static dielectric constant tensor:
#      x y z
#    x 3.959250 -0.087720 -0.054310 
#    y -0.087720 3.442960 0.139330 
#    z -0.054310 0.139330 3.408610 
# 
# 
# High freq. dielectric constant tensor:
#      x y z
#    x 1.801890 -0.006100 -0.001870 
#    y -0.006100 1.777070 0.024370 
#    z -0.001870 0.024370 1.759160 
# 
# From -- ./inp_files/56190.got.cif
#   From: 2010.06.25/outbox.cif.g09.slc.cpg/sg2_29_cif.got.tgz:56190.got - 2010.06.27 13:26:56.
