data_PCOD8043775
_publ_section_title
;
Structure prediction by ZEFSAII (Michael W. Deem and Ramdas Pophale) SiO2 
 PCOD8043775
Probable space group: P -1
;
_chemical_formula_sum "Si O2"
_cell_formula_units_Z 14
_cell_length_a 24.673196
_cell_length_b 5.147884
_cell_length_c 7.327194
_cell_angle_alpha 64.247080
_cell_angle_beta 68.915444
_cell_angle_gamma 100.925507
_cell_volume 712.809070
_symmetry_space_group_name_H-M "P -1"
_symmetry_group_IT_number 2
_symmetry_cell_setting 'triclinic'
loop_
_space_group_symop_operation_xyz
x,y,z
-x,-y,-z
loop_
_atom_site_type_symbol
_atom_site_label
_atom_site_fract_x
_atom_site_fract_y
_atom_site_fract_z
Si Si1 0.922849 0.652930 0.548428
Si Si2 0.775089 0.311536 0.878199
Si Si3 0.608232 0.569997 0.099881
Si Si4 0.720019 0.579351 0.172112
Si Si5 0.017039 0.618119 0.737078
Si Si6 0.687986 0.211038 0.678676
Si Si7 0.561172 0.069929 0.025505
O O1 0.848917 0.431744 0.710140
O O2 0.950970 0.582806 0.347260
O O3 0.953697 0.575943 0.715549
O O4 0.933572 0.016905 0.427315
O O5 0.764028 0.522508 0.984571
O O6 0.739488 0.357441 0.729999
O O7 0.748148 0.945780 0.083049
O O8 0.645958 0.461034 0.237654
O O9 0.558735 0.265779 0.146416
O O10 0.663040 0.826700 0.824397
O O11 0.565926 0.743977 0.183965
O O12 0.721619 0.365904 0.404629
O O13 0.000000 0.500000 0.000000
O O14 0.625574 0.283206 0.770753
O O15 0.500000 0.000000 0.000000
#
# Coordination Sequence:
#
# PCOD8043775 Si02
#       7
#     2   2   2   2   2   2   2
#     4  10  22  38  58  86 117 152 187 236 278 327
#     4  11  23  38  57  86 118 145 193 234 277 337
#     4   9  19  37  53  78 111 139 183 232 280 333
#     4  11  21  37  58  81 112 152 185 232 287 335
#     4  10  21  39  61  84 118 152 191 229 279 330
#     4   9  23  35  60  78 115 146 187 234 287 330
#     4  10  19  37  59  78 111 148 182 234 287 331
#
# _framework density 19.640602999999999
#
# number of rings (size 3 to 8) (size 9 to 14) (size 15 to 20)
#    0.857    1.143    1.429    1.714    2.000    2.286 
#    0.000    1.429    0.000    0.000    0.000    0.000 
#    0.000    0.000    0.000    0.000    0.000    0.000 
#
# Total GULP energy -173530.169932 kJ/mol
# GULP energy per Si atom -12395.012138 kJ/mol
# Density = 1.959590 g / cm^3
# Si number density = 19.640603 Si / 1000 Ang^3
#
#
#
# Elastic Constant Matrix: (Units=GPa)
#
#
# Indices 1 2 3 4 5 6 
#
# 1 91.6863 22.9543 38.4701 -0.3274 -5.7654 14.9999
# 2 22.9543 106.4620 16.3003 7.8408 0.5371 -0.6323
# 3 38.4701 16.3003 78.5520 13.0940 28.2624 5.5956
# 4 -0.3274 7.8408 13.0940 19.6227 -0.4585 -4.6080
# 5 -5.7654 0.5371 28.2624 -0.4585 21.2861 -2.4603
# 6 14.9999 -0.6323 5.5956 -4.6080 -2.4603 34.9047
#
#
#
# Elastic Compliance Matrix: (Units=1/GPa)
#
#
# Indices 1 2 3 4 5 6 
#
# 1 0.048942 -0.003940 -0.073258 0.055281 0.112492 0.005867
# 2 -0.003940 0.010335 0.002333 -0.005757 -0.004500 0.000429
# 3 -0.073258 0.002333 0.147862 -0.111265 -0.221216 -0.022461
# 4 0.055281 -0.005757 -0.111265 0.138024 0.168605 0.024082
# 5 0.112492 -0.004500 -0.221216 0.168605 0.379072 0.036017
# 6 0.005867 0.000429 -0.022461 0.024082 0.036017 0.035454
#
#
# Mechanical properties :
#
#
# Convention : Reuss Voigt Hill
#
# Bulk Modulus (GPa) = 17.41874 48.01662 32.71768
# Shear Modulus (GPa) = 5.38471 28.42775 16.90623
#
# Velocity S-wave (km/s) = 1.65758 3.80859 2.93709
# Velocity P-wave (km/s) = 3.54280 6.62127 5.31002
#
# Compressibility (1/GPa) = 0.05740942
#
# Stress axis : x y z
#
# Youngs Moduli (GPa) = 20.43221 96.76315 6.76306
#
# Poissons Ratio (x) = 0.38126 0.49545
# Poissons Ratio (y) = 0.08050 -0.01578
# Poissons Ratio (z) = 1.49682 -0.22578
#
# Static dielectric constant tensor:
#      x y z
#    x 3.496830 -0.077120 -0.195210 
#    y -0.077120 3.651990 -0.153370 
#    z -0.195210 -0.153370 1.544100 
# 
# 
# High freq. dielectric constant tensor:
#      x y z
#    x 1.768020 -0.000600 0.004850 
#    y -0.000600 1.779590 0.003960 
#    z 0.004850 0.003960 1.734730 
# 
# From -- ./inp_files/11829.got.cif
#   From: 2010.06.25/outbox.cif.g09.slc.cpg/sg2_6_cif.got.tgz:11829.got - 2010.06.27 13:26:56.
