data_PCOD8043567
_publ_section_title
;
Structure prediction by ZEFSAII (Michael W. Deem and Ramdas Pophale) SiO2 
 PCOD8043567
Probable space group: P -1
;
_chemical_formula_sum "Si O2"
_cell_formula_units_Z 16
_cell_length_a 10.400212
_cell_length_b 16.119510
_cell_length_c 14.965428
_cell_angle_alpha 143.249504
_cell_angle_beta 139.344129
_cell_angle_gamma 32.853546
_cell_volume 785.579139
_symmetry_space_group_name_H-M "P -1"
_symmetry_group_IT_number 2
_symmetry_cell_setting 'triclinic'
loop_
_space_group_symop_operation_xyz
x,y,z
-x,-y,-z
loop_
_atom_site_type_symbol
_atom_site_label
_atom_site_fract_x
_atom_site_fract_y
_atom_site_fract_z
Si Si1 0.086433 0.477737 0.792270
Si Si2 0.276980 0.600644 0.533244
Si Si3 0.680417 0.422557 0.112762
Si Si4 0.469472 0.861149 0.032230
Si Si5 0.376371 0.851716 0.164644
Si Si6 0.439225 0.500478 0.229490
Si Si7 0.959280 0.753225 0.113263
Si Si8 0.958425 0.017150 0.217414
O O1 0.091883 0.575733 0.792521
O O2 0.349221 0.295399 0.785974
O O3 0.903914 0.435084 0.632975
O O4 0.001351 0.601337 0.940484
O O5 0.500000 0.500000 0.500000
O O6 0.151558 0.664982 0.221931
O O7 0.385866 0.516501 0.614970
O O8 0.158972 0.801895 0.639801
O O9 0.541625 0.532857 0.222580
O O10 0.500000 0.500000 0.000000
O O11 0.767251 0.229368 0.009700
O O12 0.561074 0.665286 0.917715
O O13 0.231027 0.974330 0.943330
O O14 0.395802 0.941433 0.163987
O O15 0.685786 0.865186 0.107405
O O16 0.202725 0.978545 0.263296
O O17 0.014598 0.873695 0.194791
#
# Coordination Sequence:
#
# PCOD8043567 Si02
#       8
#     2   2   2   2   2   2   2   2
#     4  11  20  37  69  95 123 169 214 254 313 380
#     4  11  27  44  61  87 138 170 205 259 330 376
#     4   9  15  33  60  99 116 150 207 269 294 356
#     4  10  21  33  61  98 125 158 215 266 308 368
#     4  10  19  36  64  95 124 160 213 267 309 366
#     4  10  20  38  64  93 126 169 207 260 316 379
#     4  12  20  38  72  96 117 165 227 259 303 377
#     4  11  23  41  61  91 132 164 202 271 325 360
#
# _framework density 20.367139999999999
#
# number of rings (size 3 to 8) (size 9 to 14) (size 15 to 20)
#    0.000    1.500    5.000    3.375    1.750    1.000 
#    0.000    0.625    5.500    0.000    0.000    0.000 
#    0.000    0.000    0.000    0.000    0.000    0.000 
#
# Total GULP energy -198235.428849 kJ/mol
# GULP energy per Si atom -12389.714303 kJ/mol
# Density = 2.032078 g / cm^3
# Si number density = 20.367140 Si / 1000 Ang^3
#
#
#
# Elastic Constant Matrix: (Units=GPa)
#
#
# Indices 1 2 3 4 5 6 
#
# 1 94.8107 23.1027 24.0927 10.4579 -8.5412 -10.3670
# 2 23.1027 93.2654 33.5757 1.3768 5.3053 -2.3172
# 3 24.0927 33.5757 80.2947 7.3426 2.1589 -6.2493
# 4 10.4579 1.3768 7.3426 19.0359 -10.7968 -6.0928
# 5 -8.5412 5.3053 2.1589 -10.7968 30.9098 -1.9766
# 6 -10.3670 -2.3172 -6.2493 -6.0928 -1.9766 34.4152
#
#
#
# Elastic Compliance Matrix: (Units=1/GPa)
#
#
# Indices 1 2 3 4 5 6 
#
# 1 0.012670 -0.002337 -0.002398 -0.003175 0.003142 0.002842
# 2 -0.002337 0.013155 -0.004848 0.000608 -0.002399 -0.000729
# 3 -0.002398 -0.004848 0.015872 -0.005948 -0.002978 0.000609
# 4 -0.003175 0.000608 -0.005948 0.075856 0.026760 0.012971
# 5 0.003142 -0.002399 -0.002978 0.026760 0.043666 0.007490
# 6 0.002842 -0.000729 0.000609 0.012971 0.007490 0.032701
#
#
# Mechanical properties :
#
#
# Convention : Reuss Voigt Hill
#
# Bulk Modulus (GPa) = 44.37787 47.76810 46.07299
# Shear Modulus (GPa) = 22.66584 29.37883 26.02234
#
# Velocity S-wave (km/s) = 3.33958 3.80210 3.57832
# Velocity P-wave (km/s) = 6.05860 6.54057 6.30419
#
# Compressibility (1/GPa) = 0.02253375
#
# Stress axis : x y z
#
# Youngs Moduli (GPa) = 78.92647 76.01396 63.00377
#
# Poissons Ratio (x) = 0.17762 0.15106
# Poissons Ratio (y) = 0.18442 0.30543
# Poissons Ratio (z) = 0.18923 0.36850
#
# Static dielectric constant tensor:
#      x y z
#    x 4.086270 -0.042700 -0.172260 
#    y -0.042700 3.624380 0.039900 
#    z -0.172260 0.039900 3.436920 
# 
# 
# High freq. dielectric constant tensor:
#      x y z
#    x 1.811630 -0.003000 -0.019440 
#    y -0.003000 1.800010 -0.000290 
#    z -0.019440 -0.000290 1.752160 
# 
# From -- ./inp_files/426155.got.cif
#   From: 2010.06.25/outbox.cif.g09.slc.cpg/sg2_214_cif.got.tgz:426155.got - 2010.06.27 13:26:56.
