data_PCOD8043009
_publ_section_title
;
Structure prediction by ZEFSAII (Michael W. Deem and Ramdas Pophale) SiO2 
 PCOD8043009
Probable space group: P -1
;
_chemical_formula_sum "Si O2"
_cell_formula_units_Z 10
_cell_length_a 9.228320
_cell_length_b 9.306012
_cell_length_c 11.259786
_cell_angle_alpha 41.956022
_cell_angle_beta 107.195523
_cell_angle_gamma 81.376970
_cell_volume 503.541925
_symmetry_space_group_name_H-M "P -1"
_symmetry_group_IT_number 2
_symmetry_cell_setting 'triclinic'
loop_
_space_group_symop_operation_xyz
x,y,z
-x,-y,-z
loop_
_atom_site_type_symbol
_atom_site_label
_atom_site_fract_x
_atom_site_fract_y
_atom_site_fract_z
Si Si1 0.122207 0.287002 0.896547
Si Si2 0.681054 0.189095 0.604670
Si Si3 0.713461 0.548936 0.568972
Si Si4 0.075805 0.813992 0.520444
Si Si5 0.168372 0.196087 0.710157
O O1 0.152316 0.518433 0.759272
O O2 0.220425 0.092670 0.922306
O O3 0.901857 0.417688 0.771109
O O4 0.221866 0.110809 0.144572
O O5 0.737890 0.328468 0.623588
O O6 0.458648 0.340958 0.450948
O O7 0.753175 0.190864 0.490251
O O8 0.674834 0.797703 0.327607
O O9 0.908460 0.937759 0.305761
O O10 0.000000 0.000000 0.500000
O O11 0.000000 0.500000 0.500000
#
# Coordination Sequence:
#
# PCOD8043009 Si02
#       5
#     2   2   2   2   2
#     4  10  19  36  56  78 107 139 174 218 264 307
#     4  11  19  32  58  83 102 137 179 216 265 306
#     4   9  18  33  53  87 106 126 177 232 253 302
#     4  10  20  36  53  76 112 142 173 214 260 320
#     4   8  15  34  51  74 106 134 168 215 262 295
#
# _framework density 19.859317999999998
#
# number of rings (size 3 to 8) (size 9 to 14) (size 15 to 20)
#    0.000    2.800    6.000    0.600    0.000    1.600 
#    0.000    4.000    0.000    6.000    0.000    0.000 
#    0.000    0.000    0.000    0.000    0.000    0.000 
#
# Total GULP energy -123923.005097 kJ/mol
# GULP energy per Si atom -12392.300510 kJ/mol
# Density = 1.981412 g / cm^3
# Si number density = 19.859318 Si / 1000 Ang^3
#
#
#
# Elastic Constant Matrix: (Units=GPa)
#
#
# Indices 1 2 3 4 5 6 
#
# 1 141.0661 44.0951 33.1728 -2.4800 -19.2403 -27.2789
# 2 44.0951 104.5725 20.5790 -2.0542 -7.3852 -19.0026
# 3 33.1728 20.5790 67.6071 -3.3719 -9.5115 -6.0588
# 4 -2.4800 -2.0542 -3.3719 7.5240 0.9584 -1.2721
# 5 -19.2403 -7.3852 -9.5115 0.9584 19.4579 -0.2256
# 6 -27.2789 -19.0026 -6.0588 -1.2721 -0.2256 25.8211
#
#
#
# Elastic Compliance Matrix: (Units=1/GPa)
#
#
# Indices 1 2 3 4 5 6 
#
# 1 0.011687 -0.001720 -0.002780 0.002722 0.009534 0.010647
# 2 -0.001720 0.012071 -0.001808 0.002821 0.001937 0.006799
# 3 -0.002780 -0.001808 0.017716 0.005939 0.004935 0.000225
# 4 0.002722 0.002821 0.005939 0.139478 -0.000051 0.013217
# 5 0.009534 0.001937 0.004935 -0.000051 0.064124 0.013214
# 6 0.010647 0.006799 0.000225 0.013217 0.013214 0.055799
#
#
# Mechanical properties :
#
#
# Convention : Reuss Voigt Hill
#
# Bulk Modulus (GPa) = 34.65013 56.54883 45.59948
# Shear Modulus (GPa) = 15.47456 24.92052 20.19754
#
# Velocity S-wave (km/s) = 2.79446 3.54623 3.19255
# Velocity P-wave (km/s) = 5.28183 6.73084 6.04987
#
# Compressibility (1/GPa) = 0.02885992
#
# Stress axis : x y z
#
# Youngs Moduli (GPa) = 85.56396 82.84086 56.44465
#
# Poissons Ratio (x) = 0.14245 0.15691
# Poissons Ratio (y) = 0.14713 0.10206
# Poissons Ratio (z) = 0.23785 0.14979
#
# Static dielectric constant tensor:
#      x y z
#    x 4.160420 -0.107390 -0.490970 
#    y -0.107390 3.427840 0.196850 
#    z -0.490970 0.196850 3.502810 
# 
# 
# High freq. dielectric constant tensor:
#      x y z
#    x 1.792430 0.000870 -0.023500 
#    y 0.000870 1.729390 -0.001230 
#    z -0.023500 -0.001230 1.742350 
# 
# From -- ./inp_files/146658.got.cif
#   From: 2010.06.25/outbox.cif.g09.slc.cpg/sg2_74_cif.got.tgz:146658.got - 2010.06.27 13:26:56.
