data_PCOD8043972
_publ_section_title
;
Structure prediction by ZEFSAII (Michael W. Deem and Ramdas Pophale) SiO2 
 PCOD8043972
Probable space group: P -1
;
_chemical_formula_sum "Si O2"
_cell_formula_units_Z 16
_cell_length_a 17.052081
_cell_length_b 8.509198
_cell_length_c 11.845748
_cell_angle_alpha 121.539369
_cell_angle_beta 99.266471
_cell_angle_gamma 126.324100
_cell_volume 859.035396
_symmetry_space_group_name_H-M "P -1"
_symmetry_group_IT_number 2
_symmetry_cell_setting 'triclinic'
loop_
_space_group_symop_operation_xyz
x,y,z
-x,-y,-z
loop_
_atom_site_type_symbol
_atom_site_label
_atom_site_fract_x
_atom_site_fract_y
_atom_site_fract_z
Si Si1 0.225513 0.834816 0.420997
Si Si2 0.999221 0.003845 0.311717
Si Si3 0.416668 0.724285 0.792722
Si Si4 0.376836 0.626022 0.340503
Si Si5 0.518882 0.530672 0.383370
Si Si6 0.117474 0.302251 0.064900
Si Si7 0.138547 0.045036 0.549713
Si Si8 0.720530 0.367973 0.475358
O O1 0.136292 0.542496 0.208445
O O2 0.304312 0.863547 0.545114
O O3 0.328009 0.132520 0.476717
O O4 0.135985 0.818610 0.458555
O O5 0.039658 0.925045 0.382167
O O6 0.126348 0.345980 0.419512
O O7 0.910009 0.988657 0.349802
O O8 0.919161 0.759422 0.098798
O O9 0.507003 0.723235 0.766490
O O10 0.285464 0.402584 0.702096
O O11 0.378854 0.800744 0.715783
O O12 0.500000 0.000000 0.000000
O O13 0.423540 0.502042 0.288172
O O14 0.257969 0.452278 0.160274
O O15 0.311398 0.516983 0.408877
O O16 0.500000 0.000000 0.500000
O O17 0.500000 0.500000 0.500000
O O18 0.000000 0.000000 0.000000
#
# Coordination Sequence:
#
# PCOD8043972 Si02
#       8
#     2   2   2   2   2   2   2   2
#     4  10  21  38  60  91 117 156 206 247 306 361
#     4  10  20  40  60  82 120 164 196 246 303 359
#     4  10  22  39  59  86 121 157 207 253 294 359
#     4  11  20  37  61  90 122 156 197 248 308 357
#     4  11  21  37  62  89 118 163 199 244 310 367
#     4  11  21  37  62  92 120 152 203 254 296 349
#     4   9  22  40  59  84 120 163 203 241 309 365
#     4  10  19  37  62  79 123 159 192 248 309 346
#
# _framework density 18.625541999999999
#
# number of rings (size 3 to 8) (size 9 to 14) (size 15 to 20)
#    0.000    1.750    6.250    0.000    0.000    3.000 
#    2.250    3.750    0.000    0.000    0.000    0.000 
#    0.000    0.000    0.000    0.000    0.000    0.000 
#
# Total GULP energy -198340.974322 kJ/mol
# GULP energy per Si atom -12396.310895 kJ/mol
# Density = 1.858315 g / cm^3
# Si number density = 18.625542 Si / 1000 Ang^3
#
#
#
# Elastic Constant Matrix: (Units=GPa)
#
#
# Indices 1 2 3 4 5 6 
#
# 1 151.9623 42.3159 69.8388 -5.9902 -19.6409 5.4803
# 2 42.3159 85.0707 42.8509 -10.7460 -11.0954 8.6861
# 3 69.8388 42.8509 138.0302 -21.4525 -12.5295 -5.6935
# 4 -5.9902 -10.7460 -21.4525 25.9420 3.7363 -1.0569
# 5 -19.6409 -11.0954 -12.5295 3.7363 32.7939 -0.1931
# 6 5.4803 8.6861 -5.6935 -1.0569 -0.1931 30.5990
#
#
#
# Elastic Compliance Matrix: (Units=1/GPa)
#
#
# Indices 1 2 3 4 5 6 
#
# 1 0.009662 -0.002291 -0.004385 -0.002952 0.003661 -0.001975
# 2 -0.002291 0.015643 -0.003244 0.002746 0.002341 -0.004524
# 3 -0.004385 -0.003244 0.011818 0.007594 -0.000049 0.004167
# 4 -0.002952 0.002746 0.007594 0.045847 -0.003145 0.002726
# 5 0.003661 0.002341 -0.000049 -0.003145 0.033810 -0.001225
# 6 -0.001975 -0.004524 0.004167 0.002726 -0.001225 0.035181
#
#
# Mechanical properties :
#
#
# Convention : Reuss Voigt Hill
#
# Bulk Modulus (GPa) = 57.86385 76.11937 66.99161
# Shear Modulus (GPa) = 28.15895 32.53750 30.34822
#
# Velocity S-wave (km/s) = 3.89246 4.18416 4.04095
# Velocity P-wave (km/s) = 7.16492 8.01872 7.60382
#
# Compressibility (1/GPa) = 0.01728195
#
# Stress axis : x y z
#
# Youngs Moduli (GPa) = 103.49860 63.92658 84.61317
#
# Poissons Ratio (x) = 0.14645 0.37106
# Poissons Ratio (y) = 0.23710 0.27452
# Poissons Ratio (z) = 0.45389 0.20741
#
# Static dielectric constant tensor:
#      x y z
#    x 4.417480 0.152270 0.081380 
#    y 0.152270 3.512200 -0.063990 
#    z 0.081380 -0.063990 3.255030 
# 
# 
# High freq. dielectric constant tensor:
#      x y z
#    x 1.734100 0.009250 0.005940 
#    y 0.009250 1.727540 -0.005660 
#    z 0.005940 -0.005660 1.701650 
# 
# From -- ./inp_files/218572.got.cif
#   From: 2010.06.25/outbox.cif.g09.slc.cpg/sg2_110_cif.got.tgz:218572.got - 2010.06.27 13:26:56.
