data_PCOD8043842
_publ_section_title
;
Structure prediction by ZEFSAII (Michael W. Deem and Ramdas Pophale) SiO2 
 PCOD8043842
Probable space group: P -1
;
_chemical_formula_sum "Si O2"
_cell_formula_units_Z 14
_cell_length_a 11.473471
_cell_length_b 9.690291
_cell_length_c 16.900168
_cell_angle_alpha 40.767842
_cell_angle_beta 146.769895
_cell_angle_gamma 123.828001
_cell_volume 656.707906
_symmetry_space_group_name_H-M "P -1"
_symmetry_group_IT_number 2
_symmetry_cell_setting 'triclinic'
loop_
_space_group_symop_operation_xyz
x,y,z
-x,-y,-z
loop_
_atom_site_type_symbol
_atom_site_label
_atom_site_fract_x
_atom_site_fract_y
_atom_site_fract_z
Si Si1 0.217003 0.790091 0.319598
Si Si2 0.816234 0.042308 0.601148
Si Si3 0.570994 0.841767 0.771105
Si Si4 0.758518 0.615433 0.824910
Si Si5 0.280263 0.107038 0.006812
Si Si6 0.264991 0.148747 0.807066
Si Si7 0.561423 0.643202 0.318684
O O1 0.251365 0.805494 0.427281
O O2 0.308202 0.531164 0.467517
O O3 0.362925 0.924596 0.296080
O O4 0.968062 0.887825 0.109869
O O5 0.679801 0.145952 0.401827
O O6 0.074204 0.014578 0.743749
O O7 0.727967 0.826801 0.661058
O O8 0.723829 0.674968 0.871893
O O9 0.608063 0.770223 0.915335
O O10 0.613433 0.453861 0.785848
O O11 0.000000 0.500000 0.000000
O O12 0.428964 0.864059 0.187616
O O13 0.256311 0.241005 0.852091
O O14 0.253692 0.322886 0.655176
O O15 0.500000 0.000000 0.000000
#
# Coordination Sequence:
#
# PCOD8043842 Si02
#       7
#     2   2   2   2   2   2   2
#     4  10  19  37  61  84 117 154 201 234 295 354
#     4  10  19  37  60  85 115 156 192 243 294 345
#     4  11  20  39  56  90 126 145 190 255 301 338
#     4  11  20  36  63  88 114 153 202 242 287 350
#     4  10  23  37  58  89 123 157 188 248 303 339
#     4   9  20  39  61  84 115 160 204 230 287 365
#     4  11  20  39  63  85 112 159 210 234 276 370
#
# _framework density 21.318456999999999
#
# number of rings (size 3 to 8) (size 9 to 14) (size 15 to 20)
#    0.000    1.714    2.857    4.714    0.000    2.857 
#    2.571    3.571    0.000    0.000    0.000    0.000 
#    0.000    0.000    0.000    0.000    0.000    0.000 
#
# Total GULP energy -173436.009682 kJ/mol
# GULP energy per Si atom -12388.286406 kJ/mol
# Density = 2.126994 g / cm^3
# Si number density = 21.318457 Si / 1000 Ang^3
#
#
#
# Elastic Constant Matrix: (Units=GPa)
#
#
# Indices 1 2 3 4 5 6 
#
# 1 77.2800 33.6621 30.1647 19.5560 9.0040 -6.8609
# 2 33.6621 60.4792 14.1938 18.0610 3.9022 -11.7546
# 3 30.1647 14.1938 88.5709 15.2175 16.6561 -18.6320
# 4 19.5560 18.0610 15.2175 44.3553 -5.9307 -2.5706
# 5 9.0040 3.9022 16.6561 -5.9307 28.4579 9.0233
# 6 -6.8609 -11.7546 -18.6320 -2.5706 9.0233 31.2265
#
#
#
# Elastic Compliance Matrix: (Units=1/GPa)
#
#
# Indices 1 2 3 4 5 6 
#
# 1 0.019720 -0.008702 -0.004178 -0.004196 -0.003204 -0.000855
# 2 -0.008702 0.026019 0.004815 -0.008946 -0.009548 0.012778
# 3 -0.004178 0.004815 0.020870 -0.008785 -0.019140 0.018154
# 4 -0.004196 -0.008946 -0.008785 0.032806 0.018383 -0.012143
# 5 -0.003204 -0.009548 -0.019140 0.018383 0.062749 -0.032337
# 6 -0.000855 0.012778 0.018154 -0.012143 -0.032337 0.055823
#
#
# Mechanical properties :
#
#
# Convention : Reuss Voigt Hill
#
# Bulk Modulus (GPa) = 19.81074 42.48568 31.14821
# Shear Modulus (GPa) = 19.92465 30.69525 25.30995
#
# Velocity S-wave (km/s) = 3.06047 3.79864 3.44936
# Velocity P-wave (km/s) = 4.66922 6.26194 5.52329
#
# Compressibility (1/GPa) = 0.05047767
#
# Stress axis : x y z
#
# Youngs Moduli (GPa) = 50.70866 38.43300 47.91664
#
# Poissons Ratio (x) = 0.33445 0.20021
# Poissons Ratio (y) = 0.44128 -0.23070
# Poissons Ratio (z) = 0.21187 -0.18504
#
# Static dielectric constant tensor:
#      x y z
#    x 4.238330 0.173370 0.051460 
#    y 0.173370 3.671110 0.115280 
#    z 0.051460 0.115280 3.583570 
# 
# 
# High freq. dielectric constant tensor:
#      x y z
#    x 1.824260 0.003790 0.012110 
#    y 0.003790 1.809410 0.010550 
#    z 0.012110 0.010550 1.845880 
# 
# From -- ./inp_files/160159.got.cif
#   From: 2010.06.25/outbox.cif.g09.slc.cpg/sg2_81_cif.got.tgz:160159.got - 2010.06.27 13:26:56.
