data_PCOD8043642
_publ_section_title
;
Structure prediction by ZEFSAII (Michael W. Deem and Ramdas Pophale) SiO2 
 PCOD8043642
Probable space group: P -1
;
_chemical_formula_sum "Si O2"
_cell_formula_units_Z 16
_cell_length_a 14.238612
_cell_length_b 11.004475
_cell_length_c 13.549240
_cell_angle_alpha 43.462976
_cell_angle_beta 30.184078
_cell_angle_gamma 42.038667
_cell_volume 692.261107
_symmetry_space_group_name_H-M "P -1"
_symmetry_group_IT_number 2
_symmetry_cell_setting 'triclinic'
loop_
_space_group_symop_operation_xyz
x,y,z
-x,-y,-z
loop_
_atom_site_type_symbol
_atom_site_label
_atom_site_fract_x
_atom_site_fract_y
_atom_site_fract_z
Si Si1 0.305164 0.030946 0.569436
Si Si2 0.763496 0.579636 0.168494
Si Si3 0.183688 0.210845 0.382913
Si Si4 0.623347 0.995136 0.063132
Si Si5 0.700281 0.077146 0.158355
Si Si6 0.227820 0.692826 0.333653
Si Si7 0.732023 0.431335 0.843116
Si Si8 0.512057 0.601159 0.577501
O O1 0.196976 0.048402 0.764938
O O2 0.424210 0.814383 0.564908
O O3 0.143492 0.132165 0.574020
O O4 0.463549 0.142950 0.359327
O O5 0.673474 0.575984 0.360421
O O6 0.674825 0.460029 0.247276
O O7 0.696399 0.793383 0.063915
O O8 0.000000 0.500000 0.000000
O O9 0.385606 0.061738 0.247163
O O10 0.198329 0.417093 0.253586
O O11 0.000342 0.219436 0.471213
O O12 0.730322 0.972257 0.087138
O O13 0.678839 0.143380 0.857832
O O14 0.782907 0.249550 0.974706
O O15 0.179777 0.611427 0.321273
O O16 0.372197 0.528301 0.362830
O O17 0.500000 0.500000 0.000000
#
# Coordination Sequence:
#
# PCOD8043642 Si02
#       8
#     2   2   2   2   2   2   2   2
#     4  10  19  36  67  96 132 171 217 262 327 380
#     4  11  26  48  72  93 128 171 221 279 336 384
#     4  11  22  39  64  95 136 178 215 263 320 393
#     4  10  22  43  67  96 134 171 218 275 326 381
#     4   9  18  34  64  95 131 177 203 261 324 383
#     4  11  25  39  68  98 135 175 218 261 330 395
#     4  11  18  38  59  94 144 181 207 259 325 384
#     4  11  25  45  68  99 129 170 218 278 325 387
#
# _framework density 23.112666999999998
#
# number of rings (size 3 to 8) (size 9 to 14) (size 15 to 20)
#    0.000    1.500    6.250    1.125    3.500    1.500 
#    0.000    3.750    0.000    0.000    0.000    0.000 
#    0.000    0.000    0.000    0.000    0.000    0.000 
#
# Total GULP energy -198297.533168 kJ/mol
# GULP energy per Si atom -12393.595823 kJ/mol
# Density = 2.306006 g / cm^3
# Si number density = 23.112667 Si / 1000 Ang^3
#
#
#
# Elastic Constant Matrix: (Units=GPa)
#
#
# Indices 1 2 3 4 5 6 
#
# 1 71.9419 32.9319 42.5242 -2.7878 -8.6561 -19.3478
# 2 32.9319 85.0179 40.1821 -10.6846 -12.7001 -9.3289
# 3 42.5242 40.1821 95.7575 -8.0107 -10.2179 -19.3070
# 4 -2.7878 -10.6846 -8.0107 35.5060 -11.8799 2.7550
# 5 -8.6561 -12.7001 -10.2179 -11.8799 24.1759 4.2731
# 6 -19.3478 -9.3289 -19.3070 2.7550 4.2731 27.7237
#
#
#
# Elastic Compliance Matrix: (Units=1/GPa)
#
#
# Indices 1 2 3 4 5 6 
#
# 1 0.022298 -0.004912 -0.005965 -0.001748 0.000277 0.009886
# 2 -0.004912 0.017768 -0.004092 0.007599 0.010040 -0.002601
# 3 -0.005965 -0.004092 0.016386 0.002605 0.003010 0.005149
# 4 -0.001748 0.007599 0.002605 0.039521 0.024697 -0.004582
# 5 0.000277 0.010040 0.003010 0.024697 0.061246 -0.006226
# 6 0.009886 -0.002601 0.005149 -0.004582 -0.006226 0.047095
#
#
# Mechanical properties :
#
#
# Convention : Reuss Voigt Hill
#
# Bulk Modulus (GPa) = 37.71351 53.77710 45.74531
# Shear Modulus (GPa) = 20.56848 26.61972 23.59410
#
# Velocity S-wave (km/s) = 2.98639 3.39741 3.19851
# Velocity P-wave (km/s) = 5.31451 6.22155 5.78584
#
# Compressibility (1/GPa) = 0.02651569
#
# Stress axis : x y z
#
# Youngs Moduli (GPa) = 44.84618 56.28014 61.02641
#
# Poissons Ratio (x) = 0.27644 0.36400
# Poissons Ratio (y) = 0.22028 0.24973
# Poissons Ratio (z) = 0.26749 0.23031
#
# Static dielectric constant tensor:
#      x y z
#    x 4.090250 -0.083670 0.112150 
#    y -0.083670 3.599820 -0.021540 
#    z 0.112150 -0.021540 4.517300 
# 
# 
# High freq. dielectric constant tensor:
#      x y z
#    x 1.889220 -0.014330 -0.003850 
#    y -0.014330 1.906720 -0.013940 
#    z -0.003850 -0.013940 1.929110 
# 
# From -- ./inp_files/531613.got.cif
#   From: 2010.06.25/outbox.cif.g09.slc.cpg/sg2_266_cif.got.tgz:531613.got - 2010.06.27 13:26:56.
