data_PCOD8043913
_publ_section_title
;
Structure prediction by ZEFSAII (Michael W. Deem and Ramdas Pophale) SiO2 
 PCOD8043913
Probable space group: P -1
;
_chemical_formula_sum "Si O2"
_cell_formula_units_Z 14
_cell_length_a 13.714679
_cell_length_b 8.968735
_cell_length_c 9.317748
_cell_angle_alpha 85.346403
_cell_angle_beta 41.577247
_cell_angle_gamma 79.658143
_cell_volume 745.753327
_symmetry_space_group_name_H-M "P -1"
_symmetry_group_IT_number 2
_symmetry_cell_setting 'triclinic'
loop_
_space_group_symop_operation_xyz
x,y,z
-x,-y,-z
loop_
_atom_site_type_symbol
_atom_site_label
_atom_site_fract_x
_atom_site_fract_y
_atom_site_fract_z
Si Si1 0.654595 0.933351 0.910171
Si Si2 0.257435 0.270830 0.917445
Si Si3 0.838234 0.678064 0.545926
Si Si4 0.326364 0.813344 0.933665
Si Si5 0.828219 0.450751 0.819631
Si Si6 0.155527 0.024542 0.888794
Si Si7 0.659872 0.779487 0.472520
O O1 0.770351 0.841417 0.676698
O O2 0.632498 0.819226 0.075377
O O3 0.500000 0.000000 0.000000
O O4 0.723466 0.074964 0.885446
O O5 0.135613 0.164772 0.015329
O O6 0.349053 0.297800 0.669373
O O7 0.172783 0.430895 0.058118
O O8 0.802818 0.538158 0.690061
O O9 0.765753 0.664379 0.470902
O O10 0.015910 0.666817 0.338346
O O11 0.498122 0.821479 0.715738
O O12 0.231024 0.868064 0.892898
O O13 0.305230 0.643596 0.008470
O O14 0.266535 0.067585 0.638534
O O15 0.000000 0.000000 0.000000
#
# Coordination Sequence:
#
# PCOD8043913 Si02
#       7
#     2   2   2   2   2   2   2
#     4  10  19  37  61  85 113 156 191 244 290 337
#     4   8  21  37  60  84 121 151 192 239 287 348
#     4  10  21  39  61  79 119 158 197 237 293 338
#     4  11  21  35  62  88 119 149 197 243 289 347
#     4  10  22  40  58  85 119 158 194 239 286 354
#     4   9  19  37  59  86 114 153 192 238 288 339
#     4  10  20  36  61  86 117 153 189 245 290 342
#
# _framework density 18.772962
#
# number of rings (size 3 to 8) (size 9 to 14) (size 15 to 20)
#    0.857    1.429    1.429    1.286    0.000    2.286 
#    0.000    2.857    0.000    0.000    0.000    0.000 
#    0.000    0.000    0.000    0.000    0.000    0.000 
#
# Total GULP energy -173492.430272 kJ/mol
# GULP energy per Si atom -12392.316448 kJ/mol
# Density = 1.873023 g / cm^3
# Si number density = 18.772962 Si / 1000 Ang^3
#
#
#
# Elastic Constant Matrix: (Units=GPa)
#
#
# Indices 1 2 3 4 5 6 
#
# 1 122.0254 49.1771 45.8694 -2.2056 -0.0752 -17.3198
# 2 49.1771 98.3158 50.7513 0.7525 -3.8000 3.6391
# 3 45.8694 50.7513 93.0691 -0.3226 0.5113 0.7681
# 4 -2.2056 0.7525 -0.3226 33.8622 3.1745 -3.2559
# 5 -0.0752 -3.8000 0.5113 3.1745 35.0471 -4.6150
# 6 -17.3198 3.6391 0.7681 -3.2559 -4.6150 28.0955
#
#
#
# Elastic Compliance Matrix: (Units=1/GPa)
#
#
# Indices 1 2 3 4 5 6 
#
# 1 0.012852 -0.004793 -0.003792 0.001712 0.000586 0.008942
# 2 -0.004793 0.016108 -0.006394 -0.001316 0.001316 -0.004802
# 3 -0.003792 -0.006394 0.016124 -0.000044 -0.001216 -0.002155
# 4 0.001712 -0.001316 -0.000044 0.030308 -0.002309 0.004360
# 5 0.000586 0.001316 -0.001216 -0.002309 0.029537 0.004808
# 6 0.008942 -0.004802 -0.002155 0.004360 0.004808 0.043081
#
#
# Mechanical properties :
#
#
# Convention : Reuss Voigt Hill
#
# Bulk Modulus (GPa) = 66.10329 67.22287 66.66308
# Shear Modulus (GPa) = 27.32087 30.57513 28.94800
#
# Velocity S-wave (km/s) = 3.81902 4.04007 3.93110
# Velocity P-wave (km/s) = 7.39831 7.59269 7.49613
#
# Compressibility (1/GPa) = 0.01512784
#
# Stress axis : x y z
#
# Youngs Moduli (GPa) = 77.80614 62.08153 62.01759
#
# Poissons Ratio (x) = 0.29754 0.23517
# Poissons Ratio (y) = 0.37291 0.39653
# Poissons Ratio (z) = 0.29503 0.39693
#
# Static dielectric constant tensor:
#      x y z
#    x 3.461290 -0.194180 0.254200 
#    y -0.194180 3.353530 0.029330 
#    z 0.254200 0.029330 3.380970 
# 
# 
# High freq. dielectric constant tensor:
#      x y z
#    x 1.730500 -0.017950 0.016040 
#    y -0.017950 1.718170 0.001650 
#    z 0.016040 0.001650 1.716250 
# 
# From -- ./inp_files/238841.got.cif
#   From: 2010.06.25/outbox.cif.g09.slc.cpg/sg2_120_cif.got.tgz:238841.got - 2010.06.27 13:26:56.
