data_PCOD8043104
_publ_section_title
;
Structure prediction by ZEFSAII (Michael W. Deem and Ramdas Pophale) SiO2 
 PCOD8043104
Probable space group: P -1
;
_chemical_formula_sum "Si O2"
_cell_formula_units_Z 14
_cell_length_a 5.025961
_cell_length_b 9.969906
_cell_length_c 12.545454
_cell_angle_alpha 80.707610
_cell_angle_beta 78.632993
_cell_angle_gamma 76.182995
_cell_volume 594.130923
_symmetry_space_group_name_H-M "P -1"
_symmetry_group_IT_number 2
_symmetry_cell_setting 'triclinic'
loop_
_space_group_symop_operation_xyz
x,y,z
-x,-y,-z
loop_
_atom_site_type_symbol
_atom_site_label
_atom_site_fract_x
_atom_site_fract_y
_atom_site_fract_z
Si Si1 0.977343 0.284755 0.402829
Si Si2 0.565709 0.103658 0.392217
Si Si3 0.339267 0.524454 0.765775
Si Si4 0.411050 0.656303 0.947294
Si Si5 0.308740 0.139773 0.734692
Si Si6 0.765930 0.304520 0.646396
Si Si7 0.807128 0.725916 0.063145
O O1 0.836954 0.156901 0.399344
O O2 0.886793 0.412599 0.313088
O O3 0.887718 0.341516 0.520191
O O4 0.309189 0.233299 0.379908
O O5 0.500000 0.000000 0.500000
O O6 0.634322 0.020090 0.286319
O O7 0.626172 0.447552 0.698226
O O8 0.401027 0.649748 0.819913
O O9 0.202109 0.419759 0.859656
O O10 0.631279 0.741827 0.964764
O O11 0.117755 0.731937 0.008961
O O12 0.500000 0.500000 0.000000
O O13 0.537232 0.213172 0.654020
O O14 0.318732 0.148388 0.861744
O O15 0.004752 0.219943 0.712963
#
# Coordination Sequence:
#
# PCOD8043104 Si02
#       7
#     2   2   2   2   2   2   2
#     4  12  24  38  59  86 122 157 183 239 288 339
#     4  12  23  41  60  81 116 158 203 233 271 338
#     4  10  23  37  59  91 121 149 188 231 300 351
#     4  10  19  36  58  84 116 148 188 233 284 344
#     4  11  21  37  62  84 111 151 203 237 275 330
#     4  11  21  37  57  86 120 152 184 236 286 346
#     4  10  21  37  60  86 112 149 188 242 284 336
#
# _framework density 23.563831
#
# number of rings (size 3 to 8) (size 9 to 14) (size 15 to 20)
#    0.000    1.143    2.857    6.000    0.000    6.857 
#    0.000    5.000    0.000    5.143    0.000    0.000 
#    0.000    0.000    0.000    0.000    0.000    0.000 
#
# Total GULP energy -173653.439580 kJ/mol
# GULP energy per Si atom -12403.817113 kJ/mol
# Density = 2.351020 g / cm^3
# Si number density = 23.563831 Si / 1000 Ang^3
#
#
#
# Elastic Constant Matrix: (Units=GPa)
#
#
# Indices 1 2 3 4 5 6 
#
# 1 87.5499 13.7142 11.9951 6.8821 9.0054 -21.7339
# 2 13.7142 58.8001 29.1710 20.7971 -1.0180 -20.1356
# 3 11.9951 29.1710 109.9314 35.0817 14.7264 -11.3229
# 4 6.8821 20.7971 35.0817 35.3747 0.7719 4.0509
# 5 9.0054 -1.0180 14.7264 0.7719 21.3573 3.7563
# 6 -21.7339 -20.1356 -11.3229 4.0509 3.7563 40.8113
#
#
#
# Elastic Compliance Matrix: (Units=1/GPa)
#
#
# Indices 1 2 3 4 5 6 
#
# 1 0.015281 0.001477 0.003000 -0.007902 -0.010164 0.011419
# 2 0.001477 0.029565 0.000510 -0.020159 -0.001949 0.017695
# 3 0.003000 0.000510 0.017807 -0.019377 -0.014588 0.010056
# 4 -0.007902 -0.020159 -0.019377 0.063628 0.018274 -0.027528
# 5 -0.010164 -0.001949 -0.014588 0.018274 0.063595 -0.018089
# 6 0.011419 0.017695 0.010056 -0.027528 -0.018089 0.046502
#
#
# Mechanical properties :
#
#
# Convention : Reuss Voigt Hill
#
# Bulk Modulus (GPa) = 13.76871 40.67131 27.22001
# Shear Modulus (GPa) = 19.95115 32.93542 26.44329
#
# Velocity S-wave (km/s) = 2.91294 3.74265 3.35356
# Velocity P-wave (km/s) = 4.14361 5.99784 5.15478
#
# Compressibility (1/GPa) = 0.07262846
#
# Stress axis : x y z
#
# Youngs Moduli (GPa) = 65.44055 33.82383 56.15676
#
# Poissons Ratio (x) = -0.04995 -0.16849
# Poissons Ratio (y) = -0.09664 -0.02866
# Poissons Ratio (z) = -0.19635 -0.01727
#
# Static dielectric constant tensor:
#      x y z
#    x 4.483690 0.052010 0.458880 
#    y 0.052010 4.097820 0.524140 
#    z 0.458880 0.524140 4.682750 
# 
# 
# High freq. dielectric constant tensor:
#      x y z
#    x 1.944300 -0.010290 0.013290 
#    y -0.010290 1.900990 0.029970 
#    z 0.013290 0.029970 1.941810 
# 
# From -- ./inp_files/364478.got.cif
#   From: 2010.06.25/outbox.cif.g09.slc.cpg/sg2_183_cif.got.tgz:364478.got - 2010.06.27 13:26:56.
