data_PCOD8043190
_publ_section_title
;
Structure prediction by ZEFSAII (Michael W. Deem and Ramdas Pophale) SiO2 
 PCOD8043190
Probable space group: P -1
;
_chemical_formula_sum "Si O2"
_cell_formula_units_Z 16
_cell_length_a 14.089829
_cell_length_b 14.502587
_cell_length_c 9.403110
_cell_angle_alpha 58.462153
_cell_angle_beta 69.221517
_cell_angle_gamma 29.000167
_cell_volume 769.011828
_symmetry_space_group_name_H-M "P -1"
_symmetry_group_IT_number 2
_symmetry_cell_setting 'triclinic'
loop_
_space_group_symop_operation_xyz
x,y,z
-x,-y,-z
loop_
_atom_site_type_symbol
_atom_site_label
_atom_site_fract_x
_atom_site_fract_y
_atom_site_fract_z
Si Si1 0.907398 0.321670 0.081271
Si Si2 0.211197 0.108891 0.888779
Si Si3 0.975702 0.755582 0.606538
Si Si4 0.443331 0.935793 0.436035
Si Si5 0.991795 0.160895 0.757933
Si Si6 0.734980 0.296971 0.014240
Si Si7 0.408269 0.215068 0.207739
Si Si8 0.136523 0.413256 0.627812
O O1 0.899914 0.336763 0.242317
O O2 0.816691 0.290237 0.109880
O O3 0.793228 0.527607 0.899053
O O4 0.137954 0.115449 0.065586
O O5 0.070325 0.198658 0.759793
O O6 0.195974 0.250496 0.810387
O O7 0.445931 0.868876 0.924120
O O8 0.050645 0.775360 0.436287
O O9 0.017416 0.597656 0.651663
O O10 0.734002 0.983496 0.582988
O O11 0.468759 0.890928 0.625653
O O12 0.659391 0.712594 0.428707
O O13 0.363633 0.129287 0.280891
O O14 0.788211 0.308973 0.827573
O O15 0.166395 0.911125 0.877071
O O16 0.500000 0.500000 0.000000
O O17 0.000000 0.500000 0.500000
#
# Coordination Sequence:
#
# PCOD8043190 Si02
#       8
#     2   2   2   2   2   2   2   2
#     4  11  25  38  61  90 128 158 197 259 319 348
#     4  10  19  37  61  85 121 164 203 244 287 357
#     4  12  24  39  58  96 129 159 197 254 310 363
#     4  10  21  34  61  90 121 167 211 243 289 354
#     4  10  21  40  64  87 116 154 203 255 300 364
#     4  10  23  43  67  90 108 156 210 255 306 372
#     4  10  19  36  59  88 120 165 211 241 282 362
#     4  11  20  35  60  92 124 165 212 242 283 354
#
# _framework density 20.80592
#
# number of rings (size 3 to 8) (size 9 to 14) (size 15 to 20)
#    0.000    1.500    2.500    3.750    1.750    3.500 
#    0.000    3.125    0.000    0.000    0.000    0.000 
#    0.000    0.000    0.000    0.000    0.000    0.000 
#
# Total GULP energy -198342.752161 kJ/mol
# GULP energy per Si atom -12396.422010 kJ/mol
# Density = 2.075856 g / cm^3
# Si number density = 20.805920 Si / 1000 Ang^3
#
#
#
# Elastic Constant Matrix: (Units=GPa)
#
#
# Indices 1 2 3 4 5 6 
#
# 1 81.3541 46.4132 45.7855 18.8917 -1.8209 -12.9604
# 2 46.4132 115.1159 33.7694 20.1975 -5.0059 -23.5017
# 3 45.7855 33.7694 92.8617 19.8243 -1.4516 0.0721
# 4 18.8917 20.1975 19.8243 26.9169 1.3573 -1.9411
# 5 -1.8209 -5.0059 -1.4516 1.3573 24.0897 8.5834
# 6 -12.9604 -23.5017 0.0721 -1.9411 8.5834 29.1436
#
#
#
# Elastic Compliance Matrix: (Units=1/GPa)
#
#
# Indices 1 2 3 4 5 6 
#
# 1 0.021312 -0.004094 -0.007864 -0.005556 -0.001649 0.006311
# 2 -0.004094 0.013609 -0.001805 -0.005340 -0.000476 0.008942
# 3 -0.007864 -0.001805 0.016614 -0.005934 0.002554 -0.006141
# 4 -0.005556 -0.005340 -0.005934 0.049454 -0.003841 -0.002337
# 5 -0.001649 -0.000476 0.002554 -0.003841 0.047092 -0.015249
# 6 0.006311 0.008942 -0.006141 -0.002337 -0.015249 0.048681
#
#
# Mechanical properties :
#
#
# Convention : Reuss Voigt Hill
#
# Bulk Modulus (GPa) = 41.65001 60.14089 50.89545
# Shear Modulus (GPa) = 21.52483 26.92093 24.22288
#
# Velocity S-wave (km/s) = 3.21994 3.60099 3.41578
# Velocity P-wave (km/s) = 5.82115 6.80132 6.33023
#
# Compressibility (1/GPa) = 0.02400960
#
# Stress axis : x y z
#
# Youngs Moduli (GPa) = 46.92174 73.48075 60.19134
#
# Poissons Ratio (x) = 0.30086 0.47332
# Poissons Ratio (y) = 0.19212 0.10862
# Poissons Ratio (z) = 0.36897 0.13260
#
# Static dielectric constant tensor:
#      x y z
#    x 3.667980 -0.054960 -0.254780 
#    y -0.054960 3.948430 0.161000 
#    z -0.254780 0.161000 3.515290 
# 
# 
# High freq. dielectric constant tensor:
#      x y z
#    x 1.796050 -0.008990 -0.021350 
#    y -0.008990 1.829270 0.015130 
#    z -0.021350 0.015130 1.787290 
# 
# From -- ./inp_files/226737.got.cif
#   From: 2010.06.25/outbox.cif.g09.slc.cpg/sg2_114_cif.got.tgz:226737.got - 2010.06.27 13:26:56.
