data_PCOD8043819
_publ_section_title
;
Structure prediction by ZEFSAII (Michael W. Deem and Ramdas Pophale) SiO2 
 PCOD8043819
Probable space group: P -1
;
_chemical_formula_sum "Si O2"
_cell_formula_units_Z 14
_cell_length_a 12.848025
_cell_length_b 9.446309
_cell_length_c 7.973034
_cell_angle_alpha 50.991833
_cell_angle_beta 130.650409
_cell_angle_gamma 117.001179
_cell_volume 568.895492
_symmetry_space_group_name_H-M "P -1"
_symmetry_group_IT_number 2
_symmetry_cell_setting 'triclinic'
loop_
_space_group_symop_operation_xyz
x,y,z
-x,-y,-z
loop_
_atom_site_type_symbol
_atom_site_label
_atom_site_fract_x
_atom_site_fract_y
_atom_site_fract_z
Si Si1 0.564100 0.934878 0.785045
Si Si2 0.880531 0.558872 0.630431
Si Si3 0.627551 0.317506 0.648659
Si Si4 0.970459 0.102675 0.561070
Si Si5 0.647507 0.639923 0.872410
Si Si6 0.670638 0.254543 0.119035
Si Si7 0.925248 0.729445 0.914563
O O1 0.638381 0.751907 0.954393
O O2 0.447284 0.897456 0.833454
O O3 0.500000 0.000000 0.500000
O O4 0.667765 0.105418 0.827153
O O5 0.725580 0.469925 0.541366
O O6 0.924762 0.652056 0.783108
O O7 0.913944 0.728280 0.408552
O O8 0.971956 0.395789 0.787798
O O9 0.478140 0.337812 0.403218
O O10 0.637404 0.345810 0.837112
O O11 0.818907 0.177085 0.336795
O O12 0.977407 0.944375 0.825765
O O13 0.000000 0.000000 0.500000
O O14 0.776649 0.717849 0.845592
O O15 0.663998 0.430665 0.103520
#
# Coordination Sequence:
#
# PCOD8043819 Si02
#       7
#     2   2   2   2   2   2   2
#     4  10  24  41  60  89 130 173 207 255 323 385
#     4  10  19  37  59  94 127 160 208 266 311 363
#     4  11  22  39  63  97 129 157 214 274 304 367
#     4  10  20  34  62  94 125 165 207 259 320 370
#     4  11  22  41  65  92 131 172 204 259 324 381
#     4  12  21  40  67  95 123 164 224 261 308 373
#     4  10  19  37  62  88 127 165 210 255 315 375
#
# _framework density 24.609088
#
# number of rings (size 3 to 8) (size 9 to 14) (size 15 to 20)
#    0.000    1.429    2.857    4.714    0.000    0.000 
#    5.143    0.714    0.000    6.000    0.000    0.000 
#    0.000    0.000    0.000    0.000    0.000    0.000 
#
# Total GULP energy -173461.271451 kJ/mol
# GULP energy per Si atom -12390.090818 kJ/mol
# Density = 2.455308 g / cm^3
# Si number density = 24.609088 Si / 1000 Ang^3
#
#
#
# Elastic Constant Matrix: (Units=GPa)
#
#
# Indices 1 2 3 4 5 6 
#
# 1 135.4623 63.8237 52.7553 -25.5513 14.5394 32.7127
# 2 63.8237 110.3199 36.2457 -50.4360 -8.3111 19.6387
# 3 52.7553 36.2457 57.0975 -30.5011 -0.0852 9.3522
# 4 -25.5513 -50.4360 -30.5011 42.9434 2.7315 -7.8504
# 5 14.5394 -8.3111 -0.0852 2.7315 28.3391 -24.6650
# 6 32.7127 19.6387 9.3522 -7.8504 -24.6650 50.2721
#
#
#
# Elastic Compliance Matrix: (Units=1/GPa)
#
#
# Indices 1 2 3 4 5 6 
#
# 1 0.074751 -0.042885 -0.056171 -0.054536 -0.125506 -0.091533
# 2 -0.042885 0.045071 0.032461 0.054689 0.071883 0.048068
# 3 -0.056171 0.032461 0.071378 0.061373 0.087608 0.063159
# 4 -0.054536 0.054689 0.061373 0.104444 0.088462 0.062418
# 5 -0.125506 0.071883 0.087608 0.088462 0.273963 0.185519
# 6 -0.091533 0.048068 0.063159 0.062418 0.185519 0.149694
#
#
# Mechanical properties :
#
#
# Convention : Reuss Voigt Hill
#
# Bulk Modulus (GPa) = 17.23824 67.61433 42.42629
# Shear Modulus (GPa) = 5.73508 34.31457 20.02483
#
# Velocity S-wave (km/s) = 1.52824 3.73820 2.85567
# Velocity P-wave (km/s) = 3.18341 6.79464 5.30572
#
# Compressibility (1/GPa) = 0.05801056
#
# Stress axis : x y z
#
# Youngs Moduli (GPa) = 13.37771 22.18712 14.00999
#
# Poissons Ratio (x) = 0.95149 0.78695
# Poissons Ratio (y) = 0.57370 -0.45478
# Poissons Ratio (z) = 0.75144 -0.72021
#
# Static dielectric constant tensor:
#      x y z
#    x 4.596100 -0.156860 0.001930 
#    y -0.156860 5.751270 -1.086530 
#    z 0.001930 -1.086530 4.530660 
# 
# 
# High freq. dielectric constant tensor:
#      x y z
#    x 1.987230 0.006050 0.003170 
#    y 0.006050 1.984240 -0.042260 
#    z 0.003170 -0.042260 1.960730 
# 
# From -- ./inp_files/242279.got.cif
#   From: 2010.06.25/outbox.cif.g09.slc.cpg/sg2_122_cif.got.tgz:242279.got - 2010.06.27 13:26:56.
