data_PCOD8043369
_publ_section_title
;
Structure prediction by ZEFSAII (Michael W. Deem and Ramdas Pophale) SiO2 
 PCOD8043369
Probable space group: P -1
;
_chemical_formula_sum "Si O2"
_cell_formula_units_Z 14
_cell_length_a 11.946921
_cell_length_b 13.970755
_cell_length_c 19.830693
_cell_angle_alpha 149.841562
_cell_angle_beta 150.769161
_cell_angle_gamma 29.019904
_cell_volume 708.414699
_symmetry_space_group_name_H-M "P -1"
_symmetry_group_IT_number 2
_symmetry_cell_setting 'triclinic'
loop_
_space_group_symop_operation_xyz
x,y,z
-x,-y,-z
loop_
_atom_site_type_symbol
_atom_site_label
_atom_site_fract_x
_atom_site_fract_y
_atom_site_fract_z
Si Si1 0.758107 0.529941 0.962364
Si Si2 0.655177 0.748528 0.908953
Si Si3 0.926117 0.863782 0.928366
Si Si4 0.567280 0.376882 0.887128
Si Si5 0.355082 0.698924 0.595932
Si Si6 0.683228 0.892586 0.229193
Si Si7 0.900518 0.624104 0.316596
O O1 0.629686 0.596466 0.861093
O O2 0.551917 0.518726 0.899897
O O3 0.813215 0.724425 0.133691
O O4 0.040710 0.312109 0.976432
O O5 0.551733 0.698526 0.755104
O O6 0.500000 0.000000 0.000000
O O7 0.961641 0.636787 0.779030
O O8 0.629521 0.006075 0.882057
O O9 0.129816 0.813959 0.067138
O O10 0.000000 0.000000 0.000000
O O11 0.349290 0.298189 0.716429
O O12 0.500000 0.500000 0.000000
O O13 0.500000 0.500000 0.500000
O O14 0.113785 0.684091 0.495441
O O15 0.239556 0.918253 0.623562
O O16 0.791508 0.757484 0.271759
#
# Coordination Sequence:
#
# PCOD8043369 Si02
#       7
#     2   2   2   2   2   2   2
#     4  11  22  41  67  94 127 168 222 267 319 381
#     4  11  25  44  66  95 129 173 219 266 322 387
#     4  11  19  33  58  92 131 160 211 263 323 371
#     4  10  19  36  61  92 131 162 212 268 316 377
#     4  12  24  41  65  95 133 173 218 267 327 384
#     4  12  20  37  64  96 129 168 207 272 322 373
#     4  11  22  37  55  97 133 164 211 269 325 381
#
# _framework density 19.762436000000001
#
# number of rings (size 3 to 8) (size 9 to 14) (size 15 to 20)
#    0.000    0.857    7.143    3.000    0.000    0.000 
#    0.000    0.714    0.000    0.857    0.000    0.000 
#    0.000    0.000    0.000    0.000    0.000    0.000 
#
# Total GULP energy -173468.392262 kJ/mol
# GULP energy per Si atom -12390.599447 kJ/mol
# Density = 1.971746 g / cm^3
# Si number density = 19.762436 Si / 1000 Ang^3
#
#
#
# Elastic Constant Matrix: (Units=GPa)
#
#
# Indices 1 2 3 4 5 6 
#
# 1 118.7983 28.6007 38.5427 5.8489 13.7058 18.8811
# 2 28.6007 105.8591 36.9799 8.2143 2.7630 8.0776
# 3 38.5427 36.9799 83.4924 4.2183 14.0549 5.5000
# 4 5.8489 8.2143 4.2183 33.6668 2.3008 4.4010
# 5 13.7058 2.7630 14.0549 2.3008 41.0850 -0.0373
# 6 18.8811 8.0776 5.5000 4.4010 -0.0373 35.3921
#
#
#
# Elastic Compliance Matrix: (Units=1/GPa)
#
#
# Indices 1 2 3 4 5 6 
#
# 1 0.011014 -0.001169 -0.003840 -0.000342 -0.002267 -0.004972
# 2 -0.001169 0.011585 -0.004642 -0.001994 0.001310 -0.001050
# 3 -0.003840 -0.004642 0.016451 -0.000059 -0.004031 0.000555
# 4 -0.000342 -0.001994 -0.000059 0.030772 -0.001458 -0.003181
# 5 -0.002267 0.001310 -0.004031 -0.001458 0.026470 0.001746
# 6 -0.004972 -0.001050 0.000555 -0.003181 0.001746 0.031458
#
#
# Mechanical properties :
#
#
# Convention : Reuss Voigt Hill
#
# Bulk Modulus (GPa) = 50.64055 57.37738 54.00897
# Shear Modulus (GPa) = 32.54518 35.63056 34.08787
#
# Velocity S-wave (km/s) = 4.06251 4.25072 4.15768
# Velocity P-wave (km/s) = 6.90547 7.29301 7.10189
#
# Compressibility (1/GPa) = 0.01974702
#
# Stress axis : x y z
#
# Youngs Moduli (GPa) = 90.79756 86.32183 60.78791
#
# Poissons Ratio (x) = 0.10092 0.23342
# Poissons Ratio (y) = 0.10615 0.28217
# Poissons Ratio (z) = 0.34866 0.40069
#
# Static dielectric constant tensor:
#      x y z
#    x 4.127340 0.145910 0.995860 
#    y 0.145910 4.155490 -0.081350 
#    z 0.995860 -0.081350 4.761280 
# 
# 
# High freq. dielectric constant tensor:
#      x y z
#    x 1.768840 0.008840 0.029340 
#    y 0.008840 1.793950 -0.006690 
#    z 0.029340 -0.006690 1.732810 
# 
# From -- ./inp_files/436966.got.cif
#   From: 2010.06.25/outbox.cif.g09.slc.cpg/sg2_219_cif.got.tgz:436966.got - 2010.06.27 13:26:56.
