data_PCOD8043169
_publ_section_title
;
Structure prediction by ZEFSAII (Michael W. Deem and Ramdas Pophale) SiO2 
 PCOD8043169
Probable space group: P -1
;
_chemical_formula_sum "Si O2"
_cell_formula_units_Z 16
_cell_length_a 9.275489
_cell_length_b 14.202478
_cell_length_c 18.270796
_cell_angle_alpha 28.601770
_cell_angle_beta 97.863122
_cell_angle_gamma 118.279939
_cell_volume 760.374560
_symmetry_space_group_name_H-M "P -1"
_symmetry_group_IT_number 2
_symmetry_cell_setting 'triclinic'
loop_
_space_group_symop_operation_xyz
x,y,z
-x,-y,-z
loop_
_atom_site_type_symbol
_atom_site_label
_atom_site_fract_x
_atom_site_fract_y
_atom_site_fract_z
Si Si1 0.757029 0.868758 0.866545
Si Si2 0.754768 0.297904 0.813944
Si Si3 0.996472 0.656512 0.329117
Si Si4 0.955386 0.908872 0.394854
Si Si5 0.225928 0.914796 0.660792
Si Si6 0.315368 0.279927 0.287819
Si Si7 0.795090 0.390594 0.916006
Si Si8 0.447508 0.931115 0.317563
O O1 0.921697 0.924062 0.786497
O O2 0.678660 0.989376 0.738341
O O3 0.550413 0.520368 0.101896
O O4 0.880552 0.029822 0.842956
O O5 0.840595 0.346479 0.869414
O O6 0.877940 0.276979 0.781360
O O7 0.795600 0.562513 0.610959
O O8 0.500000 0.000000 0.000000
O O9 0.737480 0.428057 0.450579
O O10 0.000000 0.500000 0.500000
O O11 0.128048 0.038370 0.382376
O O12 0.817618 0.965089 0.362503
O O13 0.005590 0.574817 0.856846
O O14 0.324718 0.116891 0.458454
O O15 0.399951 0.937765 0.690182
O O16 0.259807 0.432593 0.217823
O O17 0.589948 0.074001 0.155422
#
# Coordination Sequence:
#
# PCOD8043169 Si02
#       8
#     2   2   2   2   2   2   2   2
#     4  10  21  39  62  79 113 156 196 226 278 349
#     4  12  20  33  62  90 107 145 203 235 265 335
#     4  10  20  37  58  81 112 150 199 226 273 339
#     4  11  20  36  60  86 112 149 194 231 280 345
#     4  11  21  37  58  89 119 143 187 245 291 321
#     4  10  19  36  59  85 114 150 189 234 285 337
#     4  10  20  37  58  85 116 155 191 228 280 348
#     4  10  21  37  59  85 116 153 185 236 288 335
#
# _framework density 21.042259999999999
#
# number of rings (size 3 to 8) (size 9 to 14) (size 15 to 20)
#    0.000    1.500    5.000    3.750    0.000    0.000 
#    0.000    5.000    0.000    0.000    0.000    0.000 
#    0.000    0.000    0.000    0.000    0.000    0.000 
#
# Total GULP energy -198406.806132 kJ/mol
# GULP energy per Si atom -12400.425383 kJ/mol
# Density = 2.099437 g / cm^3
# Si number density = 21.042260 Si / 1000 Ang^3
#
#
#
# Elastic Constant Matrix: (Units=GPa)
#
#
# Indices 1 2 3 4 5 6 
#
# 1 41.1051 38.8116 30.5466 -3.1228 -18.4611 -5.3151
# 2 38.8116 94.1807 29.3150 5.1443 -13.8451 -8.1584
# 3 30.5466 29.3150 107.7562 -12.1730 -30.8992 -3.0731
# 4 -3.1228 5.1443 -12.1730 33.2540 -2.1476 -14.6579
# 5 -18.4611 -13.8451 -30.8992 -2.1476 24.3309 -0.7396
# 6 -5.3151 -8.1584 -3.0731 -14.6579 -0.7396 31.6311
#
#
#
# Elastic Compliance Matrix: (Units=1/GPa)
#
#
# Indices 1 2 3 4 5 6 
#
# 1 0.065260 -0.021008 0.002105 0.019938 0.042481 0.015984
# 2 -0.021008 0.018956 -0.002933 -0.007827 -0.009654 -0.002779
# 3 0.002105 -0.002933 0.017945 0.012076 0.024011 0.007498
# 4 0.019938 -0.007827 0.012076 0.051562 0.031386 0.027132
# 5 0.042481 -0.009654 0.024011 0.031386 0.101828 0.023906
# 6 0.015984 -0.002779 0.007498 0.027132 0.023906 0.047444
#
#
# Mechanical properties :
#
#
# Convention : Reuss Voigt Hill
#
# Bulk Modulus (GPa) = 17.09764 48.93205 33.01485
# Shear Modulus (GPa) = 13.65509 27.46779 20.56144
#
# Velocity S-wave (km/s) = 2.55019 3.61690 3.12933
# Velocity P-wave (km/s) = 4.10052 6.38336 5.36477
#
# Compressibility (1/GPa) = 0.05848760
#
# Stress axis : x y z
#
# Youngs Moduli (GPa) = 15.32333 52.75375 55.72699
#
# Poissons Ratio (x) = 1.10826 -0.11731
# Poissons Ratio (y) = 0.32192 0.16347
# Poissons Ratio (z) = -0.03226 0.15475
#
# Static dielectric constant tensor:
#      x y z
#    x 3.419870 -0.050130 -0.339390 
#    y -0.050130 4.102720 -0.299970 
#    z -0.339390 -0.299970 4.064790 
# 
# 
# High freq. dielectric constant tensor:
#      x y z
#    x 1.776990 -0.007890 -0.031870 
#    y -0.007890 1.830050 -0.008430 
#    z -0.031870 -0.008430 1.837810 
# 
# From -- ./inp_files/561341.got.cif
#   From: 2010.06.25/outbox.cif.g09.slc.cpg/sg2_281_cif.got.tgz:561341.got - 2010.06.27 13:26:56.
