data_PCOD8043145
_publ_section_title
;
Structure prediction by ZEFSAII (Michael W. Deem and Ramdas Pophale) SiO2 
 PCOD8043145
Probable space group: P -1
;
_chemical_formula_sum "Si O2"
_cell_formula_units_Z 16
_cell_length_a 12.416050
_cell_length_b 12.155016
_cell_length_c 11.664235
_cell_angle_alpha 52.377956
_cell_angle_beta 81.099894
_cell_angle_gamma 123.351217
_cell_volume 781.959743
_symmetry_space_group_name_H-M "P -1"
_symmetry_group_IT_number 2
_symmetry_cell_setting 'triclinic'
loop_
_space_group_symop_operation_xyz
x,y,z
-x,-y,-z
loop_
_atom_site_type_symbol
_atom_site_label
_atom_site_fract_x
_atom_site_fract_y
_atom_site_fract_z
Si Si1 0.574190 0.899090 0.161185
Si Si2 0.946983 0.250951 0.755244
Si Si3 0.595508 0.695071 0.454365
Si Si4 0.614495 0.563657 0.110734
Si Si5 0.301693 0.659169 0.155385
Si Si6 0.529344 0.751405 0.873962
Si Si7 0.879886 0.300802 0.503455
Si Si8 0.016559 0.025100 0.846142
O O1 0.540229 0.794012 0.359023
O O2 0.395621 0.692154 0.234528
O O3 0.764883 0.015832 0.011965
O O4 0.611971 0.100368 0.040816
O O5 0.848392 0.246137 0.679241
O O6 0.099623 0.509071 0.636186
O O7 0.043636 0.219598 0.697849
O O8 0.500000 0.500000 0.500000
O O9 0.524808 0.587425 0.661343
O O10 0.819972 0.894591 0.290403
O O11 0.550150 0.375034 0.155734
O O12 0.618984 0.716351 0.949755
O O13 0.829328 0.761068 0.989569
O O14 0.072074 0.423756 0.352167
O O15 0.351886 0.619336 0.062512
O O16 0.693073 0.040284 0.638745
O O17 0.000000 0.000000 0.000000
#
# Coordination Sequence:
#
# PCOD8043145 Si02
#       8
#     2   2   2   2   2   2   2   2
#     4  10  20  37  58  94 126 148 203 258 300 351
#     4  10  19  36  58  97 121 150 199 252 306 342
#     4  12  24  37  61  91 123 158 201 253 304 359
#     4  11  26  42  61  90 122 166 200 248 304 367
#     4  10  21  36  64  90 118 161 198 251 307 353
#     4  11  23  44  61  85 130 157 205 249 299 370
#     4  10  21  34  63  90 122 154 197 256 297 352
#     4  12  22  39  63  89 128 158 197 249 308 360
#
# _framework density 20.461413
#
# number of rings (size 3 to 8) (size 9 to 14) (size 15 to 20)
#    0.000    1.250    5.000    0.750    5.250    1.000 
#    0.000    3.125    0.000    2.250    0.000    0.000 
#    0.000    0.000    0.000    0.000    0.000    0.000 
#
# Total GULP energy -198324.187278 kJ/mol
# GULP energy per Si atom -12395.261705 kJ/mol
# Density = 2.041484 g / cm^3
# Si number density = 20.461413 Si / 1000 Ang^3
#
#
#
# Elastic Constant Matrix: (Units=GPa)
#
#
# Indices 1 2 3 4 5 6 
#
# 1 75.2598 34.3010 26.7375 -7.0022 -5.7467 2.3867
# 2 34.3010 131.7607 52.1274 -8.1275 -12.7350 4.0345
# 3 26.7375 52.1274 91.6117 -10.7629 -11.9855 8.8703
# 4 -7.0022 -8.1275 -10.7629 32.5566 -0.2660 0.2963
# 5 -5.7467 -12.7350 -11.9855 -0.2660 33.9776 1.0295
# 6 2.3867 4.0345 8.8703 0.2963 1.0295 24.1227
#
#
#
# Elastic Compliance Matrix: (Units=1/GPa)
#
#
# Indices 1 2 3 4 5 6 
#
# 1 0.015763 -0.002874 -0.002650 0.001804 0.000673 -0.000155
# 2 -0.002874 0.010441 -0.004856 0.000395 0.001710 0.000246
# 3 -0.002650 -0.004856 0.015797 0.003513 0.003481 -0.004926
# 4 0.001804 0.000395 0.003513 0.032398 0.002007 -0.002020
# 5 0.000673 0.001710 0.003481 0.002007 0.031520 -0.003002
# 6 -0.000155 0.000246 -0.004926 -0.002020 -0.003002 0.043393
#
#
# Mechanical properties :
#
#
# Convention : Reuss Voigt Hill
#
# Bulk Modulus (GPa) = 47.07898 58.32931 52.70415
# Shear Modulus (GPa) = 28.22410 30.49582 29.35996
#
# Velocity S-wave (km/s) = 3.71803 3.86477 3.79211
# Velocity P-wave (km/s) = 6.44130 6.96305 6.70725
#
# Compressibility (1/GPa) = 0.02124090
#
# Stress axis : x y z
#
# Youngs Moduli (GPa) = 63.44039 95.77768 63.30209
#
# Poissons Ratio (x) = 0.27526 0.16777
# Poissons Ratio (y) = 0.18233 0.30738
# Poissons Ratio (z) = 0.16813 0.46508
#
# Static dielectric constant tensor:
#      x y z
#    x 3.913290 -0.068470 -0.085690 
#    y -0.068470 3.627220 -0.161910 
#    z -0.085690 -0.161910 3.892110 
# 
# 
# High freq. dielectric constant tensor:
#      x y z
#    x 1.800700 -0.009830 -0.002200 
#    y -0.009830 1.764690 -0.009870 
#    z -0.002200 -0.009870 1.814610 
# 
# From -- ./inp_files/427573.got.cif
#   From: 2010.06.25/outbox.cif.g09.slc.cpg/sg2_214_cif.got.tgz:427573.got - 2010.06.27 13:26:56.
