data_PCOD8043084
_publ_section_title
;
Structure prediction by ZEFSAII (Michael W. Deem and Ramdas Pophale) SiO2 
 PCOD8043084
Probable space group: P -1
;
_chemical_formula_sum "Si O2"
_cell_formula_units_Z 16
_cell_length_a 19.866073
_cell_length_b 22.244733
_cell_length_c 11.480745
_cell_angle_alpha 41.254049
_cell_angle_beta 147.193064
_cell_angle_gamma 160.861926
_cell_volume 875.340398
_symmetry_space_group_name_H-M "P -1"
_symmetry_group_IT_number 2
_symmetry_cell_setting 'triclinic'
loop_
_space_group_symop_operation_xyz
x,y,z
-x,-y,-z
loop_
_atom_site_type_symbol
_atom_site_label
_atom_site_fract_x
_atom_site_fract_y
_atom_site_fract_z
Si Si1 0.532598 0.675015 0.120611
Si Si2 0.347814 0.957730 0.742687
Si Si3 0.239907 0.722112 0.777697
Si Si4 0.302349 0.702605 0.649723
Si Si5 0.000909 0.862770 0.518454
Si Si6 0.856137 0.624240 0.831559
Si Si7 0.244542 0.715975 0.300140
Si Si8 0.557521 0.768409 0.258078
O O1 0.293379 0.461726 0.136394
O O2 0.667477 0.814259 0.222729
O O3 0.744628 0.746187 0.264673
O O4 0.428657 0.682867 0.867334
O O5 0.231658 0.817985 0.677074
O O6 0.104297 0.854947 0.589851
O O7 0.540686 0.153992 0.677241
O O8 0.500000 0.000000 0.000000
O O9 0.362451 0.799796 0.712106
O O10 0.954730 0.495285 0.693798
O O11 0.423768 0.781597 0.042238
O O12 0.389273 0.806187 0.505057
O O13 0.000000 0.500000 0.500000
O O14 0.932531 0.770631 0.676854
O O15 0.214195 0.078169 0.539551
O O16 0.663321 0.448286 0.715768
O O17 0.109213 0.726993 0.072453
#
# Coordination Sequence:
#
# PCOD8043084 Si02
#       8
#     2   2   2   2   2   2   2   2
#     4   9  19  33  54  80 100 136 178 220 265 298
#     4  12  23  32  50  81 114 147 167 203 268 326
#     4   9  18  35  54  80 106 131 182 221 256 306
#     4   9  16  36  63  77  97 135 183 231 258 288
#     4  12  20  33  49  75 119 139 164 211 263 327
#     4   9  18  31  54  80  99 133 174 220 266 296
#     4  10  19  36  58  79 101 137 182 222 260 298
#     4   8  17  31  50  75 104 134 172 215 261 298
#
# _framework density 18.278604000000001
#
# number of rings (size 3 to 8) (size 9 to 14) (size 15 to 20)
#    0.750    1.500    5.000    0.750    0.000    2.000 
#    0.000    0.625    0.000    3.000    0.000    0.000 
#    0.000    0.000    0.000    0.000    0.000    0.000 
#
# Total GULP energy -198230.678946 kJ/mol
# GULP energy per Si atom -12389.417434 kJ/mol
# Density = 1.823700 g / cm^3
# Si number density = 18.278604 Si / 1000 Ang^3
#
#
#
# Elastic Constant Matrix: (Units=GPa)
#
#
# Indices 1 2 3 4 5 6 
#
# 1 78.5045 25.2656 41.7264 1.7138 13.1015 11.9750
# 2 25.2656 57.6502 22.8160 -5.1068 -2.3260 8.3842
# 3 41.7264 22.8160 102.5381 0.0952 15.1597 11.0780
# 4 1.7138 -5.1068 0.0952 17.5423 7.3288 -0.1684
# 5 13.1015 -2.3260 15.1597 7.3288 32.7687 0.6368
# 6 11.9750 8.3842 11.0780 -0.1684 0.6368 25.9074
#
#
#
# Elastic Compliance Matrix: (Units=1/GPa)
#
#
# Indices 1 2 3 4 5 6 
#
# 1 0.018981 -0.005966 -0.005132 -0.001421 -0.005232 -0.004529
# 2 -0.005966 0.022169 -0.002762 0.005301 0.004115 -0.003303
# 3 -0.005132 -0.002762 0.013392 0.001540 -0.004639 -0.002336
# 4 -0.001421 0.005301 0.001540 0.064601 -0.014198 -0.000948
# 5 -0.005232 0.004115 -0.004639 -0.014198 0.038183 0.002039
# 6 -0.004529 -0.003303 -0.002336 -0.000948 0.002039 0.042704
#
#
# Mechanical properties :
#
#
# Convention : Reuss Voigt Hill
#
# Bulk Modulus (GPa) = 37.28142 46.47876 41.88009
# Shear Modulus (GPa) = 21.12447 25.16932 23.14689
#
# Velocity S-wave (km/s) = 3.40324 3.71480 3.56243
# Velocity P-wave (km/s) = 5.99026 6.62441 6.31530
#
# Compressibility (1/GPa) = 0.02682301
#
# Stress axis : x y z
#
# Youngs Moduli (GPa) = 52.68387 45.10706 74.66905
#
# Poissons Ratio (x) = 0.26909 0.38324
# Poissons Ratio (y) = 0.31429 0.20623
# Poissons Ratio (z) = 0.27040 0.12458
#
# Static dielectric constant tensor:
#      x y z
#    x 3.400800 0.145070 -0.169900 
#    y 0.145070 3.227010 -0.015690 
#    z -0.169900 -0.015690 3.401560 
# 
# 
# High freq. dielectric constant tensor:
#      x y z
#    x 1.681430 0.004710 0.009490 
#    y 0.004710 1.698580 0.004510 
#    z 0.009490 0.004510 1.687280 
# 
# From -- ./inp_files/428953.got.cif
#   From: 2010.06.25/outbox.cif.g09.slc.cpg/sg2_215_cif.got.tgz:428953.got - 2010.06.27 13:26:56.
