data_PCOD8043977
_publ_section_title
;
Structure prediction by ZEFSAII (Michael W. Deem and Ramdas Pophale) SiO2 
 PCOD8043977
Probable space group: P -1
;
_chemical_formula_sum "Si O2"
_cell_formula_units_Z 16
_cell_length_a 7.833077
_cell_length_b 11.201538
_cell_length_c 11.833647
_cell_angle_alpha 55.550863
_cell_angle_beta 118.653302
_cell_angle_gamma 102.247157
_cell_volume 748.856539
_symmetry_space_group_name_H-M "P -1"
_symmetry_group_IT_number 2
_symmetry_cell_setting 'triclinic'
loop_
_space_group_symop_operation_xyz
x,y,z
-x,-y,-z
loop_
_atom_site_type_symbol
_atom_site_label
_atom_site_fract_x
_atom_site_fract_y
_atom_site_fract_z
Si Si1 0.410601 0.879056 0.317388
Si Si2 0.785612 0.386374 0.926301
Si Si3 0.480379 0.197479 0.222767
Si Si4 0.992300 0.903233 0.160608
Si Si5 0.342186 0.892896 0.029005
Si Si6 0.868489 0.347621 0.225159
Si Si7 0.301597 0.296210 0.347032
Si Si8 0.864958 0.659584 0.103663
O O1 0.195746 0.881618 0.306254
O O2 0.353868 0.847459 0.187922
O O3 0.554813 0.748631 0.480100
O O4 0.506068 0.029715 0.285390
O O5 0.635602 0.259060 0.951102
O O6 0.688841 0.531895 0.760636
O O7 0.970989 0.317368 0.951368
O O8 0.839790 0.421651 0.052573
O O9 0.699093 0.250261 0.263516
O O10 0.380858 0.209281 0.308078
O O11 0.347083 0.286712 0.041376
O O12 0.909404 0.749639 0.182256
O O13 0.000000 0.000000 0.000000
O O14 0.844993 0.007454 0.132677
O O15 0.500000 0.000000 0.000000
O O16 0.866648 0.489318 0.229938
O O17 0.082590 0.259529 0.334685
#
# Coordination Sequence:
#
# PCOD8043977 Si02
#       8
#     2   2   2   2   2   2   2   2
#     4  11  23  42  59  88 119 161 198 238 303 357
#     4  11  20  38  62  88 120 157 199 247 297 349
#     4  12  21  40  64  87 120 156 199 249 298 350
#     4  10  19  37  62  82 112 156 200 239 291 346
#     4  11  22  37  62  92 116 153 204 249 293 348
#     4  11  24  37  63  93 118 155 203 248 293 352
#     4  11  25  40  59  88 126 160 195 242 303 355
#     4  11  18  38  63  87 115 152 204 253 289 345
#
# _framework density 21.365908000000001
#
# number of rings (size 3 to 8) (size 9 to 14) (size 15 to 20)
#    0.000    1.000    7.500    2.250    0.000    1.000 
#    2.250    0.000    0.000    1.500    0.000    0.000 
#    0.000    0.000    0.000    0.000    0.000    0.000 
#
# Total GULP energy -198286.022261 kJ/mol
# GULP energy per Si atom -12392.876391 kJ/mol
# Density = 2.131728 g / cm^3
# Si number density = 21.365908 Si / 1000 Ang^3
#
#
#
# Elastic Constant Matrix: (Units=GPa)
#
#
# Indices 1 2 3 4 5 6 
#
# 1 75.8001 11.3601 38.8218 -1.5006 30.4122 15.7818
# 2 11.3601 110.8345 23.0806 -4.4360 15.5950 8.6123
# 3 38.8218 23.0806 108.0948 -3.0733 39.7429 2.7810
# 4 -1.5006 -4.4360 -3.0733 17.2090 -3.3027 6.3267
# 5 30.4122 15.5950 39.7429 -3.3027 27.8939 7.6070
# 6 15.7818 8.6123 2.7810 6.3267 7.6070 34.8903
#
#
#
# Elastic Compliance Matrix: (Units=1/GPa)
#
#
# Indices 1 2 3 4 5 6 
#
# 1 0.024778 0.001571 0.001321 -0.000663 -0.028385 -0.005392
# 2 0.001571 0.010044 -0.000472 0.002401 -0.005734 -0.002338
# 3 0.001321 -0.000472 0.020623 -0.004764 -0.032726 0.005874
# 4 -0.000663 0.002401 -0.004764 0.067322 0.018548 -0.016164
# 5 -0.028385 -0.005734 -0.032726 0.018548 0.122425 -0.013192
# 6 -0.005392 -0.002338 0.005874 -0.016164 -0.013192 0.037016
#
#
# Mechanical properties :
#
#
# Convention : Reuss Voigt Hill
#
# Bulk Modulus (GPa) = 16.58742 49.02826 32.80784
# Shear Modulus (GPa) = 16.80876 30.76309 23.78592
#
# Velocity S-wave (km/s) = 2.80788 3.79861 3.34018
# Velocity P-wave (km/s) = 4.27698 6.49893 5.50130
#
# Compressibility (1/GPa) = 0.06028665
#
# Stress axis : x y z
#
# Youngs Moduli (GPa) = 40.35805 99.55879 48.48894
#
# Poissons Ratio (x) = -0.15645 -0.06407
# Poissons Ratio (y) = -0.06342 0.02291
# Poissons Ratio (z) = -0.05333 0.04704
#
# Static dielectric constant tensor:
#      x y z
#    x 3.847030 0.255290 0.378730 
#    y 0.255290 3.788830 -0.009430 
#    z 0.378730 -0.009430 3.526340 
# 
# 
# High freq. dielectric constant tensor:
#      x y z
#    x 1.838670 0.004630 0.026530 
#    y 0.004630 1.853680 -0.005160 
#    z 0.026530 -0.005160 1.795100 
# 
# From -- ./inp_files/262116.got.cif
#   From: 2010.06.25/outbox.cif.g09.slc.cpg/sg2_132_cif.got.tgz:262116.got - 2010.06.27 13:26:56.
