data_PCOD8043990
_publ_section_title
;
Structure prediction by ZEFSAII (Michael W. Deem and Ramdas Pophale) SiO2 
 PCOD8043990
Probable space group: P -1
;
_chemical_formula_sum "Si O2"
_cell_formula_units_Z 16
_cell_length_a 8.513743
_cell_length_b 13.969629
_cell_length_c 12.437096
_cell_angle_alpha 78.784032
_cell_angle_beta 141.412716
_cell_angle_gamma 122.388655
_cell_volume 704.950528
_symmetry_space_group_name_H-M "P -1"
_symmetry_group_IT_number 2
_symmetry_cell_setting 'triclinic'
loop_
_space_group_symop_operation_xyz
x,y,z
-x,-y,-z
loop_
_atom_site_type_symbol
_atom_site_label
_atom_site_fract_x
_atom_site_fract_y
_atom_site_fract_z
Si Si1 0.758889 0.640091 0.071524
Si Si2 0.804599 0.632273 0.672299
Si Si3 0.819457 0.019018 0.487951
Si Si4 0.208307 0.458905 0.092505
Si Si5 0.929722 0.709510 0.380245
Si Si6 0.403261 0.003315 0.109874
Si Si7 0.970386 0.880698 0.721458
Si Si8 0.364047 0.733748 0.787369
O O1 0.942473 0.631993 0.072842
O O2 0.580914 0.690707 0.915147
O O3 0.500000 0.500000 0.000000
O O4 0.988136 0.717882 0.280243
O O5 0.500000 0.500000 0.500000
O O6 0.840471 0.629238 0.818827
O O7 0.754712 0.735939 0.601625
O O8 0.113173 0.666360 0.766520
O O9 0.461423 0.963104 0.264797
O O10 0.028550 0.167069 0.591373
O O11 0.000000 0.000000 0.500000
O O12 0.783468 0.938255 0.589269
O O13 0.576137 0.584380 0.248227
O O14 0.000000 0.500000 0.000000
O O15 0.182075 0.702450 0.581819
O O16 0.700422 0.040823 0.187056
O O17 0.398465 0.118020 0.099056
O O18 0.064644 0.894333 0.895545
#
# Coordination Sequence:
#
# PCOD8043990 Si02
#       8
#     2   2   2   2   2   2   2   2
#     4  10  22  38  59  85 117 160 208 244 294 358
#     4  11  21  37  55  86 128 159 192 240 309 364
#     4   9  17  29  55  87 112 146 197 253 293 329
#     4  11  24  40  57  86 124 160 196 244 306 370
#     4  10  20  38  61  88 121 155 202 253 295 348
#     4   8  16  29  52  83 109 144 197 246 286 332
#     4   9  17  30  50  80 115 152 188 242 290 339
#     4  10  19  37  62  87 118 155 199 249 298 355
#
# _framework density 22.696626999999999
#
# number of rings (size 3 to 8) (size 9 to 14) (size 15 to 20)
#    0.000    2.250    1.250    3.000    0.000    6.000 
#    2.250    0.000    0.000    3.000    0.000    6.125 
#    0.000    0.000    0.000    0.000    0.000    0.000 
#
# Total GULP energy -198256.504155 kJ/mol
# GULP energy per Si atom -12391.031510 kJ/mol
# Density = 2.264497 g / cm^3
# Si number density = 22.696627 Si / 1000 Ang^3
#
#
#
# Elastic Constant Matrix: (Units=GPa)
#
#
# Indices 1 2 3 4 5 6 
#
# 1 92.8660 28.9353 46.9149 -12.6425 -29.1485 -19.9989
# 2 28.9353 116.5273 63.4994 -19.7333 -7.4033 -21.3751
# 3 46.9149 63.4994 141.9443 -17.8462 -34.6667 -10.7884
# 4 -12.6425 -19.7333 -17.8462 41.6480 -1.9310 -2.2652
# 5 -29.1485 -7.4033 -34.6667 -1.9310 35.0015 -1.3585
# 6 -19.9989 -21.3751 -10.7884 -2.2652 -1.3585 29.0400
#
#
#
# Elastic Compliance Matrix: (Units=1/GPa)
#
#
# Indices 1 2 3 4 5 6 
#
# 1 0.021293 0.000565 -0.000498 0.008265 0.018450 0.016402
# 2 0.000565 0.013709 -0.005382 0.004776 -0.001356 0.008789
# 3 -0.000498 -0.005382 0.012971 0.003463 0.011536 0.001324
# 4 0.008265 0.004776 0.003463 0.031637 0.013597 0.013598
# 5 0.018450 -0.001356 0.011536 0.013597 0.056589 0.019701
# 6 0.016402 0.008789 0.001324 0.013598 0.019701 0.054674
#
#
# Mechanical properties :
#
#
# Convention : Reuss Voigt Hill
#
# Bulk Modulus (GPa) = 26.78007 70.00410 48.39208
# Shear Modulus (GPa) = 23.36982 35.27042 29.32012
#
# Velocity S-wave (km/s) = 3.21231 3.94635 3.59810
# Velocity P-wave (km/s) = 5.05800 7.18855 6.21525
#
# Compressibility (1/GPa) = 0.03734121
#
# Stress axis : x y z
#
# Youngs Moduli (GPa) = 46.96486 72.94302 77.09518
#
# Poissons Ratio (x) = -0.04121 0.03842
# Poissons Ratio (y) = -0.02653 0.41495
# Poissons Ratio (z) = 0.02341 0.39260
#
# Static dielectric constant tensor:
#      x y z
#    x 3.664430 -0.206940 -0.100700 
#    y -0.206940 4.235620 -0.285840 
#    z -0.100700 -0.285840 3.854810 
# 
# 
# High freq. dielectric constant tensor:
#      x y z
#    x 1.864580 -0.015970 -0.030300 
#    y -0.015970 1.906710 -0.013740 
#    z -0.030300 -0.013740 1.898660 
# 
# From -- ./inp_files/315820.got.cif
#   From: 2010.06.25/outbox.cif.g09.slc.cpg/sg2_158_cif.got.tgz:315820.got - 2010.06.27 13:26:56.
