data_PCOD8043629
_publ_section_title
;
Structure prediction by ZEFSAII (Michael W. Deem and Ramdas Pophale) SiO2 
 PCOD8043629
Probable space group: P -1
;
_chemical_formula_sum "Si O2"
_cell_formula_units_Z 12
_cell_length_a 7.014390
_cell_length_b 10.004936
_cell_length_c 9.429842
_cell_angle_alpha 95.833356
_cell_angle_beta 83.206372
_cell_angle_gamma 135.475074
_cell_volume 460.647237
_symmetry_space_group_name_H-M "P -1"
_symmetry_group_IT_number 2
_symmetry_cell_setting 'triclinic'
loop_
_space_group_symop_operation_xyz
x,y,z
-x,-y,-z
loop_
_atom_site_type_symbol
_atom_site_label
_atom_site_fract_x
_atom_site_fract_y
_atom_site_fract_z
Si Si1 0.090214 0.768796 0.187242
Si Si2 0.714718 0.489481 0.952714
Si Si3 0.217489 0.217954 0.557122
Si Si4 0.121869 0.261508 0.280209
Si Si5 0.475461 0.104209 0.628821
Si Si6 0.283058 0.112433 0.062316
O O1 0.262244 0.765447 0.279915
O O2 0.868682 0.748031 0.289155
O O3 0.295028 0.968927 0.106485
O O4 0.940942 0.597849 0.069464
O O5 0.847368 0.585635 0.797241
O O6 0.500000 0.500000 0.000000
O O7 0.542475 0.263645 0.949031
O O8 0.245088 0.339456 0.437999
O O9 0.479881 0.256101 0.574879
O O10 0.000000 0.000000 0.500000
O O11 0.307572 0.233563 0.198670
O O12 0.805139 0.061024 0.279183
O O13 0.500000 0.000000 0.500000
O O14 0.000000 0.000000 0.000000
#
# Coordination Sequence:
#
# PCOD8043629 Si02
#       6
#     2   2   2   2   2   2
#     4  12  21  40  72  95 134 173 211 280 323 379
#     4  10  23  39  67 101 130 170 223 264 333 393
#     4  10  19  36  66  98 125 177 220 259 327 383
#     4  10  19  38  63  97 135 166 219 266 320 388
#     4  11  20  35  67 102 132 172 224 262 322 394
#     4  11  20  41  70  94 129 173 214 270 330 389
#
# _framework density 26.050305000000002
#
# number of rings (size 3 to 8) (size 9 to 14) (size 15 to 20)
#    0.000    1.333   10.000    0.000    0.000    0.667 
#    0.000    4.167   11.000    5.000    0.000    0.000 
#    0.000    0.000    0.000    0.000    0.000    0.000 
#
# Total GULP energy -148767.626700 kJ/mol
# GULP energy per Si atom -12397.302225 kJ/mol
# Density = 2.599101 g / cm^3
# Si number density = 26.050305 Si / 1000 Ang^3
#
#
#
# Elastic Constant Matrix: (Units=GPa)
#
#
# Indices 1 2 3 4 5 6 
#
# 1 115.6958 27.9813 52.7264 5.2721 36.7748 6.9873
# 2 27.9813 121.1877 69.8396 -12.6778 22.8897 -1.5322
# 3 52.7264 69.8396 152.5600 -13.8475 38.5959 -2.9610
# 4 5.2721 -12.6778 -13.8475 39.2722 3.4910 4.3343
# 5 36.7748 22.8897 38.5959 3.4910 60.4218 7.6300
# 6 6.9873 -1.5322 -2.9610 4.3343 7.6300 31.4298
#
#
#
# Elastic Compliance Matrix: (Units=1/GPa)
#
#
# Indices 1 2 3 4 5 6 
#
# 1 0.011785 -0.000376 -0.002887 -0.002129 -0.004883 -0.001431
# 2 -0.000376 0.011463 -0.004568 0.002235 -0.001355 0.000233
# 3 -0.002887 -0.004568 0.010937 0.002897 -0.003919 0.002001
# 4 -0.002129 0.002235 0.002897 0.027993 -0.002722 -0.002344
# 5 -0.004883 -0.001355 -0.003919 -0.002722 0.023280 -0.004626
# 6 -0.001431 0.000233 0.002001 -0.002344 -0.004626 0.033781
#
#
# Mechanical properties :
#
#
# Convention : Reuss Voigt Hill
#
# Bulk Modulus (GPa) = 53.98293 76.72647 65.35470
# Shear Modulus (GPa) = 35.44192 42.15114 38.79653
#
# Velocity S-wave (km/s) = 3.69252 4.02688 3.86332
# Velocity P-wave (km/s) = 6.24077 7.15110 6.71139
#
# Compressibility (1/GPa) = 0.01852438
#
# Stress axis : x y z
#
# Youngs Moduli (GPa) = 84.85052 87.23354 91.43519
#
# Poissons Ratio (x) = 0.03281 0.26395
# Poissons Ratio (y) = 0.03192 0.41765
# Poissons Ratio (z) = 0.24494 0.39846
#
# Static dielectric constant tensor:
#      x y z
#    x 5.260460 -0.308540 0.239470 
#    y -0.308540 5.267310 -0.480530 
#    z 0.239470 -0.480530 5.419910 
# 
# 
# High freq. dielectric constant tensor:
#      x y z
#    x 2.037740 -0.002170 0.010310 
#    y -0.002170 2.027140 -0.001000 
#    z 0.010310 -0.001000 2.057930 
# 
# From -- ./inp_files/164160.got.cif
#   From: 2010.06.25/outbox.cif.g09.slc.cpg/sg2_83_cif.got.tgz:164160.got - 2010.06.27 13:26:56.
