data_PCOD8043230
_publ_section_title
;
Structure prediction by ZEFSAII (Michael W. Deem and Ramdas Pophale) SiO2 
 PCOD8043230
Probable space group: P -1
;
_chemical_formula_sum "Si O2"
_cell_formula_units_Z 14
_cell_length_a 20.850274
_cell_length_b 6.921865
_cell_length_c 8.583340
_cell_angle_alpha 87.359026
_cell_angle_beta 40.277609
_cell_angle_gamma 107.732580
_cell_volume 680.365225
_symmetry_space_group_name_H-M "P -1"
_symmetry_group_IT_number 2
_symmetry_cell_setting 'triclinic'
loop_
_space_group_symop_operation_xyz
x,y,z
-x,-y,-z
loop_
_atom_site_type_symbol
_atom_site_label
_atom_site_fract_x
_atom_site_fract_y
_atom_site_fract_z
Si Si1 0.376221 0.727223 0.319117
Si Si2 0.976564 0.771287 0.979401
Si Si3 0.616769 0.731489 0.327509
Si Si4 0.775178 0.570081 0.128079
Si Si5 0.289349 0.780018 0.998042
Si Si6 0.513120 0.198222 0.187845
Si Si7 0.165572 0.676064 0.547020
O O1 0.312396 0.518010 0.560444
O O2 0.288625 0.796530 0.404011
O O3 0.472660 0.940503 0.229627
O O4 0.433523 0.657645 0.076096
O O5 0.100882 0.808042 0.703264
O O6 0.904684 0.717676 0.952770
O O7 0.912620 0.582999 0.239257
O O8 0.000000 0.000000 0.000000
O O9 0.500000 0.500000 0.500000
O O10 0.732446 0.715205 0.107171
O O11 0.590128 0.777668 0.551349
O O12 0.649618 0.949870 0.152916
O O13 0.768144 0.366155 0.047142
O O14 0.188176 0.689906 0.319151
O O15 0.387386 0.725626 0.868512
#
# Coordination Sequence:
#
# PCOD8043230 Si02
#       7
#     2   2   2   2   2   2   2
#     4   9  19  37  60  86 115 159 197 235 290 347
#     4  10  23  43  65  89 115 145 202 256 298 353
#     4  12  23  35  60  91 126 162 192 238 295 340
#     4  11  23  38  60  88 117 158 195 246 300 347
#     4  11  22  41  60  86 125 156 201 237 286 365
#     4  10  19  36  60  84 121 158 196 237 281 351
#     4   9  22  42  65  85 115 161 192 244 309 339
#
# _framework density 20.577183999999999
#
# number of rings (size 3 to 8) (size 9 to 14) (size 15 to 20)
#    0.000    1.714    2.857    1.286    2.000    3.429 
#    2.571    1.429    0.000    0.000    0.000    0.000 
#    0.000    0.000    0.000    0.000    0.000    0.000 
#
# Total GULP energy -173545.731723 kJ/mol
# GULP energy per Si atom -12396.123695 kJ/mol
# Density = 2.053035 g / cm^3
# Si number density = 20.577184 Si / 1000 Ang^3
#
#
#
# Elastic Constant Matrix: (Units=GPa)
#
#
# Indices 1 2 3 4 5 6 
#
# 1 73.9087 39.1537 21.6669 3.8907 0.5895 13.2896
# 2 39.1537 108.4190 34.2515 6.0127 3.6235 3.4112
# 3 21.6669 34.2515 100.9019 18.3468 9.8055 0.0574
# 4 3.8907 6.0127 18.3468 23.8485 1.7594 -5.3366
# 5 0.5895 3.6235 9.8055 1.7594 30.9198 2.3899
# 6 13.2896 3.4112 0.0574 -5.3366 2.3899 30.1329
#
#
#
# Elastic Compliance Matrix: (Units=1/GPa)
#
#
# Indices 1 2 3 4 5 6 
#
# 1 0.018725 -0.005878 -0.001795 -0.002126 0.001648 -0.008097
# 2 -0.005878 0.012218 -0.002919 0.000462 -0.000524 0.001338
# 3 -0.001795 -0.002919 0.013237 -0.008963 -0.003294 -0.000229
# 4 -0.002126 0.000462 -0.008963 0.051375 -0.000873 0.010070
# 5 0.001648 -0.000524 -0.003294 -0.000873 0.033736 -0.003491
# 6 -0.008097 0.001338 -0.000229 0.010070 -0.003491 0.038666
#
#
# Mechanical properties :
#
#
# Convention : Reuss Voigt Hill
#
# Bulk Modulus (GPa) = 43.48481 52.59708 48.04094
# Shear Modulus (GPa) = 25.40590 29.52407 27.46498
#
# Velocity S-wave (km/s) = 3.51759 3.79198 3.65736
# Velocity P-wave (km/s) = 6.13810 6.69242 6.42125
#
# Compressibility (1/GPa) = 0.02299654
#
# Stress axis : x y z
#
# Youngs Moduli (GPa) = 53.40572 81.84594 75.54671
#
# Poissons Ratio (x) = 0.48105 0.13558
# Poissons Ratio (y) = 0.31389 0.22054
# Poissons Ratio (z) = 0.09584 0.23893
#
# Static dielectric constant tensor:
#      x y z
#    x 3.790430 0.032990 0.059880 
#    y 0.032990 3.480550 0.141150 
#    z 0.059880 0.141150 3.868950 
# 
# 
# High freq. dielectric constant tensor:
#      x y z
#    x 1.803620 0.005920 0.004900 
#    y 0.005920 1.790790 0.010950 
#    z 0.004900 0.010950 1.805760 
# 
# From -- ./inp_files/27235.got.cif
#   From: 2010.06.25/outbox.cif.g09.slc.cpg/sg2_14_cif.got.tgz:27235.got - 2010.06.27 13:26:56.
