data_PCOD8043733
_publ_section_title
;
Structure prediction by ZEFSAII (Michael W. Deem and Ramdas Pophale) SiO2 
 PCOD8043733
Probable space group: P -1
;
_chemical_formula_sum "Si O2"
_cell_formula_units_Z 14
_cell_length_a 15.534390
_cell_length_b 11.133833
_cell_length_c 14.213641
_cell_angle_alpha 42.242470
_cell_angle_beta 27.760317
_cell_angle_gamma 59.790325
_cell_volume 673.084518
_symmetry_space_group_name_H-M "P -1"
_symmetry_group_IT_number 2
_symmetry_cell_setting 'triclinic'
loop_
_space_group_symop_operation_xyz
x,y,z
-x,-y,-z
loop_
_atom_site_type_symbol
_atom_site_label
_atom_site_fract_x
_atom_site_fract_y
_atom_site_fract_z
Si Si1 0.064281 0.644815 0.235444
Si Si2 0.137187 0.394062 0.740586
Si Si3 0.524585 0.979423 0.375817
Si Si4 0.450434 0.546401 0.627068
Si Si5 0.251247 0.412977 0.275028
Si Si6 0.017143 0.654877 0.812501
Si Si7 0.157556 0.974524 0.630083
O O1 0.189546 0.511537 0.188500
O O2 0.991414 0.690085 0.180848
O O3 0.852781 0.532046 0.567810
O O4 0.234916 0.870793 0.974988
O O5 0.386125 0.467415 0.450195
O O6 0.123350 0.599038 0.656732
O O7 0.038527 0.208017 0.018893
O O8 0.456768 0.760625 0.521102
O O9 0.374941 0.056558 0.428387
O O10 0.500000 0.000000 0.500000
O O11 0.500000 0.500000 0.500000
O O12 0.211639 0.374634 0.979021
O O13 0.126055 0.168550 0.528809
O O14 0.500000 0.500000 0.000000
O O15 0.165677 0.885391 0.570874
O O16 0.000000 0.500000 0.000000
#
# Coordination Sequence:
#
# PCOD8043733 Si02
#       7
#     2   2   2   2   2   2   2
#     4  11  25  41  61  93 125 163 209 258 309 376
#     4  11  22  39  64  95 128 157 204 261 315 369
#     4  12  22  36  65 100 128 156 204 265 316 371
#     4  12  21  34  60  94 127 166 198 249 317 377
#     4  11  25  43  61  85 125 169 209 257 313 366
#     4  10  19  37  57  92 128 156 200 257 309 369
#     4  11  20  38  64  90 123 161 200 256 314 365
#
# _framework density 20.799766999999999
#
# number of rings (size 3 to 8) (size 9 to 14) (size 15 to 20)
#    0.000    0.857    8.571    0.857    2.000    2.286 
#    0.000    0.714    0.000    1.714    0.000    0.000 
#    0.000    0.000    0.000    0.000    0.000    0.000 
#
# Total GULP energy -173434.443999 kJ/mol
# GULP energy per Si atom -12388.174571 kJ/mol
# Density = 2.075243 g / cm^3
# Si number density = 20.799767 Si / 1000 Ang^3
#
#
#
# Elastic Constant Matrix: (Units=GPa)
#
#
# Indices 1 2 3 4 5 6 
#
# 1 65.7783 27.8760 36.9764 -10.7012 -30.6669 -10.0866
# 2 27.8760 107.1177 29.4261 -8.2720 -10.8947 -4.1434
# 3 36.9764 29.4261 77.9540 6.9507 -22.4227 -10.1155
# 4 -10.7012 -8.2720 6.9507 37.0145 -6.2496 -10.5193
# 5 -30.6669 -10.8947 -22.4227 -6.2496 33.6322 7.0114
# 6 -10.0866 -4.1434 -10.1155 -10.5193 7.0114 31.0040
#
#
#
# Elastic Compliance Matrix: (Units=1/GPa)
#
#
# Indices 1 2 3 4 5 6 
#
# 1 0.042993 -0.002823 -0.010388 0.022293 0.033370 0.010238
# 2 -0.002823 0.011062 -0.003210 0.002253 -0.000808 0.000460
# 3 -0.010388 -0.003210 0.020041 -0.007248 0.001517 -0.000072
# 4 0.022293 0.002253 -0.007248 0.043171 0.021107 0.015063
# 5 0.033370 -0.000808 0.001517 0.021107 0.064014 0.003928
# 6 0.010238 0.000460 -0.000072 0.015063 0.003928 0.039845
#
#
# Mechanical properties :
#
#
# Convention : Reuss Voigt Hill
#
# Bulk Modulus (GPa) = 24.24102 48.82300 36.53201
# Shear Modulus (GPa) = 18.67636 30.76824 24.72230
#
# Velocity S-wave (km/s) = 2.99977 3.85029 3.45133
# Velocity P-wave (km/s) = 4.86600 6.57952 5.78654
#
# Compressibility (1/GPa) = 0.04125238
#
# Stress axis : x y z
#
# Youngs Moduli (GPa) = 23.25971 90.40283 49.89865
#
# Poissons Ratio (x) = 0.25522 0.51835
# Poissons Ratio (y) = 0.06566 0.16018
# Poissons Ratio (z) = 0.24162 0.29021
#
# Static dielectric constant tensor:
#      x y z
#    x 5.263580 1.417980 0.491180 
#    y 1.417980 5.453280 0.831500 
#    z 0.491180 0.831500 4.193130 
# 
# 
# High freq. dielectric constant tensor:
#      x y z
#    x 1.799680 -0.004170 -0.039460 
#    y -0.004170 1.826320 0.007180 
#    z -0.039460 0.007180 1.795360 
# 
# From -- ./inp_files/464691.got.cif
#   From: 2010.06.25/outbox.cif.g09.slc.cpg/sg2_233_cif.got.tgz:464691.got - 2010.06.27 13:26:56.
