data_PCOD8043163
_publ_section_title
;
Structure prediction by ZEFSAII (Michael W. Deem and Ramdas Pophale) SiO2 
 PCOD8043163
Probable space group: P -1
;
_chemical_formula_sum "Si O2"
_cell_formula_units_Z 14
_cell_length_a 13.201387
_cell_length_b 23.782108
_cell_length_c 23.266838
_cell_angle_alpha 162.675486
_cell_angle_beta 162.040151
_cell_angle_gamma 24.809698
_cell_volume 670.730293
_symmetry_space_group_name_H-M "P -1"
_symmetry_group_IT_number 2
_symmetry_cell_setting 'triclinic'
loop_
_space_group_symop_operation_xyz
x,y,z
-x,-y,-z
loop_
_atom_site_type_symbol
_atom_site_label
_atom_site_fract_x
_atom_site_fract_y
_atom_site_fract_z
Si Si1 0.303346 0.801788 0.298401
Si Si2 0.878219 0.516497 0.735737
Si Si3 0.184499 0.470181 0.734369
Si Si4 0.715633 0.385791 0.302786
Si Si5 0.630183 0.729051 0.519219
Si Si6 0.312763 0.231669 0.751250
Si Si7 0.659055 0.909461 0.244556
O O1 0.593531 0.717517 0.332974
O O2 0.359948 0.726695 0.320375
O O3 0.310196 0.027933 0.519875
O O4 0.956035 0.715039 0.003900
O O5 0.500000 0.500000 0.500000
O O6 0.110871 0.511345 0.800591
O O7 0.983137 0.341564 0.661960
O O8 0.838245 0.430520 0.476728
O O9 0.364431 0.649811 0.977379
O O10 0.543397 0.570543 0.364276
O O11 0.009441 0.308729 0.346801
O O12 0.443985 0.220268 0.991925
O O13 0.617476 0.931034 0.740648
O O14 0.313294 0.214320 0.803319
O O15 0.000000 0.000000 0.500000
#
# Coordination Sequence:
#
# PCOD8043163 Si02
#       7
#     2   2   2   2   2   2   2
#     4   9  19  38  62  82 110 149 192 235 276 329
#     4  11  24  39  57  86 117 146 188 236 285 338
#     4  10  22  37  61  87 109 150 195 230 275 335
#     4  10  19  36  59  83 115 147 187 235 276 326
#     4   9  19  36  60  84 108 149 192 231 278 332
#     4  10  21  41  61  81 112 151 194 233 277 332
#     4  11  23  36  57  88 119 150 184 228 285 342
#
# _framework density 20.872772000000001
#
# number of rings (size 3 to 8) (size 9 to 14) (size 15 to 20)
#    0.000    2.000    0.000    5.571    0.000    9.143 
#    0.000    0.000    0.000    0.000    0.000    0.000 
#    0.000    0.000    0.000    0.000    0.000    0.000 
#
# Total GULP energy -173578.844757 kJ/mol
# GULP energy per Si atom -12398.488911 kJ/mol
# Density = 2.082526 g / cm^3
# Si number density = 20.872772 Si / 1000 Ang^3
#
#
#
# Elastic Constant Matrix: (Units=GPa)
#
#
# Indices 1 2 3 4 5 6 
#
# 1 38.3008 15.5631 15.2821 6.9120 -7.6592 7.0883
# 2 15.5631 102.2259 52.1049 8.3708 -11.7140 8.1988
# 3 15.2821 52.1049 152.9978 -0.9933 -25.0219 9.7611
# 4 6.9120 8.3708 -0.9933 33.1147 -2.3870 -3.6314
# 5 -7.6592 -11.7140 -25.0219 -2.3870 32.5195 -2.3062
# 6 7.0883 8.1988 9.7611 -3.6314 -2.3062 16.8034
#
#
#
# Elastic Compliance Matrix: (Units=1/GPa)
#
#
# Indices 1 2 3 4 5 6 
#
# 1 0.031972 -0.002267 -0.000903 -0.007199 0.004584 -0.012783
# 2 -0.002267 0.012679 -0.003776 -0.003198 0.000635 -0.003640
# 3 -0.000903 -0.003776 0.008903 0.001583 0.005260 -0.001884
# 4 -0.007199 -0.003198 0.001583 0.033908 0.001656 0.011233
# 5 0.004584 0.000635 0.005260 0.001656 0.036230 0.000031
# 6 -0.012783 -0.003640 -0.001884 0.011233 0.000031 0.070207
#
#
# Mechanical properties :
#
#
# Convention : Reuss Voigt Hill
#
# Bulk Modulus (GPa) = 25.21359 51.04719 38.13039
# Shear Modulus (GPa) = 22.62323 30.52579 26.57451
#
# Velocity S-wave (km/s) = 3.29578 3.82837 3.57202
# Velocity P-wave (km/s) = 5.15643 6.63712 5.94307
#
# Compressibility (1/GPa) = 0.03966115
#
# Stress axis : x y z
#
# Youngs Moduli (GPa) = 31.27719 78.87218 112.32216
#
# Poissons Ratio (x) = 0.17883 0.10141
# Poissons Ratio (y) = 0.07092 0.42414
# Poissons Ratio (z) = 0.02824 0.29783
#
# Static dielectric constant tensor:
#      x y z
#    x 3.659920 0.014010 -0.330490 
#    y 0.014010 3.936600 0.102430 
#    z -0.330490 0.102430 3.848180 
# 
# 
# High freq. dielectric constant tensor:
#      x y z
#    x 1.800250 0.005790 -0.023980 
#    y 0.005790 1.816400 0.003860 
#    z -0.023980 0.003860 1.825110 
# 
# From -- ./inp_files/282475.got.cif
#   From: 2010.06.25/outbox.cif.g09.slc.cpg/sg2_142_cif.got.tgz:282475.got - 2010.06.27 13:26:56.
