data_PCOD8043388
_publ_section_title
;
Structure prediction by ZEFSAII (Michael W. Deem and Ramdas Pophale) SiO2 
 PCOD8043388
Probable space group: P -1
;
_chemical_formula_sum "Si O2"
_cell_formula_units_Z 16
_cell_length_a 17.351654
_cell_length_b 8.865996
_cell_length_c 23.780815
_cell_angle_alpha 35.314574
_cell_angle_beta 156.389447
_cell_angle_gamma 144.605133
_cell_volume 810.227222
_symmetry_space_group_name_H-M "P -1"
_symmetry_group_IT_number 2
_symmetry_cell_setting 'triclinic'
loop_
_space_group_symop_operation_xyz
x,y,z
-x,-y,-z
loop_
_atom_site_type_symbol
_atom_site_label
_atom_site_fract_x
_atom_site_fract_y
_atom_site_fract_z
Si Si1 0.167181 0.868895 0.173137
Si Si2 0.602550 0.241192 0.318631
Si Si3 0.331170 0.463191 0.349913
Si Si4 0.351288 0.170899 0.617144
Si Si5 0.871949 0.164479 0.614650
Si Si6 0.338752 0.356590 0.855349
Si Si7 0.922636 0.447723 0.678803
Si Si8 0.354264 0.780710 0.830557
O O1 0.159633 0.596666 0.215263
O O2 0.119742 0.784128 0.231616
O O3 0.387572 0.082462 0.249365
O O4 0.000000 0.000000 0.000000
O O5 0.771387 0.321937 0.455212
O O6 0.591824 0.522814 0.197001
O O7 0.685215 0.067092 0.381190
O O8 0.500000 0.500000 0.500000
O O9 0.430049 0.616506 0.312424
O O10 0.239858 0.153424 0.366461
O O11 0.184770 0.323803 0.449213
O O12 0.336072 0.059817 0.705031
O O13 0.840587 0.286055 0.616507
O O14 0.103904 0.203242 0.744782
O O15 0.403218 0.611700 0.862886
O O16 0.464449 0.152946 0.022498
O O17 0.156711 0.608456 0.783179
#
# Coordination Sequence:
#
# PCOD8043388 Si02
#       8
#     2   2   2   2   2   2   2   2
#     4  11  22  38  63  87 114 156 195 234 286 348
#     4  10  19  37  59  83 113 155 196 229 288 348
#     4  11  20  41  60  83 111 158 193 229 289 353
#     4  10  19  36  62  80 111 158 196 231 280 355
#     4  11  21  35  60  88 115 146 195 242 291 335
#     4   9  19  35  56  81 116 151 192 239 284 344
#     4  11  21  35  58  91 117 147 194 245 283 336
#     4   9  19  35  55  83 115 153 190 235 292 338
#
# _framework density 19.747546
#
# number of rings (size 3 to 8) (size 9 to 14) (size 15 to 20)
#    0.000    1.750    3.750    1.500    0.000    5.000 
#    0.000    3.750    0.000    4.500    0.000    0.000 
#    0.000    0.000    0.000    0.000    0.000    0.000 
#
# Total GULP energy -198364.276918 kJ/mol
# GULP energy per Si atom -12397.767307 kJ/mol
# Density = 1.970260 g / cm^3
# Si number density = 19.747546 Si / 1000 Ang^3
#
#
#
# Elastic Constant Matrix: (Units=GPa)
#
#
# Indices 1 2 3 4 5 6 
#
# 1 119.7355 33.9971 63.2418 0.9938 -12.4764 25.8092
# 2 33.9971 63.2574 37.4453 6.5876 -13.1780 12.6963
# 3 63.2418 37.4453 161.6540 -2.8103 -17.4831 4.8322
# 4 0.9938 6.5876 -2.8103 31.9502 3.3730 0.2083
# 5 -12.4764 -13.1780 -17.4831 3.3730 28.6426 -10.8537
# 6 25.8092 12.6963 4.8322 0.2083 -10.8537 25.1452
#
#
#
# Elastic Compliance Matrix: (Units=1/GPa)
#
#
# Indices 1 2 3 4 5 6 
#
# 1 0.014368 -0.002718 -0.004928 0.000114 -0.003256 -0.013834
# 2 -0.002718 0.022025 -0.003376 -0.005302 0.005522 -0.005255
# 3 -0.004928 -0.003376 0.009184 0.001150 0.004376 0.006878
# 4 0.000114 -0.005302 0.001150 0.033099 -0.005742 -0.000414
# 5 -0.003256 0.005522 0.004376 -0.005742 0.046975 0.020037
# 6 -0.013834 -0.005255 0.006878 -0.000414 0.020037 0.063952
#
#
# Mechanical properties :
#
#
# Convention : Reuss Voigt Hill
#
# Bulk Modulus (GPa) = 42.49580 68.22392 55.35986
# Shear Modulus (GPa) = 22.77977 31.14511 26.96244
#
# Velocity S-wave (km/s) = 3.40008 3.97566 3.69908
# Velocity P-wave (km/s) = 6.08114 7.46308 6.80727
#
# Compressibility (1/GPa) = 0.02353174
#
# Stress axis : x y z
#
# Youngs Moduli (GPa) = 69.59748 45.40267 108.88741
#
# Poissons Ratio (x) = 0.12342 0.53660
# Poissons Ratio (y) = 0.18919 0.36764
# Poissons Ratio (z) = 0.34298 0.15329
#
# Static dielectric constant tensor:
#      x y z
#    x 3.867350 0.261030 -0.158330 
#    y 0.261030 3.537760 -0.173320 
#    z -0.158330 -0.173320 3.801370 
# 
# 
# High freq. dielectric constant tensor:
#      x y z
#    x 1.774130 0.025940 -0.003640 
#    y 0.025940 1.750590 -0.009770 
#    z -0.003640 -0.009770 1.773470 
# 
# From -- ./inp_files/240500.got.cif
#   From: 2010.06.25/outbox.cif.g09.slc.cpg/sg2_121_cif.got.tgz:240500.got - 2010.06.27 13:26:56.
