data_PCOD8043850
_publ_section_title
;
Structure prediction by ZEFSAII (Michael W. Deem and Ramdas Pophale) SiO2 
 PCOD8043850
Probable space group: P -1
;
_chemical_formula_sum "Si O2"
_cell_formula_units_Z 16
_cell_length_a 9.150500
_cell_length_b 22.822543
_cell_length_c 9.275843
_cell_angle_alpha 144.341354
_cell_angle_beta 132.824135
_cell_angle_gamma 56.117444
_cell_volume 828.193698
_symmetry_space_group_name_H-M "P -1"
_symmetry_group_IT_number 2
_symmetry_cell_setting 'triclinic'
loop_
_space_group_symop_operation_xyz
x,y,z
-x,-y,-z
loop_
_atom_site_type_symbol
_atom_site_label
_atom_site_fract_x
_atom_site_fract_y
_atom_site_fract_z
Si Si1 0.931730 0.737333 0.584082
Si Si2 0.824566 0.206201 0.886649
Si Si3 0.188656 0.210182 0.952703
Si Si4 0.926207 0.262370 0.630054
Si Si5 0.563582 0.882475 0.649949
Si Si6 0.727476 0.613063 0.426455
Si Si7 0.570472 0.114246 0.113926
Si Si8 0.281801 0.614627 0.030040
O O1 0.749744 0.814942 0.591392
O O2 0.872692 0.642481 0.451991
O O3 0.007291 0.698370 0.402739
O O4 0.112610 0.789831 0.896028
O O5 0.631579 0.136415 0.615397
O O6 0.776895 0.316074 0.006388
O O7 0.010328 0.159397 0.825137
O O8 0.240371 0.318043 0.273959
O O9 0.384690 0.139792 0.936098
O O10 0.118712 0.220642 0.761870
O O11 0.766221 0.174764 0.325519
O O12 0.837553 0.355710 0.846322
O O13 0.503255 0.852437 0.711001
O O14 0.627212 0.997488 0.909019
O O15 0.510674 0.628109 0.245620
O O16 0.770230 0.498945 0.274858
#
# Coordination Sequence:
#
# PCOD8043850 Si02
#       8
#     2   2   2   2   2   2   2   2
#     4  11  23  38  57  86 122 150 185 234 288 339
#     4  10  19  37  60  86 109 150 195 230 283 333
#     4  10  19  37  60  86 109 150 195 230 283 333
#     4  11  23  38  57  86 122 150 185 234 288 339
#     4  11  21  38  61  86 114 147 197 240 276 331
#     4  10  19  38  64  84 111 150 194 235 279 337
#     4  11  21  38  61  86 114 147 197 240 276 331
#     4  10  19  38  64  84 111 150 194 235 279 337
#
# _framework density 19.319151999999999
#
# number of rings (size 3 to 8) (size 9 to 14) (size 15 to 20)
#    0.000    1.500    7.500    0.000    0.000    8.000 
#    0.000    1.250    0.000    3.000    0.000    0.000 
#    0.000    0.000    0.000    0.000    0.000    0.000 
#
# Total GULP energy -198398.370674 kJ/mol
# GULP energy per Si atom -12399.898167 kJ/mol
# Density = 1.927518 g / cm^3
# Si number density = 19.319152 Si / 1000 Ang^3
#
#
#
# Elastic Constant Matrix: (Units=GPa)
#
#
# Indices 1 2 3 4 5 6 
#
# 1 54.5370 19.0728 27.7176 -5.7687 -0.5228 6.9434
# 2 19.0728 52.1515 35.0477 -7.0786 9.3967 3.3069
# 3 27.7176 35.0477 67.6137 -16.8022 11.2954 -10.6082
# 4 -5.7687 -7.0786 -16.8022 39.8845 -2.2595 -6.2845
# 5 -0.5228 9.3967 11.2954 -2.2595 26.9257 -11.6069
# 6 6.9434 3.3069 -10.6082 -6.2845 -11.6069 20.3022
#
#
#
# Elastic Compliance Matrix: (Units=1/GPa)
#
#
# Indices 1 2 3 4 5 6 
#
# 1 0.028938 0.003082 -0.018406 -0.007098 -0.003933 -0.024462
# 2 0.003082 0.041019 -0.027734 -0.010822 -0.019314 -0.036618
# 3 -0.018406 -0.027734 0.047561 0.020899 0.012322 0.049177
# 4 -0.007098 -0.010822 0.020899 0.036946 0.012495 0.033690
# 5 -0.003933 -0.019314 0.012322 0.012495 0.061126 0.049743
# 6 -0.024462 -0.036618 0.049177 0.033690 0.049743 0.128150
#
#
# Mechanical properties :
#
#
# Convention : Reuss Voigt Hill
#
# Bulk Modulus (GPa) = 31.84227 37.55317 34.69772
# Shear Modulus (GPa) = 11.35534 23.58675 17.47104
#
# Velocity S-wave (km/s) = 2.42704 3.49793 3.01048
# Velocity P-wave (km/s) = 4.93680 5.98285 5.48482
#
# Compressibility (1/GPa) = 0.03140479
#
# Stress axis : x y z
#
# Youngs Moduli (GPa) = 34.55613 24.37905 21.02544
#
# Poissons Ratio (x) = -0.07514 0.38698
# Poissons Ratio (y) = -0.10651 0.58311
# Poissons Ratio (z) = 0.63602 0.67612
#
# Static dielectric constant tensor:
#      x y z
#    x 3.364110 -0.187450 0.228780 
#    y -0.187450 3.561470 -0.200670 
#    z 0.228780 -0.200670 3.657470 
# 
# 
# High freq. dielectric constant tensor:
#      x y z
#    x 1.725820 -0.016640 0.017930 
#    y -0.016640 1.752430 -0.015420 
#    z 0.017930 -0.015420 1.756580 
# 
# From -- ./inp_files/214844.got.cif
#   From: 2010.06.25/outbox.cif.g09.slc.cpg/sg2_108_cif.got.tgz:214844.got - 2010.06.27 13:26:56.
