data_PCOD8043077
_publ_section_title
;
Structure prediction by ZEFSAII (Michael W. Deem and Ramdas Pophale) SiO2 
 PCOD8043077
Probable space group: P -1
;
_chemical_formula_sum "Si O2"
_cell_formula_units_Z 16
_cell_length_a 14.023731
_cell_length_b 20.501680
_cell_length_c 9.183740
_cell_angle_alpha 74.824733
_cell_angle_beta 61.472766
_cell_angle_gamma 22.516662
_cell_volume 751.571316
_symmetry_space_group_name_H-M "P -1"
_symmetry_group_IT_number 2
_symmetry_cell_setting 'triclinic'
loop_
_space_group_symop_operation_xyz
x,y,z
-x,-y,-z
loop_
_atom_site_type_symbol
_atom_site_label
_atom_site_fract_x
_atom_site_fract_y
_atom_site_fract_z
Si Si1 0.622298 0.672926 0.568638
Si Si2 0.301081 0.788390 0.474180
Si Si3 0.080097 0.559417 0.948962
Si Si4 0.969903 0.286247 0.930831
Si Si5 0.352648 0.623596 0.670919
Si Si6 0.498067 0.609440 0.840059
Si Si7 0.754896 0.004783 0.163811
Si Si8 0.776508 0.660422 0.858543
O O1 0.440405 0.759323 0.504558
O O2 0.593113 0.632436 0.738621
O O3 0.456542 0.839449 0.644198
O O4 0.995832 0.466362 0.376449
O O5 0.582836 0.606569 0.257726
O O6 0.172668 0.795222 0.638058
O O7 0.000000 0.000000 0.500000
O O8 0.844453 0.678963 0.917400
O O9 0.900308 0.720507 0.088455
O O10 0.164999 0.445777 0.050520
O O11 0.666192 0.480494 0.935278
O O12 0.886432 0.286261 0.126410
O O13 0.229372 0.087031 0.771086
O O14 0.500000 0.500000 0.500000
O O15 0.608449 0.502782 0.676354
O O16 0.111448 0.828640 0.009367
O O17 0.587713 0.119122 0.062984
#
# Coordination Sequence:
#
# PCOD8043077 Si02
#       8
#     2   2   2   2   2   2   2   2
#     4  10  22  41  61  92 122 164 213 257 306 366
#     4  10  22  34  62  95 122 157 209 258 308 365
#     4  10  22  41  62  85 129 166 206 257 313 364
#     4  11  23  39  63  95 131 163 199 262 323 366
#     4  10  19  36  57  90 130 157 194 249 317 366
#     4  10  23  39  63  97 127 162 204 258 321 361
#     4  11  22  37  65  89 123 161 207 253 314 373
#     4  10  23  42  63  87 122 171 214 255 301 370
#
# _framework density 21.288730999999999
#
# number of rings (size 3 to 8) (size 9 to 14) (size 15 to 20)
#    0.000    1.750    1.250    3.000    7.000    1.500 
#    0.000    2.500    0.000    0.000    0.000    0.000 
#    0.000    0.000    0.000    0.000    0.000    0.000 
#
# Total GULP energy -198287.506900 kJ/mol
# GULP energy per Si atom -12392.969181 kJ/mol
# Density = 2.124028 g / cm^3
# Si number density = 21.288731 Si / 1000 Ang^3
#
#
#
# Elastic Constant Matrix: (Units=GPa)
#
#
# Indices 1 2 3 4 5 6 
#
# 1 106.2189 48.5975 41.7316 8.2003 23.1752 25.4534
# 2 48.5975 114.0359 42.2825 -5.2043 4.2353 3.8448
# 3 41.7316 42.2825 67.7384 -6.1599 7.5091 2.5014
# 4 8.2003 -5.2043 -6.1599 24.9957 8.7466 3.5904
# 5 23.1752 4.2353 7.5091 8.7466 36.1475 4.3806
# 6 25.4534 3.8448 2.5014 3.5904 4.3806 32.7274
#
#
#
# Elastic Compliance Matrix: (Units=1/GPa)
#
#
# Indices 1 2 3 4 5 6 
#
# 1 0.020208 -0.004984 -0.008469 -0.005176 -0.007801 -0.012872
# 2 -0.004984 0.012675 -0.004959 0.002035 0.001972 0.002279
# 3 -0.008469 -0.004959 0.023710 0.007354 -0.001266 0.004720
# 4 -0.005176 0.002035 0.007354 0.047486 -0.009857 -0.000666
# 5 -0.007801 0.001972 -0.001266 -0.009857 0.034797 0.002356
# 6 -0.012872 0.002279 0.004720 -0.000666 0.002356 0.039696
#
#
# Mechanical properties :
#
#
# Convention : Reuss Voigt Hill
#
# Bulk Modulus (GPa) = 50.58401 61.46849 56.02625
# Shear Modulus (GPa) = 22.52391 29.13289 25.82840
#
# Velocity S-wave (km/s) = 3.25625 3.70329 3.48694
# Velocity P-wave (km/s) = 6.16036 6.87184 6.52581
#
# Compressibility (1/GPa) = 0.01976909
#
# Stress axis : x y z
#
# Youngs Moduli (GPa) = 49.48418 78.89782 42.17566
#
# Poissons Ratio (x) = 0.39325 0.35720
# Poissons Ratio (y) = 0.24665 0.20913
# Poissons Ratio (z) = 0.41909 0.39122
#
# Static dielectric constant tensor:
#      x y z
#    x 4.284780 0.228420 0.218620 
#    y 0.228420 3.857850 -0.017090 
#    z 0.218620 -0.017090 4.070100 
# 
# 
# High freq. dielectric constant tensor:
#      x y z
#    x 1.851070 0.008540 0.015960 
#    y 0.008540 1.825560 -0.019250 
#    z 0.015960 -0.019250 1.822350 
# 
# From -- ./inp_files/208275.got.cif
#   From: 2010.06.25/outbox.cif.g09.slc.cpg/sg2_105_cif.got.tgz:208275.got - 2010.06.27 13:26:56.
