data_PCOD8043323
_publ_section_title
;
Structure prediction by ZEFSAII (Michael W. Deem and Ramdas Pophale) SiO2 
 PCOD8043323
Probable space group: P -1
;
_chemical_formula_sum "Si O2"
_cell_formula_units_Z 16
_cell_length_a 15.165725
_cell_length_b 9.661895
_cell_length_c 13.759209
_cell_angle_alpha 98.003378
_cell_angle_beta 126.736514
_cell_angle_gamma 37.541522
_cell_volume 716.237666
_symmetry_space_group_name_H-M "P -1"
_symmetry_group_IT_number 2
_symmetry_cell_setting 'triclinic'
loop_
_space_group_symop_operation_xyz
x,y,z
-x,-y,-z
loop_
_atom_site_type_symbol
_atom_site_label
_atom_site_fract_x
_atom_site_fract_y
_atom_site_fract_z
Si Si1 0.776564 0.789383 0.704823
Si Si2 0.021826 0.694611 0.098745
Si Si3 0.857339 0.140879 0.136556
Si Si4 0.677991 0.318622 0.241845
Si Si5 0.722684 0.965902 0.299309
Si Si6 0.783610 0.718473 0.489855
Si Si7 0.494306 0.785444 0.266715
Si Si8 0.831406 0.440072 0.035546
O O1 0.670361 0.863567 0.537457
O O2 0.802718 0.626615 0.777433
O O3 0.592750 0.108730 0.667142
O O4 0.040710 0.564043 0.841887
O O5 0.117441 0.640238 0.052790
O O6 0.034445 0.810819 0.192335
O O7 0.746065 0.945386 0.933989
O O8 0.854915 0.161153 0.253626
O O9 0.590263 0.407220 0.947495
O O10 0.948269 0.179002 0.148178
O O11 0.666279 0.455793 0.327360
O O12 0.780825 0.064117 0.337384
O O13 0.740387 0.909515 0.420059
O O14 0.927885 0.645007 0.344820
O O15 0.460612 0.221444 0.105550
O O16 0.650452 0.747024 0.343849
#
# Coordination Sequence:
#
# PCOD8043323 Si02
#       8
#     2   2   2   2   2   2   2   2
#     4  11  22  37  59  86 113 148 191 230 276 333
#     4  10  19  36  61  87 114 145 184 231 283 332
#     4   9  18  33  59  89 112 140 185 236 280 331
#     4   9  19  37  58  82 113 149 187 228 280 335
#     4  10  22  39  57  82 114 150 186 231 284 329
#     4  11  23  38  57  82 116 152 189 230 274 333
#     4  10  21  38  59  83 114 150 185 230 282 332
#     4  10  20  36  58  86 116 145 184 233 281 330
#
# _framework density 22.338954999999999
#
# number of rings (size 3 to 8) (size 9 to 14) (size 15 to 20)
#    0.000    2.000    0.000    4.500    0.000    5.000 
#    0.000    1.875    0.000    0.000    0.000    0.000 
#    0.000    0.000    0.000    0.000    0.000    0.000 
#
# Total GULP energy -198404.729949 kJ/mol
# GULP energy per Si atom -12400.295622 kJ/mol
# Density = 2.228811 g / cm^3
# Si number density = 22.338955 Si / 1000 Ang^3
#
#
#
# Elastic Constant Matrix: (Units=GPa)
#
#
# Indices 1 2 3 4 5 6 
#
# 1 162.6677 63.9109 27.2982 5.2254 -25.9967 12.7336
# 2 63.9109 123.9257 29.4490 12.8531 -21.8900 10.6679
# 3 27.2982 29.4490 49.4444 3.3647 -0.8468 9.9513
# 4 5.2254 12.8531 3.3647 19.7910 -6.7549 -2.6409
# 5 -25.9967 -21.8900 -0.8468 -6.7549 31.2723 -4.5663
# 6 12.7336 10.6679 9.9513 -2.6409 -4.5663 30.5719
#
#
#
# Elastic Compliance Matrix: (Units=1/GPa)
#
#
# Indices 1 2 3 4 5 6 
#
# 1 0.008645 -0.002959 -0.002913 0.001870 0.005344 -0.000660
# 2 -0.002959 0.012223 -0.005013 -0.004829 0.004755 -0.001108
# 3 -0.002913 -0.005013 0.026366 -0.003802 -0.007061 -0.007003
# 4 0.001870 -0.004829 -0.003802 0.059185 0.012181 0.009076
# 5 0.005344 0.004755 -0.007061 0.012181 0.043049 0.005895
# 6 -0.000660 -0.001108 -0.007003 0.009076 0.005895 0.037315
#
#
# Mechanical properties :
#
#
# Convention : Reuss Voigt Hill
#
# Bulk Modulus (GPa) = 39.27330 64.15043 51.71186
# Shear Modulus (GPa) = 23.03710 30.68570 26.86140
#
# Velocity S-wave (km/s) = 3.21480 3.71029 3.47139
# Velocity P-wave (km/s) = 5.60345 6.86543 6.26629
#
# Compressibility (1/GPa) = 0.02546259
#
# Stress axis : x y z
#
# Youngs Moduli (GPa) = 115.67922 81.81331 37.92761
#
# Poissons Ratio (x) = 0.24210 0.11049
# Poissons Ratio (y) = 0.34232 0.19014
# Poissons Ratio (z) = 0.33698 0.41014
#
# Static dielectric constant tensor:
#      x y z
#    x 4.139070 0.041460 0.102380 
#    y 0.041460 4.131150 -0.059000 
#    z 0.102380 -0.059000 3.760890 
# 
# 
# High freq. dielectric constant tensor:
#      x y z
#    x 1.883770 -0.001680 0.008560 
#    y -0.001680 1.876600 -0.006690 
#    z 0.008560 -0.006690 1.859610 
# 
# From -- ./inp_files/382770.got.cif
#   From: 2010.06.25/outbox.cif.g09.slc.cpg/sg2_192_cif.got.tgz:382770.got - 2010.06.27 13:26:56.
