data_PCOD8043673
_publ_section_title
;
Structure prediction by ZEFSAII (Michael W. Deem and Ramdas Pophale) SiO2 
 PCOD8043673
Probable space group: P -1
;
_chemical_formula_sum "Si O2"
_cell_formula_units_Z 16
_cell_length_a 8.556855
_cell_length_b 8.256274
_cell_length_c 16.745811
_cell_angle_alpha 123.098261
_cell_angle_beta 110.215894
_cell_angle_gamma 58.579243
_cell_volume 842.682756
_symmetry_space_group_name_H-M "P -1"
_symmetry_group_IT_number 2
_symmetry_cell_setting 'triclinic'
loop_
_space_group_symop_operation_xyz
x,y,z
-x,-y,-z
loop_
_atom_site_type_symbol
_atom_site_label
_atom_site_fract_x
_atom_site_fract_y
_atom_site_fract_z
Si Si1 0.531344 0.422151 0.222124
Si Si2 0.879567 0.039981 0.245228
Si Si3 0.176784 0.447785 0.246297
Si Si4 0.643915 0.442083 0.940464
Si Si5 0.852597 0.622812 0.128631
Si Si6 0.234280 0.019718 0.225726
Si Si7 0.070528 0.105974 0.608452
Si Si8 0.618334 0.784610 0.290647
O O1 0.353113 0.484705 0.262030
O O2 0.463238 0.425327 0.120127
O O3 0.624544 0.586895 0.291127
O O4 0.684003 0.198926 0.218670
O O5 0.900374 0.812327 0.155441
O O6 0.042260 0.097451 0.258967
O O7 0.893048 0.033540 0.342082
O O8 0.068856 0.645868 0.339335
O O9 0.043888 0.449451 0.150995
O O10 0.237465 0.215825 0.230887
O O11 0.737922 0.186661 0.877743
O O12 0.500000 0.500000 0.000000
O O13 0.797855 0.519785 0.015851
O O14 0.695517 0.708389 0.193464
O O15 0.406152 0.953320 0.297873
O O16 0.264059 0.106659 0.615892
O O17 0.000000 0.000000 0.500000
#
# Coordination Sequence:
#
# PCOD8043673 Si02
#       8
#     2   2   2   2   2   2   2   2
#     4  11  21  38  59  84 119 164 189 238 284 350
#     4  10  22  38  60  84 119 157 193 230 307 339
#     4  10  22  38  60  84 119 157 193 230 307 339
#     4  11  22  36  58  84 120 153 212 239 279 327
#     4  10  19  37  54  83 117 156 194 249 279 336
#     4  11  21  38  59  84 119 164 189 238 284 350
#     4  10  21  41  67  91 113 142 188 243 290 359
#     4   9  18  37  59  81 121 152 184 234 304 332
#
# _framework density 18.986979999999999
#
# number of rings (size 3 to 8) (size 9 to 14) (size 15 to 20)
#    0.000    2.000    2.500    6.000    0.000    3.000 
#    0.000    7.500    0.000    0.000    0.000    0.000 
#    0.000    0.000    0.000    0.000    0.000    0.000 
#
# Total GULP energy -198296.500321 kJ/mol
# GULP energy per Si atom -12393.531270 kJ/mol
# Density = 1.894376 g / cm^3
# Si number density = 18.986980 Si / 1000 Ang^3
#
#
#
# Elastic Constant Matrix: (Units=GPa)
#
#
# Indices 1 2 3 4 5 6 
#
# 1 107.6385 8.3368 31.5832 -5.1149 18.9667 -0.7946
# 2 8.3368 92.3556 40.4168 1.2170 -2.0458 8.3340
# 3 31.5832 40.4168 133.4085 -8.9620 30.7118 3.2266
# 4 -5.1149 1.2170 -8.9620 8.0286 -2.1573 0.1553
# 5 18.9667 -2.0458 30.7118 -2.1573 26.5100 1.3177
# 6 -0.7946 8.3340 3.2266 0.1553 1.3177 35.7914
#
#
#
# Elastic Compliance Matrix: (Units=1/GPa)
#
#
# Indices 1 2 3 4 5 6 
#
# 1 0.010980 -0.001178 -0.000252 0.004917 -0.007294 0.000788
# 2 -0.001178 0.014436 -0.006663 -0.007847 0.009191 -0.003091
# 3 -0.000252 -0.006663 0.013955 0.012234 -0.015545 0.000807
# 4 0.004917 -0.007847 0.012234 0.140678 -0.006872 0.000476
# 5 -0.007294 0.009191 -0.015545 -0.006872 0.061254 -0.003126
# 6 0.000788 -0.003091 0.000807 0.000476 -0.003126 0.028717
#
#
# Mechanical properties :
#
#
# Convention : Reuss Voigt Hill
#
# Bulk Modulus (GPa) = 43.13168 54.89734 49.01451
# Shear Modulus (GPa) = 17.01061 30.93705 23.97383
#
# Velocity S-wave (km/s) = 2.99642 4.04094 3.55723
# Velocity P-wave (km/s) = 5.89382 7.12378 6.53779
#
# Compressibility (1/GPa) = 0.02318481
#
# Stress axis : x y z
#
# Youngs Moduli (GPa) = 91.07221 69.27286 71.65981
#
# Poissons Ratio (x) = 0.08162 0.01807
# Poissons Ratio (y) = 0.10731 0.47744
# Poissons Ratio (z) = 0.02296 0.46153
#
# Static dielectric constant tensor:
#      x y z
#    x 3.760860 -0.028160 0.310890 
#    y -0.028160 3.550210 -0.077990 
#    z 0.310890 -0.077990 3.301250 
# 
# 
# High freq. dielectric constant tensor:
#      x y z
#    x 1.761780 -0.002890 0.024630 
#    y -0.002890 1.743500 -0.000920 
#    z 0.024630 -0.000920 1.700260 
# 
# From -- ./inp_files/213655.got.cif
#   From: 2010.06.25/outbox.cif.g09.slc.cpg/sg2_107_cif.got.tgz:213655.got - 2010.06.27 13:26:56.
