data_PCOD8043868
_publ_section_title
;
Structure prediction by ZEFSAII (Michael W. Deem and Ramdas Pophale) SiO2 
 PCOD8043868
Probable space group: P -1
;
_chemical_formula_sum "Si O2"
_cell_formula_units_Z 16
_cell_length_a 10.621354
_cell_length_b 7.806722
_cell_length_c 13.369878
_cell_angle_alpha 87.114538
_cell_angle_beta 120.046145
_cell_angle_gamma 54.628079
_cell_volume 685.617765
_symmetry_space_group_name_H-M "P -1"
_symmetry_group_IT_number 2
_symmetry_cell_setting 'triclinic'
loop_
_space_group_symop_operation_xyz
x,y,z
-x,-y,-z
loop_
_atom_site_type_symbol
_atom_site_label
_atom_site_fract_x
_atom_site_fract_y
_atom_site_fract_z
Si Si1 0.796422 0.472988 0.318946
Si Si2 0.429351 0.687611 0.772875
Si Si3 0.754310 0.842041 0.832406
Si Si4 0.125137 0.634248 0.097908
Si Si5 0.256884 0.654919 0.343565
Si Si6 0.576467 0.961462 0.141379
Si Si7 0.552966 0.689745 0.412379
Si Si8 0.849679 0.034564 0.517380
O O1 0.669505 0.411515 0.229385
O O2 0.761509 0.675347 0.237353
O O3 0.730075 0.556693 0.404951
O O4 0.039153 0.239647 0.410392
O O5 0.673342 0.469113 0.876815
O O6 0.358759 0.895100 0.816156
O O7 0.362429 0.809281 0.631044
O O8 0.857660 0.578053 0.854903
O O9 0.601991 0.949790 0.859789
O O10 0.627313 0.021646 0.681672
O O11 0.933551 0.823527 0.942339
O O12 0.092230 0.756638 0.187891
O O13 0.446672 0.589970 0.364766
O O14 0.340050 0.405411 0.432624
O O15 0.165121 0.851062 0.388047
O O16 0.500000 0.000000 0.000000
O O17 0.000000 0.000000 0.500000
#
# Coordination Sequence:
#
# PCOD8043868 Si02
#       8
#     2   2   2   2   2   2   2   2
#     4  10  20  41  63  89 125 161 200 251 314 366
#     4  10  19  39  66  83 126 164 193 258 318 345
#     4   9  22  40  59  85 128 159 202 253 311 365
#     4  10  20  39  61  88 118 165 202 257 305 354
#     4  11  19  34  64  89 117 152 209 251 291 366
#     4  10  23  41  61  88 123 163 210 250 295 375
#     4  10  19  37  60  88 118 155 201 254 299 365
#     4  10  20  37  60  91 122 155 199 251 310 370
#
# _framework density 23.336618999999999
#
# number of rings (size 3 to 8) (size 9 to 14) (size 15 to 20)
#    0.000    2.000    3.750    0.750    0.000    4.000 
#    6.750    1.250    0.000    0.000    0.000    0.000 
#    0.000    0.000    0.000    0.000    0.000    0.000 
#
# Total GULP energy -198216.771845 kJ/mol
# GULP energy per Si atom -12388.548240 kJ/mol
# Density = 2.328350 g / cm^3
# Si number density = 23.336619 Si / 1000 Ang^3
#
#
#
# Elastic Constant Matrix: (Units=GPa)
#
#
# Indices 1 2 3 4 5 6 
#
# 1 17.3392 -13.9036 -10.7343 -1.0687 -2.6003 2.1087
# 2 -13.9036 91.4731 21.6087 -0.3834 -6.7395 3.2846
# 3 -10.7343 21.6087 34.6379 3.6438 -6.2267 -6.1635
# 4 -1.0687 -0.3834 3.6438 43.4239 2.8519 5.5392
# 5 -2.6003 -6.7395 -6.2267 2.8519 35.1684 -4.8439
# 6 2.1087 3.2846 -6.1635 5.5392 -4.8439 25.5586
#
#
#
# Elastic Compliance Matrix: (Units=1/GPa)
#
#
# Indices 1 2 3 4 5 6 
#
# 1 0.078941 0.007688 0.021735 -0.000546 0.011200 -0.000018
# 2 0.007688 0.014007 -0.006998 0.001343 0.001332 -0.004161
# 3 0.021735 -0.006998 0.044778 -0.005643 0.010457 0.013109
# 4 -0.000546 0.001343 -0.005643 0.024718 -0.003829 -0.007571
# 5 0.011200 0.001332 0.010457 -0.003829 0.032848 0.008482
# 6 -0.000018 -0.004161 0.013109 -0.007571 0.008482 0.046072
#
#
# Mechanical properties :
#
#
# Convention : Reuss Voigt Hill
#
# Bulk Modulus (GPa) = 5.47716 15.26578 10.37147
# Shear Modulus (GPa) = 19.42711 30.59546 25.01129
#
# Velocity S-wave (km/s) = 2.88839 3.62477 3.27733
# Velocity P-wave (km/s) = 3.67095 4.90656 4.33303
#
# Compressibility (1/GPa) = 0.18257644
#
# Stress axis : x y z
#
# Youngs Moduli (GPa) = 12.66763 71.39300 22.33255
#
# Poissons Ratio (x) = -0.54885 -0.48541
# Poissons Ratio (y) = -0.09739 0.15628
# Poissons Ratio (z) = -0.27534 0.49961
#
# Static dielectric constant tensor:
#      x y z
#    x 4.077540 0.133570 0.048270 
#    y 0.133570 4.616860 -0.509130 
#    z 0.048270 -0.509130 4.692710 
# 
# 
# High freq. dielectric constant tensor:
#      x y z
#    x 1.890460 -0.001590 0.003800 
#    y -0.001590 1.926860 -0.010870 
#    z 0.003800 -0.010870 1.917660 
# 
# From -- ./inp_files/342682.got.cif
#   From: 2010.06.25/outbox.cif.g09.slc.cpg/sg2_172_cif.got.tgz:342682.got - 2010.06.27 13:26:56.
