data_PCOD8043260
_publ_section_title
;
Structure prediction by ZEFSAII (Michael W. Deem and Ramdas Pophale) SiO2 
 PCOD8043260
Probable space group: P -1
;
_chemical_formula_sum "Si O2"
_cell_formula_units_Z 10
_cell_length_a 9.919256
_cell_length_b 9.607626
_cell_length_c 7.496317
_cell_angle_alpha 99.377021
_cell_angle_beta 124.896704
_cell_angle_gamma 118.784260
_cell_volume 406.981636
_symmetry_space_group_name_H-M "P -1"
_symmetry_group_IT_number 2
_symmetry_cell_setting 'triclinic'
loop_
_space_group_symop_operation_xyz
x,y,z
-x,-y,-z
loop_
_atom_site_type_symbol
_atom_site_label
_atom_site_fract_x
_atom_site_fract_y
_atom_site_fract_z
Si Si1 0.701891 0.936787 0.764103
Si Si2 0.158224 0.235280 0.360435
Si Si3 0.049111 0.364645 0.008593
Si Si4 0.171692 0.424734 0.733625
Si Si5 0.649111 0.211218 0.247729
O O1 0.797855 0.130293 0.765654
O O2 0.666721 0.781836 0.572772
O O3 0.454297 0.816926 0.641677
O O4 0.892973 0.015635 0.081196
O O5 0.207189 0.304237 0.617986
O O6 0.188625 0.397889 0.298598
O O7 0.206245 0.414428 0.967185
O O8 0.000000 0.500000 0.000000
O O9 0.354196 0.654366 0.855348
O O10 0.909936 0.319397 0.492040
O O11 0.500000 0.000000 0.000000
#
# Coordination Sequence:
#
# PCOD8043260 Si02
#       5
#     2   2   2   2   2
#     4   9  20  39  60  79 127 155 183 246 296 331
#     4   9  20  41  58  84 121 155 190 241 289 349
#     4  10  19  36  60  90 116 149 197 248 279 342
#     4  11  22  35  64  86 115 156 198 235 293 342
#     4  11  20  37  59  89 118 156 191 242 291 348
#
# _framework density 24.571134000000001
#
# number of rings (size 3 to 8) (size 9 to 14) (size 15 to 20)
#    1.200    0.800    2.000    3.600    0.000    2.400 
#    0.000    3.000    0.000    0.000    0.000    0.000 
#    0.000    0.000    0.000    0.000    0.000    0.000 
#
# Total GULP energy -123953.242766 kJ/mol
# GULP energy per Si atom -12395.324277 kJ/mol
# Density = 2.451521 g / cm^3
# Si number density = 24.571134 Si / 1000 Ang^3
#
#
#
# Elastic Constant Matrix: (Units=GPa)
#
#
# Indices 1 2 3 4 5 6 
#
# 1 196.7838 69.3985 23.9561 19.8775 -45.9667 2.5173
# 2 69.3985 127.6324 11.9868 21.3079 -8.9816 8.3630
# 3 23.9561 11.9868 37.9495 13.4258 -20.9384 1.4751
# 4 19.8775 21.3079 13.4258 35.0298 6.7000 -5.6367
# 5 -45.9667 -8.9816 -20.9384 6.7000 36.8664 0.5766
# 6 2.5173 8.3630 1.4751 -5.6367 0.5766 46.3676
#
#
#
# Elastic Compliance Matrix: (Units=1/GPa)
#
#
# Indices 1 2 3 4 5 6 
#
# 1 0.011422 -0.003345 0.010610 -0.013050 0.021859 -0.002213
# 2 -0.003345 0.010570 0.000376 -0.004966 -0.000443 -0.002335
# 3 0.010610 0.000376 0.070702 -0.046731 0.062115 -0.009347
# 4 -0.013050 -0.004966 -0.046731 0.069740 -0.056889 0.012276
# 5 0.021859 -0.000443 0.062115 -0.056889 0.100065 -0.011243
# 6 -0.002213 -0.002335 -0.009347 0.012276 -0.011243 0.024038
#
#
# Mechanical properties :
#
#
# Convention : Reuss Voigt Hill
#
# Bulk Modulus (GPa) = 9.26142 63.67205 36.46674
# Shear Modulus (GPa) = 16.27355 40.78771 28.53063
#
# Velocity S-wave (km/s) = 2.57632 4.07871 3.41125
# Velocity P-wave (km/s) = 3.55349 6.93908 5.51263
#
# Compressibility (1/GPa) = 0.10797475
#
# Stress axis : x y z
#
# Youngs Moduli (GPa) = 87.54660 94.61169 14.14388
#
# Poissons Ratio (x) = 0.31651 -0.15006
# Poissons Ratio (y) = 0.29288 -0.00532
# Poissons Ratio (z) = -0.92883 -0.03560
#
# Static dielectric constant tensor:
#      x y z
#    x 10.720660 1.740200 -6.691810 
#    y 1.740200 4.745860 -1.395410 
#    z -6.691810 -1.395410 10.698300 
# 
# 
# High freq. dielectric constant tensor:
#      x y z
#    x 1.985250 0.005660 -0.016150 
#    y 0.005660 1.967500 0.023370 
#    z -0.016150 0.023370 1.948830 
# 
# From -- ./inp_files/156022.got.cif
#   From: 2010.06.25/outbox.cif.g09.slc.cpg/sg2_79_cif.got.tgz:156022.got - 2010.06.27 13:26:56.
