data_PCOD8043627
_publ_section_title
;
Structure prediction by ZEFSAII (Michael W. Deem and Ramdas Pophale) SiO2 
 PCOD8043627
Probable space group: P -1
;
_chemical_formula_sum "Si O2"
_cell_formula_units_Z 14
_cell_length_a 11.148800
_cell_length_b 22.112646
_cell_length_c 8.822514
_cell_angle_alpha 144.393780
_cell_angle_beta 139.319983
_cell_angle_gamma 30.129292
_cell_volume 624.201558
_symmetry_space_group_name_H-M "P -1"
_symmetry_group_IT_number 2
_symmetry_cell_setting 'triclinic'
loop_
_space_group_symop_operation_xyz
x,y,z
-x,-y,-z
loop_
_atom_site_type_symbol
_atom_site_label
_atom_site_fract_x
_atom_site_fract_y
_atom_site_fract_z
Si Si1 0.556102 0.515579 0.754757
Si Si2 0.061131 0.675389 0.749091
Si Si3 0.264241 0.869202 0.548794
Si Si4 0.381923 0.271660 0.677000
Si Si5 0.746582 0.004936 0.629569
Si Si6 0.932129 0.260459 0.785319
Si Si7 0.877667 0.948011 0.967846
O O1 0.500000 0.500000 0.500000
O O2 0.345137 0.550689 0.735224
O O3 0.809640 0.375131 0.770746
O O4 0.578672 0.631570 0.012522
O O5 0.902548 0.642374 0.454067
O O6 0.003173 0.806618 0.884266
O O7 0.002822 0.695953 0.914921
O O8 0.471975 0.797608 0.478977
O O9 0.261322 0.754137 0.376041
O O10 0.000000 0.000000 0.500000
O O11 0.326708 0.926189 0.861312
O O12 0.474017 0.144710 0.616487
O O13 0.751346 0.961164 0.716909
O O14 0.827658 0.882261 0.345181
O O15 0.916709 0.042250 0.846677
#
# Coordination Sequence:
#
# PCOD8043627 Si02
#       7
#     2   2   2   2   2   2   2
#     4  12  27  48  68  91 132 176 214 272 327 389
#     4  12  24  43  68  98 130 173 219 266 328 383
#     4  11  18  39  66  98 128 168 218 261 322 381
#     4  12  25  42  69  97 133 168 222 270 319 391
#     4  10  20  39  69 101 126 175 214 264 329 381
#     4  11  22  41  70  96 129 175 221 259 326 386
#     4  10  19  36  66  96 136 163 217 265 320 383
#
# _framework density 22.428653000000001
#
# number of rings (size 3 to 8) (size 9 to 14) (size 15 to 20)
#    0.000    0.857    7.143    1.286    4.000    4.000 
#    0.000    1.429    0.000    0.000    0.000    0.000 
#    0.000    0.000    0.000    0.000    0.000    0.000 
#
# Total GULP energy -173602.284798 kJ/mol
# GULP energy per Si atom -12400.163200 kJ/mol
# Density = 2.237760 g / cm^3
# Si number density = 22.428653 Si / 1000 Ang^3
#
#
#
# Elastic Constant Matrix: (Units=GPa)
#
#
# Indices 1 2 3 4 5 6 
#
# 1 49.2373 18.6942 39.0088 -2.6907 -14.2653 16.8342
# 2 18.6942 105.5682 45.4867 1.2172 1.5111 21.1972
# 3 39.0088 45.4867 131.2223 -9.4253 -23.3272 -4.8668
# 4 -2.6907 1.2172 -9.4253 31.0949 8.0252 -2.4839
# 5 -14.2653 1.5111 -23.3272 8.0252 30.9465 -12.8478
# 6 16.8342 21.1972 -4.8668 -2.4839 -12.8478 35.5410
#
#
#
# Elastic Compliance Matrix: (Units=1/GPa)
#
#
# Indices 1 2 3 4 5 6 
#
# 1 0.036540 0.004059 -0.013724 -0.002320 -0.002513 -0.022678
# 2 0.004059 0.017402 -0.010637 -0.001315 -0.014596 -0.019126
# 3 -0.013724 -0.010637 0.019459 0.002402 0.017350 0.021949
# 4 -0.002320 -0.001315 0.002402 0.034806 -0.007403 0.001968
# 5 -0.002513 -0.014596 0.017350 -0.007403 0.060884 0.033763
# 6 -0.022678 -0.019126 0.021949 0.001968 0.033763 0.065634
#
#
# Mechanical properties :
#
#
# Convention : Reuss Voigt Hill
#
# Bulk Modulus (GPa) = 30.49126 54.71194 42.60160
# Shear Modulus (GPa) = 17.46656 31.70567 24.58611
#
# Velocity S-wave (km/s) = 2.79366 3.76390 3.31447
# Velocity P-wave (km/s) = 4.90207 6.58301 5.80372
#
# Compressibility (1/GPa) = 0.03279628
#
# Stress axis : x y z
#
# Youngs Moduli (GPa) = 27.36691 57.46603 51.39106
#
# Poissons Ratio (x) = -0.23325 0.70528
# Poissons Ratio (y) = -0.11108 0.54666
# Poissons Ratio (z) = 0.37558 0.61128
#
# Static dielectric constant tensor:
#      x y z
#    x 4.152880 0.171340 -0.304550 
#    y 0.171340 4.060460 -0.042140 
#    z -0.304550 -0.042140 4.297900 
# 
# 
# High freq. dielectric constant tensor:
#      x y z
#    x 1.876120 0.015800 -0.013600 
#    y 0.015800 1.871030 -0.000050 
#    z -0.013600 -0.000050 1.889230 
# 
# From -- ./inp_files/187685.got.cif
#   From: 2010.06.25/outbox.cif.g09.slc.cpg/sg2_94_cif.got.tgz:187685.got - 2010.06.27 13:26:56.
