data_PCOD8043024
_publ_section_title
;
Structure prediction by ZEFSAII (Michael W. Deem and Ramdas Pophale) SiO2 
 PCOD8043024
Probable space group: P -1
;
_chemical_formula_sum "Si O2"
_cell_formula_units_Z 16
_cell_length_a 17.378169
_cell_length_b 12.401859
_cell_length_c 9.106656
_cell_angle_alpha 55.706296
_cell_angle_beta 100.435551
_cell_angle_gamma 52.087618
_cell_volume 751.890906
_symmetry_space_group_name_H-M "P -1"
_symmetry_group_IT_number 2
_symmetry_cell_setting 'triclinic'
loop_
_space_group_symop_operation_xyz
x,y,z
-x,-y,-z
loop_
_atom_site_type_symbol
_atom_site_label
_atom_site_fract_x
_atom_site_fract_y
_atom_site_fract_z
Si Si1 0.624581 0.258843 0.938241
Si Si2 0.087128 0.071837 0.536985
Si Si3 0.525963 0.259765 0.621601
Si Si4 0.227427 0.115065 0.249974
Si Si5 0.925181 0.155529 0.659034
Si Si6 0.311235 0.697902 0.661108
Si Si7 0.788309 0.438314 0.679484
Si Si8 0.891595 0.508337 0.877958
O O1 0.613704 0.172057 0.869895
O O2 0.568887 0.481465 0.687404
O O3 0.504831 0.386070 0.934014
O O4 0.815283 0.978679 0.275220
O O5 0.953181 0.180293 0.491583
O O6 0.982814 0.295579 0.203293
O O7 0.239676 0.765060 0.746730
O O8 0.402599 0.322320 0.564086
O O9 0.670711 0.988290 0.777106
O O10 0.030155 0.393444 0.932248
O O11 0.292107 0.880498 0.502234
O O12 0.248122 0.192426 0.327839
O O13 0.799024 0.218394 0.560075
O O14 0.849237 0.371405 0.583499
O O15 0.104298 0.841246 0.011079
O O16 0.807728 0.538504 0.706863
#
# Coordination Sequence:
#
# PCOD8043024 Si02
#       8
#     2   2   2   2   2   2   2   2
#     4  10  20  33  54  86 118 141 181 230 293 334
#     4  11  21  34  56  86 119 146 176 233 289 333
#     4  10  20  34  57  83 111 150 186 233 273 331
#     4   9  20  38  60  80 111 150 196 224 266 338
#     4  11  21  33  56  90 114 143 182 230 292 328
#     4  10  19  36  56  86 116 144 182 236 282 333
#     4  11  21  35  57  85 113 148 185 232 278 332
#     4  10  22  39  59  84 111 151 190 229 272 331
#
# _framework density 21.279682000000001
#
# number of rings (size 3 to 8) (size 9 to 14) (size 15 to 20)
#    0.000    1.750    5.000    0.750    1.750    0.500 
#    0.000    0.625    2.750    0.750    0.000    0.000 
#    0.000    0.000    0.000    0.000    0.000    0.000 
#
# Total GULP energy -198267.976854 kJ/mol
# GULP energy per Si atom -12391.748553 kJ/mol
# Density = 2.123125 g / cm^3
# Si number density = 21.279682 Si / 1000 Ang^3
#
#
#
# Elastic Constant Matrix: (Units=GPa)
#
#
# Indices 1 2 3 4 5 6 
#
# 1 73.8936 67.6585 13.2525 2.7104 21.3041 -5.6159
# 2 67.6585 180.6527 18.5322 2.9571 19.4657 6.4436
# 3 13.2525 18.5322 34.0325 10.2690 11.6407 4.4500
# 4 2.7104 2.9571 10.2690 29.9502 0.6517 10.3965
# 5 21.3041 19.4657 11.6407 0.6517 22.8834 6.0605
# 6 -5.6159 6.4436 4.4500 10.3965 6.0605 39.5583
#
#
#
# Elastic Compliance Matrix: (Units=1/GPa)
#
#
# Indices 1 2 3 4 5 6 
#
# 1 0.028814 -0.008785 0.001615 -0.005350 -0.022731 0.010228
# 2 -0.008785 0.008875 -0.002465 0.001857 0.002710 -0.003319
# 3 0.001615 -0.002465 0.041217 -0.014631 -0.020757 0.003020
# 4 -0.005350 0.001857 -0.014631 0.042818 0.012977 -0.012657
# 5 -0.022731 0.002710 -0.020757 0.012977 0.077133 -0.016561
# 6 0.010228 -0.003319 0.003020 -0.012657 -0.016561 0.032796
#
#
# Mechanical properties :
#
#
# Convention : Reuss Voigt Hill
#
# Bulk Modulus (GPa) = 16.76827 54.16281 35.46554
# Shear Modulus (GPa) = 18.46380 31.08740 24.77560
#
# Velocity S-wave (km/s) = 2.94882 3.82631 3.41586
# Velocity P-wave (km/s) = 4.41488 6.71036 5.67979
#
# Compressibility (1/GPa) = 0.05963644
#
# Stress axis : x y z
#
# Youngs Moduli (GPa) = 34.70491 112.68069 24.26192
#
# Poissons Ratio (x) = 0.98994 -0.03919
# Poissons Ratio (y) = 0.30489 0.05980
# Poissons Ratio (z) = -0.05606 0.27774
#
# Static dielectric constant tensor:
#      x y z
#    x 3.755460 -0.303350 0.357170 
#    y -0.303350 4.461160 0.013820 
#    z 0.357170 0.013820 3.454890 
# 
# 
# High freq. dielectric constant tensor:
#      x y z
#    x 1.815460 -0.012990 0.036670 
#    y -0.012990 1.854280 0.011460 
#    z 0.036670 0.011460 1.795470 
# 
# From -- ./inp_files/261668.got.cif
#   From: 2010.06.25/outbox.cif.g09.slc.cpg/sg2_131_cif.got.tgz:261668.got - 2010.06.27 13:26:56.
