data_PCOD8043530
_publ_section_title
;
Structure prediction by ZEFSAII (Michael W. Deem and Ramdas Pophale) SiO2 
 PCOD8043530
Probable space group: P -1
;
_chemical_formula_sum "Si O2"
_cell_formula_units_Z 14
_cell_length_a 10.777783
_cell_length_b 6.142861
_cell_length_c 8.149183
_cell_angle_alpha 75.805242
_cell_angle_beta 98.881845
_cell_angle_gamma 86.373475
_cell_volume 513.895707
_symmetry_space_group_name_H-M "P -1"
_symmetry_group_IT_number 2
_symmetry_cell_setting 'triclinic'
loop_
_space_group_symop_operation_xyz
x,y,z
-x,-y,-z
loop_
_atom_site_type_symbol
_atom_site_label
_atom_site_fract_x
_atom_site_fract_y
_atom_site_fract_z
Si Si1 0.862130 0.322608 0.618725
Si Si2 0.304913 0.162632 0.011189
Si Si3 0.245648 0.153024 0.351781
Si Si4 0.148384 0.201795 0.666882
Si Si5 0.235513 0.697617 0.730692
Si Si6 0.293580 0.639837 0.111470
Si Si7 0.514591 0.736692 0.734038
O O1 0.832211 0.437719 0.405789
O O2 0.797296 0.440043 0.746222
O O3 0.010290 0.292650 0.685725
O O4 0.803912 0.089014 0.618519
O O5 0.228488 0.270757 0.142501
O O6 0.452569 0.179848 0.086236
O O7 0.278030 0.905133 0.049048
O O8 0.254654 0.269556 0.807734
O O9 0.175603 0.288675 0.468351
O O10 0.400998 0.136011 0.406626
O O11 0.149271 0.929868 0.708876
O O12 0.366133 0.774030 0.667719
O O13 0.260286 0.555377 0.932247
O O14 0.434656 0.532531 0.208817
#
# Coordination Sequence:
#
# PCOD8043530 Si02
#       7
#     2   2   2   2   2   2   2
#     4  10  21  38  61  88 113 160 201 228 292 349
#     4   8  20  38  59  87 113 155 191 233 296 337
#     4   8  18  36  55  89 113 148 191 240 285 336
#     4  10  19  36  64  85 115 158 199 232 289 349
#     4  10  21  37  61  89 116 156 191 243 291 343
#     4  10  21  40  59  87 119 156 189 241 292 342
#     4  10  21  41  58  91 122 142 200 240 292 352
#
# _framework density 27.242884
#
# number of rings (size 3 to 8) (size 9 to 14) (size 15 to 20)
#    0.857    1.714    0.000    2.143    0.000   11.429 
#    5.143    1.429    0.000    0.000    0.000    0.000 
#    0.000    0.000    0.000    0.000    0.000    0.000 
#
# Total GULP energy -173436.100886 kJ/mol
# GULP energy per Si atom -12388.292920 kJ/mol
# Density = 2.718088 g / cm^3
# Si number density = 27.242884 Si / 1000 Ang^3
#
#
#
# Elastic Constant Matrix: (Units=GPa)
#
#
# Indices 1 2 3 4 5 6 
#
# 1 101.2326 12.4410 6.0236 4.0663 0.6025 7.0552
# 2 12.4410 94.9720 19.6300 35.4514 -9.7428 11.3691
# 3 6.0236 19.6300 73.9138 14.7689 -13.9209 27.9098
# 4 4.0663 35.4514 14.7689 52.7616 5.5863 1.4696
# 5 0.6025 -9.7428 -13.9209 5.5863 43.0712 3.4892
# 6 7.0552 11.3691 27.9098 1.4696 3.4892 22.1512
#
#
#
# Elastic Compliance Matrix: (Units=1/GPa)
#
#
# Indices 1 2 3 4 5 6 
#
# 1 0.010235 -0.000813 0.001296 -0.000535 0.000527 -0.004523
# 2 -0.000813 0.017641 0.006720 -0.014177 0.009456 -0.017812
# 3 0.001296 0.006720 0.040692 -0.016680 0.021468 -0.057408
# 4 -0.000535 -0.014177 -0.016680 0.034014 -0.015320 0.028620
# 5 0.000527 0.009456 0.021468 -0.015320 0.037266 -0.036924
# 6 -0.004523 -0.017812 -0.057408 0.028620 -0.036924 0.131977
#
#
# Mechanical properties :
#
#
# Convention : Reuss Voigt Hill
#
# Bulk Modulus (GPa) = 12.05193 38.47860 25.26526
# Shear Modulus (GPa) = 17.53914 39.06506 28.30210
#
# Velocity S-wave (km/s) = 2.54009 3.79087 3.22666
# Velocity P-wave (km/s) = 3.61057 5.77199 4.81415
#
# Compressibility (1/GPa) = 0.08297427
#
# Stress axis : x y z
#
# Youngs Moduli (GPa) = 97.70738 56.68561 24.57467
#
# Poissons Ratio (x) = 0.04611 -0.03185
# Poissons Ratio (y) = 0.07947 -0.16515
# Poissons Ratio (z) = -0.12663 -0.38095
#
# Static dielectric constant tensor:
#      x y z
#    x 4.352790 0.325440 -0.363370 
#    y 0.325440 5.533510 0.294750 
#    z -0.363370 0.294750 6.024310 
# 
# 
# High freq. dielectric constant tensor:
#      x y z
#    x 2.054000 0.031730 -0.023470 
#    y 0.031730 2.175140 -0.009900 
#    z -0.023470 -0.009900 2.135030 
# 
# From -- ./inp_files/237711.got.cif
#   From: 2010.06.25/outbox.cif.g09.slc.cpg/sg2_119_cif.got.tgz:237711.got - 2010.06.27 13:26:56.
