data_PCOD8043392
_publ_section_title
;
Structure prediction by ZEFSAII (Michael W. Deem and Ramdas Pophale) SiO2 
 PCOD8043392
Probable space group: P -1
;
_chemical_formula_sum "Si O2"
_cell_formula_units_Z 16
_cell_length_a 9.240421
_cell_length_b 12.735059
_cell_length_c 9.317014
_cell_angle_alpha 91.805396
_cell_angle_beta 133.786228
_cell_angle_gamma 72.929993
_cell_volume 732.883510
_symmetry_space_group_name_H-M "P -1"
_symmetry_group_IT_number 2
_symmetry_cell_setting 'triclinic'
loop_
_space_group_symop_operation_xyz
x,y,z
-x,-y,-z
loop_
_atom_site_type_symbol
_atom_site_label
_atom_site_fract_x
_atom_site_fract_y
_atom_site_fract_z
Si Si1 0.813814 0.295285 0.363861
Si Si2 0.510732 0.864714 0.343320
Si Si3 0.577836 0.546982 0.278433
Si Si4 0.896774 0.300998 0.103803
Si Si5 0.553280 0.757602 0.794877
Si Si6 0.695592 0.639779 0.614691
Si Si7 0.751399 0.902456 0.763752
Si Si8 0.726683 0.722591 0.230086
O O1 0.636993 0.423895 0.246568
O O2 0.852108 0.255863 0.224019
O O3 0.702533 0.216077 0.359533
O O4 0.026163 0.289140 0.592030
O O5 0.513399 0.751702 0.419552
O O6 0.678537 0.907158 0.546575
O O7 0.579626 0.834679 0.223521
O O8 0.277506 0.971698 0.194932
O O9 0.668184 0.535856 0.505536
O O10 0.697401 0.612394 0.269266
O O11 0.319804 0.611326 0.109751
O O12 0.064382 0.362828 0.247226
O O13 0.002121 0.190677 0.065974
O O14 0.649438 0.644577 0.753421
O O15 0.593290 0.860970 0.751016
O O16 0.670559 0.732907 0.026133
#
# Coordination Sequence:
#
# PCOD8043392 Si02
#       8
#     2   2   2   2   2   2   2   2
#     4  12  22  37  59  87 116 151 193 236 280 336
#     4   8  16  36  66  79 108 157 191 223 285 340
#     4  11  22  36  64  82 111 156 199 227 279 342
#     4  10  19  36  62  84 109 149 197 231 274 344
#     4  10  23  36  57  87 123 144 185 244 286 328
#     4   9  21  41  57  86 118 146 193 237 276 342
#     4   9  18  39  61  83 116 149 186 240 283 332
#     4  11  21  37  59  87 116 151 190 237 280 338
#
# _framework density 21.831572999999999
#
# number of rings (size 3 to 8) (size 9 to 14) (size 15 to 20)
#    0.000    2.250    5.000    0.750    0.000    3.000 
#    0.000    6.250    0.000    0.000    0.000    0.875 
#    0.000    0.000    0.000    0.000    0.000    0.000 
#
# Total GULP energy -198248.160163 kJ/mol
# GULP energy per Si atom -12390.510010 kJ/mol
# Density = 2.178188 g / cm^3
# Si number density = 21.831573 Si / 1000 Ang^3
#
#
#
# Elastic Constant Matrix: (Units=GPa)
#
#
# Indices 1 2 3 4 5 6 
#
# 1 123.9951 37.5222 43.3836 7.5262 -2.9274 -17.1187
# 2 37.5222 80.5252 28.0987 -7.3258 8.1185 -19.9953
# 3 43.3836 28.0987 96.8009 7.4551 -5.6512 -15.0909
# 4 7.5262 -7.3258 7.4551 21.8990 -13.7864 4.2059
# 5 -2.9274 8.1185 -5.6512 -13.7864 40.0812 2.8366
# 6 -17.1187 -19.9953 -15.0909 4.2059 2.8366 27.1455
#
#
#
# Elastic Compliance Matrix: (Units=1/GPa)
#
#
# Indices 1 2 3 4 5 6 
#
# 1 0.010973 -0.003575 -0.002981 -0.005225 -0.000942 0.003537
# 2 -0.003575 0.018072 -0.002731 0.004216 -0.003511 0.009253
# 3 -0.002981 -0.002731 0.013569 -0.005295 0.000112 0.004460
# 4 -0.005225 0.004216 -0.005295 0.067920 0.022513 -0.016009
# 5 -0.000942 -0.003511 0.000112 0.022513 0.034071 -0.010167
# 6 0.003537 0.009253 0.004460 -0.016009 -0.010167 0.051907
#
#
# Mechanical properties :
#
#
# Convention : Reuss Voigt Hill
#
# Bulk Modulus (GPa) = 41.59691 57.70337 49.65014
# Shear Modulus (GPa) = 22.41145 30.64623 26.52884
#
# Velocity S-wave (km/s) = 3.20748 3.75074 3.48970
# Velocity P-wave (km/s) = 5.72819 6.72651 6.24732
#
# Compressibility (1/GPa) = 0.02404025
#
# Stress axis : x y z
#
# Youngs Moduli (GPa) = 91.13346 55.33303 73.69747
#
# Poissons Ratio (x) = 0.19780 0.21972
# Poissons Ratio (y) = 0.32577 0.20127
# Poissons Ratio (z) = 0.27170 0.15112
#
# Static dielectric constant tensor:
#      x y z
#    x 4.087110 -0.366440 -0.011140 
#    y -0.366440 4.080800 0.213370 
#    z -0.011140 0.213370 3.860840 
# 
# 
# High freq. dielectric constant tensor:
#      x y z
#    x 1.853540 -0.022930 0.001160 
#    y -0.022930 1.841690 0.020340 
#    z 0.001160 0.020340 1.844940 
# 
# From -- ./inp_files/202254.got.cif
#   From: 2010.06.25/outbox.cif.g09.slc.cpg/sg2_102_cif.got.tgz:202254.got - 2010.06.27 13:26:56.
