data_PCOD8043719
_publ_section_title
;
Structure prediction by ZEFSAII (Michael W. Deem and Ramdas Pophale) SiO2 
 PCOD8043719
Probable space group: P -1
;
_chemical_formula_sum "Si O2"
_cell_formula_units_Z 16
_cell_length_a 14.087777
_cell_length_b 16.675967
_cell_length_c 22.742596
_cell_angle_alpha 154.378374
_cell_angle_beta 158.525933
_cell_angle_gamma 34.577916
_cell_volume 841.605661
_symmetry_space_group_name_H-M "P -1"
_symmetry_group_IT_number 2
_symmetry_cell_setting 'triclinic'
loop_
_space_group_symop_operation_xyz
x,y,z
-x,-y,-z
loop_
_atom_site_type_symbol
_atom_site_label
_atom_site_fract_x
_atom_site_fract_y
_atom_site_fract_z
Si Si1 0.487569 0.179325 0.995802
Si Si2 0.866694 0.500797 0.755444
Si Si3 0.166028 0.745165 0.639127
Si Si4 0.793921 0.498052 0.329000
Si Si5 0.757290 0.030912 0.587363
Si Si6 0.053386 0.664767 0.185940
Si Si7 0.414184 0.749248 0.662423
Si Si8 0.363391 0.749313 0.226771
O O1 0.211844 0.255163 0.896016
O O2 0.456624 0.967298 0.817549
O O3 0.649878 0.208658 0.168593
O O4 0.635389 0.293507 0.102124
O O5 0.814139 0.411294 0.730287
O O6 0.678700 0.661142 0.741971
O O7 0.817300 0.339476 0.571682
O O8 0.161869 0.593186 0.977609
O O9 0.342257 0.706299 0.659975
O O10 0.959424 0.560811 0.407450
O O11 0.013423 0.924234 0.656532
O O12 0.593579 0.652527 0.327917
O O13 0.000000 0.500000 0.500000
O O14 0.747968 0.172434 0.620937
O O15 0.789697 0.142497 0.741326
O O16 0.490793 0.891539 0.344339
O O17 0.000000 0.500000 0.000000
#
# Coordination Sequence:
#
# PCOD8043719 Si02
#       8
#     2   2   2   2   2   2   2   2
#     4  11  20  35  62  88 116 149 196 244 290 344
#     4  11  24  41  58  82 124 156 196 242 298 343
#     4  10  20  36  60  88 117 149 200 239 291 351
#     4   9  19  35  56  89 118 148 187 245 299 337
#     4  10  20  34  59  90 114 149 193 239 296 345
#     4  12  21  35  60  90 115 145 193 248 291 338
#     4  11  24  40  58  84 117 165 196 239 290 354
#     4  10  19  37  57  84 122 151 187 243 297 346
#
# _framework density 19.011278000000001
#
# number of rings (size 3 to 8) (size 9 to 14) (size 15 to 20)
#    0.000    1.500    3.750    1.875    0.000    2.500 
#    0.000    3.750    0.000    3.000    0.000    0.000 
#    0.000    0.000    0.000    0.000    0.000    0.000 
#
# Total GULP energy -198363.350175 kJ/mol
# GULP energy per Si atom -12397.709386 kJ/mol
# Density = 1.896801 g / cm^3
# Si number density = 19.011278 Si / 1000 Ang^3
#
#
#
# Elastic Constant Matrix: (Units=GPa)
#
#
# Indices 1 2 3 4 5 6 
#
# 1 36.3374 17.0667 46.0233 15.7876 14.4161 4.5527
# 2 17.0667 81.6626 44.4444 13.3644 5.7085 2.3022
# 3 46.0233 44.4444 133.4763 18.6803 14.0203 8.8078
# 4 15.7876 13.3644 18.6803 31.9472 6.2452 5.5036
# 5 14.4161 5.7085 14.0203 6.2452 37.1219 6.2454
# 6 4.5527 2.3022 8.8078 5.5036 6.2454 28.9540
#
#
#
# Elastic Compliance Matrix: (Units=1/GPa)
#
#
# Indices 1 2 3 4 5 6 
#
# 1 0.064417 0.000586 -0.018314 -0.018750 -0.015420 0.002286
# 2 0.000586 0.015385 -0.004796 -0.004036 -0.000266 0.000968
# 3 -0.018314 -0.004796 0.015007 0.002235 0.002175 -0.002198
# 4 -0.018750 -0.004036 0.002235 0.041715 0.000974 -0.005550
# 5 -0.015420 -0.000266 0.002175 0.000974 0.032907 -0.005499
# 6 0.002286 0.000968 -0.002198 -0.005550 -0.005499 0.037011
#
#
# Mechanical properties :
#
#
# Convention : Reuss Voigt Hill
#
# Bulk Modulus (GPa) = 20.09535 51.83834 35.96685
# Shear Modulus (GPa) = 18.65140 29.20075 23.92607
#
# Velocity S-wave (km/s) = 3.13560 3.92340 3.55141
# Velocity P-wave (km/s) = 4.86852 6.91740 5.98134
#
# Compressibility (1/GPa) = 0.04976276
#
# Stress axis : x y z
#
# Youngs Moduli (GPa) = 15.52386 64.99821 66.63387
#
# Poissons Ratio (x) = -0.03812 1.22031
# Poissons Ratio (y) = -0.00910 0.31958
# Poissons Ratio (z) = 0.28430 0.31174
#
# Static dielectric constant tensor:
#      x y z
#    x 3.967970 0.117940 0.183590 
#    y 0.117940 3.650080 0.201680 
#    z 0.183590 0.201680 3.865060 
# 
# 
# High freq. dielectric constant tensor:
#      x y z
#    x 1.722290 0.003120 0.034010 
#    y 0.003120 1.752390 0.008420 
#    z 0.034010 0.008420 1.731730 
# 
# From -- ./inp_files/205073.got.cif
#   From: 2010.06.25/outbox.cif.g09.slc.cpg/sg2_103_cif.got.tgz:205073.got - 2010.06.27 13:26:56.
