data_PCOD8043224
_publ_section_title
;
Structure prediction by ZEFSAII (Michael W. Deem and Ramdas Pophale) SiO2 
 PCOD8043224
Probable space group: P -1
;
_chemical_formula_sum "Si O2"
_cell_formula_units_Z 16
_cell_length_a 8.817622
_cell_length_b 9.335717
_cell_length_c 24.516641
_cell_angle_alpha 114.323327
_cell_angle_beta 42.721651
_cell_angle_gamma 80.906876
_cell_volume 832.134904
_symmetry_space_group_name_H-M "P -1"
_symmetry_group_IT_number 2
_symmetry_cell_setting 'triclinic'
loop_
_space_group_symop_operation_xyz
x,y,z
-x,-y,-z
loop_
_atom_site_type_symbol
_atom_site_label
_atom_site_fract_x
_atom_site_fract_y
_atom_site_fract_z
Si Si1 0.575912 0.084433 0.154901
Si Si2 0.744792 0.053193 0.286826
Si Si3 0.295222 0.585880 0.013659
Si Si4 0.657223 0.321915 0.095861
Si Si5 0.698089 0.572973 0.619886
Si Si6 0.795779 0.907938 0.541943
Si Si7 0.718191 0.095626 0.793713
Si Si8 0.216006 0.827875 0.331558
O O1 0.575131 0.189707 0.116840
O O2 0.425612 0.264873 0.270826
O O3 0.342392 0.055623 0.203335
O O4 0.952938 0.835689 0.029017
O O5 0.601131 0.272492 0.322015
O O6 0.446920 0.114535 0.405464
O O7 0.915550 0.834486 0.166793
O O8 0.996044 0.993934 0.254859
O O9 0.500000 0.500000 0.000000
O O10 0.446557 0.618114 0.930991
O O11 0.361832 0.372101 0.941811
O O12 0.467895 0.550153 0.217637
O O13 0.000000 0.500000 0.500000
O O14 0.840900 0.330711 0.564532
O O15 0.869925 0.944488 0.468612
O O16 0.630447 0.122033 0.660014
O O17 0.851060 0.057660 0.691483
#
# Coordination Sequence:
#
# PCOD8043224 Si02
#       8
#     2   2   2   2   2   2   2   2
#     4  11  21  37  60  89 114 150 199 237 289 338
#     4  10  20  37  59  83 118 156 185 235 294 341
#     4   9  19  36  57  86 118 150 187 231 293 347
#     4  10  21  36  63  85 115 153 190 249 286 329
#     4  10  19  36  60  83 114 153 192 235 282 339
#     4  10  21  37  61  85 114 151 196 240 281 343
#     4  10  22  36  59  87 118 149 192 236 288 349
#     4  10  21  38  60  87 114 145 199 242 283 337
#
# _framework density 19.227651999999999
#
# number of rings (size 3 to 8) (size 9 to 14) (size 15 to 20)
#    0.000    2.000    2.500    1.500    1.750    1.500 
#    0.000    8.125   16.500    0.000    0.000    0.000 
#    0.000    0.000    0.000    0.000    0.000    0.000 
#
# Total GULP energy -198247.529506 kJ/mol
# GULP energy per Si atom -12390.470594 kJ/mol
# Density = 1.918389 g / cm^3
# Si number density = 19.227652 Si / 1000 Ang^3
#
#
#
# Elastic Constant Matrix: (Units=GPa)
#
#
# Indices 1 2 3 4 5 6 
#
# 1 78.8071 52.8863 39.0534 -13.1418 6.8277 -3.3432
# 2 52.8863 113.2716 36.3989 -11.7794 0.6526 -1.4166
# 3 39.0534 36.3989 88.5327 -4.4876 12.4171 -6.0764
# 4 -13.1418 -11.7794 -4.4876 31.7682 -1.4261 -0.3524
# 5 6.8277 0.6526 12.4171 -1.4261 28.6441 -4.1965
# 6 -3.3432 -1.4166 -6.0764 -0.3524 -4.1965 27.2201
#
#
#
# Elastic Compliance Matrix: (Units=1/GPa)
#
#
# Indices 1 2 3 4 5 6 
#
# 1 0.021899 -0.007778 -0.005846 0.005261 -0.002141 0.000718
# 2 -0.007778 0.013361 -0.002376 0.001514 0.002601 -0.000370
# 3 -0.005846 -0.002376 0.015630 -0.001301 -0.005123 0.001841
# 4 0.005261 0.001514 -0.001301 0.034094 0.001127 0.001050
# 5 -0.002141 0.002601 -0.005123 0.001127 0.038321 0.004651
# 6 0.000718 -0.000370 0.001841 0.001050 0.004651 0.037948
#
#
# Mechanical properties :
#
#
# Convention : Reuss Voigt Hill
#
# Bulk Modulus (GPa) = 52.93562 59.69873 56.31717
# Shear Modulus (GPa) = 25.05658 27.67800 26.36729
#
# Velocity S-wave (km/s) = 3.61384 3.79818 3.70715
# Velocity P-wave (km/s) = 6.70849 7.09582 6.90487
#
# Compressibility (1/GPa) = 0.01889087
#
# Stress axis : x y z
#
# Youngs Moduli (GPa) = 45.66406 74.84527 63.98062
#
# Poissons Ratio (x) = 0.58211 0.37404
# Poissons Ratio (y) = 0.35516 0.15200
# Poissons Ratio (z) = 0.26696 0.17781
#
# Static dielectric constant tensor:
#      x y z
#    x 3.181760 -0.229490 0.267070 
#    y -0.229490 3.985800 0.268470 
#    z 0.267070 0.268470 3.930740 
# 
# 
# High freq. dielectric constant tensor:
#      x y z
#    x 1.712710 -0.013140 0.024580 
#    y -0.013140 1.761230 0.002100 
#    z 0.024580 0.002100 1.761250 
# 
# From -- ./inp_files/182423.got.cif
#   From: 2010.06.25/outbox.cif.g09.slc.cpg/sg2_92_cif.got.tgz:182423.got - 2010.06.27 13:26:56.
