data_PCOD8043823
_publ_section_title
;
Structure prediction by ZEFSAII (Michael W. Deem and Ramdas Pophale) SiO2 
 PCOD8043823
Probable space group: P -1
;
_chemical_formula_sum "Si O2"
_cell_formula_units_Z 16
_cell_length_a 9.064292
_cell_length_b 11.227533
_cell_length_c 20.878977
_cell_angle_alpha 29.675007
_cell_angle_beta 121.385383
_cell_angle_gamma 129.129115
_cell_volume 813.942256
_symmetry_space_group_name_H-M "P -1"
_symmetry_group_IT_number 2
_symmetry_cell_setting 'triclinic'
loop_
_space_group_symop_operation_xyz
x,y,z
-x,-y,-z
loop_
_atom_site_type_symbol
_atom_site_label
_atom_site_fract_x
_atom_site_fract_y
_atom_site_fract_z
Si Si1 0.433816 0.317717 0.943620
Si Si2 0.604520 0.923913 0.204826
Si Si3 0.250361 0.907709 0.708186
Si Si4 0.588533 0.759217 0.854329
Si Si5 0.960961 0.672781 0.109739
Si Si6 0.772542 0.875063 0.132924
Si Si7 0.334411 0.448667 0.436418
Si Si8 0.092987 0.750778 0.243778
O O1 0.592488 0.620663 0.851110
O O2 0.229162 0.286258 0.939152
O O3 0.417873 0.262584 0.889514
O O4 0.492787 0.111743 0.091439
O O5 0.718680 0.948598 0.154474
O O6 0.441409 0.622365 0.317311
O O7 0.759792 0.018763 0.253435
O O8 0.459887 0.919123 0.742554
O O9 0.085326 0.627219 0.781617
O O10 0.232640 0.129616 0.553127
O O11 0.790493 0.960295 0.832700
O O12 0.500000 0.500000 0.000000
O O13 0.092616 0.753606 0.164869
O O14 0.080509 0.858174 0.992865
O O15 0.877119 0.674752 0.255864
O O16 0.500000 0.500000 0.500000
O O17 0.174666 0.542255 0.382566
#
# Coordination Sequence:
#
# PCOD8043823 Si02
#       8
#     2   2   2   2   2   2   2   2
#     4  10  20  35  57  81 107 147 186 219 261 330
#     4  11  20  35  57  81 113 143 180 221 272 323
#     4  10  21  35  58  83 102 145 191 221 253 322
#     4  11  16  31  60  79 101 135 189 220 256 314
#     4  10  21  35  55  84 114 135 182 225 275 320
#     4  11  22  33  54  86 118 138 166 230 292 315
#     4  10  19  37  60  78 100 146 199 216 249 322
#     4  11  20  36  57  81 107 147 181 226 267 315
#
# _framework density 19.657413999999999
#
# number of rings (size 3 to 8) (size 9 to 14) (size 15 to 20)
#    0.000    1.500    3.750    5.625    0.000    1.000 
#    0.000    2.500    0.000    6.750    0.000    0.000 
#    0.000    0.000    0.000    0.000    0.000    0.000 
#
# Total GULP energy -198229.409462 kJ/mol
# GULP energy per Si atom -12389.338091 kJ/mol
# Density = 1.961267 g / cm^3
# Si number density = 19.657414 Si / 1000 Ang^3
#
#
#
# Elastic Constant Matrix: (Units=GPa)
#
#
# Indices 1 2 3 4 5 6 
#
# 1 72.7216 31.4867 52.8086 -1.5442 4.0826 -14.6232
# 2 31.4867 137.8745 47.4915 -11.7590 -1.5602 -17.4339
# 3 52.8086 47.4915 107.0264 -8.4140 26.0332 -11.6578
# 4 -1.5442 -11.7590 -8.4140 23.2531 -0.5490 8.2663
# 5 4.0826 -1.5602 26.0332 -0.5490 28.9369 9.0232
# 6 -14.6232 -17.4339 -11.6578 8.2663 9.0232 28.6952
#
#
#
# Elastic Compliance Matrix: (Units=1/GPa)
#
#
# Indices 1 2 3 4 5 6 
#
# 1 0.024200 -0.000705 -0.012818 -0.005525 0.005976 0.006409
# 2 -0.000705 0.009423 -0.004507 0.002684 0.004271 0.001419
# 3 -0.012818 -0.004507 0.023944 0.002668 -0.021984 0.006602
# 4 -0.005525 0.002684 0.002668 0.050813 0.004528 -0.016162
# 5 0.005976 0.004271 -0.021984 0.004528 0.061247 -0.023855
# 6 0.006409 0.001419 0.006602 -0.016162 -0.023855 0.053816
#
#
# Mechanical properties :
#
#
# Convention : Reuss Voigt Hill
#
# Bulk Modulus (GPa) = 46.49325 64.57733 55.53529
# Shear Modulus (GPa) = 18.74959 28.56610 23.65785
#
# Velocity S-wave (km/s) = 3.09174 3.81622 3.47292
# Velocity P-wave (km/s) = 6.03724 7.23469 6.66292
#
# Compressibility (1/GPa) = 0.02150850
#
# Stress axis : x y z
#
# Youngs Moduli (GPa) = 41.32187 106.12409 41.76376
#
# Poissons Ratio (x) = 0.07477 0.53533
# Poissons Ratio (y) = 0.02911 0.18822
# Poissons Ratio (z) = 0.52966 0.47829
#
# Static dielectric constant tensor:
#      x y z
#    x 3.336970 -0.135450 0.441930 
#    y -0.135450 4.469950 -0.103510 
#    z 0.441930 -0.103510 3.894070 
# 
# 
# High freq. dielectric constant tensor:
#      x y z
#    x 1.731840 -0.002660 0.036780 
#    y -0.002660 1.784010 0.003000 
#    z 0.036780 0.003000 1.748460 
# 
# From -- ./inp_files/589376.got.cif
#   From: 2010.06.25/outbox.cif.g09.slc.cpg/sg2_295_cif.got.tgz:589376.got - 2010.06.27 13:26:56.
