data_PCOD8043216
_publ_section_title
;
Structure prediction by ZEFSAII (Michael W. Deem and Ramdas Pophale) SiO2 
 PCOD8043216
Probable space group: P -1
;
_chemical_formula_sum "Si O2"
_cell_formula_units_Z 14
_cell_length_a 28.785113
_cell_length_b 15.750261
_cell_length_c 15.981983
_cell_angle_alpha 25.769503
_cell_angle_beta 16.172951
_cell_angle_gamma 19.061029
_cell_volume 657.026050
_symmetry_space_group_name_H-M "P -1"
_symmetry_group_IT_number 2
_symmetry_cell_setting 'triclinic'
loop_
_space_group_symop_operation_xyz
x,y,z
-x,-y,-z
loop_
_atom_site_type_symbol
_atom_site_label
_atom_site_fract_x
_atom_site_fract_y
_atom_site_fract_z
Si Si1 0.254113 0.390615 0.302092
Si Si2 0.040864 0.047202 0.658259
Si Si3 0.438756 0.021271 0.991609
Si Si4 0.856565 0.661629 0.025547
Si Si5 0.450930 0.796619 0.898206
Si Si6 0.154437 0.740394 0.368555
Si Si7 0.897227 0.434603 0.986565
O O1 0.472851 0.302542 0.049839
O O2 0.102761 0.691366 0.266967
O O3 0.112703 0.375712 0.628456
O O4 0.330940 0.198904 0.261374
O O5 0.900614 0.123502 0.747544
O O6 0.280252 0.958470 0.306535
O O7 0.076469 0.817065 0.850064
O O8 0.324289 0.310166 0.901312
O O9 0.500000 0.000000 0.000000
O O10 0.865118 0.486908 0.096080
O O11 0.933692 0.803965 0.723440
O O12 0.000000 0.500000 0.000000
O O13 0.609361 0.922589 0.252630
O O14 0.654105 0.576674 0.682174
O O15 0.232079 0.842766 0.209263
#
# Coordination Sequence:
#
# PCOD8043216 Si02
#       7
#     2   2   2   2   2   2   2
#     4  10  21  44  64  90 132 167 207 264 322 369
#     4  10  22  42  66  91 130 167 210 264 316 376
#     4  11  24  45  71  93 124 167 212 265 327 383
#     4  12  22  35  56  91 128 170 208 256 305 366
#     4  10  19  36  60  80 121 170 207 245 305 368
#     4  10  20  39  56  88 124 169 213 253 304 370
#     4  11  23  42  63  97 132 162 215 266 311 378
#
# _framework density 21.308135
#
# number of rings (size 3 to 8) (size 9 to 14) (size 15 to 20)
#    0.000    1.429    5.714    1.286    0.000    5.714 
#    7.714    1.429    0.000    0.000    0.000    0.000 
#    0.000    0.000    0.000    0.000    0.000    0.000 
#
# Total GULP energy -173483.434291 kJ/mol
# GULP energy per Si atom -12391.673878 kJ/mol
# Density = 2.125964 g / cm^3
# Si number density = 21.308135 Si / 1000 Ang^3
#
#
#
# Elastic Constant Matrix: (Units=GPa)
#
#
# Indices 1 2 3 4 5 6 
#
# 1 105.2347 46.4115 10.7121 5.7768 13.0522 -2.6371
# 2 46.4115 180.2866 38.3778 -3.6378 11.5489 1.8939
# 3 10.7121 38.3778 40.1866 -4.6653 -3.6743 2.4646
# 4 5.7768 -3.6378 -4.6653 30.7398 2.7342 5.5733
# 5 13.0522 11.5489 -3.6743 2.7342 18.7780 3.4787
# 6 -2.6371 1.8939 2.4646 5.5733 3.4787 30.3378
#
#
#
# Elastic Compliance Matrix: (Units=1/GPa)
#
#
# Indices 1 2 3 4 5 6 
#
# 1 0.011822 -0.002176 -0.002223 -0.002642 -0.007426 0.002681
# 2 -0.002176 0.008039 -0.007514 0.000599 -0.005061 0.000390
# 3 -0.002223 -0.007514 0.034681 0.004503 0.013202 -0.004883
# 4 -0.002642 0.000599 0.004503 0.035170 -0.001489 -0.006923
# 5 -0.007426 -0.005061 0.013202 -0.001489 0.065938 -0.008689
# 6 0.002681 0.000390 -0.004883 -0.006923 -0.008689 0.035836
#
#
# Mechanical properties :
#
#
# Convention : Reuss Voigt Hill
#
# Bulk Modulus (GPa) = 32.55668 57.41230 44.98449
# Shear Modulus (GPa) = 22.16808 31.31821 26.74314
#
# Velocity S-wave (km/s) = 3.22896 3.83793 3.54654
# Velocity P-wave (km/s) = 5.40497 6.82949 6.15856
#
# Compressibility (1/GPa) = 0.03071566
#
# Stress axis : x y z
#
# Youngs Moduli (GPa) = 84.59002 124.40086 28.83384
#
# Poissons Ratio (x) = 0.27067 0.06411
# Poissons Ratio (y) = 0.18405 0.21665
# Poissons Ratio (z) = 0.18808 0.93473
#
# Static dielectric constant tensor:
#      x y z
#    x 3.742460 0.186330 0.046270 
#    y 0.186330 4.136740 0.340510 
#    z 0.046270 0.340510 3.665510 
# 
# 
# High freq. dielectric constant tensor:
#      x y z
#    x 1.821900 0.011600 -0.003470 
#    y 0.011600 1.858290 0.028780 
#    z -0.003470 0.028780 1.802080 
# 
# From -- ./inp_files/544106.got.cif
#   From: 2010.06.25/outbox.cif.g09.slc.cpg/sg2_273_cif.got.tgz:544106.got - 2010.06.27 13:26:56.
