data_PCOD8043161
_publ_section_title
;
Structure prediction by ZEFSAII (Michael W. Deem and Ramdas Pophale) SiO2 
 PCOD8043161
Probable space group: P -1
;
_chemical_formula_sum "Si O2"
_cell_formula_units_Z 16
_cell_length_a 9.846611
_cell_length_b 16.226382
_cell_length_c 22.905582
_cell_angle_alpha 153.783749
_cell_angle_beta 146.958837
_cell_angle_gamma 35.380980
_cell_volume 850.548879
_symmetry_space_group_name_H-M "P -1"
_symmetry_group_IT_number 2
_symmetry_cell_setting 'triclinic'
loop_
_space_group_symop_operation_xyz
x,y,z
-x,-y,-z
loop_
_atom_site_type_symbol
_atom_site_label
_atom_site_fract_x
_atom_site_fract_y
_atom_site_fract_z
Si Si1 0.012682 0.731797 0.109586
Si Si2 0.919075 0.140767 0.613083
Si Si3 0.194691 0.050722 0.430344
Si Si4 0.198551 0.821498 0.928030
Si Si5 0.259942 0.335574 0.920185
Si Si6 0.962213 0.528747 0.404359
Si Si7 0.480584 0.819722 0.913876
Si Si8 0.610466 0.549939 0.400373
O O1 0.966895 0.680046 0.126651
O O2 0.088262 0.934995 0.266741
O O3 0.242814 0.565206 0.056483
O O4 0.757231 0.725196 0.979745
O O5 0.664268 0.299408 0.602221
O O6 0.159383 0.240668 0.767828
O O7 0.875486 0.016951 0.574730
O O8 0.000000 0.000000 0.500000
O O9 0.053343 0.278220 0.516289
O O10 0.500000 0.000000 0.500000
O O11 0.090650 0.632521 0.761546
O O12 0.266885 0.885049 0.928937
O O13 0.450453 0.776594 0.031013
O O14 0.000000 0.000000 0.000000
O O15 0.751523 0.592896 0.420082
O O16 0.237883 0.436464 0.476161
O O17 0.408518 0.669413 0.748484
O O18 0.500000 0.000000 0.000000
#
# Coordination Sequence:
#
# PCOD8043161 Si02
#       8
#     2   2   2   2   2   2   2   2
#     4   9  17  31  59  83 104 140 192 238 262 325
#     4  11  23  38  59  86 120 153 186 238 296 339
#     4  11  20  36  61  87 112 149 200 234 277 344
#     4  10  22  38  58  82 115 151 186 232 288 338
#     4   9  18  35  58  80 107 148 193 226 277 335
#     4  10  21  37  60  88 115 150 194 238 281 342
#     4  10  19  36  59  83 110 145 191 233 278 335
#     4  10  20  38  60  85 117 152 190 237 288 337
#
# _framework density 18.811381999999998
#
# number of rings (size 3 to 8) (size 9 to 14) (size 15 to 20)
#    0.000    2.000    2.500    1.500    5.250    0.000 
#    2.250    0.625    0.000    2.250    0.000    0.000 
#    0.000    0.000    0.000    0.000    0.000    0.000 
#
# Total GULP energy -198305.920636 kJ/mol
# GULP energy per Si atom -12394.120040 kJ/mol
# Density = 1.876857 g / cm^3
# Si number density = 18.811382 Si / 1000 Ang^3
#
#
#
# Elastic Constant Matrix: (Units=GPa)
#
#
# Indices 1 2 3 4 5 6 
#
# 1 58.7367 47.2435 46.0933 12.1114 -4.4798 -7.7833
# 2 47.2435 118.8085 68.0862 12.6456 -6.3755 -12.3341
# 3 46.0933 68.0862 157.6452 2.8507 -4.4056 -10.9128
# 4 12.1114 12.6456 2.8507 37.9893 0.7988 5.2150
# 5 -4.4798 -6.3755 -4.4056 0.7988 26.6332 7.4595
# 6 -7.7833 -12.3341 -10.9128 5.2150 7.4595 28.1774
#
#
#
# Elastic Compliance Matrix: (Units=1/GPa)
#
#
# Indices 1 2 3 4 5 6 
#
# 1 0.028846 -0.007556 -0.004750 -0.006865 0.001423 0.003715
# 2 -0.007556 0.014094 -0.003610 -0.002430 0.000757 0.002934
# 3 -0.004750 -0.003610 0.009276 0.001969 -0.000304 0.000416
# 4 -0.006865 -0.002430 0.001969 0.030241 -0.000146 -0.007756
# 5 0.001423 0.000757 -0.000304 -0.000146 0.040767 -0.010159
# 6 0.003715 0.002934 0.000416 -0.007756 -0.010159 0.042086
#
#
# Mechanical properties :
#
#
# Convention : Reuss Voigt Hill
#
# Bulk Modulus (GPa) = 49.05494 73.11514 61.08504
# Shear Modulus (GPa) = 24.51755 30.14448 27.33101
#
# Velocity S-wave (km/s) = 3.61409 4.00742 3.81582
# Velocity P-wave (km/s) = 6.59920 7.76945 7.20811
#
# Compressibility (1/GPa) = 0.02038531
#
# Stress axis : x y z
#
# Youngs Moduli (GPa) = 34.66654 70.95258 107.80646
#
# Poissons Ratio (x) = 0.53610 0.51207
# Poissons Ratio (y) = 0.26193 0.38915
# Poissons Ratio (z) = 0.16466 0.25612
#
# Static dielectric constant tensor:
#      x y z
#    x 2.958460 0.215450 0.087840 
#    y 0.215450 2.885050 0.033970 
#    z 0.087840 0.033970 3.835140 
# 
# 
# High freq. dielectric constant tensor:
#      x y z
#    x 1.686530 -0.003520 0.004700 
#    y -0.003520 1.737900 -0.004200 
#    z 0.004700 -0.004200 1.755600 
# 
# From -- ./inp_files/256780.got.cif
#   From: 2010.06.25/outbox.cif.g09.slc.cpg/sg2_129_cif.got.tgz:256780.got - 2010.06.27 13:26:56.
