data_PCOD8043833
_publ_section_title
;
Structure prediction by ZEFSAII (Michael W. Deem and Ramdas Pophale) SiO2 
 PCOD8043833
Probable space group: P -1
;
_chemical_formula_sum "Si O2"
_cell_formula_units_Z 14
_cell_length_a 12.003474
_cell_length_b 8.657769
_cell_length_c 17.720665
_cell_angle_alpha 149.480994
_cell_angle_beta 127.586573
_cell_angle_gamma 51.036019
_cell_volume 716.216294
_symmetry_space_group_name_H-M "P -1"
_symmetry_group_IT_number 2
_symmetry_cell_setting 'triclinic'
loop_
_space_group_symop_operation_xyz
x,y,z
-x,-y,-z
loop_
_atom_site_type_symbol
_atom_site_label
_atom_site_fract_x
_atom_site_fract_y
_atom_site_fract_z
Si Si1 0.644862 0.732934 0.461977
Si Si2 0.158612 0.114981 0.686472
Si Si3 0.914316 0.731402 0.862594
Si Si4 0.694295 0.007421 0.012851
Si Si5 0.380333 0.965109 0.841213
Si Si6 0.819016 0.575138 0.324719
Si Si7 0.855293 0.591967 0.620540
O O1 0.599959 0.407640 0.308498
O O2 0.759907 0.746519 0.449878
O O3 0.726166 0.785247 0.594987
O O4 0.500000 0.000000 0.500000
O O5 0.197366 0.161424 0.635437
O O6 0.022984 0.389884 0.772844
O O7 0.289503 0.132124 0.802970
O O8 0.123085 0.780776 0.536687
O O9 0.814742 0.774302 0.913646
O O10 0.815646 0.723183 0.743929
O O11 0.000000 0.000000 0.000000
O O12 0.535683 0.034412 0.925357
O O13 0.699897 0.890341 0.053060
O O14 0.719753 0.351607 0.163326
O O15 0.984972 0.364698 0.316231
#
# Coordination Sequence:
#
# PCOD8043833 Si02
#       7
#     2   2   2   2   2   2   2
#     4  10  22  39  59  85 114 153 203 237 285 350
#     4  10  21  38  61  87 116 155 196 237 298 343
#     4  11  20  37  60  92 116 145 202 242 282 344
#     4  10  20  39  57  83 125 153 192 242 286 350
#     4   9  22  40  56  84 121 158 191 236 298 347
#     4  10  19  37  60  83 116 155 191 240 294 344
#     4  10  21  39  60  86 119 150 193 245 295 339
#
# _framework density 19.547167000000002
#
# number of rings (size 3 to 8) (size 9 to 14) (size 15 to 20)
#    0.000    2.000    2.857    2.143    0.000    4.571 
#    7.714    2.857    0.000    0.000    0.000    0.000 
#    0.000    0.000    0.000    0.000    0.000    0.000 
#
# Total GULP energy -173576.846862 kJ/mol
# GULP energy per Si atom -12398.346204 kJ/mol
# Density = 1.950268 g / cm^3
# Si number density = 19.547167 Si / 1000 Ang^3
#
#
#
# Elastic Constant Matrix: (Units=GPa)
#
#
# Indices 1 2 3 4 5 6 
#
# 1 91.7802 38.3477 35.3751 -4.9189 4.5693 -7.0068
# 2 38.3477 140.2220 48.1226 -25.6041 -4.2466 -4.3782
# 3 35.3751 48.1226 91.5486 -23.6063 -5.3075 -7.1553
# 4 -4.9189 -25.6041 -23.6063 32.2049 -6.4397 2.3706
# 5 4.5693 -4.2466 -5.3075 -6.4397 30.5726 -3.0178
# 6 -7.0068 -4.3782 -7.1553 2.3706 -3.0178 14.0595
#
#
#
# Elastic Compliance Matrix: (Units=1/GPa)
#
#
# Indices 1 2 3 4 5 6 
#
# 1 0.014424 -0.003116 -0.005259 -0.005239 -0.004258 0.003511
# 2 -0.003116 0.010007 -0.002248 0.006397 0.002807 -0.000057
# 3 -0.005259 -0.002248 0.017868 0.011421 0.006499 0.005242
# 4 -0.005239 0.006397 0.011421 0.046378 0.013449 0.000260
# 5 -0.004258 0.002807 0.006499 0.013449 0.038491 0.008054
# 6 0.003511 -0.000057 0.005242 0.000260 0.008054 0.077211
#
#
# Mechanical properties :
#
#
# Convention : Reuss Voigt Hill
#
# Bulk Modulus (GPa) = 47.49942 63.02684 55.26313
# Shear Modulus (GPa) = 21.49221 28.81444 25.15332
#
# Velocity S-wave (km/s) = 3.31948 3.84356 3.59109
# Velocity P-wave (km/s) = 6.24856 7.21185 6.74742
#
# Compressibility (1/GPa) = 0.02105289
#
# Stress axis : x y z
#
# Youngs Moduli (GPa) = 69.33058 99.93480 55.96492
#
# Poissons Ratio (x) = 0.31136 0.29432
# Poissons Ratio (y) = 0.21601 0.12582
# Poissons Ratio (z) = 0.36461 0.22467
#
# Static dielectric constant tensor:
#      x y z
#    x 3.669870 0.092880 -0.037340 
#    y 0.092880 3.483250 -0.301570 
#    z -0.037340 -0.301570 3.785400 
# 
# 
# High freq. dielectric constant tensor:
#      x y z
#    x 1.762790 0.004850 0.001730 
#    y 0.004850 1.748250 -0.020190 
#    z 0.001730 -0.020190 1.772750 
# 
# From -- ./inp_files/153751.got.cif
#   From: 2010.06.25/outbox.cif.g09.slc.cpg/sg2_77_cif.got.tgz:153751.got - 2010.06.27 13:26:56.
