data_PCOD8043744
_publ_section_title
;
Structure prediction by ZEFSAII (Michael W. Deem and Ramdas Pophale) SiO2 
 PCOD8043744
Probable space group: P -1
;
_chemical_formula_sum "Si O2"
_cell_formula_units_Z 12
_cell_length_a 10.314152
_cell_length_b 15.133128
_cell_length_c 8.524844
_cell_angle_alpha 62.307208
_cell_angle_beta 56.085273
_cell_angle_gamma 109.860431
_cell_volume 566.260488
_symmetry_space_group_name_H-M "P -1"
_symmetry_group_IT_number 2
_symmetry_cell_setting 'triclinic'
loop_
_space_group_symop_operation_xyz
x,y,z
-x,-y,-z
loop_
_atom_site_type_symbol
_atom_site_label
_atom_site_fract_x
_atom_site_fract_y
_atom_site_fract_z
Si Si1 0.763165 0.571000 0.768332
Si Si2 0.092722 0.905182 0.425404
Si Si3 0.918169 0.009099 0.322719
Si Si4 0.066332 0.447518 0.618320
Si Si5 0.612803 0.281066 0.254911
Si Si6 0.483733 0.237254 0.722495
O O1 0.871845 0.616793 0.477867
O O2 0.993995 0.745676 0.569794
O O3 0.500000 0.500000 0.000000
O O4 0.704719 0.436051 0.001638
O O5 0.875096 0.878704 0.545496
O O6 0.123273 0.923983 0.577751
O O7 0.379975 0.080939 0.004214
O O8 0.697166 0.906018 0.421477
O O9 0.222512 0.171417 0.912312
O O10 0.328446 0.606537 0.413103
O O11 0.000000 0.500000 0.500000
O O12 0.809078 0.299796 0.029416
O O13 0.645827 0.295094 0.408177
#
# Coordination Sequence:
#
# PCOD8043744 Si02
#       6
#     2   2   2   2   2   2
#     4  11  19  36  58  85 109 147 192 229 266 334
#     4   9  18  33  60  77 108 143 195 219 263 325
#     4   9  18  35  60  80 108 148 191 214 277 333
#     4  10  22  37  58  82 114 151 184 225 283 338
#     4  11  21  36  58  86 114 146 182 235 283 322
#     4  10  19  37  58  82 112 152 185 223 281 338
#
# _framework density 21.191661
#
# number of rings (size 3 to 8) (size 9 to 14) (size 15 to 20)
#    1.000    1.000    1.667    4.000    0.000    0.000 
#    0.000   13.333    0.000    0.000    0.000    0.000 
#    0.000    0.000    0.000    0.000    0.000    0.000 
#
# Total GULP energy -148726.315061 kJ/mol
# GULP energy per Si atom -12393.859588 kJ/mol
# Density = 2.114343 g / cm^3
# Si number density = 21.191661 Si / 1000 Ang^3
#
#
#
# Elastic Constant Matrix: (Units=GPa)
#
#
# Indices 1 2 3 4 5 6 
#
# 1 20.7279 21.4322 15.6774 2.8984 -8.8494 2.9757
# 2 21.4322 166.0211 52.0479 15.6673 -6.2616 14.9423
# 3 15.6774 52.0479 109.5834 22.7979 -14.1364 2.9504
# 4 2.8984 15.6673 22.7979 49.7675 11.1521 -5.5566
# 5 -8.8494 -6.2616 -14.1364 11.1521 22.4361 3.0659
# 6 2.9757 14.9423 2.9504 -5.5566 3.0659 22.3733
#
#
#
# Elastic Compliance Matrix: (Units=1/GPa)
#
#
# Indices 1 2 3 4 5 6 
#
# 1 0.072573 -0.005631 -0.000596 -0.011311 0.034117 -0.013297
# 2 -0.005631 0.008133 -0.002656 -0.001480 -0.000251 -0.004666
# 3 -0.000596 -0.002656 0.014097 -0.008919 0.012884 -0.003987
# 4 -0.011311 -0.001480 -0.008919 0.033695 -0.029439 0.016072
# 5 0.034117 -0.000251 0.012884 -0.029439 0.084112 -0.024906
# 6 -0.013297 -0.004666 -0.003987 0.016072 -0.024906 0.057511
#
#
# Mechanical properties :
#
#
# Convention : Reuss Voigt Hill
#
# Bulk Modulus (GPa) = 12.98070 52.73860 32.85965
# Shear Modulus (GPa) = 15.94559 32.72704 24.33631
#
# Velocity S-wave (km/s) = 2.74605 3.93407 3.39247
# Velocity P-wave (km/s) = 4.02406 6.75103 5.55740
#
# Compressibility (1/GPa) = 0.07703747
#
# Stress axis : x y z
#
# Youngs Moduli (GPa) = 13.77920 122.95414 70.93593
#
# Poissons Ratio (x) = 0.69235 0.04227
# Poissons Ratio (y) = 0.07759 0.18842
# Poissons Ratio (z) = 0.00821 0.32659
#
# Static dielectric constant tensor:
#      x y z
#    x 3.312020 0.016990 -0.244000 
#    y 0.016990 4.269540 0.398940 
#    z -0.244000 0.398940 4.087010 
# 
# 
# High freq. dielectric constant tensor:
#      x y z
#    x 1.776870 0.022680 -0.019270 
#    y 0.022680 1.842670 0.011710 
#    z -0.019270 0.011710 1.833690 
# 
# From -- ./inp_files/183047.got.cif
#   From: 2010.06.25/outbox.cif.g09.slc.cpg/sg2_92_cif.got.tgz:183047.got - 2010.06.27 13:26:56.
