data_PCOD8043017
_publ_section_title
;
Structure prediction by ZEFSAII (Michael W. Deem and Ramdas Pophale) SiO2 
 PCOD8043017
Probable space group: P -1
;
_chemical_formula_sum "Si O2"
_cell_formula_units_Z 12
_cell_length_a 8.593098
_cell_length_b 10.411449
_cell_length_c 21.683251
_cell_angle_alpha 26.928278
_cell_angle_beta 125.088099
_cell_angle_gamma 111.007052
_cell_volume 653.847025
_symmetry_space_group_name_H-M "P -1"
_symmetry_group_IT_number 2
_symmetry_cell_setting 'triclinic'
loop_
_space_group_symop_operation_xyz
x,y,z
-x,-y,-z
loop_
_atom_site_type_symbol
_atom_site_label
_atom_site_fract_x
_atom_site_fract_y
_atom_site_fract_z
Si Si1 0.062306 0.880943 0.496787
Si Si2 0.502679 0.520110 0.274195
Si Si3 0.183558 0.292521 0.259749
Si Si4 0.372727 0.728019 0.461456
Si Si5 0.201084 0.479988 0.421480
Si Si6 0.922934 0.045916 0.032235
O O1 0.290783 0.590505 0.673457
O O2 0.892962 0.768919 0.478149
O O3 0.061265 0.161797 0.334428
O O4 0.000000 0.000000 0.500000
O O5 0.396451 0.274299 0.348320
O O6 0.567178 0.508414 0.365697
O O7 0.329523 0.861111 0.067802
O O8 0.039960 0.660194 0.055649
O O9 0.242942 0.086121 0.299532
O O10 0.223170 0.637420 0.422349
O O11 0.577707 0.700855 0.483600
O O12 0.039656 0.738785 0.229127
O O13 0.000000 0.000000 0.000000
#
# Coordination Sequence:
#
# PCOD8043017 Si02
#       6
#     2   2   2   2   2   2
#     4  11  19  33  57  85 106 138 189 227 260 319
#     4   9  19  34  58  77 106 148 177 215 268 331
#     4   9  20  35  58  74 110 147 180 214 271 327
#     4  10  19  37  54  79 110 147 187 213 268 333
#     4  11  22  32  58  85 106 141 184 234 261 313
#     4  10  19  36  56  82 107 144 183 217 278 318
#
# _framework density 18.352917000000001
#
# number of rings (size 3 to 8) (size 9 to 14) (size 15 to 20)
#    1.000    1.000    1.667    5.000    0.000    4.000 
#    0.000    0.000    0.000    4.000    0.000    0.000 
#    0.000    0.000    0.000    0.000    0.000    0.000 
#
# Total GULP energy -148683.056116 kJ/mol
# GULP energy per Si atom -12390.254676 kJ/mol
# Density = 1.831114 g / cm^3
# Si number density = 18.352917 Si / 1000 Ang^3
#
#
#
# Elastic Constant Matrix: (Units=GPa)
#
#
# Indices 1 2 3 4 5 6 
#
# 1 105.3529 47.1470 9.0598 -6.1984 4.2591 0.7648
# 2 47.1470 117.8679 14.8943 -6.5744 -3.4434 -5.6490
# 3 9.0598 14.8943 35.6559 -7.6295 -2.0832 2.2389
# 4 -6.1984 -6.5744 -7.6295 22.7743 -6.4394 5.2237
# 5 4.2591 -3.4434 -2.0832 -6.4394 18.4926 -4.3984
# 6 0.7648 -5.6490 2.2389 5.2237 -4.3984 33.1467
#
#
#
# Elastic Compliance Matrix: (Units=1/GPa)
#
#
# Indices 1 2 3 4 5 6 
#
# 1 0.011941 -0.004800 -0.000972 0.000830 -0.003862 -0.001671
# 2 -0.004800 0.011102 -0.003044 0.001411 0.003917 0.002506
# 3 -0.000972 -0.003044 0.032925 0.012707 0.006885 -0.003809
# 4 0.000830 0.001411 0.012707 0.055836 0.019311 -0.006874
# 5 -0.003862 0.003917 0.006885 0.019311 0.064578 0.005818
# 6 -0.001671 0.002506 -0.003809 -0.006874 0.005818 0.032747
#
#
# Mechanical properties :
#
#
# Convention : Reuss Voigt Hill
#
# Bulk Modulus (GPa) = 26.08600 44.56432 35.32516
# Shear Modulus (GPa) = 20.87330 27.40109 24.13720
#
# Velocity S-wave (km/s) = 3.37609 3.86814 3.63046
# Velocity P-wave (km/s) = 5.42602 6.65467 6.07150
#
# Compressibility (1/GPa) = 0.03833475
#
# Stress axis : x y z
#
# Youngs Moduli (GPa) = 83.74739 90.07351 30.37208
#
# Poissons Ratio (x) = 0.43236 0.02952
# Poissons Ratio (y) = 0.40199 0.09246
# Poissons Ratio (z) = 0.08141 0.27422
#
# Static dielectric constant tensor:
#      x y z
#    x 3.403440 -0.024630 0.180130 
#    y -0.024630 3.387200 -0.171520 
#    z 0.180130 -0.171520 3.293240 
# 
# 
# High freq. dielectric constant tensor:
#      x y z
#    x 1.714280 -0.009230 0.014660 
#    y -0.009230 1.706910 -0.015270 
#    z 0.014660 -0.015270 1.692490 
# 
# From -- ./inp_files/197787.got.cif
#   From: 2010.06.25/outbox.cif.g09.slc.cpg/sg2_99_cif.got.tgz:197787.got - 2010.06.27 13:26:56.
