data_PCOD8043609
_publ_section_title
;
Structure prediction by ZEFSAII (Michael W. Deem and Ramdas Pophale) SiO2 
 PCOD8043609
Probable space group: P -1
;
_chemical_formula_sum "Si O2"
_cell_formula_units_Z 16
_cell_length_a 11.077177
_cell_length_b 13.819645
_cell_length_c 5.458284
_cell_angle_alpha 69.369820
_cell_angle_beta 68.457093
_cell_angle_gamma 82.796876
_cell_volume 727.351968
_symmetry_space_group_name_H-M "P -1"
_symmetry_group_IT_number 2
_symmetry_cell_setting 'triclinic'
loop_
_space_group_symop_operation_xyz
x,y,z
-x,-y,-z
loop_
_atom_site_type_symbol
_atom_site_label
_atom_site_fract_x
_atom_site_fract_y
_atom_site_fract_z
Si Si1 0.239586 0.757587 0.057994
Si Si2 0.203460 0.477011 0.748123
Si Si3 0.674523 0.325417 0.429442
Si Si4 0.091162 0.944908 0.171626
Si Si5 0.564904 0.577307 0.693860
Si Si6 0.748794 0.691443 0.751833
Si Si7 0.889612 0.853164 0.764160
Si Si8 0.027999 0.326435 0.774456
O O1 0.324147 0.734762 0.259210
O O2 0.195095 0.876483 0.009489
O O3 0.119797 0.675938 0.205175
O O4 0.318364 0.747879 0.751804
O O5 0.201288 0.594600 0.746990
O O6 0.309357 0.482272 0.446094
O O7 0.062910 0.432965 0.802448
O O8 0.266638 0.399654 0.961588
O O9 0.539086 0.388298 0.464106
O O10 0.009448 0.869092 0.475180
O O11 0.159281 0.036997 0.192714
O O12 0.000000 0.000000 0.000000
O O13 0.621060 0.683331 0.684350
O O14 0.500000 0.500000 0.000000
O O15 0.762640 0.803116 0.773325
O O16 0.883190 0.674198 0.528190
O O17 0.943405 0.776440 0.999164
#
# Coordination Sequence:
#
# PCOD8043609 Si02
#       8
#     2   2   2   2   2   2   2   2
#     4  12  26  41  61  95 141 168 205 266 329 408
#     4  10  23  39  66  89 124 172 226 267 302 380
#     4  12  27  41  61  95 136 178 209 260 334 373
#     4  11  21  37  67  91 126 167 218 263 316 397
#     4  11  22  42  67  90 122 173 234 268 297 373
#     4  10  20  37  67  92 122 160 226 276 303 365
#     4  10  19  36  65  96 122 158 217 273 320 363
#     4  10  21  39  59  97 128 167 213 259 329 381
#
# _framework density 21.997603999999999
#
# number of rings (size 3 to 8) (size 9 to 14) (size 15 to 20)
#    0.000    1.250    3.750    1.875    7.000    1.000 
#    0.000    0.000    0.000    1.500    0.000    0.000 
#    0.000    0.000    0.000    0.000    0.000    0.000 
#
# Total GULP energy -198323.411974 kJ/mol
# GULP energy per Si atom -12395.213248 kJ/mol
# Density = 2.194754 g / cm^3
# Si number density = 21.997604 Si / 1000 Ang^3
#
#
#
# Elastic Constant Matrix: (Units=GPa)
#
#
# Indices 1 2 3 4 5 6 
#
# 1 83.9682 1.4185 2.5310 0.3302 23.3009 10.8579
# 2 1.4185 98.2492 6.0367 3.3849 17.4481 17.7070
# 3 2.5310 6.0367 81.1305 5.3150 13.1391 4.6995
# 4 0.3302 3.3849 5.3150 26.2310 3.4039 -0.4543
# 5 23.3009 17.4481 13.1391 3.4039 27.3473 1.4589
# 6 10.8579 17.7070 4.6995 -0.4543 1.4589 33.2075
#
#
#
# Elastic Compliance Matrix: (Units=1/GPa)
#
#
# Indices 1 2 3 4 5 6 
#
# 1 0.018055 0.004330 0.002589 0.001035 -0.019107 -0.007725
# 2 0.004330 0.013819 0.001417 -0.000628 -0.012658 -0.008437
# 3 0.002589 0.001417 0.013973 -0.001880 -0.009418 -0.003191
# 4 0.001035 -0.000628 -0.001880 0.039174 -0.004507 0.000996
# 5 -0.019107 -0.012658 -0.009418 -0.004507 0.065401 0.011395
# 6 -0.007725 -0.008437 -0.003191 0.000996 0.011395 0.037103
#
#
# Mechanical properties :
#
#
# Convention : Reuss Voigt Hill
#
# Bulk Modulus (GPa) = 15.99562 31.48002 23.73782
# Shear Modulus (GPa) = 26.08333 34.24794 30.16563
#
# Velocity S-wave (km/s) = 3.44719 3.95003 3.70714
# Velocity P-wave (km/s) = 4.80952 5.92835 5.39800
#
# Compressibility (1/GPa) = 0.06251713
#
# Stress axis : x y z
#
# Youngs Moduli (GPa) = 55.38644 72.36461 71.56673
#
# Poissons Ratio (x) = -0.31334 -0.18525
# Poissons Ratio (y) = -0.23982 -0.10138
# Poissons Ratio (z) = -0.14337 -0.10251
#
# Static dielectric constant tensor:
#      x y z
#    x 4.002490 0.567120 0.214370 
#    y 0.567120 4.323970 0.138180 
#    z 0.214370 0.138180 3.785090 
# 
# 
# High freq. dielectric constant tensor:
#      x y z
#    x 1.847620 0.029480 0.021500 
#    y 0.029480 1.856670 0.010550 
#    z 0.021500 0.010550 1.869270 
# 
# From -- ./inp_files/69786.got.cif
#   From: 2010.06.25/outbox.cif.g09.slc.cpg/sg2_35_cif.got.tgz:69786.got - 2010.06.27 13:26:56.
