data_PCOD8043821
_publ_section_title
;
Structure prediction by ZEFSAII (Michael W. Deem and Ramdas Pophale) SiO2 
 PCOD8043821
Probable space group: P -1
;
_chemical_formula_sum "Si O2"
_cell_formula_units_Z 16
_cell_length_a 9.092945
_cell_length_b 11.625257
_cell_length_c 18.289267
_cell_angle_alpha 126.731002
_cell_angle_beta 31.129664
_cell_angle_gamma 129.229255
_cell_volume 766.418652
_symmetry_space_group_name_H-M "P -1"
_symmetry_group_IT_number 2
_symmetry_cell_setting 'triclinic'
loop_
_space_group_symop_operation_xyz
x,y,z
-x,-y,-z
loop_
_atom_site_type_symbol
_atom_site_label
_atom_site_fract_x
_atom_site_fract_y
_atom_site_fract_z
Si Si1 0.275380 0.133758 0.579691
Si Si2 0.628743 0.364800 0.410319
Si Si3 0.156652 0.809219 0.542397
Si Si4 0.465697 0.342561 0.915176
Si Si5 0.876119 0.372875 0.152374
Si Si6 0.442663 0.313674 0.181264
Si Si7 0.168828 0.550130 0.335346
Si Si8 0.212555 0.720227 0.119662
O O1 0.373711 0.222021 0.495432
O O2 0.536213 0.181302 0.545769
O O3 0.989413 0.168717 0.749757
O O4 0.194855 0.955730 0.531268
O O5 0.500000 0.500000 0.500000
O O6 0.748914 0.320559 0.266719
O O7 0.883514 0.413754 0.382389
O O8 0.064757 0.657230 0.476193
O O9 0.888570 0.798625 0.709691
O O10 0.701326 0.354363 0.755045
O O11 0.538351 0.233942 0.904424
O O12 0.500000 0.500000 0.000000
O O13 0.134747 0.290124 0.001867
O O14 0.623730 0.312171 0.177315
O O15 0.002411 0.551809 0.158027
O O16 0.416568 0.479991 0.237572
O O17 0.614421 0.258712 0.022459
#
# Coordination Sequence:
#
# PCOD8043821 Si02
#       8
#     2   2   2   2   2   2   2   2
#     4  11  25  45  64  93 133 175 211 261 330 381
#     4  12  21  38  67  94 125 169 216 265 315 377
#     4  11  27  42  63  96 135 171 213 263 322 386
#     4  10  19  37  59  98 129 158 205 272 328 360
#     4  11  21  35  61 102 126 157 209 274 323 363
#     4  12  23  38  66 100 126 165 220 270 310 378
#     4  12  21  39  67  96 128 165 218 272 311 374
#     4  11  21  39  66  95 128 168 213 265 318 378
#
# _framework density 20.876318999999999
#
# number of rings (size 3 to 8) (size 9 to 14) (size 15 to 20)
#    0.000    0.750    7.500    2.250    1.750    0.500 
#    0.000    5.625    0.000    1.500    0.000    0.000 
#    0.000    0.000    0.000    0.000    0.000    0.000 
#
# Total GULP energy -198399.719720 kJ/mol
# GULP energy per Si atom -12399.982483 kJ/mol
# Density = 2.082880 g / cm^3
# Si number density = 20.876319 Si / 1000 Ang^3
#
#
#
# Elastic Constant Matrix: (Units=GPa)
#
#
# Indices 1 2 3 4 5 6 
#
# 1 110.9733 33.7899 40.5262 2.6897 -20.1964 -2.0168
# 2 33.7899 67.6241 34.4053 -3.6927 2.8179 -19.3855
# 3 40.5262 34.4053 124.8217 -8.8547 -5.2795 -8.4851
# 4 2.6897 -3.6927 -8.8547 17.1535 -8.0302 1.2895
# 5 -20.1964 2.8179 -5.2795 -8.0302 44.0005 -3.7898
# 6 -2.0168 -19.3855 -8.4851 1.2895 -3.7898 23.9843
#
#
#
# Elastic Compliance Matrix: (Units=1/GPa)
#
#
# Indices 1 2 3 4 5 6 
#
# 1 0.012930 -0.006727 -0.002551 -0.001974 0.005329 -0.004304
# 2 -0.006727 0.025394 -0.003599 0.001777 -0.003265 0.018075
# 3 -0.002551 -0.003599 0.010312 0.005546 0.001347 0.000439
# 4 -0.001974 0.001777 0.005546 0.067390 0.012075 0.001517
# 5 0.005329 -0.003265 0.001347 0.012075 0.027924 0.002049
# 6 -0.004304 0.018075 0.000439 0.001517 0.002049 0.056339
#
#
# Mechanical properties :
#
#
# Convention : Reuss Voigt Hill
#
# Bulk Modulus (GPa) = 43.70065 57.87354 50.78709
# Shear Modulus (GPa) = 21.39756 30.00752 25.70254
#
# Velocity S-wave (km/s) = 3.20499 3.79541 3.51263
# Velocity P-wave (km/s) = 5.88850 6.85486 6.38998
#
# Compressibility (1/GPa) = 0.02288296
#
# Stress axis : x y z
#
# Youngs Moduli (GPa) = 77.33657 39.37889 96.97429
#
# Poissons Ratio (x) = 0.26489 0.24741
# Poissons Ratio (y) = 0.52021 0.34901
# Poissons Ratio (z) = 0.19731 0.14172
#
# Static dielectric constant tensor:
#      x y z
#    x 4.154290 -0.187320 -0.233850 
#    y -0.187320 3.441350 -0.211030 
#    z -0.233850 -0.211030 4.074300 
# 
# 
# High freq. dielectric constant tensor:
#      x y z
#    x 1.830820 -0.018840 -0.011710 
#    y -0.018840 1.767980 -0.017870 
#    z -0.011710 -0.017870 1.833700 
# 
# From -- ./inp_files/182407.got.cif
#   From: 2010.06.25/outbox.cif.g09.slc.cpg/sg2_92_cif.got.tgz:182407.got - 2010.06.27 13:26:56.
