data_PCOD8043522
_publ_section_title
;
Structure prediction by ZEFSAII (Michael W. Deem and Ramdas Pophale) SiO2 
 PCOD8043522
Probable space group: P -1
;
_chemical_formula_sum "Si O2"
_cell_formula_units_Z 14
_cell_length_a 5.143626
_cell_length_b 9.668994
_cell_length_c 24.292945
_cell_angle_alpha 135.644800
_cell_angle_beta 59.785717
_cell_angle_gamma 103.265445
_cell_volume 712.702089
_symmetry_space_group_name_H-M "P -1"
_symmetry_group_IT_number 2
_symmetry_cell_setting 'triclinic'
loop_
_space_group_symop_operation_xyz
x,y,z
-x,-y,-z
loop_
_atom_site_type_symbol
_atom_site_label
_atom_site_fract_x
_atom_site_fract_y
_atom_site_fract_z
Si Si1 0.095910 0.072581 0.168085
Si Si2 0.303585 0.556677 0.727294
Si Si3 0.873978 0.129602 0.323623
Si Si4 0.802362 0.828267 0.411236
Si Si5 0.192209 0.093722 0.391775
Si Si6 0.987014 0.454012 0.588531
Si Si7 0.779864 0.072273 0.094499
O O1 0.459827 0.006522 0.100192
O O2 0.965624 0.318352 0.248940
O O3 0.011875 0.005681 0.218710
O O4 0.931682 0.972886 0.107654
O O5 0.255988 0.328717 0.674938
O O6 0.632328 0.561472 0.666649
O O7 0.277707 0.681015 0.823285
O O8 0.554281 0.070622 0.355833
O O9 0.115293 0.057290 0.326321
O O10 0.821449 0.371721 0.390035
O O11 0.865237 0.702480 0.424531
O O12 0.500000 0.000000 0.500000
O O13 0.091132 0.922824 0.391759
O O14 0.008516 0.318008 0.492405
O O15 0.000000 0.000000 0.000000
#
# Coordination Sequence:
#
# PCOD8043522 Si02
#       7
#     2   2   2   2   2   2   2
#     4  10  20  38  60  88 123 152 185 251 318 347
#     4  10  21  36  64  84 122 158 198 248 313 341
#     4  12  23  42  57  87 121 167 202 254 294 356
#     4  12  24  40  57  84 125 172 210 251 296 347
#     4  12  27  35  58  88 120 166 217 243 285 359
#     4  12  22  41  59  80 124 168 212 253 299 341
#     4  10  19  36  63  97 118 142 196 260 313 360
#
# _framework density 19.643550999999999
#
# number of rings (size 3 to 8) (size 9 to 14) (size 15 to 20)
#    0.857    0.000    4.286    4.286    2.000    0.000 
#    0.000    0.000    0.000    0.000    0.000    6.000 
#    0.000    0.000    0.000    0.000    0.000    0.000 
#
# Total GULP energy -173535.768177 kJ/mol
# GULP energy per Si atom -12395.412013 kJ/mol
# Density = 1.959884 g / cm^3
# Si number density = 19.643551 Si / 1000 Ang^3
#
#
#
# Elastic Constant Matrix: (Units=GPa)
#
#
# Indices 1 2 3 4 5 6 
#
# 1 110.3585 19.5355 21.4310 -8.5029 -10.1339 9.3850
# 2 19.5355 64.5398 -9.3988 -9.7109 -6.5385 17.6730
# 3 21.4310 -9.3988 98.8494 -16.2062 -6.1726 11.4976
# 4 -8.5029 -9.7109 -16.2062 19.3560 2.5262 1.5802
# 5 -10.1339 -6.5385 -6.1726 2.5262 33.4714 -8.8921
# 6 9.3850 17.6730 11.4976 1.5802 -8.8921 38.6787
#
#
#
# Elastic Compliance Matrix: (Units=1/GPa)
#
#
# Indices 1 2 3 4 5 6 
#
# 1 0.010304 -0.003145 -0.002287 0.000763 0.002040 0.000055
# 2 -0.003145 0.023761 0.007371 0.017732 0.000271 -0.012947
# 3 -0.002287 0.007371 0.014809 0.015701 0.000220 -0.007806
# 4 0.000763 0.017732 0.015701 0.075893 -0.003624 -0.016888
# 5 0.002040 0.000271 0.000220 -0.003624 0.032717 0.006985
# 6 0.000055 -0.012947 -0.007806 -0.016888 0.006985 0.036373
#
#
# Mechanical properties :
#
#
# Convention : Reuss Voigt Hill
#
# Bulk Modulus (GPa) = 18.95700 37.43146 28.19423
# Shear Modulus (GPa) = 24.08922 34.44653 29.26788
#
# Velocity S-wave (km/s) = 3.50568 4.19212 3.86417
# Velocity P-wave (km/s) = 5.10469 6.52139 5.85604
#
# Compressibility (1/GPa) = 0.05275097
#
# Stress axis : x y z
#
# Youngs Moduli (GPa) = 97.05208 42.08659 67.52667
#
# Poissons Ratio (x) = 0.13238 0.15442
# Poissons Ratio (y) = 0.30527 -0.49775
# Poissons Ratio (z) = 0.22195 -0.31023
#
# Static dielectric constant tensor:
#      x y z
#    x 3.713560 0.110790 0.164440 
#    y 0.110790 3.394530 -0.094640 
#    z 0.164440 -0.094640 3.461790 
# 
# 
# High freq. dielectric constant tensor:
#      x y z
#    x 1.787950 0.006770 0.006660 
#    y 0.006770 1.729240 -0.018730 
#    z 0.006660 -0.018730 1.747530 
# 
# From -- ./inp_files/124889.got.cif
#   From: 2010.06.25/outbox.cif.g09.slc.cpg/sg2_63_cif.got.tgz:124889.got - 2010.06.27 13:26:56.
