data_PCOD8043680
_publ_section_title
;
Structure prediction by ZEFSAII (Michael W. Deem and Ramdas Pophale) SiO2 
 PCOD8043680
Probable space group: P -1
;
_chemical_formula_sum "Si O2"
_cell_formula_units_Z 16
_cell_length_a 11.472750
_cell_length_b 16.152498
_cell_length_c 14.602073
_cell_angle_alpha 37.897428
_cell_angle_beta 150.904069
_cell_angle_gamma 132.820583
_cell_volume 807.815279
_symmetry_space_group_name_H-M "P -1"
_symmetry_group_IT_number 2
_symmetry_cell_setting 'triclinic'
loop_
_space_group_symop_operation_xyz
x,y,z
-x,-y,-z
loop_
_atom_site_type_symbol
_atom_site_label
_atom_site_fract_x
_atom_site_fract_y
_atom_site_fract_z
Si Si1 0.943546 0.797574 0.638492
Si Si2 0.232005 0.857465 0.948152
Si Si3 0.976652 0.346800 0.725363
Si Si4 0.274603 0.557667 0.046813
Si Si5 0.463103 0.284979 0.457234
Si Si6 0.214095 0.350884 0.698073
Si Si7 0.766544 0.844443 0.281792
Si Si8 0.129970 0.323588 0.043742
O O1 0.665010 0.802237 0.476463
O O2 0.949330 0.823831 0.511296
O O3 0.095206 0.894618 0.724345
O O4 0.077703 0.652673 0.879584
O O5 0.237186 0.997676 0.885610
O O6 0.499547 0.800100 0.162374
O O7 0.110730 0.743381 0.025310
O O8 0.745828 0.258769 0.667873
O O9 0.902865 0.504016 0.533385
O O10 0.098777 0.296191 0.760182
O O11 0.157719 0.314828 0.961244
O O12 0.137208 0.483304 0.934270
O O13 0.390420 0.442009 0.294146
O O14 0.500107 0.644438 0.092129
O O15 0.355175 0.247775 0.315065
O O16 0.143185 0.246002 0.662112
#
# Coordination Sequence:
#
# PCOD8043680 Si02
#       8
#     2   2   2   2   2   2   2   2
#     4  11  18  34  58  80 110 138 175 221 273 317
#     4  10  22  37  55  78 113 136 185 221 256 326
#     4  10  19  37  55  81 105 146 174 221 270 309
#     4   9  18  33  52  84 109 136 169 225 269 313
#     4   8  19  31  51  83 109 132 173 217 260 323
#     4  10  21  36  54  80 116 134 181 221 259 325
#     4  11  22  36  54  81 107 150 172 218 272 312
#     4   9  19  34  56  77 105 141 177 219 269 306
#
# _framework density 19.806508999999998
#
# number of rings (size 3 to 8) (size 9 to 14) (size 15 to 20)
#    0.750    1.500    1.250    2.250    0.000    0.500 
#    2.250    3.750    0.000    3.000    0.000    0.000 
#    0.000    0.000    0.000    0.000    0.000    0.000 
#
# Total GULP energy -198216.324760 kJ/mol
# GULP energy per Si atom -12388.520297 kJ/mol
# Density = 1.976143 g / cm^3
# Si number density = 19.806509 Si / 1000 Ang^3
#
#
#
# Elastic Constant Matrix: (Units=GPa)
#
#
# Indices 1 2 3 4 5 6 
#
# 1 99.1145 46.2449 24.1184 10.5386 -6.8776 -21.5398
# 2 46.2449 92.1910 15.6489 10.5972 3.9870 -11.6283
# 3 24.1184 15.6489 31.3837 8.7382 -3.7221 -7.3523
# 4 10.5386 10.5972 8.7382 17.8235 -4.1322 2.3061
# 5 -6.8776 3.9870 -3.7221 -4.1322 24.2433 9.7582
# 6 -21.5398 -11.6283 -7.3523 2.3061 9.7582 28.5939
#
#
#
# Elastic Compliance Matrix: (Units=1/GPa)
#
#
# Indices 1 2 3 4 5 6 
#
# 1 0.016783 -0.005685 -0.006763 -0.004278 0.000384 0.008805
# 2 -0.005685 0.015781 -0.000973 -0.008030 -0.007820 0.005202
# 3 -0.006763 -0.000973 0.044382 -0.018485 -0.001251 0.007839
# 4 -0.004278 -0.008030 -0.018485 0.080572 0.021031 -0.024917
# 5 0.000384 -0.007820 -0.001251 0.021031 0.055657 -0.023902
# 6 0.008805 0.005202 0.007839 -0.024917 -0.023902 0.055903
#
#
# Mechanical properties :
#
#
# Convention : Reuss Voigt Hill
#
# Bulk Modulus (GPa) = 19.95905 43.85707 31.90806
# Shear Modulus (GPa) = 15.99379 23.24394 19.61887
#
# Velocity S-wave (km/s) = 2.84474 3.42943 3.15068
# Velocity P-wave (km/s) = 4.57044 6.15403 5.42038
#
# Compressibility (1/GPa) = 0.05010258
#
# Stress axis : x y z
#
# Youngs Moduli (GPa) = 59.58545 63.36670 22.53189
#
# Poissons Ratio (x) = 0.36022 0.15239
# Poissons Ratio (y) = 0.33873 0.02193
# Poissons Ratio (z) = 0.40300 0.06167
#
# Static dielectric constant tensor:
#      x y z
#    x 3.370880 0.035360 0.016160 
#    y 0.035360 3.626010 0.268540 
#    z 0.016160 0.268540 3.291270 
# 
# 
# High freq. dielectric constant tensor:
#      x y z
#    x 1.749990 0.004920 -0.006110 
#    y 0.004920 1.771520 0.023360 
#    z -0.006110 0.023360 1.747470 
# 
# From -- ./inp_files/521492.got.cif
#   From: 2010.06.25/outbox.cif.g09.slc.cpg/sg2_261_cif.got.tgz:521492.got - 2010.06.27 13:26:56.
