data_PCOD8043814
_publ_section_title
;
Structure prediction by ZEFSAII (Michael W. Deem and Ramdas Pophale) SiO2 
 PCOD8043814
Probable space group: P -1
;
_chemical_formula_sum "Si O2"
_cell_formula_units_Z 14
_cell_length_a 13.835320
_cell_length_b 13.079841
_cell_length_c 9.026515
_cell_angle_alpha 99.748802
_cell_angle_beta 80.633417
_cell_angle_gamma 29.626106
_cell_volume 614.017715
_symmetry_space_group_name_H-M "P -1"
_symmetry_group_IT_number 2
_symmetry_cell_setting 'triclinic'
loop_
_space_group_symop_operation_xyz
x,y,z
-x,-y,-z
loop_
_atom_site_type_symbol
_atom_site_label
_atom_site_fract_x
_atom_site_fract_y
_atom_site_fract_z
Si Si1 0.676325 0.760677 0.793670
Si Si2 0.845626 0.950219 0.510750
Si Si3 0.590780 0.621151 0.765059
Si Si4 0.567985 0.544003 0.059307
Si Si5 0.895627 0.926474 0.163193
Si Si6 0.106352 0.501415 0.032748
Si Si7 0.596139 0.977737 0.607839
O O1 0.534617 0.795682 0.781624
O O2 0.898393 0.503986 0.786236
O O3 0.756509 0.747619 0.624827
O O4 0.500000 0.000000 0.000000
O O5 0.841411 0.008648 0.366473
O O6 0.771276 0.902258 0.497400
O O7 0.131263 0.681545 0.442700
O O8 0.656351 0.202647 0.716707
O O9 0.596980 0.601185 0.936097
O O10 0.351145 0.792890 0.798308
O O11 0.844218 0.270514 0.004076
O O12 0.500000 0.500000 0.000000
O O13 0.932868 0.766673 0.093886
O O14 0.000000 0.500000 0.000000
O O15 0.376399 0.248696 0.823134
O O16 0.500000 0.000000 0.500000
#
# Coordination Sequence:
#
# PCOD8043814 Si02
#       7
#     2   2   2   2   2   2   2
#     4  10  19  37  59  90 133 183 215 266 327 386
#     4  11  23  45  65  99 135 172 225 275 332 399
#     4  11  24  43  67  96 136 173 217 280 340 391
#     4  11  25  48  73  96 129 173 224 283 342 397
#     4  11  23  45  66  96 138 172 218 278 331 396
#     4  11  20  38  60  90 136 183 218 268 325 385
#     4  11  22  37  63  98 134 179 229 268 324 401
#
# _framework density 22.800646
#
# number of rings (size 3 to 8) (size 9 to 14) (size 15 to 20)
#    0.000    1.143    4.286    4.286    0.000    4.571 
#    5.143    1.429    0.000    0.000    0.000    0.000 
#    0.000    0.000    0.000    0.000    0.000    0.000 
#
# Total GULP energy -173471.948258 kJ/mol
# GULP energy per Si atom -12390.853447 kJ/mol
# Density = 2.274875 g / cm^3
# Si number density = 22.800646 Si / 1000 Ang^3
#
#
#
# Elastic Constant Matrix: (Units=GPa)
#
#
# Indices 1 2 3 4 5 6 
#
# 1 74.5598 17.3129 27.3728 23.2891 13.3662 -25.1400
# 2 17.3129 103.9478 49.9146 15.8170 -6.6049 -44.4504
# 3 27.3728 49.9146 140.7636 25.6456 10.3510 -14.4169
# 4 23.2891 15.8170 25.6456 38.8777 -4.1960 -11.8300
# 5 13.3662 -6.6049 10.3510 -4.1960 24.5515 4.7193
# 6 -25.1400 -44.4504 -14.4169 -11.8300 4.7193 38.3111
#
#
#
# Elastic Compliance Matrix: (Units=1/GPa)
#
#
# Indices 1 2 3 4 5 6 
#
# 1 0.028628 0.007712 -0.001768 -0.013564 -0.019954 0.025338
# 2 0.007712 0.025333 -0.007069 -0.000697 -0.000606 0.031653
# 3 -0.001768 -0.007069 0.010704 -0.005644 -0.005179 -0.006439
# 4 -0.013564 -0.000697 -0.005644 0.039096 0.016605 -0.001806
# 5 -0.019954 -0.000606 -0.005179 0.016605 0.059912 -0.017999
# 6 0.025338 0.031653 -0.006439 -0.001806 -0.017999 0.078690
#
#
# Mechanical properties :
#
#
# Convention : Reuss Voigt Hill
#
# Bulk Modulus (GPa) = 16.02194 56.49686 36.25940
# Shear Modulus (GPa) = 18.83808 35.32613 27.08211
#
# Velocity S-wave (km/s) = 2.87750 3.94045 3.45015
# Velocity P-wave (km/s) = 4.25232 6.74798 5.63992
#
# Compressibility (1/GPa) = 0.06241442
#
# Stress axis : x y z
#
# Youngs Moduli (GPa) = 34.93137 39.47353 93.41941
#
# Poissons Ratio (x) = -0.30442 0.16517
# Poissons Ratio (y) = -0.26939 0.66042
# Poissons Ratio (z) = 0.06176 0.27906
#
# Static dielectric constant tensor:
#      x y z
#    x 7.172520 0.694340 0.414840 
#    y 0.694340 4.582110 -0.066200 
#    z 0.414840 -0.066200 3.997870 
# 
# 
# High freq. dielectric constant tensor:
#      x y z
#    x 1.891310 -0.011100 -0.006050 
#    y -0.011100 1.893820 0.014060 
#    z -0.006050 0.014060 1.907740 
# 
# From -- ./inp_files/315593.got.cif
#   From: 2010.06.25/outbox.cif.g09.slc.cpg/sg2_158_cif.got.tgz:315593.got - 2010.06.27 13:26:56.
