data_PCOD8043920
_publ_section_title
;
Structure prediction by ZEFSAII (Michael W. Deem and Ramdas Pophale) SiO2 
 PCOD8043920
Probable space group: P -1
;
_chemical_formula_sum "Si O2"
_cell_formula_units_Z 16
_cell_length_a 11.739003
_cell_length_b 8.856259
_cell_length_c 10.035027
_cell_angle_alpha 67.791610
_cell_angle_beta 123.427090
_cell_angle_gamma 127.481173
_cell_volume 689.510113
_symmetry_space_group_name_H-M "P -1"
_symmetry_group_IT_number 2
_symmetry_cell_setting 'triclinic'
loop_
_space_group_symop_operation_xyz
x,y,z
-x,-y,-z
loop_
_atom_site_type_symbol
_atom_site_label
_atom_site_fract_x
_atom_site_fract_y
_atom_site_fract_z
Si Si1 0.866396 0.120928 0.124508
Si Si2 0.560804 0.992153 0.815569
Si Si3 0.074729 0.253179 0.954866
Si Si4 0.764879 0.941111 0.761213
Si Si5 0.068055 0.738271 0.600457
Si Si6 0.277489 0.584347 0.799154
Si Si7 0.764124 0.715928 0.314843
Si Si8 0.664915 0.855877 0.435268
O O1 0.931515 0.272322 0.235003
O O2 0.841010 0.916616 0.220054
O O3 0.998306 0.222934 0.061360
O O4 0.698383 0.093843 0.979787
O O5 0.628416 0.970450 0.725803
O O6 0.432757 0.787592 0.864026
O O7 0.486580 0.122776 0.693492
O O8 0.188419 0.472685 0.914658
O O9 0.191260 0.168154 0.064007
O O10 0.933467 0.146177 0.786745
O O11 0.689741 0.820102 0.617634
O O12 0.149258 0.625378 0.629159
O O13 0.892599 0.662572 0.462187
O O14 0.170233 0.958475 0.555842
O O15 0.332973 0.459312 0.792177
O O16 0.653989 0.696858 0.377755
#
# Coordination Sequence:
#
# PCOD8043920 Si02
#       8
#     2   2   2   2   2   2   2   2
#     4  10  21  40  63  87 113 153 201 236 280 343
#     4  10  23  39  59  87 120 154 188 238 292 346
#     4  10  20  35  61  88 115 151 195 243 284 338
#     4  10  19  37  61  86 114 152 201 237 279 342
#     4  10  21  37  61  88 117 149 193 245 289 338
#     4  11  23  37  57  89 123 152 184 237 300 344
#     4  11  21  36  60  88 117 150 195 243 287 337
#     4  10  20  36  59  83 113 155 197 235 279 345
#
# _framework density 23.204881
#
# number of rings (size 3 to 8) (size 9 to 14) (size 15 to 20)
#    0.000    1.750    0.000    6.750    0.000    8.000 
#    0.000    0.625    0.000    3.000    0.000    0.875 
#    0.000    0.000    0.000    0.000    0.000    0.000 
#
# Total GULP energy -198265.898694 kJ/mol
# GULP energy per Si atom -12391.618668 kJ/mol
# Density = 2.315207 g / cm^3
# Si number density = 23.204881 Si / 1000 Ang^3
#
#
#
# Elastic Constant Matrix: (Units=GPa)
#
#
# Indices 1 2 3 4 5 6 
#
# 1 108.3737 21.1527 37.0573 2.4753 13.4775 -10.3790
# 2 21.1527 41.2270 12.4814 -7.3707 2.0088 -3.2437
# 3 37.0573 12.4814 92.7380 6.8587 1.9437 5.2845
# 4 2.4753 -7.3707 6.8587 14.1199 -3.3911 2.4952
# 5 13.4775 2.0088 1.9437 -3.3911 39.0606 1.1397
# 6 -10.3790 -3.2437 5.2845 2.4952 1.1397 31.4430
#
#
#
# Elastic Compliance Matrix: (Units=1/GPa)
#
#
# Indices 1 2 3 4 5 6 
#
# 1 0.012934 -0.005669 -0.004212 -0.005152 -0.004554 0.004966
# 2 -0.005669 0.031674 -0.003521 0.019706 0.002203 0.000344
# 3 -0.004212 -0.003521 0.013648 -0.007001 0.000450 -0.003508
# 4 -0.005152 0.019706 -0.007001 0.088602 0.008975 -0.005848
# 5 -0.004554 0.002203 0.000450 0.008975 0.027906 -0.003075
# 6 0.004966 0.000344 -0.003508 -0.005848 -0.003075 0.034643
#
#
# Mechanical properties :
#
#
# Convention : Reuss Voigt Hill
#
# Bulk Modulus (GPa) = 31.79459 42.63573 37.21516
# Shear Modulus (GPa) = 20.26808 28.36786 24.31797
#
# Velocity S-wave (km/s) = 2.95861 3.50021 3.24075
# Velocity P-wave (km/s) = 5.04010 5.89481 5.48413
#
# Compressibility (1/GPa) = 0.03145189
#
# Stress axis : x y z
#
# Youngs Moduli (GPa) = 77.31783 31.57208 73.27047
#
# Poissons Ratio (x) = 0.17900 0.30859
# Poissons Ratio (y) = 0.43835 0.25796
# Poissons Ratio (z) = 0.32563 0.11115
#
# Static dielectric constant tensor:
#      x y z
#    x 4.434740 -0.221750 -0.031550 
#    y -0.221750 3.867120 0.082680 
#    z -0.031550 0.082680 4.211520 
# 
# 
# High freq. dielectric constant tensor:
#      x y z
#    x 1.931270 -0.012900 0.004740 
#    y -0.012900 1.878930 0.001410 
#    z 0.004740 0.001410 1.920400 
# 
# From -- ./inp_files/419241.got.cif
#   From: 2010.06.25/outbox.cif.g09.slc.cpg/sg2_210_cif.got.tgz:419241.got - 2010.06.27 13:26:56.
