data_PCOD8043027
_publ_section_title
;
Structure prediction by ZEFSAII (Michael W. Deem and Ramdas Pophale) SiO2 
 PCOD8043027
Probable space group: P -1
;
_chemical_formula_sum "Si O2"
_cell_formula_units_Z 14
_cell_length_a 7.284922
_cell_length_b 8.462047
_cell_length_c 12.850589
_cell_angle_alpha 96.958699
_cell_angle_beta 102.025322
_cell_angle_gamma 53.138502
_cell_volume 619.896893
_symmetry_space_group_name_H-M "P -1"
_symmetry_group_IT_number 2
_symmetry_cell_setting 'triclinic'
loop_
_space_group_symop_operation_xyz
x,y,z
-x,-y,-z
loop_
_atom_site_type_symbol
_atom_site_label
_atom_site_fract_x
_atom_site_fract_y
_atom_site_fract_z
Si Si1 0.221504 0.363653 0.741970
Si Si2 0.952774 0.358069 0.540178
Si Si3 0.380614 0.768645 0.752090
Si Si4 0.503288 0.417975 0.610051
Si Si5 0.004159 0.785324 0.815654
Si Si6 0.083228 0.019578 0.382374
Si Si7 0.439898 0.010429 0.112816
O O1 0.041073 0.327163 0.667065
O O2 0.366407 0.365709 0.664590
O O3 0.068370 0.568345 0.801887
O O4 0.386909 0.203397 0.834486
O O5 0.000000 0.500000 0.500000
O O6 0.668117 0.473963 0.505361
O O7 0.088037 0.141017 0.487933
O O8 0.539614 0.558141 0.695339
O O9 0.540119 0.833555 0.810452
O O10 0.246697 0.764170 0.839585
O O11 0.177084 0.921009 0.659134
O O12 0.750185 0.213747 0.592910
O O13 0.832851 0.904963 0.902691
O O14 0.847156 0.913885 0.706474
O O15 0.500000 0.000000 0.000000
#
# Coordination Sequence:
#
# PCOD8043027 Si02
#       7
#     2   2   2   2   2   2   2
#     4  10  19  36  56  87 123 149 193 245 278 341
#     4   9  16  28  55  95 119 147 195 231 276 350
#     4   8  20  39  57  85 119 145 193 245 282 344
#     4   9  16  33  59  85 119 155 186 227 287 351
#     4   9  20  39  60  84 116 155 189 233 294 341
#     4   9  16  33  61  86 116 155 183 226 290 343
#     4  12  25  40  61  86 111 152 202 244 292 341
#
# _framework density 22.584399000000001
#
# number of rings (size 3 to 8) (size 9 to 14) (size 15 to 20)
#    0.857    1.714    4.286    0.000    0.000    5.714 
#    0.000    5.714    0.000    5.143    0.000    0.000 
#    0.000    0.000    0.000    0.000    0.000    0.000 
#
# Total GULP energy -173482.452471 kJ/mol
# GULP energy per Si atom -12391.603748 kJ/mol
# Density = 2.253300 g / cm^3
# Si number density = 22.584399 Si / 1000 Ang^3
#
#
#
# Elastic Constant Matrix: (Units=GPa)
#
#
# Indices 1 2 3 4 5 6 
#
# 1 65.6069 30.7407 5.2116 2.0788 -10.2925 -9.5027
# 2 30.7407 174.5937 34.1304 -7.4037 -2.0017 -8.6571
# 3 5.2116 34.1304 51.9079 -8.7794 -14.7635 0.3343
# 4 2.0788 -7.4037 -8.7794 17.0915 -1.5364 -2.1190
# 5 -10.2925 -2.0017 -14.7635 -1.5364 30.2700 11.4089
# 6 -9.5027 -8.6571 0.3343 -2.1190 11.4089 33.1509
#
#
#
# Elastic Compliance Matrix: (Units=1/GPa)
#
#
# Indices 1 2 3 4 5 6 
#
# 1 0.017994 -0.003425 0.001764 -0.001979 0.005859 0.002103
# 2 -0.003425 0.007573 -0.005813 0.000637 -0.004458 0.002629
# 3 0.001764 -0.005813 0.030490 0.013740 0.018327 -0.006749
# 4 -0.001979 0.000637 0.013740 0.066984 0.009261 0.000555
# 5 0.005859 -0.004458 0.018327 0.009261 0.050322 -0.016396
# 6 0.002103 0.002629 -0.006749 0.000555 -0.016396 0.037200
#
#
# Mechanical properties :
#
#
# Convention : Reuss Voigt Hill
#
# Bulk Modulus (GPa) = 24.32614 48.03043 36.17829
# Shear Modulus (GPa) = 20.90178 30.90420 25.90299
#
# Velocity S-wave (km/s) = 3.04550 3.70318 3.39033
# Velocity P-wave (km/s) = 4.81262 6.29270 5.60176
#
# Compressibility (1/GPa) = 0.04110805
#
# Stress axis : x y z
#
# Youngs Moduli (GPa) = 55.57519 132.04364 32.79799
#
# Poissons Ratio (x) = 0.45231 -0.05785
# Poissons Ratio (y) = 0.19037 0.19064
# Poissons Ratio (z) = -0.09803 0.76753
#
# Static dielectric constant tensor:
#      x y z
#    x 4.505950 -0.033080 0.040630 
#    y -0.033080 4.124510 -0.137380 
#    z 0.040630 -0.137380 3.721460 
# 
# 
# High freq. dielectric constant tensor:
#      x y z
#    x 1.905720 0.006010 -0.017400 
#    y 0.006010 1.905640 -0.003920 
#    z -0.017400 -0.003920 1.851220 
# 
# From -- ./inp_files/379627.got.cif
#   From: 2010.06.25/outbox.cif.g09.slc.cpg/sg2_190_cif.got.tgz:379627.got - 2010.06.27 13:26:56.
