data_PCOD8043297
_publ_section_title
;
Structure prediction by ZEFSAII (Michael W. Deem and Ramdas Pophale) SiO2 
 PCOD8043297
Probable space group: P -1
;
_chemical_formula_sum "Si O2"
_cell_formula_units_Z 16
_cell_length_a 12.594797
_cell_length_b 15.313649
_cell_length_c 16.667892
_cell_angle_alpha 31.095665
_cell_angle_beta 135.356534
_cell_angle_gamma 152.971438
_cell_volume 736.276436
_symmetry_space_group_name_H-M "P -1"
_symmetry_group_IT_number 2
_symmetry_cell_setting 'triclinic'
loop_
_space_group_symop_operation_xyz
x,y,z
-x,-y,-z
loop_
_atom_site_type_symbol
_atom_site_label
_atom_site_fract_x
_atom_site_fract_y
_atom_site_fract_z
Si Si1 0.735909 0.929184 0.267147
Si Si2 0.908550 0.639269 0.009296
Si Si3 0.943176 0.747562 0.109433
Si Si4 0.809742 0.192646 0.244925
Si Si5 0.268937 0.376004 0.383645
Si Si6 0.999713 0.164312 0.758402
Si Si7 0.521859 0.685869 0.583981
Si Si8 0.610390 0.704735 0.796823
O O1 0.462976 0.650920 0.320385
O O2 0.842237 0.869209 0.427022
O O3 0.743054 0.108049 0.182091
O O4 0.883240 0.080840 0.145943
O O5 0.997944 0.669914 0.124346
O O6 0.817805 0.398243 0.102980
O O7 0.690488 0.580481 0.948127
O O8 0.048239 0.774808 0.230654
O O9 0.658467 0.520064 0.141478
O O10 0.063570 0.030212 0.927309
O O11 0.065886 0.331856 0.288370
O O12 0.605241 0.932503 0.394504
O O13 0.385174 0.395544 0.351456
O O14 0.233096 0.438961 0.623082
O O15 0.774613 0.974494 0.726565
O O16 0.634817 0.780760 0.658238
#
# Coordination Sequence:
#
# PCOD8043297 Si02
#       8
#     2   2   2   2   2   2   2   2
#     4  10  21  37  58  79 104 145 185 216 255 315
#     4  11  20  35  56  79 111 143 172 218 274 315
#     4   9  19  34  56  83 106 134 178 226 264 310
#     4  11  23  36  51  80 116 141 172 221 269 313
#     4  10  20  37  57  79 107 140 184 222 254 309
#     4   9  17  33  57  82 103 129 180 227 257 306
#     4  10  20  34  57  80 104 142 179 216 262 313
#     4  10  19  36  61  81 101 138 183 221 262 317
#
# _framework density 21.730968000000001
#
# number of rings (size 3 to 8) (size 9 to 14) (size 15 to 20)
#    0.000    2.000    0.000    6.375    0.000    2.500 
#    0.000   11.250    0.000    3.750    0.000    0.000 
#    0.000    0.000    0.000    0.000    0.000    0.000 
#
# Total GULP energy -198354.490303 kJ/mol
# GULP energy per Si atom -12397.155644 kJ/mol
# Density = 2.168151 g / cm^3
# Si number density = 21.730968 Si / 1000 Ang^3
#
#
#
# Elastic Constant Matrix: (Units=GPa)
#
#
# Indices 1 2 3 4 5 6 
#
# 1 113.9633 44.5504 39.5626 -0.0713 -17.7031 -39.8770
# 2 44.5504 99.3287 20.8307 -5.6988 -3.3121 -32.7441
# 3 39.5626 20.8307 54.3293 -6.9807 -14.7075 -4.6401
# 4 -0.0713 -5.6988 -6.9807 15.5980 -6.9222 0.4430
# 5 -17.7031 -3.3121 -14.7075 -6.9222 33.6769 -3.5551
# 6 -39.8770 -32.7441 -4.6401 0.4430 -3.5551 29.6251
#
#
#
# Elastic Compliance Matrix: (Units=1/GPa)
#
#
# Indices 1 2 3 4 5 6 
#
# 1 0.031420 0.005656 -0.017075 -0.000314 0.014579 0.047625
# 2 0.005656 0.018588 -0.006466 0.005847 0.006113 0.027792
# 3 -0.017075 -0.006466 0.035284 0.017034 0.006760 -0.024047
# 4 -0.000314 0.005847 0.017034 0.085332 0.026509 0.010613
# 5 0.014579 0.006113 0.006760 0.026509 0.049847 0.033025
# 6 0.047625 0.027792 -0.024047 0.010613 0.033025 0.128616
#
#
# Mechanical properties :
#
#
# Convention : Reuss Voigt Hill
#
# Bulk Modulus (GPa) = 20.19271 53.05652 36.62462
# Shear Modulus (GPa) = 12.45755 26.62519 19.54137
#
# Velocity S-wave (km/s) = 2.39689 3.50411 3.00199
# Velocity P-wave (km/s) = 4.11976 6.39061 5.37644
#
# Compressibility (1/GPa) = 0.04952283
#
# Stress axis : x y z
#
# Youngs Moduli (GPa) = 31.82683 53.79938 28.34117
#
# Poissons Ratio (x) = -0.30430 0.48393
# Poissons Ratio (y) = -0.18002 0.18325
# Poissons Ratio (z) = 0.54344 0.34786
#
# Static dielectric constant tensor:
#      x y z
#    x 4.121960 -0.584630 -0.337240 
#    y -0.584630 4.071130 -0.137780 
#    z -0.337240 -0.137780 3.738440 
# 
# 
# High freq. dielectric constant tensor:
#      x y z
#    x 1.852970 -0.033400 -0.033870 
#    y -0.033400 1.855210 -0.024580 
#    z -0.033870 -0.024580 1.834430 
# 
# From -- ./inp_files/569944.got.cif
#   From: 2010.06.25/outbox.cif.g09.slc.cpg/sg2_285_cif.got.tgz:569944.got - 2010.06.27 13:26:56.
