data_PCOD8043608
_publ_section_title
;
Structure prediction by ZEFSAII (Michael W. Deem and Ramdas Pophale) SiO2 
 PCOD8043608
Probable space group: P -1
;
_chemical_formula_sum "Si O2"
_cell_formula_units_Z 16
_cell_length_a 5.333583
_cell_length_b 22.015479
_cell_length_c 9.225653
_cell_angle_alpha 133.221569
_cell_angle_beta 125.651482
_cell_angle_gamma 66.407665
_cell_volume 641.451131
_symmetry_space_group_name_H-M "P -1"
_symmetry_group_IT_number 2
_symmetry_cell_setting 'triclinic'
loop_
_space_group_symop_operation_xyz
x,y,z
-x,-y,-z
loop_
_atom_site_type_symbol
_atom_site_label
_atom_site_fract_x
_atom_site_fract_y
_atom_site_fract_z
Si Si1 0.760704 0.471685 0.657396
Si Si2 0.188036 0.058153 0.770671
Si Si3 0.177055 0.196568 0.566758
Si Si4 0.780919 0.268278 0.799306
Si Si5 0.272039 0.008172 0.298471
Si Si6 0.723399 0.751118 0.871867
Si Si7 0.036080 0.702706 0.612793
Si Si8 0.697469 0.429822 0.881442
O O1 0.500000 0.500000 0.500000
O O2 0.981249 0.398865 0.546238
O O3 0.619714 0.426526 0.678715
O O4 0.948016 0.550093 0.916894
O O5 0.548615 0.030523 0.842420
O O6 0.183064 0.155798 0.893517
O O7 0.000000 0.000000 0.500000
O O8 0.039038 0.043758 0.855788
O O9 0.539801 0.218053 0.736243
O O10 0.161283 0.099770 0.365634
O O11 0.973857 0.208255 0.660109
O O12 0.047311 0.259656 0.507962
O O13 0.604696 0.340330 0.768038
O O14 0.027369 0.308324 0.059771
O O15 0.500000 0.000000 0.500000
O O16 0.393442 0.729113 0.792435
O O17 0.787909 0.740058 0.704348
O O18 0.500000 0.500000 0.000000
#
# Coordination Sequence:
#
# PCOD8043608 Si02
#       8
#     2   2   2   2   2   2   2   2
#     4  11  26  48  72 102 149 192 235 302 364 425
#     4  10  20  39  64  98 131 171 233 290 336 417
#     4  12  24  44  71 101 143 187 225 298 358 410
#     4  12  24  44  71 103 138 184 244 294 341 425
#     4  10  19  36  65  95 126 173 229 278 344 409
#     4  12  26  44  72 103 141 186 240 290 357 436
#     4  12  27  47  66 104 148 185 231 290 370 427
#     4  11  26  44  73 107 139 189 252 291 356 440
#
# _framework density 24.943441
#
# number of rings (size 3 to 8) (size 9 to 14) (size 15 to 20)
#    0.000    0.750    1.250    7.500    5.250    0.500 
#    0.000    3.750    0.000    0.000    0.000    0.000 
#    0.000    0.000    0.000    0.000    0.000    0.000 
#
# Total GULP energy -198249.559207 kJ/mol
# GULP energy per Si atom -12390.597450 kJ/mol
# Density = 2.488667 g / cm^3
# Si number density = 24.943441 Si / 1000 Ang^3
#
#
#
# Elastic Constant Matrix: (Units=GPa)
#
#
# Indices 1 2 3 4 5 6 
#
# 1 151.3029 17.1653 -1.0035 10.5216 -17.9572 -3.7668
# 2 17.1653 104.5227 21.3797 4.4707 6.4044 -2.2630
# 3 -1.0035 21.3797 57.0359 -3.2772 -11.3320 -0.9144
# 4 10.5216 4.4707 -3.2772 41.5935 -8.6982 4.1577
# 5 -17.9572 6.4044 -11.3320 -8.6982 27.5499 8.7681
# 6 -3.7668 -2.2630 -0.9144 4.1577 8.7681 33.7449
#
#
#
# Elastic Compliance Matrix: (Units=1/GPa)
#
#
# Indices 1 2 3 4 5 6 
#
# 1 0.007642 -0.002147 0.002255 -0.000025 0.006709 -0.000970
# 2 -0.002147 0.012003 -0.006458 -0.003436 -0.008928 0.003134
# 3 0.002255 -0.006458 0.023385 0.005699 0.015774 -0.004348
# 4 -0.000025 -0.003436 0.005699 0.028641 0.014518 -0.007380
# 5 0.006709 -0.008928 0.015774 0.014518 0.059090 -0.016565
# 6 -0.000970 0.003134 -0.004348 -0.007380 -0.016565 0.034832
#
#
# Mechanical properties :
#
#
# Convention : Reuss Voigt Hill
#
# Bulk Modulus (GPa) = 32.97160 43.10496 38.03828
# Shear Modulus (GPa) = 26.53905 38.93231 32.73568
#
# Velocity S-wave (km/s) = 3.26539 3.95501 3.62663
# Velocity P-wave (km/s) = 5.24064 6.17857 5.72883
#
# Compressibility (1/GPa) = 0.03032914
#
# Stress axis : x y z
#
# Youngs Moduli (GPa) = 130.86285 83.31386 42.76249
#
# Poissons Ratio (x) = 0.17890 -0.09644
# Poissons Ratio (y) = 0.28099 0.27616
# Poissons Ratio (z) = -0.29513 0.53805
#
# Static dielectric constant tensor:
#      x y z
#    x 5.741450 0.216300 0.144370 
#    y 0.216300 4.573650 0.153140 
#    z 0.144370 0.153140 4.746650 
# 
# 
# High freq. dielectric constant tensor:
#      x y z
#    x 2.019590 -0.000040 0.003160 
#    y -0.000040 1.997230 0.007420 
#    z 0.003160 0.007420 1.972560 
# 
# From -- ./inp_files/141646.got.cif
#   From: 2010.06.25/outbox.cif.g09.slc.cpg/sg2_71_cif.got.tgz:141646.got - 2010.06.27 13:26:56.
