data_PCOD8043792
_publ_section_title
;
Structure prediction by ZEFSAII (Michael W. Deem and Ramdas Pophale) SiO2 
 PCOD8043792
Probable space group: P -1
;
_chemical_formula_sum "Si O2"
_cell_formula_units_Z 16
_cell_length_a 20.799565
_cell_length_b 8.494281
_cell_length_c 7.778722
_cell_angle_alpha 110.328023
_cell_angle_beta 100.869772
_cell_angle_gamma 132.067471
_cell_volume 761.558642
_symmetry_space_group_name_H-M "P -1"
_symmetry_group_IT_number 2
_symmetry_cell_setting 'triclinic'
loop_
_space_group_symop_operation_xyz
x,y,z
-x,-y,-z
loop_
_atom_site_type_symbol
_atom_site_label
_atom_site_fract_x
_atom_site_fract_y
_atom_site_fract_z
Si Si1 0.837379 0.740349 0.426494
Si Si2 0.565379 0.419438 0.827286
Si Si3 0.534475 0.387921 0.426787
Si Si4 0.001693 0.213262 0.414550
Si Si5 0.405023 0.832645 0.025968
Si Si6 0.157371 0.883932 0.295912
Si Si7 0.057957 0.640766 0.819460
Si Si8 0.632479 0.753960 0.303824
O O1 0.908040 0.744255 0.565453
O O2 0.826041 0.882385 0.589126
O O3 0.717039 0.421173 0.206437
O O4 0.901644 0.923031 0.355156
O O5 0.601974 0.472903 0.665799
O O6 0.578209 0.263923 0.850984
O O7 0.440745 0.230709 0.705696
O O8 0.634007 0.691753 0.082895
O O9 0.500000 0.500000 0.500000
O O10 0.600952 0.534921 0.336028
O O11 0.427587 0.057253 0.213859
O O12 0.067512 0.497241 0.650723
O O13 0.946449 0.188248 0.213301
O O14 0.500000 0.000000 0.000000
O O15 0.048255 0.591814 0.208897
O O16 0.245710 0.953149 0.468552
O O17 0.160820 0.853855 0.081815
#
# Coordination Sequence:
#
# PCOD8043792 Si02
#       8
#     2   2   2   2   2   2   2   2
#     4  10  21  37  60  83 118 156 189 250 293 347
#     4  10  21  37  59  84 120 162 200 245 288 361
#     4  10  22  39  58  84 117 157 202 247 292 360
#     4   9  20  40  57  87 117 147 200 242 299 345
#     4  12  22  39  59  87 124 162 202 248 303 353
#     4  10  19  37  59  84 117 152 192 239 301 345
#     4   9  20  37  60  85 114 150 193 245 289 364
#     4  10  20  39  58  87 123 161 196 249 300 350
#
# _framework density 21.009544999999999
#
# number of rings (size 3 to 8) (size 9 to 14) (size 15 to 20)
#    0.000    2.000    2.500    0.375    0.000    4.500 
#    2.250    1.250    0.000    0.000    0.000    0.000 
#    0.000    0.000    0.000    0.000    0.000    0.000 
#
# Total GULP energy -198209.486808 kJ/mol
# GULP energy per Si atom -12388.092926 kJ/mol
# Density = 2.096173 g / cm^3
# Si number density = 21.009545 Si / 1000 Ang^3
#
#
#
# Elastic Constant Matrix: (Units=GPa)
#
#
# Indices 1 2 3 4 5 6 
#
# 1 59.1303 -0.1133 17.5672 9.7932 14.4864 -9.1046
# 2 -0.1133 33.3721 9.0323 0.7339 -2.3041 -8.5309
# 3 17.5672 9.0323 110.6562 -6.0537 7.1670 12.4982
# 4 9.7932 0.7339 -6.0537 33.1115 -1.6011 -0.6818
# 5 14.4864 -2.3041 7.1670 -1.6011 30.1081 -3.6743
# 6 -9.1046 -8.5309 12.4982 -0.6818 -3.6743 22.0653
#
#
#
# Elastic Compliance Matrix: (Units=1/GPa)
#
#
# Indices 1 2 3 4 5 6 
#
# 1 0.024151 0.004534 -0.005582 -0.008418 -0.008787 0.013157
# 2 0.004534 0.037445 -0.006570 -0.002721 0.004636 0.020757
# 3 -0.005582 -0.006570 0.012135 0.003674 -0.001966 -0.011931
# 4 -0.008418 -0.002721 0.003674 0.033523 0.004155 -0.004879
# 5 -0.008787 0.004636 -0.001966 0.004155 0.039210 0.005938
# 6 0.013157 0.020757 -0.011931 -0.004879 0.005938 0.066370
#
#
# Mechanical properties :
#
#
# Convention : Reuss Voigt Hill
#
# Bulk Modulus (GPa) = 17.09485 28.45901 22.77693
# Shear Modulus (GPa) = 20.19651 28.83515 24.51583
#
# Velocity S-wave (km/s) = 3.10385 3.70872 3.41968
# Velocity P-wave (km/s) = 4.58253 5.64930 5.14364
#
# Compressibility (1/GPa) = 0.05849716
#
# Stress axis : x y z
#
# Youngs Moduli (GPa) = 41.40536 26.70605 82.40433
#
# Poissons Ratio (x) = -0.12110 0.45996
# Poissons Ratio (y) = -0.18775 0.54138
# Poissons Ratio (z) = 0.23111 0.17545
#
# Static dielectric constant tensor:
#      x y z
#    x 3.728410 0.086670 -0.108120 
#    y 0.086670 4.964330 -0.692680 
#    z -0.108120 -0.692680 4.625480 
# 
# 
# High freq. dielectric constant tensor:
#      x y z
#    x 1.810740 -0.011600 -0.000410 
#    y -0.011600 1.816630 -0.010740 
#    z -0.000410 -0.010740 1.828690 
# 
# From -- ./inp_files/352306.got.cif
#   From: 2010.06.25/outbox.cif.g09.slc.cpg/sg2_177_cif.got.tgz:352306.got - 2010.06.27 13:26:56.
