data_PCOD8043275
_publ_section_title
;
Structure prediction by ZEFSAII (Michael W. Deem and Ramdas Pophale) SiO2 
 PCOD8043275
Probable space group: P -1
;
_chemical_formula_sum "Si O2"
_cell_formula_units_Z 14
_cell_length_a 8.705199
_cell_length_b 16.090565
_cell_length_c 9.261094
_cell_angle_alpha 36.328047
_cell_angle_beta 54.094241
_cell_angle_gamma 56.507083
_cell_volume 613.882941
_symmetry_space_group_name_H-M "P -1"
_symmetry_group_IT_number 2
_symmetry_cell_setting 'triclinic'
loop_
_space_group_symop_operation_xyz
x,y,z
-x,-y,-z
loop_
_atom_site_type_symbol
_atom_site_label
_atom_site_fract_x
_atom_site_fract_y
_atom_site_fract_z
Si Si1 0.050443 0.356745 0.325029
Si Si2 0.772283 0.124584 0.097071
Si Si3 0.211948 0.915832 0.525706
Si Si4 0.375889 0.655705 0.342991
Si Si5 0.662985 0.840784 0.042435
Si Si6 0.990517 0.321669 0.093512
Si Si7 0.202613 0.119193 0.785263
O O1 0.824994 0.349793 0.462400
O O2 0.109436 0.304506 0.203049
O O3 0.178542 0.258492 0.504856
O O4 0.091868 0.513391 0.117522
O O5 0.716304 0.095533 0.332143
O O6 0.703053 0.012836 0.180740
O O7 0.671706 0.283402 0.879479
O O8 0.002567 0.098245 0.997237
O O9 0.196349 0.758246 0.694861
O O10 0.354912 0.002385 0.240621
O O11 0.000000 0.000000 0.500000
O O12 0.500000 0.500000 0.500000
O O13 0.479420 0.768698 0.211051
O O14 0.858500 0.737462 0.031642
O O15 0.655641 0.861867 0.188975
#
# Coordination Sequence:
#
# PCOD8043275 Si02
#       7
#     2   2   2   2   2   2   2
#     4  10  22  39  66  87 125 158 209 250 304 361
#     4  10  21  37  62  89 125 161 203 250 303 360
#     4  10  19  36  60  91 119 154 203 254 290 360
#     4  11  24  41  60  92 128 164 194 253 313 366
#     4  11  22  37  64  91 126 157 202 253 308 357
#     4  10  20  38  63  91 113 168 203 253 295 355
#     4  10  20  36  61  95 115 159 211 255 291 360
#
# _framework density 22.805651999999998
#
# number of rings (size 3 to 8) (size 9 to 14) (size 15 to 20)
#    0.000    1.714    4.286    1.714    4.000    2.857 
#    0.000    0.000    0.000    2.571    0.000    0.000 
#    0.000    0.000    0.000    0.000    0.000    0.000 
#
# Total GULP energy -173555.774220 kJ/mol
# GULP energy per Si atom -12396.841016 kJ/mol
# Density = 2.275375 g / cm^3
# Si number density = 22.805652 Si / 1000 Ang^3
#
#
#
# Elastic Constant Matrix: (Units=GPa)
#
#
# Indices 1 2 3 4 5 6 
#
# 1 85.2640 33.4482 55.4335 -9.9739 2.8297 22.3828
# 2 33.4482 96.0345 55.3169 -17.1197 13.0744 29.8074
# 3 55.4335 55.3169 161.3987 -23.7576 17.4019 25.8154
# 4 -9.9739 -17.1197 -23.7576 29.0798 18.2227 0.6917
# 5 2.8297 13.0744 17.4019 18.2227 49.4998 -1.9845
# 6 22.3828 29.8074 25.8154 0.6917 -1.9845 39.7297
#
#
#
# Elastic Compliance Matrix: (Units=1/GPa)
#
#
# Indices 1 2 3 4 5 6 
#
# 1 0.016611 -0.001348 -0.004065 0.001741 -0.000035 -0.005738
# 2 -0.001348 0.022037 0.000715 0.023011 -0.015163 -0.017396
# 3 -0.004065 0.000715 0.011620 0.014782 -0.009746 -0.006540
# 4 0.001741 0.023011 0.014782 0.090064 -0.045801 -0.031706
# 5 -0.000035 -0.015163 -0.009746 -0.045801 0.045330 0.020790
# 6 -0.005738 -0.017396 -0.006540 -0.031706 0.020790 0.047294
#
#
# Mechanical properties :
#
#
# Convention : Reuss Voigt Hill
#
# Bulk Modulus (GPa) = 24.46741 70.12161 47.29451
# Shear Modulus (GPa) = 19.53305 36.89508 28.21407
#
# Velocity S-wave (km/s) = 2.92978 4.02656 3.52113
# Velocity P-wave (km/s) = 4.71134 7.24098 6.10854
#
# Compressibility (1/GPa) = 0.04087070
#
# Stress axis : x y z
#
# Youngs Moduli (GPa) = 60.20049 45.37924 86.05866
#
# Poissons Ratio (x) = 0.06116 0.34987
# Poissons Ratio (y) = 0.08113 -0.06151
# Poissons Ratio (z) = 0.24474 -0.03243
#
# Static dielectric constant tensor:
#      x y z
#    x 3.987860 0.246230 -0.125790 
#    y 0.246230 4.060560 -0.249730 
#    z -0.125790 -0.249730 4.574520 
# 
# 
# High freq. dielectric constant tensor:
#      x y z
#    x 1.891270 0.013950 0.002350 
#    y 0.013950 1.889260 -0.006980 
#    z 0.002350 -0.006980 1.913090 
# 
# From -- ./inp_files/185371.got.cif
#   From: 2010.06.25/outbox.cif.g09.slc.cpg/sg2_93_cif.got.tgz:185371.got - 2010.06.27 13:26:56.
