data_PCOD8043809
_publ_section_title
;
Structure prediction by ZEFSAII (Michael W. Deem and Ramdas Pophale) SiO2 
 PCOD8043809
Probable space group: P -1
;
_chemical_formula_sum "Si O2"
_cell_formula_units_Z 14
_cell_length_a 12.542457
_cell_length_b 10.200279
_cell_length_c 10.512120
_cell_angle_alpha 120.760888
_cell_angle_beta 31.556126
_cell_angle_gamma 111.679795
_cell_volume 598.171274
_symmetry_space_group_name_H-M "P -1"
_symmetry_group_IT_number 2
_symmetry_cell_setting 'triclinic'
loop_
_space_group_symop_operation_xyz
x,y,z
-x,-y,-z
loop_
_atom_site_type_symbol
_atom_site_label
_atom_site_fract_x
_atom_site_fract_y
_atom_site_fract_z
Si Si1 0.586138 0.517551 0.718757
Si Si2 0.024541 0.018665 0.702236
Si Si3 0.776109 0.859353 0.218414
Si Si4 0.865704 0.682778 0.361474
Si Si5 0.615583 0.974701 0.179668
Si Si6 0.259279 0.450490 0.833263
Si Si7 0.655679 0.273019 0.733748
O O1 0.756057 0.630107 0.573568
O O2 0.485621 0.472138 0.664967
O O3 0.692916 0.365563 0.611603
O O4 0.400718 0.606178 0.035551
O O5 0.040672 0.082639 0.861018
O O6 0.123189 0.132452 0.560378
O O7 0.141786 0.843358 0.487426
O O8 0.778398 0.020458 0.931488
O O9 0.573284 0.891808 0.533727
O O10 0.824531 0.676228 0.052933
O O11 0.747927 0.947267 0.159629
O O12 0.734731 0.624548 0.350290
O O13 0.104026 0.608430 0.074766
O O14 0.533718 0.819934 0.142448
#
# Coordination Sequence:
#
# PCOD8043809 Si02
#       7
#     2   2   2   2   2   2   2
#     4  11  23  42  63  86 126 159 203 253 292 361
#     4  10  22  39  60  89 123 154 203 252 297 358
#     4   9  19  34  59  92 114 156 196 243 307 345
#     4  10  24  40  62  94 119 160 202 242 312 360
#     4  10  19  37  59  88 122 151 198 250 296 352
#     4  10  21  40  62  91 121 156 202 245 307 356
#     4  10  24  40  62  93 115 164 209 241 302 352
#
# _framework density 23.404667
#
# number of rings (size 3 to 8) (size 9 to 14) (size 15 to 20)
#    0.000    2.000    1.429    0.857    2.000    8.571 
#    0.000    4.286    0.000    0.000    0.000    0.000 
#    0.000    0.000    0.000    0.000    0.000    0.000 
#
# Total GULP energy -173496.919705 kJ/mol
# GULP energy per Si atom -12392.637122 kJ/mol
# Density = 2.335140 g / cm^3
# Si number density = 23.404667 Si / 1000 Ang^3
#
#
#
# Elastic Constant Matrix: (Units=GPa)
#
#
# Indices 1 2 3 4 5 6 
#
# 1 30.4827 24.6051 11.1142 -11.3986 -5.0363 -11.8483
# 2 24.6051 122.9835 46.9822 -2.7209 -6.1853 -17.4309
# 3 11.1142 46.9822 66.9201 -18.4884 -9.1978 -5.0599
# 4 -11.3986 -2.7209 -18.4884 43.3144 0.5720 -6.2510
# 5 -5.0363 -6.1853 -9.1978 0.5720 16.7148 1.6008
# 6 -11.8483 -17.4309 -5.0599 -6.2510 1.6008 30.3541
#
#
#
# Elastic Compliance Matrix: (Units=1/GPa)
#
#
# Indices 1 2 3 4 5 6 
#
# 1 0.055904 -0.009524 0.006331 0.019616 0.014150 0.020701
# 2 -0.009524 0.013779 -0.009973 -0.005633 -0.003214 0.001542
# 3 0.006331 -0.009973 0.026222 0.012517 0.011925 0.003064
# 4 0.019616 -0.005633 0.012517 0.035048 0.008242 0.013292
# 5 0.014150 -0.003214 0.011925 0.008242 0.068824 0.003733
# 6 0.020701 0.001542 0.003064 0.013292 0.003733 0.044962
#
#
# Mechanical properties :
#
#
# Convention : Reuss Voigt Hill
#
# Bulk Modulus (GPa) = 14.37323 42.86549 28.61936
# Shear Modulus (GPa) = 16.99176 27.25564 22.12370
#
# Velocity S-wave (km/s) = 2.69736 3.41624 3.07786
# Velocity P-wave (km/s) = 3.98190 5.82371 4.98854
#
# Compressibility (1/GPa) = 0.06957377
#
# Stress axis : x y z
#
# Youngs Moduli (GPa) = 17.88790 72.57513 38.13542
#
# Poissons Ratio (x) = 0.69117 -0.24144
# Poissons Ratio (y) = 0.17036 0.38033
# Poissons Ratio (z) = -0.11325 0.72380
#
# Static dielectric constant tensor:
#      x y z
#    x 4.033040 -0.157440 -0.095000 
#    y -0.157440 4.286880 0.038560 
#    z -0.095000 0.038560 3.768300 
# 
# 
# High freq. dielectric constant tensor:
#      x y z
#    x 1.911190 -0.005860 -0.013370 
#    y -0.005860 1.938830 -0.002300 
#    z -0.013370 -0.002300 1.897510 
# 
# From -- ./inp_files/67080.got.cif
#   From: 2010.06.25/outbox.cif.g09.slc.cpg/sg2_34_cif.got.tgz:67080.got - 2010.06.27 13:26:56.
