data_PCOD8043875
_publ_section_title
;
Structure prediction by ZEFSAII (Michael W. Deem and Ramdas Pophale) SiO2 
 PCOD8043875
Probable space group: P -1
;
_chemical_formula_sum "Si O2"
_cell_formula_units_Z 16
_cell_length_a 12.979148
_cell_length_b 6.648201
_cell_length_c 11.100476
_cell_angle_alpha 45.338575
_cell_angle_beta 86.515087
_cell_angle_gamma 105.014048
_cell_volume 615.530370
_symmetry_space_group_name_H-M "P -1"
_symmetry_group_IT_number 2
_symmetry_cell_setting 'triclinic'
loop_
_space_group_symop_operation_xyz
x,y,z
-x,-y,-z
loop_
_atom_site_type_symbol
_atom_site_label
_atom_site_fract_x
_atom_site_fract_y
_atom_site_fract_z
Si Si1 0.597642 0.229349 0.120629
Si Si2 0.081861 0.042485 0.779014
Si Si3 0.158923 0.422495 0.980067
Si Si4 0.007270 0.530949 0.628000
Si Si5 0.445459 0.282984 0.911079
Si Si6 0.820142 0.024781 0.417966
Si Si7 0.196612 0.912897 0.040363
Si Si8 0.562856 0.813959 0.513040
O O1 0.566881 0.460533 0.109376
O O2 0.569943 0.902181 0.333271
O O3 0.733838 0.402835 0.008886
O O4 0.525818 0.151793 0.033244
O O5 0.065874 0.297839 0.758076
O O6 0.151235 0.201062 0.582198
O O7 0.957519 0.783520 0.854935
O O8 0.152218 0.891709 0.914779
O O9 0.193221 0.208673 0.980711
O O10 0.135706 0.665107 0.797159
O O11 0.094938 0.882630 0.511927
O O12 0.000000 0.500000 0.500000
O O13 0.882838 0.410954 0.749842
O O14 0.496957 0.450908 0.708206
O O15 0.329879 0.981829 0.008899
O O16 0.690393 0.911684 0.515507
O O17 0.500000 0.000000 0.500000
#
# Coordination Sequence:
#
# PCOD8043875 Si02
#       8
#     2   2   2   2   2   2   2   2
#     4   8  16  29  52  86 110 154 206 246 305 359
#     4  11  21  37  64  90 119 163 204 254 306 372
#     4   9  16  33  59  86 117 153 203 254 301 367
#     4  11  24  39  59  93 128 160 198 255 314 369
#     4   9  17  32  54  82 121 154 202 257 293 365
#     4  11  21  37  63  92 119 159 208 254 310 364
#     4  10  19  37  60  89 120 161 204 246 315 365
#     4   9  19  33  58  87 113 162 210 247 305 369
#
# _framework density 25.993846000000001
#
# number of rings (size 3 to 8) (size 9 to 14) (size 15 to 20)
#    0.000    2.250    2.500    1.875    0.000    5.500 
#    0.000    0.625    0.000    3.000    0.000    0.000 
#    0.000    0.000    0.000    0.000    0.000    0.000 
#
# Total GULP energy -198271.738044 kJ/mol
# GULP energy per Si atom -12391.983628 kJ/mol
# Density = 2.593468 g / cm^3
# Si number density = 25.993846 Si / 1000 Ang^3
#
#
#
# Elastic Constant Matrix: (Units=GPa)
#
#
# Indices 1 2 3 4 5 6 
#
# 1 146.7105 45.2436 54.0840 -2.7870 -35.0993 44.2816
# 2 45.2436 113.8435 31.9291 23.7115 -14.1943 47.0010
# 3 54.0840 31.9291 110.1077 9.8838 -10.6563 32.5824
# 4 -2.7870 23.7115 9.8838 22.6140 4.3588 12.5685
# 5 -35.0993 -14.1943 -10.6563 4.3588 44.0465 -1.4789
# 6 44.2816 47.0010 32.5824 12.5685 -1.4789 42.2800
#
#
#
# Elastic Compliance Matrix: (Units=1/GPa)
#
#
# Indices 1 2 3 4 5 6 
#
# 1 0.015664 0.001502 -0.002417 0.009743 0.010788 -0.018731
# 2 0.001502 0.019920 0.001619 -0.011159 0.008395 -0.021354
# 3 -0.002417 0.001619 0.012615 -0.003448 0.001723 -0.007905
# 4 0.009743 -0.011159 -0.003448 0.067994 -0.003915 -0.015491
# 5 0.010788 0.008395 0.001723 -0.003915 0.034152 -0.019601
# 6 -0.018731 -0.021354 -0.007905 -0.015491 -0.019601 0.077020
#
#
# Mechanical properties :
#
#
# Convention : Reuss Voigt Hill
#
# Bulk Modulus (GPa) = 20.15850 70.35279 45.25564
# Shear Modulus (GPa) = 20.61923 37.74843 29.18383
#
# Velocity S-wave (km/s) = 2.81950 3.81492 3.35434
# Velocity P-wave (km/s) = 4.28618 6.82120 5.69649
#
# Compressibility (1/GPa) = 0.04960687
#
# Stress axis : x y z
#
# Youngs Moduli (GPa) = 63.84195 50.19993 79.26932
#
# Poissons Ratio (x) = -0.07539 0.19160
# Poissons Ratio (y) = -0.09588 -0.12834
# Poissons Ratio (z) = 0.15431 -0.08128
#
# Static dielectric constant tensor:
#      x y z
#    x 5.319700 -0.154010 0.163430 
#    y -0.154010 4.749390 -0.095140 
#    z 0.163430 -0.095140 4.708640 
# 
# 
# High freq. dielectric constant tensor:
#      x y z
#    x 2.065370 -0.011800 -0.000740 
#    y -0.011800 2.048040 0.007650 
#    z -0.000740 0.007650 2.015420 
# 
# From -- ./inp_files/326160.got.cif
#   From: 2010.06.25/outbox.cif.g09.slc.cpg/sg2_164_cif.got.tgz:326160.got - 2010.06.27 13:26:56.
