data_PCOD8043015
_publ_section_title
;
Structure prediction by ZEFSAII (Michael W. Deem and Ramdas Pophale) SiO2 
 PCOD8043015
Probable space group: P -1
;
_chemical_formula_sum "Si O2"
_cell_formula_units_Z 16
_cell_length_a 13.659229
_cell_length_b 9.857598
_cell_length_c 15.234649
_cell_angle_alpha 43.568666
_cell_angle_beta 54.371835
_cell_angle_gamma 88.339517
_cell_volume 818.767762
_symmetry_space_group_name_H-M "P -1"
_symmetry_group_IT_number 2
_symmetry_cell_setting 'triclinic'
loop_
_space_group_symop_operation_xyz
x,y,z
-x,-y,-z
loop_
_atom_site_type_symbol
_atom_site_label
_atom_site_fract_x
_atom_site_fract_y
_atom_site_fract_z
Si Si1 0.039885 0.165300 0.236620
Si Si2 0.040931 0.074873 0.088353
Si Si3 0.903501 0.213289 0.572919
Si Si4 0.256154 0.308374 0.702908
Si Si5 0.423712 0.106544 0.774944
Si Si6 0.637722 0.392982 0.030507
Si Si7 0.817175 0.178267 0.820901
Si Si8 0.273114 0.127283 0.343691
O O1 0.033520 0.207258 0.115903
O O2 0.027884 0.922302 0.377233
O O3 0.221525 0.452923 0.039117
O O4 0.875933 0.073091 0.413091
O O5 0.092556 0.923798 0.166924
O O6 0.168468 0.294659 0.842820
O O7 0.858774 0.851984 0.245908
O O8 0.802248 0.197681 0.714988
O O9 0.071001 0.534413 0.318739
O O10 0.778940 0.063055 0.624994
O O11 0.331600 0.179217 0.739064
O O12 0.379713 0.623735 0.460772
O O13 0.377965 0.847029 0.879265
O O14 0.368574 0.038390 0.937872
O O15 0.453661 0.256379 0.225542
O O16 0.704190 0.616832 0.814589
#
# Coordination Sequence:
#
# PCOD8043015 Si02
#       8
#     2   2   2   2   2   2   2   2
#     4  10  19  37  57  78 112 150 177 220 269 322
#     4   9  19  37  57  78 103 142 182 226 275 327
#     4   9  17  31  54  82 117 143 177 215 262 333
#     4   9  20  38  57  78 105 135 183 233 281 314
#     4  10  19  36  56  81 107 140 175 234 277 313
#     4  10  21  36  55  83 113 145 181 219 265 325
#     4   9  17  30  56  83 109 143 175 219 277 322
#     4  10  20  35  55  82 112 153 178 211 263 332
#
# _framework density 19.541561000000002
#
# number of rings (size 3 to 8) (size 9 to 14) (size 15 to 20)
#    0.000    2.500    0.000    3.000    1.750    0.000 
#   15.750    1.875    0.000    0.000    0.000    0.000 
#    0.000    0.000    0.000    0.000    0.000    0.000 
#
# Total GULP energy -198275.276363 kJ/mol
# GULP energy per Si atom -12392.204773 kJ/mol
# Density = 1.949708 g / cm^3
# Si number density = 19.541561 Si / 1000 Ang^3
#
#
#
# Elastic Constant Matrix: (Units=GPa)
#
#
# Indices 1 2 3 4 5 6 
#
# 1 48.1908 39.9731 48.8306 11.8939 -14.9125 17.7624
# 2 39.9731 120.1043 82.8164 3.6743 -5.9408 21.0176
# 3 48.8306 82.8164 148.9520 5.2231 -20.2761 22.2454
# 4 11.8939 3.6743 5.2231 27.3243 -4.0550 9.3224
# 5 -14.9125 -5.9408 -20.2761 -4.0550 26.6999 -5.9395
# 6 17.7624 21.0176 22.2454 9.3224 -5.9395 34.2621
#
#
#
# Elastic Compliance Matrix: (Units=1/GPa)
#
#
# Indices 1 2 3 4 5 6 
#
# 1 0.044248 -0.007611 -0.006685 -0.012049 0.014295 -0.008173
# 2 -0.007611 0.015593 -0.006638 0.002631 -0.006109 -0.003085
# 3 -0.006685 -0.006638 0.013335 0.002302 0.005073 -0.000868
# 4 -0.012049 0.002631 0.002302 0.044103 0.000344 -0.008802
# 5 0.014295 -0.006109 0.005073 0.000344 0.048276 0.001318
# 6 -0.008173 -0.003085 -0.000868 -0.008802 0.001318 0.038503
#
#
# Mechanical properties :
#
#
# Convention : Reuss Voigt Hill
#
# Bulk Modulus (GPa) = 31.94004 73.38745 52.66375
# Shear Modulus (GPa) = 19.50368 27.36572 23.43470
#
# Velocity S-wave (km/s) = 3.16264 3.74623 3.46674
# Velocity P-wave (km/s) = 5.45129 7.50656 6.55991
#
# Compressibility (1/GPa) = 0.03130867
#
# Stress axis : x y z
#
# Youngs Moduli (GPa) = 22.60009 64.12952 74.99062
#
# Poissons Ratio (x) = 0.48810 0.50130
# Poissons Ratio (y) = 0.17201 0.49778
# Poissons Ratio (z) = 0.15108 0.42568
#
# Static dielectric constant tensor:
#      x y z
#    x 3.400180 0.183690 -0.023370 
#    y 0.183690 3.794490 0.197850 
#    z -0.023370 0.197850 3.750210 
# 
# 
# High freq. dielectric constant tensor:
#      x y z
#    x 1.736900 0.000720 -0.007270 
#    y 0.000720 1.758730 0.000650 
#    z -0.007270 0.000650 1.768110 
# 
# From -- ./inp_files/315898.got.cif
#   From: 2010.06.25/outbox.cif.g09.slc.cpg/sg2_158_cif.got.tgz:315898.got - 2010.06.27 13:26:56.
