data_PCOD8043535
_publ_section_title
;
Structure prediction by ZEFSAII (Michael W. Deem and Ramdas Pophale) SiO2 
 PCOD8043535
Probable space group: P -1
;
_chemical_formula_sum "Si O2"
_cell_formula_units_Z 16
_cell_length_a 8.065466
_cell_length_b 10.977436
_cell_length_c 9.546731
_cell_angle_alpha 61.017139
_cell_angle_beta 107.755683
_cell_angle_gamma 106.331017
_cell_volume 695.085174
_symmetry_space_group_name_H-M "P -1"
_symmetry_group_IT_number 2
_symmetry_cell_setting 'triclinic'
loop_
_space_group_symop_operation_xyz
x,y,z
-x,-y,-z
loop_
_atom_site_type_symbol
_atom_site_label
_atom_site_fract_x
_atom_site_fract_y
_atom_site_fract_z
Si Si1 0.489136 0.323196 0.262108
Si Si2 0.621011 0.933394 0.461425
Si Si3 0.260024 0.446669 0.665246
Si Si4 0.870079 0.269670 0.955647
Si Si5 0.608343 0.045486 0.864935
Si Si6 0.254585 0.236344 0.009265
Si Si7 0.179232 0.790467 0.709010
Si Si8 0.072221 0.448361 0.340688
O O1 0.349911 0.215144 0.380268
O O2 0.551020 0.462409 0.294024
O O3 0.386362 0.346856 0.078605
O O4 0.665128 0.261677 0.307259
O O5 0.500000 0.000000 0.500000
O O6 0.519823 0.898640 0.309181
O O7 0.803421 0.042022 0.416847
O O8 0.231926 0.434684 0.497110
O O9 0.096459 0.510901 0.648137
O O10 0.259082 0.293042 0.819384
O O11 0.783416 0.233802 0.104363
O O12 0.063082 0.228253 0.031184
O O13 0.865577 0.433991 0.827191
O O14 0.762322 0.175133 0.861416
O O15 0.690433 0.917172 0.889127
O O16 0.500000 0.000000 0.000000
O O17 0.989343 0.704083 0.663180
#
# Coordination Sequence:
#
# PCOD8043535 Si02
#       8
#     2   2   2   2   2   2   2   2
#     4  10  19  38  63  86 117 160 205 242 297 361
#     4  10  19  36  64  87 110 158 212 238 287 356
#     4   9  19  36  59  88 118 157 202 246 301 352
#     4  11  22  37  59  92 121 157 200 249 304 349
#     4  12  22  41  63  87 119 159 204 247 298 361
#     4  11  22  37  58  92 123 154 195 253 308 351
#     4  10  19  37  61  88 116 157 207 245 291 359
#     4   9  19  36  60  87 119 159 200 246 295 361
#
# _framework density 23.018764000000001
#
# number of rings (size 3 to 8) (size 9 to 14) (size 15 to 20)
#    0.000    1.750    3.750    1.875    0.000    3.000 
#    2.250    1.875    0.000    4.500    0.000    0.000 
#    0.000    0.000    0.000    0.000    0.000    0.000 
#
# Total GULP energy -198340.926622 kJ/mol
# GULP energy per Si atom -12396.307914 kJ/mol
# Density = 2.296637 g / cm^3
# Si number density = 23.018764 Si / 1000 Ang^3
#
#
#
# Elastic Constant Matrix: (Units=GPa)
#
#
# Indices 1 2 3 4 5 6 
#
# 1 29.1861 18.1267 11.8613 -1.8805 -0.2799 13.7746
# 2 18.1267 138.7258 33.5963 10.4329 0.0022 39.2375
# 3 11.8613 33.5963 120.7080 4.1230 -10.0532 11.8345
# 4 -1.8805 10.4329 4.1230 43.6042 10.3690 -0.1498
# 5 -0.2799 0.0022 -10.0532 10.3690 29.7568 1.0373
# 6 13.7746 39.2375 11.8345 -0.1498 1.0373 24.0845
#
#
#
# Elastic Compliance Matrix: (Units=1/GPa)
#
#
# Indices 1 2 3 4 5 6 
#
# 1 0.048293 0.003074 -0.002560 0.001438 0.000182 -0.031370
# 2 0.003074 0.014415 -0.001654 -0.003621 0.001586 -0.024521
# 3 -0.002560 -0.001654 0.009418 -0.001487 0.003698 -0.000637
# 4 0.001438 -0.003621 -0.001487 0.026380 -0.009904 0.006398
# 5 0.000182 0.001586 0.003698 -0.009904 0.038525 -0.006225
# 6 -0.031370 -0.024521 -0.000637 0.006398 -0.006225 0.100031
#
#
# Mechanical properties :
#
#
# Convention : Reuss Voigt Hill
#
# Bulk Modulus (GPa) = 14.31707 46.19871 30.25789
# Shear Modulus (GPa) = 19.03862 34.49146 26.76504
#
# Velocity S-wave (km/s) = 2.87904 3.87512 3.41361
# Velocity P-wave (km/s) = 4.15753 6.33528 5.35821
#
# Compressibility (1/GPa) = 0.06984669
#
# Stress axis : x y z
#
# Youngs Moduli (GPa) = 20.70673 69.37063 106.18364
#
# Poissons Ratio (x) = -0.21325 0.27178
# Poissons Ratio (y) = -0.06365 0.17567
# Poissons Ratio (z) = 0.05300 0.11477
#
# Static dielectric constant tensor:
#      x y z
#    x 3.695970 0.402600 0.041200 
#    y 0.402600 4.692520 -0.095320 
#    z 0.041200 -0.095320 3.287960 
# 
# 
# High freq. dielectric constant tensor:
#      x y z
#    x 1.876790 0.022620 -0.007320 
#    y 0.022620 1.915090 0.004580 
#    z -0.007320 0.004580 1.918450 
# 
# From -- ./inp_files/185281.got.cif
#   From: 2010.06.25/outbox.cif.g09.slc.cpg/sg2_93_cif.got.tgz:185281.got - 2010.06.27 13:26:56.
