data_PCOD8043243
_publ_section_title
;
Structure prediction by ZEFSAII (Michael W. Deem and Ramdas Pophale) SiO2 
 PCOD8043243
Probable space group: P -1
;
_chemical_formula_sum "Si O2"
_cell_formula_units_Z 16
_cell_length_a 16.489879
_cell_length_b 11.365407
_cell_length_c 6.439112
_cell_angle_alpha 121.832279
_cell_angle_beta 56.272351
_cell_angle_gamma 110.029104
_cell_volume 850.600920
_symmetry_space_group_name_H-M "P -1"
_symmetry_group_IT_number 2
_symmetry_cell_setting 'triclinic'
loop_
_space_group_symop_operation_xyz
x,y,z
-x,-y,-z
loop_
_atom_site_type_symbol
_atom_site_label
_atom_site_fract_x
_atom_site_fract_y
_atom_site_fract_z
Si Si1 0.136873 0.107282 0.360917
Si Si2 0.364989 0.772082 0.780282
Si Si3 0.302063 0.995073 0.791612
Si Si4 0.336490 0.583202 0.266262
Si Si5 0.231714 0.793529 0.367149
Si Si6 0.498657 0.359187 0.245121
Si Si7 0.315128 0.286642 0.179269
Si Si8 0.952513 0.068332 0.325094
O O1 0.208226 0.248750 0.399147
O O2 0.036223 0.138376 0.419750
O O3 0.113769 0.051824 0.573162
O O4 0.193464 0.990451 0.045960
O O5 0.374546 0.908888 0.750122
O O6 0.350649 0.635605 0.530332
O O7 0.460338 0.760009 0.777575
O O8 0.270355 0.777494 0.065279
O O9 0.290956 0.926256 0.516461
O O10 0.345642 0.155820 0.871993
O O11 0.247326 0.655350 0.350271
O O12 0.311371 0.418257 0.156274
O O13 0.436245 0.618058 0.032212
O O14 0.116317 0.812541 0.539804
O O15 0.500000 0.500000 0.500000
O O16 0.389922 0.310375 0.285039
O O17 0.000000 0.000000 0.000000
#
# Coordination Sequence:
#
# PCOD8043243 Si02
#       8
#     2   2   2   2   2   2   2   2
#     4   9  21  34  58  87 115 147 181 246 288 330
#     4  10  20  38  57  86 116 154 195 231 293 343
#     4   9  19  37  55  84 118 143 183 246 287 325
#     4  10  22  38  61  82 119 156 192 237 287 342
#     4  10  19  36  60  87 113 153 193 230 292 351
#     4  11  22  38  61  86 110 163 201 230 282 352
#     4  10  20  41  56  86 121 148 193 244 288 331
#     4  11  18  36  61  88 113 149 197 230 291 352
#
# _framework density 18.810230000000001
#
# number of rings (size 3 to 8) (size 9 to 14) (size 15 to 20)
#    0.750    1.250    3.750    0.375    0.000    0.500 
#    6.750    6.250    0.000    1.500    0.000    0.000 
#    0.000    0.000    0.000    0.000    0.000    0.000 
#
# Total GULP energy -198334.721285 kJ/mol
# GULP energy per Si atom -12395.920080 kJ/mol
# Density = 1.876742 g / cm^3
# Si number density = 18.810230 Si / 1000 Ang^3
#
#
#
# Elastic Constant Matrix: (Units=GPa)
#
#
# Indices 1 2 3 4 5 6 
#
# 1 131.1990 59.7844 30.3119 3.5068 -7.3129 -10.8305
# 2 59.7844 118.7539 32.1764 13.3922 4.5071 -3.8128
# 3 30.3119 32.1764 112.6862 -0.1798 8.5067 -1.2534
# 4 3.5068 13.3922 -0.1798 31.1588 -2.4293 -3.3116
# 5 -7.3129 4.5071 8.5067 -2.4293 21.0430 1.0416
# 6 -10.8305 -3.8128 -1.2534 -3.3116 1.0416 29.5543
#
#
#
# Elastic Compliance Matrix: (Units=1/GPa)
#
#
# Indices 1 2 3 4 5 6 
#
# 1 0.011043 -0.005388 -0.001829 0.001862 0.005784 0.003279
# 2 -0.005388 0.012326 -0.001760 -0.005134 -0.004350 -0.000881
# 3 -0.001829 -0.001760 0.010191 0.000661 -0.004290 -0.000240
# 4 0.001862 -0.005134 0.000661 0.034911 0.005323 0.003772
# 5 0.005784 -0.004350 -0.004290 0.005323 0.052807 0.000112
# 6 0.003279 -0.000881 -0.000240 0.003772 0.000112 0.035333
#
#
# Mechanical properties :
#
#
# Convention : Reuss Voigt Hill
#
# Bulk Modulus (GPa) = 64.07798 67.46492 65.77145
# Shear Modulus (GPa) = 27.81394 32.37566 30.09480
#
# Velocity S-wave (km/s) = 3.84951 4.15320 4.00423
# Velocity P-wave (km/s) = 7.34151 7.67742 7.51134
#
# Compressibility (1/GPa) = 0.01560599
#
# Stress axis : x y z
#
# Youngs Moduli (GPa) = 90.55416 81.12996 98.12578
#
# Poissons Ratio (x) = 0.43713 0.17949
# Poissons Ratio (y) = 0.48791 0.17268
# Poissons Ratio (z) = 0.16564 0.14277
#
# Static dielectric constant tensor:
#      x y z
#    x 3.537300 -0.298140 -0.067000 
#    y -0.298140 3.268040 0.060170 
#    z -0.067000 0.060170 3.475480 
# 
# 
# High freq. dielectric constant tensor:
#      x y z
#    x 1.730070 -0.028380 0.000050 
#    y -0.028380 1.708330 0.001340 
#    z 0.000050 0.001340 1.733230 
# 
# From -- ./inp_files/108439.got.cif
#   From: 2010.06.25/outbox.cif.g09.slc.cpg/sg2_55_cif.got.tgz:108439.got - 2010.06.27 13:26:56.
