data_PCOD8043740
_publ_section_title
;
Structure prediction by ZEFSAII (Michael W. Deem and Ramdas Pophale) SiO2 
 PCOD8043740
Probable space group: P -1
;
_chemical_formula_sum "Si O2"
_cell_formula_units_Z 16
_cell_length_a 9.143289
_cell_length_b 14.379009
_cell_length_c 15.011596
_cell_angle_alpha 138.126016
_cell_angle_beta 92.287298
_cell_angle_gamma 120.432566
_cell_volume 782.709610
_symmetry_space_group_name_H-M "P -1"
_symmetry_group_IT_number 2
_symmetry_cell_setting 'triclinic'
loop_
_space_group_symop_operation_xyz
x,y,z
-x,-y,-z
loop_
_atom_site_type_symbol
_atom_site_label
_atom_site_fract_x
_atom_site_fract_y
_atom_site_fract_z
Si Si1 0.617105 0.328672 0.012014
Si Si2 0.384974 0.046118 0.983626
Si Si3 0.104831 0.317791 0.088813
Si Si4 0.482056 0.449999 0.861396
Si Si5 0.142218 0.644401 0.257694
Si Si6 0.365130 0.197899 0.259915
Si Si7 0.178663 0.346619 0.310833
Si Si8 0.409378 0.101576 0.662174
O O1 0.651817 0.521931 0.169061
O O2 0.874219 0.462988 0.080378
O O3 0.528230 0.184171 0.995083
O O4 0.422034 0.150324 0.801368
O O5 0.425999 0.207290 0.165850
O O6 0.093963 0.802756 0.782417
O O7 0.500000 0.000000 0.000000
O O8 0.248789 0.357528 0.039060
O O9 0.134251 0.506680 0.225052
O O10 0.211163 0.345280 0.205191
O O11 0.818163 0.057586 0.885120
O O12 0.348091 0.195772 0.670150
O O13 0.500000 0.500000 0.000000
O O14 0.331920 0.766674 0.269377
O O15 0.201280 0.827049 0.447548
O O16 0.223393 0.236963 0.286446
O O17 0.614485 0.387255 0.459298
#
# Coordination Sequence:
#
# PCOD8043740 Si02
#       8
#     2   2   2   2   2   2   2   2
#     4  11  20  35  59  82 110 149 182 226 284 328
#     4  11  23  37  56  86 121 150 182 232 285 336
#     4  10  19  37  58  80 112 148 186 227 277 336
#     4   9  19  36  58  83 113 144 180 232 283 326
#     4  10  21  36  57  81 109 146 186 225 273 335
#     4  10  21  38  59  82 110 149 196 236 273 329
#     4  10  21  38  60  82 109 150 194 234 276 330
#     4   9  21  39  55  79 111 144 186 230 272 331
#
# _framework density 20.441811000000001
#
# number of rings (size 3 to 8) (size 9 to 14) (size 15 to 20)
#    0.000    2.000    0.000    4.875    0.000    4.000 
#    0.000   10.000    0.000    0.000    0.000    0.000 
#    0.000    0.000    0.000    0.000    0.000    0.000 
#
# Total GULP energy -198342.688619 kJ/mol
# GULP energy per Si atom -12396.418039 kJ/mol
# Density = 2.039528 g / cm^3
# Si number density = 20.441811 Si / 1000 Ang^3
#
#
#
# Elastic Constant Matrix: (Units=GPa)
#
#
# Indices 1 2 3 4 5 6 
#
# 1 104.8826 34.0687 28.2615 6.4594 1.5529 -13.7985
# 2 34.0687 106.9140 40.7113 6.9905 -4.4756 -3.2398
# 3 28.2615 40.7113 112.7926 7.0716 4.0171 -0.3772
# 4 6.4594 6.9905 7.0716 23.0652 -2.3149 -5.7868
# 5 1.5529 -4.4756 4.0171 -2.3149 33.8399 2.6925
# 6 -13.7985 -3.2398 -0.3772 -5.7868 2.6925 31.2542
#
#
#
# Elastic Compliance Matrix: (Units=1/GPa)
#
#
# Indices 1 2 3 4 5 6 
#
# 1 0.011642 -0.002889 -0.001770 -0.000758 -0.001138 0.004777
# 2 -0.002889 0.011782 -0.003501 -0.001627 0.002041 -0.000574
# 3 -0.001770 -0.003501 0.010770 -0.002238 -0.001711 -0.001281
# 4 -0.000758 -0.001627 -0.002238 0.047008 0.002669 0.007944
# 5 -0.001138 0.002041 -0.001711 0.002669 0.030453 -0.002441
# 6 0.004777 -0.000574 -0.001281 0.007944 -0.002441 0.035711
#
#
# Mechanical properties :
#
#
# Convention : Reuss Voigt Hill
#
# Bulk Modulus (GPa) = 55.95110 58.96359 57.45734
# Shear Modulus (GPa) = 29.47362 32.40172 30.93767
#
# Velocity S-wave (km/s) = 3.80126 3.98561 3.89453
# Velocity P-wave (km/s) = 6.83348 7.07724 6.95643
#
# Compressibility (1/GPa) = 0.01787275
#
# Stress axis : x y z
#
# Youngs Moduli (GPa) = 85.89706 84.87869 92.84980
#
# Poissons Ratio (x) = 0.24522 0.16437
# Poissons Ratio (y) = 0.24816 0.32508
# Poissons Ratio (z) = 0.15206 0.29717
#
# Static dielectric constant tensor:
#      x y z
#    x 3.940850 -0.103520 -0.214540 
#    y -0.103520 3.684090 0.150210 
#    z -0.214540 0.150210 3.675720 
# 
# 
# High freq. dielectric constant tensor:
#      x y z
#    x 1.807630 -0.002370 -0.012720 
#    y -0.002370 1.799500 0.007850 
#    z -0.012720 0.007850 1.780910 
# 
# From -- ./inp_files/313284.got.cif
#   From: 2010.06.25/outbox.cif.g09.slc.cpg/sg2_157_cif.got.tgz:313284.got - 2010.06.27 13:26:56.
