data_PCOD8043094
_publ_section_title
;
Structure prediction by ZEFSAII (Michael W. Deem and Ramdas Pophale) SiO2 
 PCOD8043094
Probable space group: P -1
;
_chemical_formula_sum "Si O2"
_cell_formula_units_Z 16
_cell_length_a 6.674099
_cell_length_b 8.746850
_cell_length_c 17.884358
_cell_angle_alpha 88.545781
_cell_angle_beta 91.517751
_cell_angle_gamma 127.817029
_cell_volume 824.419686
_symmetry_space_group_name_H-M "P -1"
_symmetry_group_IT_number 2
_symmetry_cell_setting 'triclinic'
loop_
_space_group_symop_operation_xyz
x,y,z
-x,-y,-z
loop_
_atom_site_type_symbol
_atom_site_label
_atom_site_fract_x
_atom_site_fract_y
_atom_site_fract_z
Si Si1 0.266204 0.500890 0.147348
Si Si2 0.721780 0.214661 0.146642
Si Si3 0.725266 0.819563 0.913183
Si Si4 0.015353 0.286998 0.285429
Si Si5 0.969338 0.741519 0.478489
Si Si6 0.203970 0.130383 0.396750
Si Si7 0.701142 0.895265 0.079220
Si Si8 0.769258 0.349188 0.409008
O O1 0.296261 0.370923 0.094605
O O2 0.495573 0.723779 0.134508
O O3 0.980336 0.433609 0.127191
O O4 0.262338 0.449138 0.235946
O O5 0.471746 0.200690 0.147618
O O6 0.772089 0.157351 0.228746
O O7 0.675414 0.064834 0.084922
O O8 0.635165 0.816865 0.995601
O O9 0.009100 0.016712 0.897849
O O10 0.963588 0.396001 0.344124
O O11 0.063713 0.145314 0.325558
O O12 0.199629 0.762469 0.523357
O O13 0.791656 0.749804 0.534953
O O14 0.812289 0.540425 0.435866
O O15 0.064279 0.907476 0.416944
O O16 0.486421 0.213944 0.376278
#
# Coordination Sequence:
#
# PCOD8043094 Si02
#       8
#     2   2   2   2   2   2   2   2
#     4   9  21  38  53  80 115 144 183 232 277 336
#     4   9  21  38  53  79 115 144 181 233 277 331
#     4  10  20  36  61  82 108 144 190 238 281 324
#     4   9  22  38  50  80 117 148 180 223 273 337
#     4   9  20  36  57  87 102 139 189 224 267 323
#     4  10  19  37  59  79 111 143 180 227 274 314
#     4  10  20  37  59  84 107 144 191 237 279 329
#     4  10  19  36  58  81 111 141 183 226 271 320
#
# _framework density 19.407589999999999
#
# number of rings (size 3 to 8) (size 9 to 14) (size 15 to 20)
#    0.750    1.750    0.000    1.500    1.750    1.500 
#    4.500    0.000    0.000    0.000    0.000    0.000 
#    0.000    0.000    0.000    0.000    0.000    0.000 
#
# Total GULP energy -198247.329768 kJ/mol
# GULP energy per Si atom -12390.458110 kJ/mol
# Density = 1.936342 g / cm^3
# Si number density = 19.407590 Si / 1000 Ang^3
#
#
#
# Elastic Constant Matrix: (Units=GPa)
#
#
# Indices 1 2 3 4 5 6 
#
# 1 88.8015 36.0087 18.3552 -7.4359 17.6304 12.4419
# 2 36.0087 82.8904 21.8926 -22.9016 1.0124 9.9715
# 3 18.3552 21.8926 61.7569 -13.2098 5.0112 5.9591
# 4 -7.4359 -22.9016 -13.2098 22.9426 -0.0398 -1.3509
# 5 17.6304 1.0124 5.0112 -0.0398 29.7135 7.3026
# 6 12.4419 9.9715 5.9591 -1.3509 7.3026 26.0374
#
#
#
# Elastic Compliance Matrix: (Units=1/GPa)
#
#
# Indices 1 2 3 4 5 6 
#
# 1 0.016288 -0.006968 -0.002101 -0.003042 -0.008484 -0.002412
# 2 -0.006968 0.020802 -0.001528 0.017355 0.004875 -0.004754
# 3 -0.002101 -0.001528 0.019589 0.008952 -0.001499 -0.002009
# 4 -0.003042 0.017355 0.008952 0.064840 0.000799 -0.004102
# 5 -0.008484 0.004875 -0.001499 0.000799 0.040968 -0.008918
# 6 -0.002412 -0.004754 -0.002009 -0.004102 -0.008918 0.044128
#
#
# Mechanical properties :
#
#
# Convention : Reuss Voigt Hill
#
# Bulk Modulus (GPa) = 28.17962 42.88464 35.53213
# Shear Modulus (GPa) = 20.86490 26.21818 23.54154
#
# Velocity S-wave (km/s) = 3.28241 3.67948 3.48660
# Velocity P-wave (km/s) = 5.37746 6.34005 5.87849
#
# Compressibility (1/GPa) = 0.03548664
#
# Stress axis : x y z
#
# Youngs Moduli (GPa) = 61.39354 48.07225 51.04949
#
# Poissons Ratio (x) = 0.33496 0.10724
# Poissons Ratio (y) = 0.42778 0.07799
# Poissons Ratio (z) = 0.12897 0.07345
#
# Static dielectric constant tensor:
#      x y z
#    x 3.588380 0.036970 -0.085390 
#    y 0.036970 3.230780 0.055020 
#    z -0.085390 0.055020 3.461720 
# 
# 
# High freq. dielectric constant tensor:
#      x y z
#    x 1.762480 0.001170 -0.009460 
#    y 0.001170 1.730700 0.007710 
#    z -0.009460 0.007710 1.748770 
# 
# From -- ./inp_files/582426.got.cif
#   From: 2010.06.25/outbox.cif.g09.slc.cpg/sg2_292_cif.got.tgz:582426.got - 2010.06.27 13:26:56.
