data_PCOD8043255
_publ_section_title
;
Structure prediction by ZEFSAII (Michael W. Deem and Ramdas Pophale) SiO2 
 PCOD8043255
Probable space group: P -1
;
_chemical_formula_sum "Si O2"
_cell_formula_units_Z 16
_cell_length_a 9.552336
_cell_length_b 11.487509
_cell_length_c 11.603573
_cell_angle_alpha 89.134297
_cell_angle_beta 119.018529
_cell_angle_gamma 130.687918
_cell_volume 752.200120
_symmetry_space_group_name_H-M "P -1"
_symmetry_group_IT_number 2
_symmetry_cell_setting 'triclinic'
loop_
_space_group_symop_operation_xyz
x,y,z
-x,-y,-z
loop_
_atom_site_type_symbol
_atom_site_label
_atom_site_fract_x
_atom_site_fract_y
_atom_site_fract_z
Si Si1 0.623015 0.148791 0.818614
Si Si2 0.334453 0.875082 0.537271
Si Si3 0.124696 0.591004 0.298874
Si Si4 0.019228 0.295044 0.160082
Si Si5 0.063134 0.139096 0.606909
Si Si6 0.247821 0.053166 0.829802
Si Si7 0.600944 0.379992 0.074428
Si Si8 0.452220 0.505701 0.170923
O O1 0.755075 0.290535 0.768611
O O2 0.404004 0.106549 0.778776
O O3 0.496617 0.964532 0.716750
O O4 0.805577 0.220194 0.992700
O O5 0.246511 0.698249 0.466802
O O6 0.128124 0.861391 0.462679
O O7 0.500000 0.000000 0.500000
O O8 0.115161 0.447529 0.280806
O O9 0.861177 0.492398 0.216308
O O10 0.238346 0.366297 0.173712
O O11 0.931021 0.145848 0.209857
O O12 0.100551 0.094037 0.746130
O O13 0.311834 0.332398 0.666685
O O14 0.000000 0.000000 0.500000
O O15 0.428270 0.174069 0.006581
O O16 0.487022 0.407252 0.116353
O O17 0.616896 0.430907 0.947525
#
# Coordination Sequence:
#
# PCOD8043255 Si02
#       8
#     2   2   2   2   2   2   2   2
#     4  11  21  39  64  94 126 163 213 259 310 371
#     4  10  23  38  67  97 120 160 212 264 314 362
#     4  11  20  38  64  94 121 161 215 259 303 377
#     4  12  24  39  65  95 131 166 211 256 318 374
#     4  11  21  41  68  87 124 162 214 256 310 374
#     4  11  24  38  63  96 126 170 206 261 320 370
#     4  10  19  36  60  89 122 158 210 261 306 359
#     4  10  22  37  62  93 121 164 209 263 302 367
#
# _framework density 21.270935000000001
#
# number of rings (size 3 to 8) (size 9 to 14) (size 15 to 20)
#    0.000    1.250    5.000    2.250    1.750    0.500 
#    0.000    1.250    2.750    0.000    0.000    0.000 
#    0.000    0.000    0.000    0.000    0.000    0.000 
#
# Total GULP energy -198233.965766 kJ/mol
# GULP energy per Si atom -12389.622860 kJ/mol
# Density = 2.122252 g / cm^3
# Si number density = 21.270935 Si / 1000 Ang^3
#
#
#
# Elastic Constant Matrix: (Units=GPa)
#
#
# Indices 1 2 3 4 5 6 
#
# 1 84.8885 44.3248 18.6523 14.9619 -10.8737 9.7669
# 2 44.3248 104.8406 29.1013 28.1914 -5.7382 -6.7019
# 3 18.6523 29.1013 73.7801 35.2221 -19.8796 -6.7570
# 4 14.9619 28.1914 35.2221 33.7350 -13.5693 -3.3434
# 5 -10.8737 -5.7382 -19.8796 -13.5693 36.8760 19.7090
# 6 9.7669 -6.7019 -6.7570 -3.3434 19.7090 22.7719
#
#
#
# Elastic Compliance Matrix: (Units=1/GPa)
#
#
# Indices 1 2 3 4 5 6 
#
# 1 0.026344 -0.014338 -0.001218 0.009653 0.030074 -0.040491
# 2 -0.014338 0.020985 0.000395 -0.018055 -0.023494 0.030126
# 3 -0.001218 0.000395 0.027866 -0.027159 0.003910 0.001536
# 4 0.009653 -0.018055 -0.027159 0.078507 0.032532 -0.034142
# 5 0.030074 -0.023494 0.003910 0.032532 0.100154 -0.100559
# 6 -0.040491 0.030126 0.001536 -0.034142 -0.100559 0.152623
#
#
# Mechanical properties :
#
#
# Convention : Reuss Voigt Hill
#
# Bulk Modulus (GPa) = 22.28488 49.74066 36.01277
# Shear Modulus (GPa) = 11.06788 30.10532 20.58660
#
# Velocity S-wave (km/s) = 2.28355 3.76616 3.11437
# Velocity P-wave (km/s) = 4.17758 6.50746 5.46806
#
# Compressibility (1/GPa) = 0.04487348
#
# Stress axis : x y z
#
# Youngs Moduli (GPa) = 37.95955 47.65294 35.88661
#
# Poissons Ratio (x) = 0.68323 0.04372
# Poissons Ratio (y) = 0.54425 -0.01419
# Poissons Ratio (z) = 0.04624 -0.01884
#
# Static dielectric constant tensor:
#      x y z
#    x 4.015570 -0.144890 -0.279160 
#    y -0.144890 3.830100 0.700830 
#    z -0.279160 0.700830 4.411950 
# 
# 
# High freq. dielectric constant tensor:
#      x y z
#    x 1.844770 -0.000320 -0.009880 
#    y -0.000320 1.814480 0.045580 
#    z -0.009880 0.045580 1.833030 
# 
# From -- ./inp_files/259962.got.cif
#   From: 2010.06.25/outbox.cif.g09.slc.cpg/sg2_130_cif.got.tgz:259962.got - 2010.06.27 13:26:56.
