data_PCOD8043400
_publ_section_title
;
Structure prediction by ZEFSAII (Michael W. Deem and Ramdas Pophale) SiO2 
 PCOD8043400
Probable space group: P -1
;
_chemical_formula_sum "Si O2"
_cell_formula_units_Z 14
_cell_length_a 14.615416
_cell_length_b 14.487653
_cell_length_c 8.018838
_cell_angle_alpha 94.423631
_cell_angle_beta 61.711558
_cell_angle_gamma 145.582515
_cell_volume 655.938348
_symmetry_space_group_name_H-M "P -1"
_symmetry_group_IT_number 2
_symmetry_cell_setting 'triclinic'
loop_
_space_group_symop_operation_xyz
x,y,z
-x,-y,-z
loop_
_atom_site_type_symbol
_atom_site_label
_atom_site_fract_x
_atom_site_fract_y
_atom_site_fract_z
Si Si1 0.754823 0.240491 0.367988
Si Si2 0.244091 0.599994 0.832294
Si Si3 0.105492 0.918182 0.411415
Si Si4 0.038095 0.103824 0.792227
Si Si5 0.549622 0.675542 0.667388
Si Si6 0.164404 0.243331 0.056310
Si Si7 0.394130 0.978315 0.227826
O O1 0.770646 0.364270 0.334748
O O2 0.762279 0.216532 0.550411
O O3 0.500000 0.000000 0.500000
O O4 0.980035 0.373348 0.099929
O O5 0.371551 0.602485 0.714294
O O6 0.395711 0.795684 0.835160
O O7 0.210650 0.901317 0.289787
O O8 0.959169 0.825804 0.358580
O O9 0.958208 0.799289 0.693610
O O10 0.310048 0.157906 0.287608
O O11 0.276886 0.232116 0.604534
O O12 0.028701 0.151479 0.982022
O O13 0.824794 0.858286 0.930189
O O14 0.423640 0.492069 0.849326
O O15 0.500000 0.000000 0.000000
#
# Coordination Sequence:
#
# PCOD8043400 Si02
#       7
#     2   2   2   2   2   2   2
#     4   9  18  37  59  81 112 151 195 238 293 344
#     4   9  19  36  61  88 114 153 198 241 294 359
#     4  10  22  40  58  87 121 157 201 241 293 356
#     4  10  22  38  57  92 119 152 203 240 287 365
#     4  10  19  36  62  87 122 152 195 243 296 354
#     4  10  20  38  61  82 121 160 190 245 297 343
#     4  10  21  39  57  85 121 155 194 246 299 349
#
# _framework density 21.34347
#
# number of rings (size 3 to 8) (size 9 to 14) (size 15 to 20)
#    0.000    2.286    0.000    3.000    0.000    4.000 
#   23.143    0.000    0.000    0.000    0.000    0.000 
#    0.000    0.000    0.000    0.000    0.000    0.000 
#
# Total GULP energy -173449.842594 kJ/mol
# GULP energy per Si atom -12389.274471 kJ/mol
# Density = 2.129489 g / cm^3
# Si number density = 21.343470 Si / 1000 Ang^3
#
#
#
# Elastic Constant Matrix: (Units=GPa)
#
#
# Indices 1 2 3 4 5 6 
#
# 1 137.3879 20.6536 76.0577 10.4136 8.4734 6.5706
# 2 20.6536 32.8157 31.3437 0.7450 14.8705 -5.3946
# 3 76.0577 31.3437 125.0675 -3.7491 26.1508 -5.8706
# 4 10.4136 0.7450 -3.7491 40.1904 -0.4277 4.6362
# 5 8.4734 14.8705 26.1508 -0.4277 31.5065 -3.8788
# 6 6.5706 -5.3946 -5.8706 4.6362 -3.8788 22.4052
#
#
#
# Elastic Compliance Matrix: (Units=1/GPa)
#
#
# Indices 1 2 3 4 5 6 
#
# 1 0.012351 -0.002655 -0.007996 -0.003278 0.003908 -0.005001
# 2 -0.002655 0.046554 -0.006640 -0.001884 -0.014778 0.008079
# 3 -0.007996 -0.006640 0.016420 0.003297 -0.007931 0.002993
# 4 -0.003278 -0.001884 0.003297 0.026560 -0.001137 -0.004321
# 5 0.003908 -0.014778 -0.007931 -0.001137 0.044371 0.001134
# 6 -0.005001 0.008079 0.002993 -0.004321 0.001134 0.049919
#
#
# Mechanical properties :
#
#
# Convention : Reuss Voigt Hill
#
# Bulk Modulus (GPa) = 24.54354 61.26458 42.90406
# Shear Modulus (GPa) = 20.46357 29.96815 25.21586
#
# Velocity S-wave (km/s) = 3.09977 3.75118 3.44093
# Velocity P-wave (km/s) = 4.93312 6.89408 5.99433
#
# Compressibility (1/GPa) = 0.04074392
#
# Stress axis : x y z
#
# Youngs Moduli (GPa) = 80.96592 21.48050 60.90182
#
# Poissons Ratio (x) = 0.05703 0.48696
# Poissons Ratio (y) = 0.21496 0.40437
# Poissons Ratio (z) = 0.64738 0.14262
#
# Static dielectric constant tensor:
#      x y z
#    x 4.176540 -0.052320 0.246230 
#    y -0.052320 3.685920 -0.286520 
#    z 0.246230 -0.286520 4.006850 
# 
# 
# High freq. dielectric constant tensor:
#      x y z
#    x 1.840650 -0.007130 0.014310 
#    y -0.007130 1.810130 -0.018640 
#    z 0.014310 -0.018640 1.841040 
# 
# From -- ./inp_files/311465.got.cif
#   From: 2010.06.25/outbox.cif.g09.slc.cpg/sg2_156_cif.got.tgz:311465.got - 2010.06.27 13:26:56.
