data_PCOD8043119
_publ_section_title
;
Structure prediction by ZEFSAII (Michael W. Deem and Ramdas Pophale) SiO2 
 PCOD8043119
Probable space group: P -1
;
_chemical_formula_sum "Si O2"
_cell_formula_units_Z 16
_cell_length_a 18.614054
_cell_length_b 12.133816
_cell_length_c 13.939542
_cell_angle_alpha 30.023844
_cell_angle_beta 32.667746
_cell_angle_gamma 45.998985
_cell_volume 843.467317
_symmetry_space_group_name_H-M "P -1"
_symmetry_group_IT_number 2
_symmetry_cell_setting 'triclinic'
loop_
_space_group_symop_operation_xyz
x,y,z
-x,-y,-z
loop_
_atom_site_type_symbol
_atom_site_label
_atom_site_fract_x
_atom_site_fract_y
_atom_site_fract_z
Si Si1 0.263457 0.944451 0.230305
Si Si2 0.018385 0.004659 0.815704
Si Si3 0.755231 0.121716 0.483052
Si Si4 0.828670 0.209454 0.749036
Si Si5 0.605440 0.469874 0.823222
Si Si6 0.474125 0.262492 0.949457
Si Si7 0.364116 0.437363 0.756018
Si Si8 0.887757 0.684097 0.361659
O O1 0.196711 0.897760 0.445323
O O2 0.168032 0.833873 0.336554
O O3 0.402945 0.840454 0.160257
O O4 0.287762 0.204333 0.979500
O O5 0.077805 0.229949 0.634299
O O6 0.884575 0.022621 0.890328
O O7 0.126741 0.931028 0.678002
O O8 0.977987 0.823655 0.077672
O O9 0.728915 0.370174 0.299318
O O10 0.625502 0.943920 0.740877
O O11 0.675997 0.242132 0.928500
O O12 0.926656 0.436037 0.491392
O O13 0.725879 0.676667 0.530501
O O14 0.500000 0.500000 0.000000
O O15 0.524124 0.446276 0.833687
O O16 0.396965 0.402758 0.856384
O O17 0.500000 0.500000 0.500000
#
# Coordination Sequence:
#
# PCOD8043119 Si02
#       8
#     2   2   2   2   2   2   2   2
#     4  10  20  37  57  88 116 147 193 235 287 337
#     4  11  22  41  58  85 115 153 195 227 281 345
#     4  11  22  35  59  86 118 152 191 232 274 349
#     4   9  22  39  63  79 118 154 179 239 293 322
#     4   9  19  39  61  86 111 145 188 236 285 334
#     4  10  19  36  58  86 119 144 188 241 283 336
#     4  11  19  33  57  85 117 154 183 232 296 325
#     4   9  22  40  62  81 118 146 191 239 280 331
#
# _framework density 18.969318000000001
#
# number of rings (size 3 to 8) (size 9 to 14) (size 15 to 20)
#    0.750    1.250    2.500    1.875    0.000    4.500 
#    4.500    1.875    0.000    0.000    0.000    0.000 
#    0.000    0.000    0.000    0.000    0.000    0.000 
#
# Total GULP energy -198275.368294 kJ/mol
# GULP energy per Si atom -12392.210518 kJ/mol
# Density = 1.892614 g / cm^3
# Si number density = 18.969318 Si / 1000 Ang^3
#
#
#
# Elastic Constant Matrix: (Units=GPa)
#
#
# Indices 1 2 3 4 5 6 
#
# 1 96.1986 55.5904 24.4921 1.3271 7.8173 16.8615
# 2 55.5904 100.8157 50.2988 14.0319 13.9341 14.2144
# 3 24.4921 50.2988 79.1509 6.0379 7.9975 7.0374
# 4 1.3271 14.0319 6.0379 35.6167 -1.7975 5.4326
# 5 7.8173 13.9341 7.9975 -1.7975 24.8160 -3.7772
# 6 16.8615 14.2144 7.0374 5.4326 -3.7772 26.4449
#
#
#
# Elastic Compliance Matrix: (Units=1/GPa)
#
#
# Indices 1 2 3 4 5 6 
#
# 1 0.016642 -0.009082 0.001083 0.003774 -0.001281 -0.006976
# 2 -0.009082 0.022202 -0.009752 -0.006635 -0.007437 -0.003247
# 3 0.001083 -0.009752 0.018594 0.000706 -0.000909 -0.000672
# 4 0.003774 -0.006635 0.000706 0.031375 0.003832 -0.004926
# 5 -0.001281 -0.007437 -0.000909 0.003832 0.047121 0.010999
# 6 -0.006976 -0.003247 -0.000672 -0.004926 0.010999 0.046770
#
#
# Mechanical properties :
#
#
# Convention : Reuss Voigt Hill
#
# Bulk Modulus (GPa) = 45.58582 59.65865 52.62223
# Shear Modulus (GPa) = 22.17136 27.09445 24.63291
#
# Velocity S-wave (km/s) = 3.42248 3.78343 3.60747
# Velocity P-wave (km/s) = 6.30090 7.11366 6.71958
#
# Compressibility (1/GPa) = 0.02193665
#
# Stress axis : x y z
#
# Youngs Moduli (GPa) = 60.08817 45.04181 53.78124
#
# Poissons Ratio (x) = 0.40906 -0.05827
# Poissons Ratio (y) = 0.54571 0.52448
# Poissons Ratio (z) = -0.06510 0.43925
#
# Static dielectric constant tensor:
#      x y z
#    x 3.580870 0.162520 0.004370 
#    y 0.162520 3.497770 -0.160840 
#    z 0.004370 -0.160840 3.362600 
# 
# 
# High freq. dielectric constant tensor:
#      x y z
#    x 1.743430 0.014170 0.001010 
#    y 0.014170 1.733020 -0.001040 
#    z 0.001010 -0.001040 1.720570 
# 
# From -- ./inp_files/464240.got.cif
#   From: 2010.06.25/outbox.cif.g09.slc.cpg/sg2_233_cif.got.tgz:464240.got - 2010.06.27 13:26:56.
