data_PCOD8043075
_publ_section_title
;
Structure prediction by ZEFSAII (Michael W. Deem and Ramdas Pophale) SiO2 
 PCOD8043075
Probable space group: P -1
;
_chemical_formula_sum "Si O2"
_cell_formula_units_Z 16
_cell_length_a 27.360421
_cell_length_b 12.572836
_cell_length_c 6.954338
_cell_angle_alpha 47.602797
_cell_angle_beta 46.710036
_cell_angle_gamma 28.017846
_cell_volume 801.182895
_symmetry_space_group_name_H-M "P -1"
_symmetry_group_IT_number 2
_symmetry_cell_setting 'triclinic'
loop_
_space_group_symop_operation_xyz
x,y,z
-x,-y,-z
loop_
_atom_site_type_symbol
_atom_site_label
_atom_site_fract_x
_atom_site_fract_y
_atom_site_fract_z
Si Si1 0.278778 0.101338 0.222125
Si Si2 0.881753 0.603781 0.030822
Si Si3 0.183884 0.438233 0.379007
Si Si4 0.352827 0.380891 0.942133
Si Si5 0.460734 0.010154 0.795522
Si Si6 0.893405 0.879448 0.874179
Si Si7 0.962657 0.907237 0.290158
Si Si8 0.231987 0.864285 0.723523
O O1 0.174484 0.321358 0.112637
O O2 0.261506 0.191707 0.371816
O O3 0.289196 0.913350 0.437977
O O4 0.387022 0.992644 0.980150
O O5 0.862773 0.798901 0.915186
O O6 0.823300 0.591437 0.344721
O O7 0.006127 0.346312 0.993571
O O8 0.068366 0.629411 0.351395
O O9 0.236603 0.506683 0.146420
O O10 0.396165 0.248539 0.782919
O O11 0.326824 0.593085 0.749908
O O12 0.436457 0.207189 0.094730
O O13 0.500000 0.000000 0.500000
O O14 0.916868 0.978176 0.549481
O O15 0.798428 0.079721 0.035288
O O16 0.876863 0.983829 0.284383
O O17 0.000000 0.000000 0.000000
#
# Coordination Sequence:
#
# PCOD8043075 Si02
#       8
#     2   2   2   2   2   2   2   2
#     4  11  22  37  66  88 117 160 203 249 303 354
#     4  10  19  36  57  89 121 165 204 240 277 352
#     4  10  20  38  60  87 121 167 198 240 293 357
#     4  10  23  42  63  87 122 151 196 259 308 357
#     4  10  23  46  67  88 110 156 205 251 311 373
#     4  10  22  35  58  87 129 164 203 237 289 349
#     4  11  22  38  56  87 132 166 200 239 290 353
#     4  12  23  39  60  94 126 158 197 251 302 354
#
# _framework density 19.970472000000001
#
# number of rings (size 3 to 8) (size 9 to 14) (size 15 to 20)
#    0.000    1.500    3.750    1.500    0.000    3.000 
#    2.250    0.625    0.000    0.000    0.000    0.000 
#    0.000    0.000    0.000    0.000    0.000    0.000 
#
# Total GULP energy -198353.370585 kJ/mol
# GULP energy per Si atom -12397.085662 kJ/mol
# Density = 1.992502 g / cm^3
# Si number density = 19.970472 Si / 1000 Ang^3
#
#
#
# Elastic Constant Matrix: (Units=GPa)
#
#
# Indices 1 2 3 4 5 6 
#
# 1 83.4793 30.6327 41.3815 4.8597 -7.8301 0.4583
# 2 30.6327 84.6599 50.1691 0.2758 -10.0471 9.1466
# 3 41.3815 50.1691 142.1043 5.0489 -12.5054 14.8114
# 4 4.8597 0.2758 5.0489 25.5998 -2.2983 -6.5029
# 5 -7.8301 -10.0471 -12.5054 -2.2983 27.1518 -5.6786
# 6 0.4583 9.1466 14.8114 -6.5029 -5.6786 27.3270
#
#
#
# Elastic Compliance Matrix: (Units=1/GPa)
#
#
# Indices 1 2 3 4 5 6 
#
# 1 0.015151 -0.003650 -0.003191 -0.001313 0.002025 0.002805
# 2 -0.003650 0.016186 -0.004220 0.001002 0.002599 -0.002291
# 3 -0.003191 -0.004220 0.010085 -0.002345 0.001057 -0.004338
# 4 -0.001313 0.001002 -0.002345 0.043365 0.005166 0.012350
# 5 0.002025 0.002599 0.001057 0.005166 0.041031 0.008279
# 6 0.002805 -0.002291 -0.004338 0.012350 0.008279 0.044324
#
#
# Mechanical properties :
#
#
# Convention : Reuss Voigt Hill
#
# Bulk Modulus (GPa) = 51.81184 61.62334 56.71759
# Shear Modulus (GPa) = 25.16405 28.55305 26.85855
#
# Velocity S-wave (km/s) = 3.55359 3.78532 3.67128
# Velocity P-wave (km/s) = 6.54506 7.07313 6.81421
#
# Compressibility (1/GPa) = 0.01930061
#
# Stress axis : x y z
#
# Youngs Moduli (GPa) = 66.00192 61.78288 99.16099
#
# Poissons Ratio (x) = 0.22548 0.31644
# Poissons Ratio (y) = 0.24088 0.41842
# Poissons Ratio (z) = 0.21062 0.26070
#
# Static dielectric constant tensor:
#      x y z
#    x 3.706190 -0.083180 -0.094630 
#    y -0.083180 3.472920 -0.014530 
#    z -0.094630 -0.014530 3.853910 
# 
# 
# High freq. dielectric constant tensor:
#      x y z
#    x 1.778160 -0.002850 -0.002430 
#    y -0.002850 1.759610 0.001660 
#    z -0.002430 0.001660 1.790560 
# 
# From -- ./inp_files/101551.got.cif
#   From: 2010.06.25/outbox.cif.g09.slc.cpg/sg2_51_cif.got.tgz:101551.got - 2010.06.27 13:26:56.
