data_PCOD8043488
_publ_section_title
;
Structure prediction by ZEFSAII (Michael W. Deem and Ramdas Pophale) SiO2 
 PCOD8043488
Probable space group: P -1
;
_chemical_formula_sum "Si O2"
_cell_formula_units_Z 16
_cell_length_a 14.499403
_cell_length_b 12.473476
_cell_length_c 12.011298
_cell_angle_alpha 90.825123
_cell_angle_beta 161.443893
_cell_angle_gamma 92.993532
_cell_volume 676.263398
_symmetry_space_group_name_H-M "P -1"
_symmetry_group_IT_number 2
_symmetry_cell_setting 'triclinic'
loop_
_space_group_symop_operation_xyz
x,y,z
-x,-y,-z
loop_
_atom_site_type_symbol
_atom_site_label
_atom_site_fract_x
_atom_site_fract_y
_atom_site_fract_z
Si Si1 0.911729 0.728704 0.362560
Si Si2 0.180095 0.958023 0.077248
Si Si3 0.317971 0.493886 0.401106
Si Si4 0.766442 0.178224 0.059972
Si Si5 0.040310 0.832395 0.120476
Si Si6 0.287358 0.298508 0.520685
Si Si7 0.596704 0.728546 0.784169
Si Si8 0.401953 0.610115 0.918061
O O1 0.135406 0.818919 0.696556
O O2 0.060500 0.621847 0.509209
O O3 0.837612 0.772486 0.157123
O O4 0.601629 0.702503 0.071456
O O5 0.030370 0.843542 0.972500
O O6 0.500000 0.000000 0.500000
O O7 0.209285 0.933280 0.979207
O O8 0.970085 0.045493 0.846312
O O9 0.500000 0.500000 0.500000
O O10 0.275524 0.373547 0.402186
O O11 0.457649 0.598874 0.640248
O O12 0.000000 0.500000 0.000000
O O13 0.984229 0.276074 0.243857
O O14 0.425900 0.190484 0.654666
O O15 0.345280 0.799958 0.504295
O O16 0.762204 0.747744 0.853683
O O17 0.544426 0.371463 0.890350
O O18 0.500000 0.500000 0.000000
#
# Coordination Sequence:
#
# PCOD8043488 Si02
#       8
#     2   2   2   2   2   2   2   2
#     4  10  22  41  61  96 124 173 210 264 325 384
#     4  11  25  45  72  98 127 158 230 270 328 389
#     4  12  27  39  58  94 133 177 217 250 313 388
#     4  10  24  40  71  92 129 164 219 274 314 373
#     4  11  26  42  69 100 121 177 210 273 333 386
#     4  10  23  39  59  95 126 172 212 261 313 369
#     4  12  25  44  66  92 143 168 212 264 333 387
#     4  10  19  36  63  88 123 167 225 262 305 359
#
# _framework density 23.659420999999998
#
# number of rings (size 3 to 8) (size 9 to 14) (size 15 to 20)
#    0.000    1.250    1.250    3.375    8.750    3.000 
#    0.000    1.250    0.000    0.000    0.000    0.000 
#    0.000    0.000    0.000    0.000    0.000    0.000 
#
# Total GULP energy -198267.807920 kJ/mol
# GULP energy per Si atom -12391.737995 kJ/mol
# Density = 2.360557 g / cm^3
# Si number density = 23.659421 Si / 1000 Ang^3
#
#
#
# Elastic Constant Matrix: (Units=GPa)
#
#
# Indices 1 2 3 4 5 6 
#
# 1 92.4999 2.1041 33.6772 -7.8293 9.0713 -14.6280
# 2 2.1041 44.1565 7.2173 -8.6931 -2.3314 -12.4957
# 3 33.6772 7.2173 117.2251 -19.6900 9.0176 -11.6082
# 4 -7.8293 -8.6931 -19.6900 35.2181 -6.6270 12.0371
# 5 9.0713 -2.3314 9.0176 -6.6270 41.9521 3.1536
# 6 -14.6280 -12.4957 -11.6082 12.0371 3.1536 43.5340
#
#
#
# Elastic Compliance Matrix: (Units=1/GPa)
#
#
# Indices 1 2 3 4 5 6 
#
# 1 0.012793 0.000809 -0.003242 -0.000593 -0.002419 0.004006
# 2 0.000809 0.025362 -0.000586 0.004332 0.001588 0.006083
# 3 -0.003242 -0.000586 0.010377 0.004683 -0.000843 0.000275
# 4 -0.000593 0.004332 0.004683 0.035738 0.005609 -0.007995
# 5 -0.002419 0.001588 -0.000843 0.005609 0.025816 -0.004003
# 6 0.004006 0.006083 0.000275 -0.007995 -0.004003 0.028636
#
#
# Mechanical properties :
#
#
# Convention : Reuss Voigt Hill
#
# Bulk Modulus (GPa) = 23.53240 37.76429 30.64834
# Shear Modulus (GPa) = 31.46129 38.19971 34.83050
#
# Velocity S-wave (km/s) = 3.65054 4.02253 3.84104
# Velocity P-wave (km/s) = 5.26654 6.12948 5.71433
#
# Compressibility (1/GPa) = 0.04249460
#
# Stress axis : x y z
#
# Youngs Moduli (GPa) = 78.16597 39.42912 96.36841
#
# Poissons Ratio (x) = -0.03191 0.31243
# Poissons Ratio (y) = -0.06327 0.05648
# Poissons Ratio (z) = 0.25342 0.02311
#
# Static dielectric constant tensor:
#      x y z
#    x 3.917930 0.119470 -0.656000 
#    y 0.119470 4.233170 0.267450 
#    z -0.656000 0.267450 3.490650 
# 
# 
# High freq. dielectric constant tensor:
#      x y z
#    x 1.952400 -0.016910 0.012630 
#    y -0.016910 1.910080 -0.000610 
#    z 0.012630 -0.000610 1.950540 
# 
# From -- ./inp_files/452315.got.cif
#   From: 2010.06.25/outbox.cif.g09.slc.cpg/sg2_227_cif.got.tgz:452315.got - 2010.06.27 13:26:56.
