data_PCOD8043853
_publ_section_title
;
Structure prediction by ZEFSAII (Michael W. Deem and Ramdas Pophale) SiO2 
 PCOD8043853
Probable space group: P -1
;
_chemical_formula_sum "Si O2"
_cell_formula_units_Z 16
_cell_length_a 15.754774
_cell_length_b 7.682736
_cell_length_c 11.441276
_cell_angle_alpha 88.093140
_cell_angle_beta 38.546662
_cell_angle_gamma 96.433410
_cell_volume 841.031414
_symmetry_space_group_name_H-M "P -1"
_symmetry_group_IT_number 2
_symmetry_cell_setting 'triclinic'
loop_
_space_group_symop_operation_xyz
x,y,z
-x,-y,-z
loop_
_atom_site_type_symbol
_atom_site_label
_atom_site_fract_x
_atom_site_fract_y
_atom_site_fract_z
Si Si1 0.879915 0.625257 0.760450
Si Si2 0.420388 0.194361 0.517341
Si Si3 0.590051 0.033623 0.017748
Si Si4 0.079466 0.371548 0.554177
Si Si5 0.562723 0.160822 0.593037
Si Si6 0.676354 0.539043 0.530105
Si Si7 0.600045 0.378235 0.130909
Si Si8 0.100978 0.993017 0.285930
O O1 0.856861 0.626160 0.644697
O O2 0.013427 0.542695 0.643238
O O3 0.902162 0.825407 0.786096
O O4 0.745949 0.517194 0.975169
O O5 0.445398 0.203291 0.628950
O O6 0.686724 0.682206 0.408225
O O7 0.570123 0.270495 0.288947
O O8 0.364339 0.989203 0.539008
O O9 0.744211 0.000666 0.833094
O O10 0.604091 0.240574 0.025909
O O11 0.500000 0.000000 0.000000
O O12 0.512337 0.903279 0.204037
O O13 0.201726 0.381993 0.514254
O O14 0.961014 0.190729 0.712854
O O15 0.681094 0.341907 0.482428
O O16 0.527259 0.522597 0.757126
O O17 0.000000 0.000000 0.500000
#
# Coordination Sequence:
#
# PCOD8043853 Si02
#       8
#     2   2   2   2   2   2   2   2
#     4  10  20  36  53  77 111 157 187 223 286 340
#     4   8  20  37  57  89 112 143 194 239 280 338
#     4  11  23  35  59  91 117 145 191 240 280 344
#     4  10  22  35  52  79 118 149 187 232 276 344
#     4  10  19  37  60  86 114 151 181 241 294 321
#     4  10  21  34  59  87 108 149 190 240 278 338
#     4   9  20  36  55  85 113 143 189 243 268 337
#     4  10  22  37  54  76 116 160 184 224 285 341
#
# _framework density 19.024260000000002
#
# number of rings (size 3 to 8) (size 9 to 14) (size 15 to 20)
#    0.750    1.500    1.250    1.125    5.250    1.500 
#    0.000    0.000    0.000    1.500    3.250    0.000 
#    0.000    0.000    0.000    0.000    0.000    0.000 
#
# Total GULP energy -198263.167432 kJ/mol
# GULP energy per Si atom -12391.447964 kJ/mol
# Density = 1.898096 g / cm^3
# Si number density = 19.024260 Si / 1000 Ang^3
#
#
#
# Elastic Constant Matrix: (Units=GPa)
#
#
# Indices 1 2 3 4 5 6 
#
# 1 109.2978 29.6752 30.8853 -5.9262 4.8382 -0.9474
# 2 29.6752 118.1719 16.1019 -8.4642 0.6299 -13.5485
# 3 30.8853 16.1019 42.1155 -1.0218 -3.6452 0.8313
# 4 -5.9262 -8.4642 -1.0218 18.5375 -3.3812 2.0745
# 5 4.8382 0.6299 -3.6452 -3.3812 24.1332 -0.3189
# 6 -0.9474 -13.5485 0.8313 2.0745 -0.3189 20.5841
#
#
#
# Elastic Compliance Matrix: (Units=1/GPa)
#
#
# Indices 1 2 3 4 5 6 
#
# 1 0.012329 -0.001823 -0.008581 0.002070 -0.003437 -0.000548
# 2 -0.001823 0.010247 -0.002607 0.003277 0.000248 0.006440
# 3 -0.008581 -0.002607 0.031638 -0.000656 0.006433 -0.003223
# 4 0.002070 0.003277 -0.000656 0.057811 0.007455 -0.003432
# 5 -0.003437 0.000248 0.006433 0.007455 0.044131 -0.000322
# 6 -0.000548 0.006440 -0.003223 -0.003432 -0.000322 0.053266
#
#
# Mechanical properties :
#
#
# Convention : Reuss Voigt Hill
#
# Bulk Modulus (GPa) = 35.47045 46.98999 41.23022
# Shear Modulus (GPa) = 20.42154 25.51246 22.96700
#
# Velocity S-wave (km/s) = 3.27990 3.66601 3.47832
# Velocity P-wave (km/s) = 5.74709 6.53247 6.15232
#
# Compressibility (1/GPa) = 0.02819248
#
# Stress axis : x y z
#
# Youngs Moduli (GPa) = 81.11190 97.59022 31.60760
#
# Poissons Ratio (x) = 0.17790 0.27121
# Poissons Ratio (y) = 0.14786 0.08240
# Poissons Ratio (z) = 0.69599 0.25441
#
# Static dielectric constant tensor:
#      x y z
#    x 3.273230 -0.316420 0.079330 
#    y -0.316420 4.329680 -0.167900 
#    z 0.079330 -0.167900 3.261290 
# 
# 
# High freq. dielectric constant tensor:
#      x y z
#    x 1.712720 -0.016520 0.000190 
#    y -0.016520 1.765690 -0.003290 
#    z 0.000190 -0.003290 1.708890 
# 
# From -- ./inp_files/444703.got.cif
#   From: 2010.06.25/outbox.cif.g09.slc.cpg/sg2_223_cif.got.tgz:444703.got - 2010.06.27 13:26:56.
