data_PCOD8043304
_publ_section_title
;
Structure prediction by ZEFSAII (Michael W. Deem and Ramdas Pophale) SiO2 
 PCOD8043304
Probable space group: P -1
;
_chemical_formula_sum "Si O2"
_cell_formula_units_Z 16
_cell_length_a 9.170973
_cell_length_b 14.980297
_cell_length_c 9.166258
_cell_angle_alpha 131.997101
_cell_angle_beta 114.683005
_cell_angle_gamma 63.893138
_cell_volume 825.962074
_symmetry_space_group_name_H-M "P -1"
_symmetry_group_IT_number 2
_symmetry_cell_setting 'triclinic'
loop_
_space_group_symop_operation_xyz
x,y,z
-x,-y,-z
loop_
_atom_site_type_symbol
_atom_site_label
_atom_site_fract_x
_atom_site_fract_y
_atom_site_fract_z
Si Si1 0.266815 0.495096 0.781295
Si Si2 0.131176 0.253155 0.440669
Si Si3 0.685579 0.947176 0.484610
Si Si4 0.036032 0.278099 0.107087
Si Si5 0.105850 0.676781 0.337844
Si Si6 0.607931 0.517557 0.862712
Si Si7 0.225218 0.283790 0.922499
Si Si8 0.115000 0.881114 0.348431
O O1 0.233823 0.359050 0.612035
O O2 0.100928 0.595520 0.779490
O O3 0.420158 0.504222 0.748427
O O4 0.322397 0.529880 0.001425
O O5 0.229333 0.127804 0.421286
O O6 0.107786 0.221763 0.229019
O O7 0.951316 0.292324 0.485715
O O8 0.723584 0.859540 0.261595
O O9 0.500000 0.000000 0.500000
O O10 0.735533 0.075291 0.614705
O O11 0.966884 0.177214 0.881037
O O12 0.188817 0.301258 0.099238
O O13 0.264319 0.562393 0.287181
O O14 0.167293 0.785367 0.398532
O O15 0.945845 0.648425 0.157054
O O16 0.622268 0.657976 0.995666
O O17 0.000000 0.000000 0.500000
#
# Coordination Sequence:
#
# PCOD8043304 Si02
#       8
#     2   2   2   2   2   2   2   2
#     4  11  22  35  60  95 120 148 198 250 293 346
#     4  11  23  41  58  90 120 159 193 239 307 348
#     4  11  24  38  64  86 117 151 198 253 285 346
#     4  11  23  39  63  84 124 158 192 244 294 360
#     4  10  19  36  61  84 115 154 198 242 277 354
#     4  11  20  34  64  91 115 150 204 249 287 338
#     4  10  19  38  59  86 115 156 198 234 290 352
#     4  11  20  40  62  87 110 153 209 237 284 344
#
# _framework density 19.371348999999999
#
# number of rings (size 3 to 8) (size 9 to 14) (size 15 to 20)
#    0.000    1.250    8.750    1.500    3.500    0.500 
#    0.000    3.125    0.000    0.000    0.000    0.000 
#    0.000    0.000    0.000    0.000    0.000    0.000 
#
# Total GULP energy -198316.833103 kJ/mol
# GULP energy per Si atom -12394.802069 kJ/mol
# Density = 1.932726 g / cm^3
# Si number density = 19.371349 Si / 1000 Ang^3
#
#
#
# Elastic Constant Matrix: (Units=GPa)
#
#
# Indices 1 2 3 4 5 6 
#
# 1 140.6160 40.5745 35.2343 2.6414 -1.7632 17.3544
# 2 40.5745 59.6026 28.3744 1.5421 1.0202 20.5364
# 3 35.2343 28.3744 67.0407 -2.0677 -11.5522 11.6632
# 4 2.6414 1.5421 -2.0677 30.8900 16.0934 -1.1877
# 5 -1.7632 1.0202 -11.5522 16.0934 31.4411 12.6310
# 6 17.3544 20.5364 11.6632 -1.1877 12.6310 36.5299
#
#
#
# Elastic Compliance Matrix: (Units=1/GPa)
#
#
# Indices 1 2 3 4 5 6 
#
# 1 0.009291 -0.004615 -0.002575 -0.001267 0.000918 -0.001356
# 2 -0.004615 0.027311 -0.006553 -0.003548 0.003201 -0.012291
# 3 -0.002575 -0.006553 0.022617 -0.005650 0.014254 -0.007426
# 4 -0.001267 -0.003548 -0.005650 0.051715 -0.035938 0.018508
# 5 0.000918 0.003201 0.014254 -0.035938 0.068032 -0.031478
# 6 -0.001356 -0.012291 -0.007426 0.018508 -0.031478 0.048786
#
#
# Mechanical properties :
#
#
# Convention : Reuss Voigt Hill
#
# Bulk Modulus (GPa) = 31.51281 52.84731 42.18006
# Shear Modulus (GPa) = 18.81003 30.64395 24.72699
#
# Velocity S-wave (km/s) = 3.11950 3.98165 3.57665
# Velocity P-wave (km/s) = 5.41093 6.96265 6.23525
#
# Compressibility (1/GPa) = 0.03173312
#
# Stress axis : x y z
#
# Youngs Moduli (GPa) = 107.63104 36.61518 44.21458
#
# Poissons Ratio (x) = 0.16897 0.11385
# Poissons Ratio (y) = 0.49669 0.28975
# Poissons Ratio (z) = 0.27713 0.23995
#
# Static dielectric constant tensor:
#      x y z
#    x 3.437850 -0.008330 -0.234250 
#    y -0.008330 3.068130 0.062560 
#    z -0.234250 0.062560 3.404830 
# 
# 
# High freq. dielectric constant tensor:
#      x y z
#    x 1.768020 0.022000 -0.014030 
#    y 0.022000 1.737040 0.021630 
#    z -0.014030 0.021630 1.730880 
# 
# From -- ./inp_files/209079.got.cif
#   From: 2010.06.25/outbox.cif.g09.slc.cpg/sg2_105_cif.got.tgz:209079.got - 2010.06.27 13:26:56.
