data_PCOD8043976
_publ_section_title
;
Structure prediction by ZEFSAII (Michael W. Deem and Ramdas Pophale) SiO2 
 PCOD8043976
Probable space group: P -1
;
_chemical_formula_sum "Si O2"
_cell_formula_units_Z 16
_cell_length_a 15.507835
_cell_length_b 15.177605
_cell_length_c 9.147862
_cell_angle_alpha 57.564226
_cell_angle_beta 66.148310
_cell_angle_gamma 26.120917
_cell_volume 782.612559
_symmetry_space_group_name_H-M "P -1"
_symmetry_group_IT_number 2
_symmetry_cell_setting 'triclinic'
loop_
_space_group_symop_operation_xyz
x,y,z
-x,-y,-z
loop_
_atom_site_type_symbol
_atom_site_label
_atom_site_fract_x
_atom_site_fract_y
_atom_site_fract_z
Si Si1 0.285399 0.934568 0.207205
Si Si2 0.825341 0.364841 0.123815
Si Si3 0.308836 0.199329 0.356266
Si Si4 0.165156 0.552871 0.260546
Si Si5 0.512467 0.836379 0.934422
Si Si6 0.494385 0.466449 0.697466
Si Si7 0.755639 0.949135 0.345508
Si Si8 0.483029 0.699189 0.588067
O O1 0.345982 0.784910 0.179338
O O2 0.417218 0.794545 0.385668
O O3 0.338793 0.993878 0.036815
O O4 0.052842 0.153828 0.210847
O O5 0.728448 0.352072 0.261126
O O6 0.811207 0.385582 0.939646
O O7 0.693649 0.586039 0.087116
O O8 0.169285 0.430752 0.303185
O O9 0.388052 0.146384 0.181332
O O10 0.196062 0.198951 0.451001
O O11 0.500000 0.000000 0.500000
O O12 0.332438 0.407014 0.399363
O O13 0.951478 0.785529 0.268229
O O14 0.430199 0.884417 0.786839
O O15 0.500000 0.500000 0.500000
O O16 0.548465 0.513581 0.718996
O O17 0.700227 0.099814 0.354483
#
# Coordination Sequence:
#
# PCOD8043976 Si02
#       8
#     2   2   2   2   2   2   2   2
#     4  10  21  39  62  81 114 158 189 229 292 343
#     4  10  19  37  62  82 109 153 195 227 280 348
#     4   9  17  35  61  85 113 151 189 230 281 343
#     4  11  21  36  61  89 115 148 190 235 285 334
#     4   9  18  36  59  84 112 148 192 231 278 343
#     4   9  22  39  58  80 118 153 191 230 290 341
#     4  11  20  36  60  87 115 150 193 235 280 335
#     4  11  23  38  55  88 118 143 192 249 277 329
#
# _framework density 20.444344999999998
#
# number of rings (size 3 to 8) (size 9 to 14) (size 15 to 20)
#    0.000    2.000    5.000    0.375    0.000    6.500 
#    0.000    1.875    0.000    3.750    0.000    0.000 
#    0.000    0.000    0.000    0.000    0.000    0.000 
#
# Total GULP energy -198210.895039 kJ/mol
# GULP energy per Si atom -12388.180940 kJ/mol
# Density = 2.039781 g / cm^3
# Si number density = 20.444345 Si / 1000 Ang^3
#
#
#
# Elastic Constant Matrix: (Units=GPa)
#
#
# Indices 1 2 3 4 5 6 
#
# 1 50.1815 26.3846 23.6007 2.4776 -2.7885 -5.0585
# 2 26.3846 106.7315 21.6182 8.6177 -8.6742 -7.9821
# 3 23.6007 21.6182 89.2872 10.0424 -11.8665 -10.6478
# 4 2.4776 8.6177 10.0424 32.3032 -10.6332 -2.4051
# 5 -2.7885 -8.6742 -11.8665 -10.6332 27.1997 4.9833
# 6 -5.0585 -7.9821 -10.6478 -2.4051 4.9833 28.9830
#
#
#
# Elastic Compliance Matrix: (Units=1/GPa)
#
#
# Indices 1 2 3 4 5 6 
#
# 1 0.025287 -0.005213 -0.005551 0.000807 -0.001404 0.001247
# 2 -0.005213 0.011196 -0.000733 -0.001658 0.001801 0.001457
# 3 -0.005551 -0.000733 0.013979 -0.002223 0.003855 0.003117
# 4 0.000807 -0.001658 -0.002223 0.036218 0.012803 -0.000328
# 5 -0.001404 0.001801 0.003855 0.012803 0.044794 -0.004972
# 6 0.001247 0.001457 0.003117 -0.000328 -0.004972 0.037095
#
#
# Mechanical properties :
#
#
# Convention : Reuss Voigt Hill
#
# Bulk Modulus (GPa) = 36.40618 43.26749 39.83683
# Shear Modulus (GPa) = 24.91073 29.33695 27.12384
#
# Velocity S-wave (km/s) = 3.49444 3.79220 3.64636
# Velocity P-wave (km/s) = 5.84188 6.35483 6.10375
#
# Compressibility (1/GPa) = 0.02746786
#
# Stress axis : x y z
#
# Youngs Moduli (GPa) = 39.54641 89.32049 71.53749
#
# Poissons Ratio (x) = 0.46561 0.39707
# Poissons Ratio (y) = 0.20615 0.05246
# Poissons Ratio (z) = 0.21950 0.06550
#
# Static dielectric constant tensor:
#      x y z
#    x 4.008040 0.171010 -0.671680 
#    y 0.171010 3.899860 0.038360 
#    z -0.671680 0.038360 4.063390 
# 
# 
# High freq. dielectric constant tensor:
#      x y z
#    x 1.757630 -0.009110 -0.024650 
#    y -0.009110 1.803330 0.010310 
#    z -0.024650 0.010310 1.804720 
# 
# From -- ./inp_files/294197.got.cif
#   From: 2010.06.25/outbox.cif.g09.slc.cpg/sg2_148_cif.got.tgz:294197.got - 2010.06.27 13:26:56.
