data_PCOD8043211
_publ_section_title
;
Structure prediction by ZEFSAII (Michael W. Deem and Ramdas Pophale) SiO2 
 PCOD8043211
Probable space group: P -1
;
_chemical_formula_sum "Si O2"
_cell_formula_units_Z 16
_cell_length_a 14.426381
_cell_length_b 8.701666
_cell_length_c 11.642403
_cell_angle_alpha 119.580441
_cell_angle_beta 71.568257
_cell_angle_gamma 58.766582
_cell_volume 694.207721
_symmetry_space_group_name_H-M "P -1"
_symmetry_group_IT_number 2
_symmetry_cell_setting 'triclinic'
loop_
_space_group_symop_operation_xyz
x,y,z
-x,-y,-z
loop_
_atom_site_type_symbol
_atom_site_label
_atom_site_fract_x
_atom_site_fract_y
_atom_site_fract_z
Si Si1 0.040425 0.645349 0.038025
Si Si2 0.325792 0.273890 0.605050
Si Si3 0.260889 0.119587 0.202541
Si Si4 0.424118 0.802312 0.254849
Si Si5 0.776817 0.380933 0.869953
Si Si6 0.990075 0.248912 0.374021
Si Si7 0.397540 0.449629 0.226266
Si Si8 0.226809 0.686279 0.624852
O O1 0.119044 0.602962 0.113424
O O2 0.167932 0.508966 0.837850
O O3 0.854418 0.001232 0.212135
O O4 0.000000 0.500000 0.000000
O O5 0.339268 0.443795 0.595648
O O6 0.500000 0.000000 0.500000
O O7 0.310615 0.126722 0.473363
O O8 0.181136 0.426852 0.377235
O O9 0.102109 0.236410 0.267749
O O10 0.354043 0.880268 0.182863
O O11 0.409874 0.913655 0.974086
O O12 0.399248 0.657032 0.278553
O O13 0.622228 0.565344 0.085891
O O14 0.706636 0.508232 0.814420
O O15 0.904413 0.026054 0.679395
O O16 0.933870 0.210132 0.276010
O O17 0.324521 0.527607 0.408603
#
# Coordination Sequence:
#
# PCOD8043211 Si02
#       8
#     2   2   2   2   2   2   2   2
#     4  11  25  48  72 101 135 182 239 285 334 399
#     4  12  25  48  75  92 133 193 238 279 339 409
#     4  10  19  36  66  97 146 170 225 264 342 421
#     4  11  19  41  70 101 131 184 228 272 336 410
#     4  10  20  40  71  99 140 180 224 274 347 411
#     4  10  19  36  60 104 135 175 216 274 351 400
#     4  11  22  41  68 107 140 174 222 280 350 417
#     4  11  26  45  68 101 143 175 227 293 348 402
#
# _framework density 23.047855999999999
#
# number of rings (size 3 to 8) (size 9 to 14) (size 15 to 20)
#    0.000    1.250    5.000    1.875    0.000    2.500 
#    2.250    5.000    0.000    0.000    0.000    0.000 
#    0.000    0.000    0.000    0.000    0.000    0.000 
#
# Total GULP energy -198317.090441 kJ/mol
# GULP energy per Si atom -12394.818153 kJ/mol
# Density = 2.299540 g / cm^3
# Si number density = 23.047856 Si / 1000 Ang^3
#
#
#
# Elastic Constant Matrix: (Units=GPa)
#
#
# Indices 1 2 3 4 5 6 
#
# 1 98.7833 43.0944 28.9809 5.5874 4.3732 14.1840
# 2 43.0944 116.4151 70.4894 2.9078 -3.5202 7.8159
# 3 28.9809 70.4894 153.9956 12.9325 1.4663 2.0912
# 4 5.5874 2.9078 12.9325 43.2231 3.0352 2.6048
# 5 4.3732 -3.5202 1.4663 3.0352 27.7333 10.9478
# 6 14.1840 7.8159 2.0912 2.6048 10.9478 23.3496
#
#
#
# Elastic Compliance Matrix: (Units=1/GPa)
#
#
# Indices 1 2 3 4 5 6 
#
# 1 0.013006 -0.004115 -0.000402 -0.000903 0.000083 -0.006426
# 2 -0.004115 0.013885 -0.005674 0.001234 0.004023 -0.003664
# 3 -0.000402 -0.005674 0.009351 -0.002381 -0.001854 0.002441
# 4 -0.000903 0.001234 -0.002381 0.024089 -0.001581 -0.001597
# 5 0.000083 0.004023 -0.001854 -0.001581 0.045701 -0.022482
# 6 -0.006426 -0.003664 0.002441 -0.001597 -0.022482 0.058458
#
#
# Mechanical properties :
#
#
# Convention : Reuss Voigt Hill
#
# Bulk Modulus (GPa) = 63.04461 72.70260 67.87360
# Shear Modulus (GPa) = 26.29387 33.96984 30.13185
#
# Velocity S-wave (km/s) = 3.38129 3.84328 3.61967
# Velocity P-wave (km/s) = 6.53126 7.16290 6.85436
#
# Compressibility (1/GPa) = 0.01586178
#
# Stress axis : x y z
#
# Youngs Moduli (GPa) = 76.88648 72.01851 106.94259
#
# Poissons Ratio (x) = 0.29634 0.04298
# Poissons Ratio (y) = 0.31637 0.60675
# Poissons Ratio (z) = 0.03090 0.40860
#
# Static dielectric constant tensor:
#      x y z
#    x 4.281560 -0.055000 0.044800 
#    y -0.055000 3.998410 0.373050 
#    z 0.044800 0.373050 4.595750 
# 
# 
# High freq. dielectric constant tensor:
#      x y z
#    x 1.905870 0.007070 -0.000670 
#    y 0.007070 1.893060 0.024180 
#    z -0.000670 0.024180 1.923490 
# 
# From -- ./inp_files/398940.got.cif
#   From: 2010.06.25/outbox.cif.g09.slc.cpg/sg2_200_cif.got.tgz:398940.got - 2010.06.27 13:26:56.
