data_PCOD8043605
_publ_section_title
;
Structure prediction by ZEFSAII (Michael W. Deem and Ramdas Pophale) SiO2 
 PCOD8043605
Probable space group: P -1
;
_chemical_formula_sum "Si O2"
_cell_formula_units_Z 16
_cell_length_a 18.132234
_cell_length_b 9.063911
_cell_length_c 7.495247
_cell_angle_alpha 60.178567
_cell_angle_beta 134.691788
_cell_angle_gamma 127.881521
_cell_volume 686.465256
_symmetry_space_group_name_H-M "P -1"
_symmetry_group_IT_number 2
_symmetry_cell_setting 'triclinic'
loop_
_space_group_symop_operation_xyz
x,y,z
-x,-y,-z
loop_
_atom_site_type_symbol
_atom_site_label
_atom_site_fract_x
_atom_site_fract_y
_atom_site_fract_z
Si Si1 0.321151 0.110956 0.843950
Si Si2 0.733896 0.308437 0.106065
Si Si3 0.124004 0.237521 0.448006
Si Si4 0.514363 0.821090 0.204039
Si Si5 0.039887 0.402469 0.781952
Si Si6 0.697190 0.951795 0.747731
Si Si7 0.827696 0.364932 0.627359
Si Si8 0.076365 0.089873 0.845439
O O1 0.221650 0.173987 0.600899
O O2 0.430753 0.244764 0.829387
O O3 0.275582 0.897639 0.826399
O O4 0.354669 0.129746 0.097851
O O5 0.826144 0.457827 0.038042
O O6 0.773386 0.361849 0.343863
O O7 0.613578 0.328150 0.868382
O O8 0.168289 0.459476 0.356268
O O9 0.084145 0.195176 0.609060
O O10 0.016560 0.126718 0.200929
O O11 0.594926 0.864635 0.486571
O O12 0.500000 0.000000 0.000000
O O13 0.030266 0.195166 0.844819
O O14 0.000000 0.500000 0.500000
O O15 0.957156 0.380688 0.821885
O O16 0.746795 0.177285 0.708601
O O17 0.799605 0.896946 0.897001
#
# Coordination Sequence:
#
# PCOD8043605 Si02
#       8
#     2   2   2   2   2   2   2   2
#     4  10  22  41  69  93 130 174 215 268 328 376
#     4  10  20  40  68  92 123 175 221 259 320 392
#     4  10  20  37  63  93 135 175 205 265 335 391
#     4  10  21  43  69  92 127 177 222 265 325 386
#     4  10  19  36  65  93 128 175 210 260 334 385
#     4  11  24  40  66 102 131 166 226 272 312 394
#     4  11  21  38  66  98 134 168 217 264 329 398
#     4  10  21  36  61  95 133 170 217 263 323 391
#
# _framework density 23.307807
#
# number of rings (size 3 to 8) (size 9 to 14) (size 15 to 20)
#    0.000    1.750    5.000    1.500    3.500    3.000 
#    0.000    1.250    0.000    0.000    0.000    0.875 
#    0.000    0.000    0.000    0.000    0.000    0.000 
#
# Total GULP energy -198366.572805 kJ/mol
# GULP energy per Si atom -12397.910800 kJ/mol
# Density = 2.325476 g / cm^3
# Si number density = 23.307807 Si / 1000 Ang^3
#
#
#
# Elastic Constant Matrix: (Units=GPa)
#
#
# Indices 1 2 3 4 5 6 
#
# 1 137.2359 35.4527 65.4968 18.5870 29.1721 -7.1333
# 2 35.4527 95.8454 46.3509 5.9484 13.8866 -23.4817
# 3 65.4968 46.3509 137.9949 12.2895 21.7392 6.0750
# 4 18.5870 5.9484 12.2895 17.8162 9.2388 11.6885
# 5 29.1721 13.8866 21.7392 9.2388 31.5276 -1.0241
# 6 -7.1333 -23.4817 6.0750 11.6885 -1.0241 33.6134
#
#
#
# Elastic Compliance Matrix: (Units=1/GPa)
#
#
# Indices 1 2 3 4 5 6 
#
# 1 0.012608 0.001582 -0.004966 -0.014130 -0.004491 0.009455
# 2 0.001582 0.019273 -0.006664 -0.017615 0.000491 0.021144
# 3 -0.004966 -0.006664 0.012167 0.007902 -0.003525 -0.010763
# 4 -0.014130 -0.017615 0.007902 0.122206 -0.022372 -0.059909
# 5 -0.004491 0.000491 -0.003525 -0.022372 0.044942 0.009176
# 6 0.009455 0.021144 -0.010763 -0.059909 0.009176 0.069585
#
#
# Mechanical properties :
#
#
# Convention : Reuss Voigt Hill
#
# Bulk Modulus (GPa) = 41.74855 73.96412 57.85633
# Shear Modulus (GPa) = 16.18850 31.50982 23.84916
#
# Velocity S-wave (km/s) = 2.63830 3.68081 3.20226
# Velocity P-wave (km/s) = 5.21838 7.06166 6.20880
#
# Compressibility (1/GPa) = 0.02395293
#
# Stress axis : x y z
#
# Youngs Moduli (GPa) = 79.31534 51.88489 82.18720
#
# Poissons Ratio (x) = -0.08208 0.40813
# Poissons Ratio (y) = -0.12547 0.54769
# Poissons Ratio (z) = 0.39387 0.34576
#
# Static dielectric constant tensor:
#      x y z
#    x 4.889390 0.281320 0.385370 
#    y 0.281320 4.144860 0.104750 
#    z 0.385370 0.104750 4.288990 
# 
# 
# High freq. dielectric constant tensor:
#      x y z
#    x 1.928610 -0.002880 0.004150 
#    y -0.002880 1.903510 -0.004230 
#    z 0.004150 -0.004230 1.924020 
# 
# From -- ./inp_files/341769.got.cif
#   From: 2010.06.25/outbox.cif.g09.slc.cpg/sg2_171_cif.got.tgz:341769.got - 2010.06.27 13:26:56.
