data_PCOD8043116
_publ_section_title
;
Structure prediction by ZEFSAII (Michael W. Deem and Ramdas Pophale) SiO2 
 PCOD8043116
Probable space group: P -1
;
_chemical_formula_sum "Si O2"
_cell_formula_units_Z 12
_cell_length_a 14.521769
_cell_length_b 18.026203
_cell_length_c 8.681897
_cell_angle_alpha 114.988263
_cell_angle_beta 56.421162
_cell_angle_gamma 159.431834
_cell_volume 628.880518
_symmetry_space_group_name_H-M "P -1"
_symmetry_group_IT_number 2
_symmetry_cell_setting 'triclinic'
loop_
_space_group_symop_operation_xyz
x,y,z
-x,-y,-z
loop_
_atom_site_type_symbol
_atom_site_label
_atom_site_fract_x
_atom_site_fract_y
_atom_site_fract_z
Si Si1 0.546679 0.233943 0.749684
Si Si2 0.083546 0.667105 0.446597
Si Si3 0.753798 0.380756 0.211519
Si Si4 0.682896 0.839441 0.802289
Si Si5 0.792161 0.737065 0.518835
Si Si6 0.240784 0.956313 0.503693
O O1 0.645929 0.212329 0.696456
O O2 0.851798 0.492616 0.648501
O O3 0.313810 0.066303 0.676101
O O4 0.372450 0.163485 0.979779
O O5 0.225598 0.854434 0.493879
O O6 0.905844 0.540782 0.340550
O O7 0.600472 0.338158 0.200093
O O8 0.516961 0.152880 0.300872
O O9 0.000000 0.500000 0.000000
O O10 0.718500 0.766550 0.713183
O O11 0.980599 0.086307 0.674932
O O12 0.500000 0.500000 0.500000
O O13 0.932497 0.769962 0.540436
#
# Coordination Sequence:
#
# PCOD8043116 Si02
#       6
#     2   2   2   2   2   2
#     4  10  21  37  57  85 116 152 181 229 290 333
#     4  10  20  37  57  83 123 148 180 229 282 343
#     4  10  19  36  58  86 113 146 186 229 285 331
#     4  10  21  39  60  83 114 147 190 233 279 333
#     4  10  22  41  59  80 111 151 194 237 273 326
#     4  10  22  37  57  85 115 149 190 230 278 337
#
# _framework density 19.081524999999999
#
# number of rings (size 3 to 8) (size 9 to 14) (size 15 to 20)
#    0.000    2.000    1.667    1.500    0.000    4.000 
#    3.000    1.667    0.000    0.000    0.000    0.000 
#    0.000    0.000    0.000    0.000    0.000    0.000 
#
# Total GULP energy -148832.174243 kJ/mol
# GULP energy per Si atom -12402.681187 kJ/mol
# Density = 1.903809 g / cm^3
# Si number density = 19.081525 Si / 1000 Ang^3
#
#
#
# Elastic Constant Matrix: (Units=GPa)
#
#
# Indices 1 2 3 4 5 6 
#
# 1 93.9326 38.1368 46.8986 0.9531 -4.2073 0.1597
# 2 38.1368 86.5844 39.6996 2.5215 -3.3529 10.1496
# 3 46.8986 39.6996 149.0473 7.5018 -7.4889 -0.6259
# 4 0.9531 2.5215 7.5018 17.9319 5.6022 -2.9605
# 5 -4.2073 -3.3529 -7.4889 5.6022 23.5190 3.2815
# 6 0.1597 10.1496 -0.6259 -2.9605 3.2815 40.8740
#
#
#
# Elastic Compliance Matrix: (Units=1/GPa)
#
#
# Indices 1 2 3 4 5 6 
#
# 1 0.014271 -0.004982 -0.003212 0.001384 0.000322 0.001207
# 2 -0.004982 0.015442 -0.002375 -0.002106 0.001633 -0.004135
# 3 -0.003212 -0.002375 0.008692 -0.003958 0.002766 0.000227
# 4 0.001384 -0.002106 -0.003958 0.064191 -0.017512 0.006512
# 5 0.000322 0.001633 0.002766 -0.017512 0.048634 -0.005537
# 6 0.001207 -0.004135 0.000227 0.006512 -0.005537 0.026407
#
#
# Mechanical properties :
#
#
# Convention : Reuss Voigt Hill
#
# Bulk Modulus (GPa) = 57.91503 64.33713 61.12608
# Shear Modulus (GPa) = 24.44643 30.12027 27.28335
#
# Velocity S-wave (km/s) = 3.58321 3.97735 3.78541
# Velocity P-wave (km/s) = 6.89467 7.40828 7.15608
#
# Compressibility (1/GPa) = 0.01726668
#
# Stress axis : x y z
#
# Youngs Moduli (GPa) = 70.07408 64.75846 115.05486
#
# Poissons Ratio (x) = 0.32265 0.36952
# Poissons Ratio (y) = 0.34913 0.27322
# Poissons Ratio (z) = 0.22506 0.15378
#
# Static dielectric constant tensor:
#      x y z
#    x 3.498790 0.110960 0.054180 
#    y 0.110960 3.429590 -0.053260 
#    z 0.054180 -0.053260 3.430710 
# 
# 
# High freq. dielectric constant tensor:
#      x y z
#    x 1.748510 0.010610 0.001790 
#    y 0.010610 1.743740 0.000430 
#    z 0.001790 0.000430 1.736350 
# 
# From -- ./inp_files/18442.got.cif
#   From: 2010.06.25/outbox.cif.g09.slc.cpg/sg2_10_cif.got.tgz:18442.got - 2010.06.27 13:26:56.
