data_PCOD8043149
_publ_section_title
;
Structure prediction by ZEFSAII (Michael W. Deem and Ramdas Pophale) SiO2 
 PCOD8043149
Probable space group: P -1
;
_chemical_formula_sum "Si O2"
_cell_formula_units_Z 16
_cell_length_a 18.230754
_cell_length_b 14.363172
_cell_length_c 13.557225
_cell_angle_alpha 158.289697
_cell_angle_beta 144.749040
_cell_angle_gamma 38.168350
_cell_volume 751.606588
_symmetry_space_group_name_H-M "P -1"
_symmetry_group_IT_number 2
_symmetry_cell_setting 'triclinic'
loop_
_space_group_symop_operation_xyz
x,y,z
-x,-y,-z
loop_
_atom_site_type_symbol
_atom_site_label
_atom_site_fract_x
_atom_site_fract_y
_atom_site_fract_z
Si Si1 0.664276 0.126022 0.879017
Si Si2 0.057057 0.366583 0.542113
Si Si3 0.152067 0.848246 0.071908
Si Si4 0.335148 0.736433 0.339311
Si Si5 0.580516 0.634798 0.374155
Si Si6 0.008565 0.254147 0.699543
Si Si7 0.169309 0.644226 0.575967
Si Si8 0.757866 0.745138 0.186475
O O1 0.730265 0.120757 0.840007
O O2 0.581740 0.891978 0.565310
O O3 0.570911 0.393887 0.053619
O O4 0.774576 0.114478 0.074036
O O5 0.179253 0.300679 0.682158
O O6 0.932481 0.452049 0.555169
O O7 0.048999 0.104468 0.214720
O O8 0.082377 0.597882 0.722496
O O9 0.209286 0.790208 0.186130
O O10 0.464434 0.668514 0.354461
O O11 0.340003 0.991872 0.660562
O O12 0.318876 0.495675 0.155209
O O13 0.713870 0.583808 0.532157
O O14 0.141459 0.229369 0.763776
O O15 0.889739 0.279738 0.519283
O O16 0.000000 0.000000 0.500000
O O17 0.000000 0.500000 0.000000
#
# Coordination Sequence:
#
# PCOD8043149 Si02
#       8
#     2   2   2   2   2   2   2   2
#     4  10  22  35  51  82 113 151 188 228 273 318
#     4   9  19  33  54  75 112 147 181 235 272 323
#     4  10  20  33  52  83 107 150 197 229 269 301
#     4  10  19  36  59  78 114 152 192 225 253 319
#     4  10  22  36  54  79 108 164 180 224 275 311
#     4  11  23  39  67  91 109 136 173 231 284 337
#     4   9  24  38  56  81 117 140 186 218 287 342
#     4   9  19  36  57  86 109 139 183 227 276 320
#
# _framework density 21.287731000000001
#
# number of rings (size 3 to 8) (size 9 to 14) (size 15 to 20)
#    0.750    1.500    0.000    2.250    3.500    4.000 
#    0.000    0.000    0.000    4.500    0.000    0.000 
#    0.000    0.000    0.000    0.000    0.000    0.000 
#
# Total GULP energy -198338.181269 kJ/mol
# GULP energy per Si atom -12396.136329 kJ/mol
# Density = 2.123928 g / cm^3
# Si number density = 21.287731 Si / 1000 Ang^3
#
#
#
# Elastic Constant Matrix: (Units=GPa)
#
#
# Indices 1 2 3 4 5 6 
#
# 1 -10.1670 62.2948 115.0940 14.6770 18.1072 67.4343
# 2 62.2948 59.0818 23.9093 34.3502 1.1671 -25.7382
# 3 115.0940 23.9093 134.3227 67.1560 15.4585 -35.0022
# 4 14.6770 34.3502 67.1560 26.2995 3.4991 9.9768
# 5 18.1072 1.1671 15.4585 3.4991 43.7788 0.7349
# 6 67.4343 -25.7382 -35.0022 9.9768 0.7349 -9.7567
#
#
#
# Elastic Compliance Matrix: (Units=1/GPa)
#
#
# Indices 1 2 3 4 5 6 
#
# 1 0.015438 0.007980 0.009679 -0.044684 -0.006524 0.004743
# 2 0.007980 0.017815 -0.001498 -0.020747 -0.001457 -0.007790
# 3 0.009679 -0.001498 0.013484 -0.032744 -0.005915 -0.011456
# 4 -0.044684 -0.020747 -0.032744 0.160464 0.017289 0.028747
# 5 -0.006524 -0.001457 -0.005915 0.017289 0.026292 -0.000364
# 6 0.004743 -0.007790 -0.011456 0.028747 -0.000364 0.021305
#
#
# Mechanical properties :
#
#
# Convention : Reuss Voigt Hill
#
# Bulk Modulus (GPa) = 12.64885 65.09264 38.87075
# Shear Modulus (GPa) = 20.09390 10.86027 15.47708
#
# Velocity S-wave (km/s) = 3.07566 2.26114 2.69930
# Velocity P-wave (km/s) = 4.30902 6.12053 5.29285
#
# Compressibility (1/GPa) = 0.07905858
#
# Stress axis : x y z
#
# Youngs Moduli (GPa) = 64.77544 56.13116 74.15950
#
# Poissons Ratio (x) = -0.44794 -0.71776
# Poissons Ratio (y) = -0.51693 0.11113
# Poissons Ratio (z) = -0.62693 0.08411
#
# Static dielectric constant tensor:
#      x y z
#    x 3.563660 -0.067870 0.012720 
#    y -0.067870 3.662370 0.236910 
#    z 0.012720 0.236910 4.200030 
# 
# 
# High freq. dielectric constant tensor:
#      x y z
#    x 1.822010 -0.015200 0.007870 
#    y -0.015200 1.820330 0.018430 
#    z 0.007870 0.018430 1.849860 
# 
# From -- ./inp_files/110519.got.cif
#   From: 2010.06.25/outbox.cif.g09.slc.cpg/sg2_56_cif.got.tgz:110519.got - 2010.06.27 13:26:56.
