data_PCOD8043993
_publ_section_title
;
Structure prediction by ZEFSAII (Michael W. Deem and Ramdas Pophale) SiO2 
 PCOD8043993
Probable space group: P -1
;
_chemical_formula_sum "Si O2"
_cell_formula_units_Z 16
_cell_length_a 11.803321
_cell_length_b 11.985542
_cell_length_c 14.159635
_cell_angle_alpha 70.760283
_cell_angle_beta 130.221545
_cell_angle_gamma 68.271845
_cell_volume 849.464749
_symmetry_space_group_name_H-M "P -1"
_symmetry_group_IT_number 2
_symmetry_cell_setting 'triclinic'
loop_
_space_group_symop_operation_xyz
x,y,z
-x,-y,-z
loop_
_atom_site_type_symbol
_atom_site_label
_atom_site_fract_x
_atom_site_fract_y
_atom_site_fract_z
Si Si1 0.620613 0.784079 0.218736
Si Si2 0.920238 0.755593 0.522587
Si Si3 0.724003 0.448580 0.388978
Si Si4 0.013521 0.577549 0.119830
Si Si5 0.138427 0.241254 0.812482
Si Si6 0.525763 0.125388 0.321701
Si Si7 0.665892 0.504153 0.831224
Si Si8 0.919918 0.727585 0.737651
O O1 0.814284 0.710944 0.420673
O O2 0.603981 0.655405 0.259020
O O3 0.723755 0.748035 0.179780
O O4 0.341907 0.014521 0.020114
O O5 0.033042 0.641136 0.716050
O O6 0.139131 0.675304 0.601011
O O7 0.694138 0.995565 0.353610
O O8 0.500814 0.502541 0.275271
O O9 0.925209 0.309904 0.620131
O O10 0.992864 0.614332 0.209107
O O11 0.200997 0.550230 0.180998
O O12 0.129084 0.372473 0.220639
O O13 0.745499 0.758977 0.872420
O O14 0.508804 0.275532 0.288964
O O15 0.661466 0.970598 0.526110
O O16 0.875395 0.338169 0.069088
#
# Coordination Sequence:
#
# PCOD8043993 Si02
#       8
#     2   2   2   2   2   2   2   2
#     4  10  19  37  62  88 105 138 191 242 274 319
#     4   9  18  38  63  84 103 139 191 241 275 310
#     4  11  23  37  53  86 123 144 177 223 284 349
#     4  11  20  37  60  83 110 144 193 232 267 325
#     4  10  20  36  62  83 107 146 188 237 275 308
#     4   9  20  38  60  85 104 140 198 232 271 315
#     4  11  25  36  51  85 123 152 176 216 279 349
#     4   9  19  37  60  81 103 148 186 238 269 303
#
# _framework density 18.835388999999999
#
# number of rings (size 3 to 8) (size 9 to 14) (size 15 to 20)
#    0.750    1.250    1.250    4.500    0.000    4.500 
#    0.000    0.625    0.000    0.000    0.000    0.000 
#    0.000    0.000    0.000    0.000    0.000    0.000 
#
# Total GULP energy -198376.806051 kJ/mol
# GULP energy per Si atom -12398.550378 kJ/mol
# Density = 1.879252 g / cm^3
# Si number density = 18.835389 Si / 1000 Ang^3
#
#
#
# Elastic Constant Matrix: (Units=GPa)
#
#
# Indices 1 2 3 4 5 6 
#
# 1 83.7059 30.9218 31.6347 11.8072 12.0762 11.3726
# 2 30.9218 61.2928 5.1869 0.2429 4.7389 1.2266
# 3 31.6347 5.1869 80.1283 4.4920 -9.6457 14.2189
# 4 11.8072 0.2429 4.4920 31.3747 1.4491 -1.3089
# 5 12.0762 4.7389 -9.6457 1.4491 22.9726 6.7959
# 6 11.3726 1.2266 14.2189 -1.3089 6.7959 28.0456
#
#
#
# Elastic Compliance Matrix: (Units=1/GPa)
#
#
# Indices 1 2 3 4 5 6 
#
# 1 0.021446 -0.009068 -0.008825 -0.006211 -0.012388 -0.001114
# 2 -0.009068 0.020648 0.001801 0.003049 0.000516 0.001878
# 3 -0.008825 0.001801 0.019568 -0.000639 0.015547 -0.010218
# 4 -0.006211 0.003049 -0.000639 0.034524 -0.001172 0.004604
# 5 -0.012388 0.000516 0.015547 -0.001172 0.061839 -0.017921
# 6 -0.001114 0.001878 -0.010218 0.004604 -0.017921 0.045764
#
#
# Mechanical properties :
#
#
# Convention : Reuss Voigt Hill
#
# Bulk Modulus (GPa) = 33.92321 40.06821 36.99571
# Shear Modulus (GPa) = 20.34179 26.97082 23.65630
#
# Velocity S-wave (km/s) = 3.28987 3.78818 3.54778
# Velocity P-wave (km/s) = 5.69916 6.36025 6.03876
#
# Compressibility (1/GPa) = 0.02947835
#
# Stress axis : x y z
#
# Youngs Moduli (GPa) = 46.62793 48.43115 51.10333
#
# Poissons Ratio (x) = 0.43918 0.45101
# Poissons Ratio (y) = 0.42282 -0.09206
# Poissons Ratio (z) = 0.41151 -0.08724
#
# Static dielectric constant tensor:
#      x y z
#    x 3.188400 -0.206910 -0.102030 
#    y -0.206910 3.342360 -0.072130 
#    z -0.102030 -0.072130 3.510490 
# 
# 
# High freq. dielectric constant tensor:
#      x y z
#    x 1.710840 -0.018610 -0.011300 
#    y -0.018610 1.726260 -0.007600 
#    z -0.011300 -0.007600 1.738360 
# 
# From -- ./inp_files/518912.got.cif
#   From: 2010.06.25/outbox.cif.g09.slc.cpg/sg2_260_cif.got.tgz:518912.got - 2010.06.27 13:26:56.
