data_PCOD8043222
_publ_section_title
;
Structure prediction by ZEFSAII (Michael W. Deem and Ramdas Pophale) SiO2 
 PCOD8043222
Probable space group: P -1
;
_chemical_formula_sum "Si O2"
_cell_formula_units_Z 14
_cell_length_a 8.963558
_cell_length_b 15.497767
_cell_length_c 7.709807
_cell_angle_alpha 119.212402
_cell_angle_beta 48.528932
_cell_angle_gamma 103.647896
_cell_volume 694.170563
_symmetry_space_group_name_H-M "P -1"
_symmetry_group_IT_number 2
_symmetry_cell_setting 'triclinic'
loop_
_space_group_symop_operation_xyz
x,y,z
-x,-y,-z
loop_
_atom_site_type_symbol
_atom_site_label
_atom_site_fract_x
_atom_site_fract_y
_atom_site_fract_z
Si Si1 0.908330 0.791402 0.166340
Si Si2 0.146589 0.935080 0.950335
Si Si3 0.873431 0.881500 0.632310
Si Si4 0.471629 0.783099 0.466513
Si Si5 0.039306 0.388590 0.795158
Si Si6 0.572986 0.731586 0.723787
Si Si7 0.246830 0.726403 0.267020
O O1 0.871415 0.879584 0.423860
O O2 0.698779 0.782128 0.221934
O O3 0.986986 0.687197 0.098869
O O4 0.063619 0.829424 0.950413
O O5 0.173363 0.003353 0.163442
O O6 0.361148 0.897844 0.660854
O O7 0.000000 0.000000 0.000000
O O8 0.691493 0.823041 0.778020
O O9 0.089047 0.828258 0.485277
O O10 0.466489 0.744845 0.630797
O O11 0.360988 0.715703 0.352755
O O12 0.260996 0.367109 0.518407
O O13 0.873824 0.368626 0.758819
O O14 0.000000 0.500000 0.000000
O O15 0.407042 0.722516 0.985104
#
# Coordination Sequence:
#
# PCOD8043222 Si02
#       7
#     2   2   2   2   2   2   2
#     4   9  22  37  56  81 116 149 189 241 284 335
#     4  12  22  33  55  85 118 156 194 230 275 334
#     4   9  20  37  51  81 115 155 196 228 275 336
#     4  10  21  36  55  84 116 151 193 236 276 334
#     4   9  20  41  64  86 110 145 191 238 291 349
#     4   9  21  38  59  84 117 149 188 240 285 337
#     4  10  19  36  60  82 115 153 185 235 288 337
#
# _framework density 20.167952
#
# number of rings (size 3 to 8) (size 9 to 14) (size 15 to 20)
#    0.000    2.857    1.429    2.143    2.000    4.571 
#    0.000    2.857    0.000    6.857    0.000    0.000 
#    0.000    0.000    0.000    0.000    0.000    0.000 
#
# Total GULP energy -173475.756033 kJ/mol
# GULP energy per Si atom -12391.125431 kJ/mol
# Density = 2.012205 g / cm^3
# Si number density = 20.167952 Si / 1000 Ang^3
#
#
#
# Elastic Constant Matrix: (Units=GPa)
#
#
# Indices 1 2 3 4 5 6 
#
# 1 152.4770 34.3300 45.7876 8.1709 4.5693 18.3644
# 2 34.3300 71.2342 44.8648 17.0616 2.0635 7.3604
# 3 45.7876 44.8648 88.4390 13.0601 -2.8583 10.9433
# 4 8.1709 17.0616 13.0601 32.5150 2.4550 8.0227
# 5 4.5693 2.0635 -2.8583 2.4550 26.1570 -0.8239
# 6 18.3644 7.3604 10.9433 8.0227 -0.8239 21.0545
#
#
#
# Elastic Compliance Matrix: (Units=1/GPa)
#
#
# Indices 1 2 3 4 5 6 
#
# 1 0.008601 -0.001970 -0.003034 0.001717 -0.002028 -0.005970
# 2 -0.001970 0.022842 -0.009668 -0.007897 -0.001720 0.001699
# 3 -0.003034 -0.009668 0.018420 -0.001071 0.003311 -0.003010
# 4 0.001717 -0.007897 -0.001071 0.038381 -0.003804 -0.012954
# 5 -0.002028 -0.001720 0.003311 -0.003804 0.039554 0.003646
# 6 -0.005970 0.001699 -0.003010 -0.012954 0.003646 0.058752
#
#
# Mechanical properties :
#
#
# Convention : Reuss Voigt Hill
#
# Bulk Modulus (GPa) = 48.73265 62.45724 55.59494
# Shear Modulus (GPa) = 22.44843 28.42316 25.43580
#
# Velocity S-wave (km/s) = 3.33990 3.75817 3.55519
# Velocity P-wave (km/s) = 6.25213 7.06170 6.66921
#
# Compressibility (1/GPa) = 0.02052013
#
# Stress axis : x y z
#
# Youngs Moduli (GPa) = 116.26965 43.77900 54.28897
#
# Poissons Ratio (x) = 0.08623 0.16471
# Poissons Ratio (y) = 0.22902 0.52484
# Poissons Ratio (z) = 0.35276 0.42323
#
# Static dielectric constant tensor:
#      x y z
#    x 3.926500 0.294780 -0.102530 
#    y 0.294780 3.321840 -0.030890 
#    z -0.102530 -0.030890 3.681020 
# 
# 
# High freq. dielectric constant tensor:
#      x y z
#    x 1.803620 0.018910 -0.007970 
#    y 0.018910 1.742420 -0.008560 
#    z -0.007970 -0.008560 1.786980 
# 
# From -- ./inp_files/215684.got.cif
#   From: 2010.06.25/outbox.cif.g09.slc.cpg/sg2_108_cif.got.tgz:215684.got - 2010.06.27 13:26:56.
