data_PCOD8043851
_publ_section_title
;
Structure prediction by ZEFSAII (Michael W. Deem and Ramdas Pophale) SiO2 
 PCOD8043851
Probable space group: P -1
;
_chemical_formula_sum "Si O2"
_cell_formula_units_Z 14
_cell_length_a 6.870525
_cell_length_b 9.783483
_cell_length_c 16.397457
_cell_angle_alpha 84.044946
_cell_angle_beta 62.579344
_cell_angle_gamma 121.778022
_cell_volume 738.963339
_symmetry_space_group_name_H-M "P -1"
_symmetry_group_IT_number 2
_symmetry_cell_setting 'triclinic'
loop_
_space_group_symop_operation_xyz
x,y,z
-x,-y,-z
loop_
_atom_site_type_symbol
_atom_site_label
_atom_site_fract_x
_atom_site_fract_y
_atom_site_fract_z
Si Si1 0.312129 0.321579 0.600881
Si Si2 0.179629 0.703287 0.855854
Si Si3 0.732103 0.562394 0.081581
Si Si4 0.607762 0.955389 0.407572
Si Si5 0.352457 0.891126 0.289852
Si Si6 0.888202 0.663743 0.760279
Si Si7 0.513685 0.652352 0.249863
O O1 0.500000 0.500000 0.500000
O O2 0.407623 0.364774 0.673882
O O3 0.979104 0.227972 0.663145
O O4 0.378790 0.197944 0.560499
O O5 0.195148 0.553596 0.886961
O O6 0.090064 0.658396 0.781369
O O7 0.475885 0.909837 0.794152
O O8 0.941571 0.683647 0.958960
O O9 0.397546 0.413362 0.127574
O O10 0.757583 0.692626 0.137862
O O11 0.937234 0.129087 0.311180
O O12 0.500000 0.000000 0.500000
O O13 0.386384 0.896804 0.380522
O O14 0.490722 0.806587 0.233780
O O15 0.797139 0.540719 0.704433
#
# Coordination Sequence:
#
# PCOD8043851 Si02
#       7
#     2   2   2   2   2   2   2
#     4  11  25  39  57  82 115 150 185 230 282 331
#     4  10  19  37  60  86 110 148 186 232 278 319
#     4   9  20  34  61  87 111 143 192 226 273 336
#     4  10  23  39  60  84 109 145 191 231 277 332
#     4  10  23  39  56  82 117 147 182 233 279 330
#     4   9  20  37  60  81 115 144 186 231 272 331
#     4   9  23  37  58  83 113 150 185 227 277 334
#
# _framework density 18.945460000000001
#
# number of rings (size 3 to 8) (size 9 to 14) (size 15 to 20)
#    0.857    1.429    0.000    1.286    6.000    3.429 
#    0.000    0.714    0.000    0.000    0.000    0.000 
#    0.000    0.000    0.000    0.000    0.000    0.000 
#
# Total GULP energy -173482.751973 kJ/mol
# GULP energy per Si atom -12391.625141 kJ/mol
# Density = 1.890234 g / cm^3
# Si number density = 18.945460 Si / 1000 Ang^3
#
#
#
# Elastic Constant Matrix: (Units=GPa)
#
#
# Indices 1 2 3 4 5 6 
#
# 1 92.3098 54.8892 41.6810 -2.7060 -1.9999 9.8419
# 2 54.8892 110.8825 53.2269 10.5599 3.7729 2.1331
# 3 41.6810 53.2269 88.7735 -6.5643 -8.5975 0.2107
# 4 -2.7060 10.5599 -6.5643 36.4030 2.1542 -4.8877
# 5 -1.9999 3.7729 -8.5975 2.1542 23.8241 -2.3611
# 6 9.8419 2.1331 0.2107 -4.8877 -2.3611 35.2931
#
#
#
# Elastic Compliance Matrix: (Units=1/GPa)
#
#
# Indices 1 2 3 4 5 6 
#
# 1 0.017046 -0.006783 -0.003723 0.001991 0.000585 -0.004006
# 2 -0.006783 0.017099 -0.008104 -0.006644 -0.005640 -0.000391
# 3 -0.003723 -0.008104 0.019001 0.005409 0.007604 0.002672
# 4 0.001991 -0.006644 0.005409 0.031034 0.000778 0.004164
# 5 0.000585 -0.005640 0.007604 0.000778 0.045918 0.003312
# 6 -0.004006 -0.000391 0.002672 0.004164 0.003312 0.030257
#
#
# Mechanical properties :
#
#
# Convention : Reuss Voigt Hill
#
# Bulk Modulus (GPa) = 62.78992 65.72890 64.25941
# Shear Modulus (GPa) = 24.64463 28.58194 26.61328
#
# Velocity S-wave (km/s) = 3.61060 3.88834 3.75204
# Velocity P-wave (km/s) = 7.11311 7.41134 7.26376
#
# Compressibility (1/GPa) = 0.01592612
#
# Stress axis : x y z
#
# Youngs Moduli (GPa) = 58.66549 58.48413 52.62782
#
# Poissons Ratio (x) = 0.39672 0.19592
# Poissons Ratio (y) = 0.39795 0.42648
# Poissons Ratio (z) = 0.21840 0.47393
#
# Static dielectric constant tensor:
#      x y z
#    x 3.492960 0.048440 0.009920 
#    y 0.048440 3.508440 -0.013780 
#    z 0.009920 -0.013780 3.487570 
# 
# 
# High freq. dielectric constant tensor:
#      x y z
#    x 1.741210 0.000080 0.000670 
#    y 0.000080 1.738340 -0.001240 
#    z 0.000670 -0.001240 1.729830 
# 
# From -- ./inp_files/39938.got.cif
#   From: 2010.06.25/outbox.cif.g09.slc.cpg/sg2_20_cif.got.tgz:39938.got - 2010.06.27 13:26:56.
