data_PCOD8043018
_publ_section_title
;
Structure prediction by ZEFSAII (Michael W. Deem and Ramdas Pophale) SiO2 
 PCOD8043018
Probable space group: P -1
;
_chemical_formula_sum "Si O2"
_cell_formula_units_Z 12
_cell_length_a 12.112719
_cell_length_b 9.345241
_cell_length_c 11.118241
_cell_angle_alpha 105.748391
_cell_angle_beta 118.732965
_cell_angle_gamma 123.542434
_cell_volume 623.872895
_symmetry_space_group_name_H-M "P -1"
_symmetry_group_IT_number 2
_symmetry_cell_setting 'triclinic'
loop_
_space_group_symop_operation_xyz
x,y,z
-x,-y,-z
loop_
_atom_site_type_symbol
_atom_site_label
_atom_site_fract_x
_atom_site_fract_y
_atom_site_fract_z
Si Si1 0.381714 0.035465 0.908367
Si Si2 0.240399 0.439159 0.669676
Si Si3 0.794690 0.732575 0.773472
Si Si4 0.358086 0.276466 0.548467
Si Si5 0.913179 0.569132 0.648576
Si Si6 0.819068 0.145311 0.495008
O O1 0.333710 0.994661 0.732751
O O2 0.538483 0.320898 0.089136
O O3 0.163569 0.841697 0.824565
O O4 0.500000 0.000000 0.000000
O O5 0.246041 0.276939 0.586919
O O6 0.214771 0.529240 0.565625
O O7 0.039376 0.267596 0.613358
O O8 0.612387 0.549923 0.738595
O O9 0.733237 0.785050 0.646135
O O10 0.829101 0.597958 0.714039
O O11 0.000000 0.000000 0.000000
O O12 0.307457 0.059838 0.512124
O O13 0.874085 0.362545 0.620910
#
# Coordination Sequence:
#
# PCOD8043018 Si02
#       6
#     2   2   2   2   2   2
#     4  11  18  33  58  84 112 146 175 211 275 331
#     4  10  19  36  56  82 116 145 173 217 275 328
#     4  10  22  43  58  74 105 151 190 221 270 325
#     4  10  23  38  57  80 111 145 181 228 271 316
#     4  10  20  35  58  81 111 143 181 225 266 322
#     4  11  21  34  55  90 113 135 180 228 271 320
#
# _framework density 19.234687000000001
#
# number of rings (size 3 to 8) (size 9 to 14) (size 15 to 20)
#    0.000    1.667    3.333    2.500    0.000    2.667 
#    0.000    0.833    0.000    0.000    0.000    0.000 
#    0.000    0.000    0.000    0.000    0.000    0.000 
#
# Total GULP energy -148836.664652 kJ/mol
# GULP energy per Si atom -12403.055388 kJ/mol
# Density = 1.919091 g / cm^3
# Si number density = 19.234687 Si / 1000 Ang^3
#
#
#
# Elastic Constant Matrix: (Units=GPa)
#
#
# Indices 1 2 3 4 5 6 
#
# 1 79.7224 44.0440 26.9655 0.9124 11.1971 0.3192
# 2 44.0440 127.0985 45.6665 18.8255 1.3032 -2.6336
# 3 26.9655 45.6665 129.9583 17.4828 11.4308 4.4323
# 4 0.9124 18.8255 17.4828 17.4399 -2.1091 0.7082
# 5 11.1971 1.3032 11.4308 -2.1091 23.8711 1.1362
# 6 0.3192 -2.6336 4.4323 0.7082 1.1362 16.9070
#
#
#
# Elastic Compliance Matrix: (Units=1/GPa)
#
#
# Indices 1 2 3 4 5 6 
#
# 1 0.017500 -0.006433 -0.001729 0.007022 -0.006374 -0.000745
# 2 -0.006433 0.012437 -0.001820 -0.011128 0.002091 0.002862
# 3 -0.001729 -0.001820 0.010374 -0.008823 -0.004728 -0.002283
# 4 0.007022 -0.011128 -0.008823 0.079019 0.008685 -0.003447
# 5 -0.006374 0.002091 -0.004728 0.008685 0.047889 -0.001897
# 6 -0.000745 0.002862 -0.002283 -0.003447 -0.001897 0.060477
#
#
# Mechanical properties :
#
#
# Convention : Reuss Voigt Hill
#
# Bulk Modulus (GPa) = 49.14870 63.34790 56.24830
# Shear Modulus (GPa) = 19.65068 26.31717 22.98392
#
# Velocity S-wave (km/s) = 3.19976 3.70295 3.46051
# Velocity P-wave (km/s) = 6.26569 7.16157 6.72856
#
# Compressibility (1/GPa) = 0.02034642
#
# Stress axis : x y z
#
# Youngs Moduli (GPa) = 57.14152 80.40341 96.39677
#
# Poissons Ratio (x) = 0.51726 0.16669
# Poissons Ratio (y) = 0.36761 0.17545
# Poissons Ratio (z) = 0.09881 0.14634
#
# Static dielectric constant tensor:
#      x y z
#    x 3.696660 -0.147060 0.125500 
#    y -0.147060 3.339950 0.061070 
#    z 0.125500 0.061070 3.806090 
# 
# 
# High freq. dielectric constant tensor:
#      x y z
#    x 1.749790 -0.008390 0.008730 
#    y -0.008390 1.732650 0.010320 
#    z 0.008730 0.010320 1.754650 
# 
# From -- ./inp_files/20488.got.cif
#   From: 2010.06.25/outbox.cif.g09.slc.cpg/sg2_11_cif.got.tgz:20488.got - 2010.06.27 13:26:56.
