data_PCOD8043032
_publ_section_title
;
Structure prediction by ZEFSAII (Michael W. Deem and Ramdas Pophale) SiO2 
 PCOD8043032
Probable space group: P -1
;
_chemical_formula_sum "Si O2"
_cell_formula_units_Z 16
_cell_length_a 9.684610
_cell_length_b 13.794803
_cell_length_c 19.376612
_cell_angle_alpha 23.289325
_cell_angle_beta 49.605190
_cell_angle_gamma 49.859438
_cell_volume 768.918917
_symmetry_space_group_name_H-M "P -1"
_symmetry_group_IT_number 2
_symmetry_cell_setting 'triclinic'
loop_
_space_group_symop_operation_xyz
x,y,z
-x,-y,-z
loop_
_atom_site_type_symbol
_atom_site_label
_atom_site_fract_x
_atom_site_fract_y
_atom_site_fract_z
Si Si1 0.618608 0.686747 0.307139
Si Si2 0.469695 0.730606 0.768334
Si Si3 0.118036 0.197045 0.736726
Si Si4 0.245806 0.546981 0.361141
Si Si5 0.788260 0.360361 0.966382
Si Si6 0.408869 0.756035 0.613166
Si Si7 0.831162 0.527737 0.201814
Si Si8 0.351307 0.988636 0.112623
O O1 0.500000 0.500000 0.500000
O O2 0.776497 0.746021 0.266636
O O3 0.710372 0.576264 0.278521
O O4 0.467950 0.937652 0.179094
O O5 0.643047 0.509382 0.862673
O O6 0.383561 0.753682 0.704983
O O7 0.538939 0.986353 0.598984
O O8 0.308646 0.678907 0.904401
O O9 0.201408 0.297390 0.574705
O O10 0.908565 0.338470 0.719376
O O11 0.123625 0.902829 0.922708
O O12 0.436003 0.477925 0.304139
O O13 0.250478 0.752331 0.284875
O O14 0.952383 0.519223 0.821110
O O15 0.222366 0.712252 0.663400
O O16 0.793968 0.758122 0.008347
O O17 0.500000 0.000000 0.000000
#
# Coordination Sequence:
#
# PCOD8043032 Si02
#       8
#     2   2   2   2   2   2   2   2
#     4  11  22  38  58  98 131 167 201 242 326 388
#     4  10  26  44  67  85 123 173 220 262 304 364
#     4  11  23  35  66  95 131 162 199 258 319 383
#     4  11  20  38  63  95 129 162 198 256 324 379
#     4  11  24  45  62  96 125 161 218 269 306 360
#     4  11  22  45  67  88 122 174 210 255 318 375
#     4  11  24  39  66  92 130 162 206 266 311 376
#     4  10  19  36  56  93 125 158 190 247 320 372
#
# _framework density 20.808437000000001
#
# number of rings (size 3 to 8) (size 9 to 14) (size 15 to 20)
#    0.000    1.250    6.250    0.000    3.500    1.500 
#    0.000    0.000    0.000    0.000    0.000    0.000 
#    0.000    0.000    0.000    0.000    0.000    0.000 
#
# Total GULP energy -198374.624882 kJ/mol
# GULP energy per Si atom -12398.414055 kJ/mol
# Density = 2.076108 g / cm^3
# Si number density = 20.808437 Si / 1000 Ang^3
#
#
#
# Elastic Constant Matrix: (Units=GPa)
#
#
# Indices 1 2 3 4 5 6 
#
# 1 143.4107 24.0345 39.1763 1.3417 -11.2072 3.1634
# 2 24.0345 44.9000 28.4639 3.6585 -4.3832 2.0013
# 3 39.1763 28.4639 83.3982 2.6045 -7.5962 -0.3307
# 4 1.3417 3.6585 2.6045 27.6395 -1.0210 -6.2203
# 5 -11.2072 -4.3832 -7.5962 -1.0210 43.3076 -2.9962
# 6 3.1634 2.0013 -0.3307 -6.2203 -2.9962 23.4343
#
#
#
# Elastic Compliance Matrix: (Units=1/GPa)
#
#
# Indices 1 2 3 4 5 6 
#
# 1 0.008307 -0.002409 -0.002964 0.000071 0.001335 -0.000768
# 2 -0.002409 0.029663 -0.008843 -0.003687 0.000516 -0.003245
# 3 -0.002964 -0.008843 0.016525 0.000169 0.001352 0.001606
# 4 0.000071 -0.003687 0.000169 0.039145 0.001350 0.010871
# 5 0.001335 0.000516 0.001352 0.001350 0.023980 0.003219
# 6 -0.000768 -0.003245 0.001606 0.010871 0.003219 0.046373
#
#
# Mechanical properties :
#
#
# Convention : Reuss Voigt Hill
#
# Bulk Modulus (GPa) = 38.36804 50.56204 44.46504
# Shear Modulus (GPa) = 24.86177 30.87856 27.87016
#
# Velocity S-wave (km/s) = 3.46033 3.85638 3.66371
# Velocity P-wave (km/s) = 5.86889 6.64684 6.26994
#
# Compressibility (1/GPa) = 0.02606336
#
# Stress axis : x y z
#
# Youngs Moduli (GPa) = 120.38199 33.71240 60.51380
#
# Poissons Ratio (x) = 0.08122 0.17934
# Poissons Ratio (y) = 0.29002 0.53512
# Poissons Ratio (z) = 0.35677 0.29812
#
# Static dielectric constant tensor:
#      x y z
#    x 3.826300 -0.220710 0.091190 
#    y -0.220710 3.437640 -0.148940 
#    z 0.091190 -0.148940 4.216500 
# 
# 
# High freq. dielectric constant tensor:
#      x y z
#    x 1.826750 -0.011590 -0.000770 
#    y -0.011590 1.779060 0.003270 
#    z -0.000770 0.003270 1.826810 
# 
# From -- ./inp_files/243126.got.cif
#   From: 2010.06.25/outbox.cif.g09.slc.cpg/sg2_122_cif.got.tgz:243126.got - 2010.06.27 13:26:56.
