data_PCOD8043183
_publ_section_title
;
Structure prediction by ZEFSAII (Michael W. Deem and Ramdas Pophale) SiO2 
 PCOD8043183
Probable space group: P -1
;
_chemical_formula_sum "Si O2"
_cell_formula_units_Z 14
_cell_length_a 11.771910
_cell_length_b 8.738548
_cell_length_c 14.847980
_cell_angle_alpha 120.393134
_cell_angle_beta 128.188149
_cell_angle_gamma 101.558470
_cell_volume 676.750431
_symmetry_space_group_name_H-M "P -1"
_symmetry_group_IT_number 2
_symmetry_cell_setting 'triclinic'
loop_
_space_group_symop_operation_xyz
x,y,z
-x,-y,-z
loop_
_atom_site_type_symbol
_atom_site_label
_atom_site_fract_x
_atom_site_fract_y
_atom_site_fract_z
Si Si1 0.858493 0.935372 0.599698
Si Si2 0.431946 0.271072 0.336671
Si Si3 0.166178 0.474683 0.469333
Si Si4 0.613644 0.579020 0.827846
Si Si5 0.303233 0.227475 0.874614
Si Si6 0.276106 0.818145 0.784542
Si Si7 0.033505 0.738480 0.088123
O O1 0.863127 0.764724 0.613916
O O2 0.628915 0.738267 0.374103
O O3 0.883773 0.130046 0.733184
O O4 0.077842 0.118497 0.699218
O O5 0.500000 0.500000 0.500000
O O6 0.638640 0.320448 0.448455
O O7 0.386053 0.287703 0.216591
O O8 0.216960 0.969204 0.174940
O O9 0.240876 0.612736 0.645399
O O10 0.930609 0.350978 0.296231
O O11 0.665786 0.730250 0.989971
O O12 0.797926 0.602774 0.906267
O O13 0.288513 0.003408 0.780843
O O14 0.500000 0.500000 0.000000
O O15 0.500000 0.000000 0.000000
O O16 0.000000 0.500000 0.000000
#
# Coordination Sequence:
#
# PCOD8043183 Si02
#       7
#     2   2   2   2   2   2   2
#     4   9  19  40  57  84 121 161 206 248 309 373
#     4  11  20  41  66  91 121 170 213 249 305 381
#     4   9  19  34  59  84 119 153 200 258 290 357
#     4  10  21  40  65  84 121 172 210 248 315 377
#     4  10  22  38  61  87 125 162 204 261 315 370
#     4  10  19  36  59  87 116 152 206 258 302 352
#     4  11  23  38  61  93 130 157 205 265 308 369
#
# _framework density 20.687093999999998
#
# number of rings (size 3 to 8) (size 9 to 14) (size 15 to 20)
#    0.000    2.000    2.857    2.143    0.000    3.429 
#    2.571    1.429    0.000    0.000    0.000    0.000 
#    0.000    0.000    0.000    0.000    0.000    0.000 
#
# Total GULP energy -173483.992715 kJ/mol
# GULP energy per Si atom -12391.713765 kJ/mol
# Density = 2.064001 g / cm^3
# Si number density = 20.687094 Si / 1000 Ang^3
#
#
#
# Elastic Constant Matrix: (Units=GPa)
#
#
# Indices 1 2 3 4 5 6 
#
# 1 131.5515 37.2405 57.9866 13.9160 31.4582 -1.8977
# 2 37.2405 69.1424 27.9012 22.2652 3.6443 4.5637
# 3 57.9866 27.9012 139.4941 14.9218 36.9486 -2.1210
# 4 13.9160 22.2652 14.9218 30.2746 0.9064 0.8577
# 5 31.4582 3.6443 36.9486 0.9064 56.1408 12.8091
# 6 -1.8977 4.5637 -2.1210 0.8577 12.8091 28.7983
#
#
#
# Elastic Compliance Matrix: (Units=1/GPa)
#
#
# Indices 1 2 3 4 5 6 
#
# 1 0.011420 -0.005128 -0.002162 -0.000357 -0.005521 0.003872
# 2 -0.005128 0.022455 -0.002204 -0.013042 0.004356 -0.005608
# 3 -0.002162 -0.002204 0.010540 -0.002499 -0.006436 0.003920
# 4 -0.000357 -0.013042 -0.002499 0.043967 0.002065 -0.000369
# 5 -0.005521 0.004356 -0.006436 0.002065 0.028034 -0.014059
# 6 0.003872 -0.005608 0.003920 -0.000369 -0.014059 0.042421
#
#
# Mechanical properties :
#
#
# Convention : Reuss Voigt Hill
#
# Bulk Modulus (GPa) = 39.32815 65.16051 52.24433
# Shear Modulus (GPa) = 26.83841 37.51339 32.17590
#
# Velocity S-wave (km/s) = 3.60578 4.26299 3.94809
# Velocity P-wave (km/s) = 6.03223 7.46976 6.78915
#
# Compressibility (1/GPa) = 0.02542708
#
# Stress axis : x y z
#
# Youngs Moduli (GPa) = 87.56377 44.53431 94.87626
#
# Poissons Ratio (x) = 0.22838 0.20513
# Poissons Ratio (y) = 0.44905 0.20906
# Poissons Ratio (z) = 0.18932 0.09813
#
# Static dielectric constant tensor:
#      x y z
#    x 4.379670 0.044570 0.584370 
#    y 0.044570 3.315930 0.333620 
#    z 0.584370 0.333620 4.267960 
# 
# 
# High freq. dielectric constant tensor:
#      x y z
#    x 1.830370 -0.008480 0.019890 
#    y -0.008480 1.752400 0.024550 
#    z 0.019890 0.024550 1.831180 
# 
# From -- ./inp_files/318004.got.cif
#   From: 2010.06.25/outbox.cif.g09.slc.cpg/sg2_160_cif.got.tgz:318004.got - 2010.06.27 13:26:56.
