data_PCOD8043818
_publ_section_title
;
Structure prediction by ZEFSAII (Michael W. Deem and Ramdas Pophale) SiO2 
 PCOD8043818
Probable space group: P -1
;
_chemical_formula_sum "Si O2"
_cell_formula_units_Z 16
_cell_length_a 7.812429
_cell_length_b 15.013119
_cell_length_c 11.004566
_cell_angle_alpha 64.807192
_cell_angle_beta 40.897418
_cell_angle_gamma 80.185763
_cell_volume 739.302417
_symmetry_space_group_name_H-M "P -1"
_symmetry_group_IT_number 2
_symmetry_cell_setting 'triclinic'
loop_
_space_group_symop_operation_xyz
x,y,z
-x,-y,-z
loop_
_atom_site_type_symbol
_atom_site_label
_atom_site_fract_x
_atom_site_fract_y
_atom_site_fract_z
Si Si1 0.524122 0.592662 0.756061
Si Si2 0.950987 0.051096 0.199061
Si Si3 0.004732 0.724294 0.306174
Si Si4 0.662900 0.423958 0.407969
Si Si5 0.333584 0.202398 0.747398
Si Si6 0.654510 0.073853 0.974361
Si Si7 0.430703 0.973689 0.377754
Si Si8 0.820525 0.452567 0.814020
O O1 0.772424 0.692766 0.550692
O O2 0.352046 0.573490 0.733333
O O3 0.632637 0.496165 0.797183
O O4 0.345892 0.616994 0.948504
O O5 0.869480 0.048570 0.387645
O O6 0.664324 0.042485 0.296012
O O7 0.058923 0.956074 0.147715
O O8 0.183542 0.153645 0.980937
O O9 0.911127 0.785588 0.212498
O O10 0.272470 0.805052 0.168399
O O11 0.046000 0.617749 0.299254
O O12 0.500000 0.500000 0.500000
O O13 0.536347 0.312476 0.596495
O O14 0.963922 0.458138 0.281895
O O15 0.507170 0.131942 0.634694
O O16 0.500000 0.000000 0.000000
O O17 0.447085 0.049430 0.211552
#
# Coordination Sequence:
#
# PCOD8043818 Si02
#       8
#     2   2   2   2   2   2   2   2
#     4  10  24  41  63  92 125 164 207 255 307 364
#     4  10  20  38  63  84 118 155 201 247 294 356
#     4  11  21  39  64  87 119 163 204 241 305 369
#     4  11  22  39  65  94 124 163 205 255 306 363
#     4  10  19  37  59  93 118 153 204 243 298 358
#     4  11  23  40  59  90 126 155 198 252 301 364
#     4  10  20  38  62  86 114 159 199 246 296 355
#     4  11  23  44  63  88 128 165 204 258 308 364
#
# _framework density 21.642022999999998
#
# number of rings (size 3 to 8) (size 9 to 14) (size 15 to 20)
#    0.000    1.500    5.000    1.500    0.000    5.500 
#    2.250    1.250    0.000    0.000    0.000    0.000 
#    0.000    0.000    0.000    0.000    0.000    0.000 
#
# Total GULP energy -198230.192458 kJ/mol
# GULP energy per Si atom -12389.387029 kJ/mol
# Density = 2.159276 g / cm^3
# Si number density = 21.642023 Si / 1000 Ang^3
#
#
#
# Elastic Constant Matrix: (Units=GPa)
#
#
# Indices 1 2 3 4 5 6 
#
# 1 55.7153 1.0595 27.1329 -10.4362 -6.5900 16.0833
# 2 1.0595 64.7685 51.0667 -19.3822 -9.0115 13.1488
# 3 27.1329 51.0667 187.9330 -4.0313 6.5931 20.6216
# 4 -10.4362 -19.3822 -4.0313 39.5044 7.9259 -7.3824
# 5 -6.5900 -9.0115 6.5931 7.9259 21.1737 -2.3877
# 6 16.0833 13.1488 20.6216 -7.3824 -2.3877 27.7051
#
#
#
# Elastic Compliance Matrix: (Units=1/GPa)
#
#
# Indices 1 2 3 4 5 6 
#
# 1 0.026731 0.009931 -0.005271 0.006825 0.010097 -0.013618
# 2 0.009931 0.029165 -0.008566 0.011826 0.012731 -0.008982
# 3 -0.005271 -0.008566 0.008664 -0.003511 -0.006765 -0.000842
# 4 0.006825 0.011826 -0.003511 0.033710 -0.004180 0.001661
# 5 0.010097 0.012731 -0.006765 -0.004180 0.059135 -0.002886
# 6 -0.013618 -0.008982 -0.000842 0.001661 -0.002886 0.049084
#
#
# Mechanical properties :
#
#
# Convention : Reuss Voigt Hill
#
# Bulk Modulus (GPa) = 17.62218 51.88167 34.75193
# Shear Modulus (GPa) = 21.43933 32.95380 27.19657
#
# Velocity S-wave (km/s) = 3.15085 3.90638 3.54878
# Velocity P-wave (km/s) = 4.62573 6.66117 5.73448
#
# Compressibility (1/GPa) = 0.05674666
#
# Stress axis : x y z
#
# Youngs Moduli (GPa) = 37.41045 34.28795 115.41880
#
# Poissons Ratio (x) = -0.34051 0.60840
# Poissons Ratio (y) = -0.37152 0.98868
# Poissons Ratio (z) = 0.19720 0.29371
#
# Static dielectric constant tensor:
#      x y z
#    x 4.440260 0.167160 0.324560 
#    y 0.167160 3.160230 -0.356440 
#    z 0.324560 -0.356440 4.256990 
# 
# 
# High freq. dielectric constant tensor:
#      x y z
#    x 1.838060 0.001110 0.003300 
#    y 0.001110 1.831240 -0.003430 
#    z 0.003300 -0.003430 1.869940 
# 
# From -- ./inp_files/398736.got.cif
#   From: 2010.06.25/outbox.cif.g09.slc.cpg/sg2_200_cif.got.tgz:398736.got - 2010.06.27 13:26:56.
