data_PCOD8043832
_publ_section_title
;
Structure prediction by ZEFSAII (Michael W. Deem and Ramdas Pophale) SiO2 
 PCOD8043832
Probable space group: P -1
;
_chemical_formula_sum "Si O2"
_cell_formula_units_Z 14
_cell_length_a 11.963818
_cell_length_b 17.606026
_cell_length_c 10.084111
_cell_angle_alpha 38.670464
_cell_angle_beta 51.497776
_cell_angle_gamma 29.874875
_cell_volume 650.892217
_symmetry_space_group_name_H-M "P -1"
_symmetry_group_IT_number 2
_symmetry_cell_setting 'triclinic'
loop_
_space_group_symop_operation_xyz
x,y,z
-x,-y,-z
loop_
_atom_site_type_symbol
_atom_site_label
_atom_site_fract_x
_atom_site_fract_y
_atom_site_fract_z
Si Si1 0.560650 0.828319 0.837381
Si Si2 0.456274 0.246833 0.519377
Si Si3 0.918368 0.938147 0.485720
Si Si4 0.133438 0.197201 0.517300
Si Si5 0.250852 0.455700 0.129747
Si Si6 0.797300 0.631999 0.202599
Si Si7 0.721044 0.296109 0.249000
O O1 0.734239 0.813681 0.676437
O O2 0.587264 0.692495 0.908722
O O3 0.299809 0.050511 0.716925
O O4 0.622955 0.750536 0.047025
O O5 0.697529 0.023957 0.605890
O O6 0.292759 0.342787 0.381101
O O7 0.348445 0.247930 0.720994
O O8 0.501188 0.361036 0.363311
O O9 0.879698 0.111108 0.283048
O O10 0.947568 0.871638 0.404545
O O11 0.145346 0.754427 0.647375
O O12 0.918485 0.419698 0.419290
O O13 0.985205 0.614423 0.071222
O O14 0.332993 0.536679 0.002374
#
# Coordination Sequence:
#
# PCOD8043832 Si02
#       7
#     2   2   2   2   2   2   2
#     4  10  20  36  61  81 119 156 195 224 286 351
#     4  10  21  37  57  87 119 143 188 245 292 323
#     4   9  18  37  60  82 109 152 200 230 271 350
#     4  10  19  37  60  83 114 158 195 228 278 355
#     4  11  19  38  61  84 110 157 198 226 279 356
#     4  11  23  37  58  93 120 143 185 251 297 322
#     4   9  19  35  63  81 109 155 203 225 274 351
#
# _framework density 21.508937
#
# number of rings (size 3 to 8) (size 9 to 14) (size 15 to 20)
#    0.857    1.143    1.429    4.286    0.000    0.000 
#    2.571    4.286    0.000    2.571    0.000    0.000 
#    0.000    0.000    0.000    0.000    0.000    0.000 
#
# Total GULP energy -173477.172607 kJ/mol
# GULP energy per Si atom -12391.226615 kJ/mol
# Density = 2.145998 g / cm^3
# Si number density = 21.508937 Si / 1000 Ang^3
#
#
#
# Elastic Constant Matrix: (Units=GPa)
#
#
# Indices 1 2 3 4 5 6 
#
# 1 52.4068 -3.0288 -7.4218 -1.7450 -1.1634 3.4236
# 2 -3.0288 44.4711 12.6527 -4.0379 6.4961 -1.8698
# 3 -7.4218 12.6527 60.3171 -6.1103 20.1798 -3.0050
# 4 -1.7450 -4.0379 -6.1103 25.5624 -0.2974 5.2344
# 5 -1.1634 6.4961 20.1798 -0.2974 44.4825 -9.7979
# 6 3.4236 -1.8698 -3.0050 5.2344 -9.7979 23.8277
#
#
#
# Elastic Compliance Matrix: (Units=1/GPa)
#
#
# Indices 1 2 3 4 5 6 
#
# 1 0.019858 0.000877 0.002961 0.002957 -0.001767 -0.003787
# 2 0.000877 0.024222 -0.004138 0.002889 -0.001629 -0.000052
# 3 0.002961 -0.004138 0.021428 0.005209 -0.009705 -0.003183
# 4 0.002957 0.002889 0.005209 0.043226 -0.004848 -0.011031
# 5 -0.001767 -0.001629 -0.009705 -0.004848 0.029728 0.012191
# 6 -0.003787 -0.000052 -0.003183 -0.011031 0.012191 0.049543
#
#
# Mechanical properties :
#
#
# Convention : Reuss Voigt Hill
#
# Bulk Modulus (GPa) = 15.40622 17.95547 16.68084
# Shear Modulus (GPa) = 23.78245 29.10737 26.44491
#
# Velocity S-wave (km/s) = 3.32882 3.68267 3.51020
# Velocity P-wave (km/s) = 4.68540 5.14284 4.91944
#
# Compressibility (1/GPa) = 0.06490887
#
# Stress axis : x y z
#
# Youngs Moduli (GPa) = 50.35694 41.28543 46.66875
#
# Poissons Ratio (x) = -0.03622 -0.13820
# Poissons Ratio (y) = -0.04418 0.19311
# Poissons Ratio (z) = -0.14912 0.17084
#
# Static dielectric constant tensor:
#      x y z
#    x 4.016330 0.100490 0.036490 
#    y 0.100490 3.598850 -0.418200 
#    z 0.036490 -0.418200 3.577510 
# 
# 
# High freq. dielectric constant tensor:
#      x y z
#    x 1.861380 0.007580 0.018650 
#    y 0.007580 1.806630 -0.038130 
#    z 0.018650 -0.038130 1.816540 
# 
# From -- ./inp_files/237822.got.cif
#   From: 2010.06.25/outbox.cif.g09.slc.cpg/sg2_119_cif.got.tgz:237822.got - 2010.06.27 13:26:56.
