data_PCOD8043195
_publ_section_title
;
Structure prediction by ZEFSAII (Michael W. Deem and Ramdas Pophale) SiO2 
 PCOD8043195
Probable space group: P -1
;
_chemical_formula_sum "Si O2"
_cell_formula_units_Z 16
_cell_length_a 13.628550
_cell_length_b 11.583410
_cell_length_c 8.696719
_cell_angle_alpha 140.534964
_cell_angle_beta 114.790246
_cell_angle_gamma 83.874724
_cell_volume 734.063925
_symmetry_space_group_name_H-M "P -1"
_symmetry_group_IT_number 2
_symmetry_cell_setting 'triclinic'
loop_
_space_group_symop_operation_xyz
x,y,z
-x,-y,-z
loop_
_atom_site_type_symbol
_atom_site_label
_atom_site_fract_x
_atom_site_fract_y
_atom_site_fract_z
Si Si1 0.092706 0.003677 0.937646
Si Si2 0.641124 0.276454 0.452135
Si Si3 0.207201 0.314683 0.090522
Si Si4 0.291752 0.631377 0.061638
Si Si5 0.518507 0.814174 0.252201
Si Si6 0.591517 0.844474 0.984535
Si Si7 0.109898 0.228415 0.611580
Si Si8 0.762706 0.001171 0.701366
O O1 0.142797 0.211411 0.095941
O O2 0.025829 0.832680 0.593594
O O3 0.198770 0.974173 0.068134
O O4 0.000000 0.000000 0.000000
O O5 0.740073 0.451499 0.604190
O O6 0.657591 0.327684 0.693248
O O7 0.655372 0.072683 0.212856
O O8 0.511359 0.265080 0.314941
O O9 0.314079 0.252791 0.050693
O O10 0.116933 0.259492 0.831364
O O11 0.400691 0.628922 0.026152
O O12 0.242190 0.794906 0.147497
O O13 0.187426 0.421621 0.766703
O O14 0.531460 0.829874 0.094787
O O15 0.500000 0.000000 0.500000
O O16 0.638094 0.818425 0.413367
O O17 0.147662 0.048689 0.402062
#
# Coordination Sequence:
#
# PCOD8043195 Si02
#       8
#     2   2   2   2   2   2   2   2
#     4  10  24  41  64  86 117 160 205 260 296 349
#     4  10  22  37  59  92 126 156 198 244 292 368
#     4  11  22  41  62  86 119 159 204 249 301 357
#     4  10  21  37  61  90 124 157 196 243 297 360
#     4  10  19  36  59  90 125 159 190 241 295 360
#     4  11  21  37  59  91 126 161 196 236 305 357
#     4  10  21  41  61  88 115 160 206 248 297 348
#     4  10  20  39  58  85 124 157 197 243 300 348
#
# _framework density 21.796467
#
# number of rings (size 3 to 8) (size 9 to 14) (size 15 to 20)
#    0.000    1.750    3.750    0.750    1.750    4.000 
#    0.000    2.500    0.000    9.000    0.000    0.000 
#    0.000    0.000    0.000    0.000    0.000    0.000 
#
# Total GULP energy -198335.966110 kJ/mol
# GULP energy per Si atom -12395.997882 kJ/mol
# Density = 2.174686 g / cm^3
# Si number density = 21.796467 Si / 1000 Ang^3
#
#
#
# Elastic Constant Matrix: (Units=GPa)
#
#
# Indices 1 2 3 4 5 6 
#
# 1 53.7944 43.2566 21.4733 4.0988 6.9966 20.0274
# 2 43.2566 139.3091 70.1579 -1.7767 23.8286 21.8392
# 3 21.4733 70.1579 116.4449 -10.7291 30.2143 3.5309
# 4 4.0988 -1.7767 -10.7291 28.0290 -1.2761 9.7456
# 5 6.9966 23.8286 30.2143 -1.2761 29.1356 1.9566
# 6 20.0274 21.8392 3.5309 9.7456 1.9566 36.0331
#
#
#
# Elastic Compliance Matrix: (Units=1/GPa)
#
#
# Indices 1 2 3 4 5 6 
#
# 1 0.028691 -0.006588 -0.001183 -0.001016 0.000458 -0.011588
# 2 -0.006588 0.013281 -0.005837 0.000783 -0.002933 -0.003869
# 3 -0.001183 -0.005837 0.015529 0.004537 -0.010985 0.002043
# 4 -0.001016 0.000783 0.004537 0.041473 -0.002517 -0.011434
# 5 0.000458 -0.002933 -0.010985 -0.002517 0.047847 0.000682
# 6 -0.011588 -0.003869 0.002043 -0.011434 0.000682 0.039393
#
#
# Mechanical properties :
#
#
# Convention : Reuss Voigt Hill
#
# Bulk Modulus (GPa) = 33.01819 64.36936 48.69378
# Shear Modulus (GPa) = 22.36900 30.28359 26.32629
#
# Velocity S-wave (km/s) = 3.20702 3.73148 3.47915
# Velocity P-wave (km/s) = 5.37537 6.93984 6.20709
#
# Compressibility (1/GPa) = 0.03028633
#
# Stress axis : x y z
#
# Youngs Moduli (GPa) = 34.85459 75.29279 64.39672
#
# Poissons Ratio (x) = 0.49601 0.07617
# Poissons Ratio (y) = 0.22961 0.37586
# Poissons Ratio (z) = 0.04123 0.43946
#
# Static dielectric constant tensor:
#      x y z
#    x 3.977200 0.029800 0.559800 
#    y 0.029800 4.300700 -0.140680 
#    z 0.559800 -0.140680 4.379550 
# 
# 
# High freq. dielectric constant tensor:
#      x y z
#    x 1.832260 0.005540 0.021500 
#    y 0.005540 1.863320 -0.011500 
#    z 0.021500 -0.011500 1.864060 
# 
# From -- ./inp_files/281537.got.cif
#   From: 2010.06.25/outbox.cif.g09.slc.cpg/sg2_141_cif.got.tgz:281537.got - 2010.06.27 13:26:56.
