data_PCOD8043937
_publ_section_title
;
Structure prediction by ZEFSAII (Michael W. Deem and Ramdas Pophale) SiO2 
 PCOD8043937
Probable space group: P -1
;
_chemical_formula_sum "Si O2"
_cell_formula_units_Z 16
_cell_length_a 17.362112
_cell_length_b 14.162323
_cell_length_c 13.660762
_cell_angle_alpha 55.574933
_cell_angle_beta 23.852581
_cell_angle_gamma 40.340807
_cell_volume 759.752081
_symmetry_space_group_name_H-M "P -1"
_symmetry_group_IT_number 2
_symmetry_cell_setting 'triclinic'
loop_
_space_group_symop_operation_xyz
x,y,z
-x,-y,-z
loop_
_atom_site_type_symbol
_atom_site_label
_atom_site_fract_x
_atom_site_fract_y
_atom_site_fract_z
Si Si1 0.323596 0.280163 0.380207
Si Si2 0.728651 0.372874 0.528269
Si Si3 0.307995 0.062944 0.777556
Si Si4 0.753972 0.425352 0.682480
Si Si5 0.126950 0.639579 0.016917
Si Si6 0.535824 0.717788 0.188204
Si Si7 0.654844 0.807225 0.803284
Si Si8 0.673900 0.840218 0.098733
O O1 0.630626 0.094087 0.165240
O O2 0.269200 0.428905 0.400851
O O3 0.321640 0.290330 0.258597
O O4 0.092051 0.288629 0.681622
O O5 0.755633 0.350023 0.626522
O O6 0.733168 0.244305 0.546468
O O7 0.421920 0.567309 0.751354
O O8 0.991494 0.327390 0.207148
O O9 0.500000 0.000000 0.500000
O O10 0.387002 0.117869 0.740133
O O11 0.992496 0.225524 0.009630
O O12 0.041226 0.267791 0.496351
O O13 0.500000 0.500000 0.000000
O O14 0.196827 0.482599 0.984663
O O15 0.499901 0.810475 0.273074
O O16 0.589292 0.771212 0.000069
O O17 0.416902 0.006662 0.944879
#
# Coordination Sequence:
#
# PCOD8043937 Si02
#       8
#     2   2   2   2   2   2   2   2
#     4  10  19  37  61  88 121 160 202 245 302 348
#     4  10  22  37  59  91 119 157 203 247 288 366
#     4   9  21  40  67  85 114 160 200 255 298 354
#     4  12  21  35  58  91 126 163 199 239 301 357
#     4   9  19  39  60  86 121 152 206 246 297 345
#     4  10  21  38  58  88 124 157 196 244 296 363
#     4  11  21  36  59  87 127 159 196 249 291 364
#     4  11  22  40  61  88 120 159 201 243 308 351
#
# _framework density 21.059501999999998
#
# number of rings (size 3 to 8) (size 9 to 14) (size 15 to 20)
#    0.750    1.000    2.500    2.250    0.000    1.500 
#    4.500    0.625    0.000    0.000    0.000    0.000 
#    0.000    0.000    0.000    0.000    0.000    0.000 
#
# Total GULP energy -198209.059134 kJ/mol
# GULP energy per Si atom -12388.066196 kJ/mol
# Density = 2.101157 g / cm^3
# Si number density = 21.059502 Si / 1000 Ang^3
#
#
#
# Elastic Constant Matrix: (Units=GPa)
#
#
# Indices 1 2 3 4 5 6 
#
# 1 130.5599 34.4889 45.1934 1.5310 3.4105 4.9021
# 2 34.4889 63.9767 15.5060 19.4599 -10.3105 -12.5979
# 3 45.1934 15.5060 44.9982 4.5723 -3.6109 -4.0747
# 4 1.5310 19.4599 4.5723 21.5321 -0.2202 -6.7837
# 5 3.4105 -10.3105 -3.6109 -0.2202 33.9881 5.5400
# 6 4.9021 -12.5979 -4.0747 -6.7837 5.5400 37.6809
#
#
#
# Elastic Compliance Matrix: (Units=1/GPa)
#
#
# Indices 1 2 3 4 5 6 
#
# 1 0.014880 -0.008957 -0.013495 0.008552 -0.004916 -0.004127
# 2 -0.008957 0.030146 0.002422 -0.025263 0.009224 0.005602
# 3 -0.013495 0.002422 0.036524 -0.007549 0.005205 0.004391
# 4 0.008552 -0.025263 -0.007549 0.071392 -0.009493 0.003873
# 5 -0.004916 0.009224 0.005205 -0.009493 0.033590 -0.002361
# 6 -0.004127 0.005602 0.004391 0.003873 -0.002361 0.030468
#
#
# Mechanical properties :
#
#
# Convention : Reuss Voigt Hill
#
# Bulk Modulus (GPa) = 24.10182 47.76793 35.93487
# Shear Modulus (GPa) = 18.45767 28.26331 23.36049
#
# Velocity S-wave (km/s) = 2.96371 3.66740 3.33417
# Velocity P-wave (km/s) = 4.81465 6.37689 5.65003
#
# Compressibility (1/GPa) = 0.04149064
#
# Stress axis : x y z
#
# Youngs Moduli (GPa) = 67.20521 33.17162 27.37901
#
# Poissons Ratio (x) = 0.29712 0.36948
# Poissons Ratio (y) = 0.60195 -0.06631
# Poissons Ratio (z) = 0.90694 -0.08034
#
# Static dielectric constant tensor:
#      x y z
#    x 4.079850 -0.165160 -0.117740 
#    y -0.165160 4.029900 0.390990 
#    z -0.117740 0.390990 3.644370 
# 
# 
# High freq. dielectric constant tensor:
#      x y z
#    x 1.831710 -0.008240 0.004790 
#    y -0.008240 1.808950 0.025710 
#    z 0.004790 0.025710 1.806440 
# 
# From -- ./inp_files/454709.got.cif
#   From: 2010.06.25/outbox.cif.g09.slc.cpg/sg2_228_cif.got.tgz:454709.got - 2010.06.27 13:26:56.
