data_PCOD8043509
_publ_section_title
;
Structure prediction by ZEFSAII (Michael W. Deem and Ramdas Pophale) SiO2 
 PCOD8043509
Probable space group: P -1
;
_chemical_formula_sum "Si O2"
_cell_formula_units_Z 16
_cell_length_a 11.275889
_cell_length_b 9.283298
_cell_length_c 11.504959
_cell_angle_alpha 101.939445
_cell_angle_beta 119.228307
_cell_angle_gamma 48.552837
_cell_volume 775.219122
_symmetry_space_group_name_H-M "P -1"
_symmetry_group_IT_number 2
_symmetry_cell_setting 'triclinic'
loop_
_space_group_symop_operation_xyz
x,y,z
-x,-y,-z
loop_
_atom_site_type_symbol
_atom_site_label
_atom_site_fract_x
_atom_site_fract_y
_atom_site_fract_z
Si Si1 0.754063 0.414962 0.060063
Si Si2 0.804282 0.505446 0.868330
Si Si3 0.194489 0.221279 0.930644
Si Si4 0.146475 0.403843 0.712014
Si Si5 0.204060 0.822418 0.593860
Si Si6 0.344074 0.803420 0.908357
Si Si7 0.234302 0.451515 0.522762
Si Si8 0.514524 0.655703 0.568567
O O1 0.872898 0.418653 0.212645
O O2 0.751747 0.246802 0.063396
O O3 0.846249 0.362744 0.969772
O O4 0.556856 0.629394 0.988766
O O5 0.636796 0.571263 0.726513
O O6 0.977332 0.374338 0.846465
O O7 0.754808 0.701355 0.929683
O O8 0.254356 0.230195 0.830653
O O9 0.291287 0.999471 0.967561
O O10 0.262168 0.340081 0.637364
O O11 0.952285 0.470464 0.608225
O O12 0.266509 0.843902 0.749250
O O13 0.233485 0.626186 0.575361
O O14 0.313037 0.836118 0.547510
O O15 0.000000 0.000000 0.500000
O O16 0.401789 0.302335 0.488167
O O17 0.500000 0.500000 0.500000
#
# Coordination Sequence:
#
# PCOD8043509 Si02
#       8
#     2   2   2   2   2   2   2   2
#     4  10  22  39  65  88 127 168 208 262 313 369
#     4  10  20  40  61  91 122 164 207 258 319 367
#     4  10  22  37  64  90 124 161 209 261 311 372
#     4  10  19  36  63  93 120 167 209 254 310 372
#     4  11  22  38  61  93 124 163 214 262 312 376
#     4  11  22  39  61  94 124 162 216 261 310 370
#     4  10  20  37  63  88 123 170 212 248 314 379
#     4  10  21  37  62  91 121 167 208 257 311 371
#
# _framework density 20.639327000000002
#
# number of rings (size 3 to 8) (size 9 to 14) (size 15 to 20)
#    0.000    1.750    3.750    0.750    1.750    2.500 
#    2.250    0.000    2.750    8.250    0.000    0.000 
#    0.000    0.000    0.000    0.000    0.000    0.000 
#
# Total GULP energy -198254.033296 kJ/mol
# GULP energy per Si atom -12390.877081 kJ/mol
# Density = 2.059235 g / cm^3
# Si number density = 20.639327 Si / 1000 Ang^3
#
#
#
# Elastic Constant Matrix: (Units=GPa)
#
#
# Indices 1 2 3 4 5 6 
#
# 1 139.2347 34.3574 43.6485 9.2048 -19.2069 -1.0447
# 2 34.3574 83.5112 25.6891 -1.6724 -10.8166 10.6268
# 3 43.6485 25.6891 90.4673 16.4212 -7.1136 -6.2537
# 4 9.2048 -1.6724 16.4212 8.5451 2.2971 -2.5083
# 5 -19.2069 -10.8166 -7.1136 2.2971 41.1611 1.4010
# 6 -1.0447 10.6268 -6.2537 -2.5083 1.4010 29.1461
#
#
#
# Elastic Compliance Matrix: (Units=1/GPa)
#
#
# Indices 1 2 3 4 5 6 
#
# 1 0.009616 -0.003027 -0.002007 -0.008072 0.003790 0.000141
# 2 -0.003027 0.016554 -0.006739 0.017376 0.001012 -0.006143
# 3 -0.002007 -0.006739 0.021885 -0.041093 0.003253 0.003388
# 4 -0.008072 0.017376 -0.041093 0.214169 -0.018386 0.003874
# 5 0.003790 0.001012 0.003253 -0.018386 0.028002 -0.002464
# 6 0.000141 -0.006143 0.003388 0.003874 -0.002464 0.037734
#
#
# Mechanical properties :
#
#
# Convention : Reuss Voigt Hill
#
# Bulk Modulus (GPa) = 40.80386 57.84481 49.32434
# Shear Modulus (GPa) = 13.90148 29.73834 21.81991
#
# Velocity S-wave (km/s) = 2.59809 3.79998 3.25499
# Velocity P-wave (km/s) = 5.36777 6.88044 6.17063
#
# Compressibility (1/GPa) = 0.02450748
#
# Stress axis : x y z
#
# Youngs Moduli (GPa) = 103.99559 60.40919 45.69442
#
# Poissons Ratio (x) = 0.18288 0.09170
# Poissons Ratio (y) = 0.31483 0.30794
# Poissons Ratio (z) = 0.20871 0.40710
#
# Static dielectric constant tensor:
#      x y z
#    x 4.481590 0.009160 -0.101280 
#    y 0.009160 3.337180 0.302620 
#    z -0.101280 0.302620 3.812400 
# 
# 
# High freq. dielectric constant tensor:
#      x y z
#    x 1.836220 0.007260 0.003000 
#    y 0.007260 1.758950 0.023250 
#    z 0.003000 0.023250 1.819190 
# 
# From -- ./inp_files/261585.got.cif
#   From: 2010.06.25/outbox.cif.g09.slc.cpg/sg2_131_cif.got.tgz:261585.got - 2010.06.27 13:26:56.
