data_PCOD8043132
_publ_section_title
;
Structure prediction by ZEFSAII (Michael W. Deem and Ramdas Pophale) SiO2 
 PCOD8043132
Probable space group: P -1
;
_chemical_formula_sum "Si O2"
_cell_formula_units_Z 16
_cell_length_a 22.359211
_cell_length_b 14.239957
_cell_length_c 19.918823
_cell_angle_alpha 164.178331
_cell_angle_beta 19.271903
_cell_angle_gamma 153.869054
_cell_volume 566.866132
_symmetry_space_group_name_H-M "P -1"
_symmetry_group_IT_number 2
_symmetry_cell_setting 'triclinic'
loop_
_space_group_symop_operation_xyz
x,y,z
-x,-y,-z
loop_
_atom_site_type_symbol
_atom_site_label
_atom_site_fract_x
_atom_site_fract_y
_atom_site_fract_z
Si Si1 0.041323 0.453670 0.501109
Si Si2 0.798309 0.893110 0.356162
Si Si3 0.149655 0.075930 0.284777
Si Si4 0.069829 0.206600 0.998467
Si Si5 0.194451 0.231785 0.597222
Si Si6 0.582325 0.775079 0.996573
Si Si7 0.584664 0.522011 0.146941
Si Si8 0.655549 0.705094 0.650724
O O1 0.258512 0.338614 0.197268
O O2 0.000000 0.500000 0.500000
O O3 0.903497 0.182722 0.484570
O O4 0.992381 0.843831 0.852949
O O5 0.779599 0.626025 0.255345
O O6 0.915406 0.752760 0.071296
O O7 0.591636 0.025843 0.643124
O O8 0.338657 0.987853 0.982957
O O9 0.186904 0.118691 0.353787
O O10 0.020486 0.784212 0.202488
O O11 0.062578 0.452480 0.602631
O O12 0.275341 0.193954 0.800073
O O13 0.261150 0.463853 0.623894
O O14 0.307243 0.855267 0.211284
O O15 0.505140 0.460262 0.820017
O O16 0.423529 0.583472 0.416782
O O17 0.500000 0.000000 0.000000
#
# Coordination Sequence:
#
# PCOD8043132 Si02
#       8
#     2   2   2   2   2   2   2   2
#     4  10  22  40  60  85 119 160 201 237 291 355
#     4  10  21  41  61  85 120 157 204 236 283 360
#     4  10  19  36  58  89 116 152 193 245 296 337
#     4  10  22  39  57  84 125 155 189 253 299 333
#     4   9  16  33  60  82 111 153 195 238 278 350
#     4  10  20  39  60  85 116 154 204 237 282 352
#     4   8  18  35  54  87 120 145 189 247 291 338
#     4   9  17  32  57  87 116 149 196 236 289 355
#
# _framework density 28.225359999999998
#
# number of rings (size 3 to 8) (size 9 to 14) (size 15 to 20)
#    0.000    2.500    1.250    1.125    0.000    3.000 
#   13.500    1.250    0.000    0.000    0.000    0.000 
#    0.000    0.000    0.000    0.000    0.000    0.000 
#
# Total GULP energy -198239.221951 kJ/mol
# GULP energy per Si atom -12389.951372 kJ/mol
# Density = 2.816112 g / cm^3
# Si number density = 28.225360 Si / 1000 Ang^3
#
#
#
# Elastic Constant Matrix: (Units=GPa)
#
#
# Indices 1 2 3 4 5 6 
#
# 1 141.3301 26.3681 10.5986 -6.3006 -21.9937 18.9276
# 2 26.3681 60.6071 20.9902 -36.6689 -3.7841 9.1738
# 3 10.5986 20.9902 76.1788 -10.1137 -9.4771 13.3588
# 4 -6.3006 -36.6689 -10.1137 30.7864 1.8912 -4.9733
# 5 -21.9937 -3.7841 -9.4771 1.8912 48.2896 -9.5429
# 6 18.9276 9.1738 13.3588 -4.9733 -9.5429 49.1632
#
#
#
# Elastic Compliance Matrix: (Units=1/GPa)
#
#
# Indices 1 2 3 4 5 6 
#
# 1 0.009289 -0.010088 0.000958 -0.010392 0.003579 -0.002311
# 2 -0.010088 0.074396 -0.008412 0.084021 -0.003692 0.000070
# 3 0.000958 -0.008412 0.015433 -0.005398 0.002410 -0.003071
# 4 -0.010392 0.084021 -0.005398 0.129235 -0.003852 0.002115
# 5 0.003579 -0.003692 0.002410 -0.003852 0.023221 0.002774
# 6 -0.002311 0.000070 -0.003071 0.002115 0.002774 0.022804
#
#
# Mechanical properties :
#
#
# Convention : Reuss Voigt Hill
#
# Bulk Modulus (GPa) = 15.61668 43.78110 29.69889
# Shear Modulus (GPa) = 15.11458 40.32512 27.71985
#
# Velocity S-wave (km/s) = 2.31659 3.78389 3.13723
# Velocity P-wave (km/s) = 3.56375 5.88519 4.86496
#
# Compressibility (1/GPa) = 0.06403410
#
# Stress axis : x y z
#
# Youngs Moduli (GPa) = 107.65530 13.44166 64.79447
#
# Poissons Ratio (x) = 0.13559 -0.06206
# Poissons Ratio (y) = 1.08598 0.54507
# Poissons Ratio (z) = -0.10312 0.11307
#
# Static dielectric constant tensor:
#      x y z
#    x 5.897010 0.546450 0.146490 
#    y 0.546450 7.055330 -0.338880 
#    z 0.146490 -0.338880 5.018250 
# 
# 
# High freq. dielectric constant tensor:
#      x y z
#    x 2.176820 -0.005480 0.004210 
#    y -0.005480 2.132970 -0.028240 
#    z 0.004210 -0.028240 2.126930 
# 
# From -- ./inp_files/602135.got.cif
#   From: 2010.06.25/outbox.cif.g09.slc.cpg/sg2_302_cif.got.tgz:602135.got - 2010.06.27 13:26:56.
