data_PCOD8043565
_publ_section_title
;
Structure prediction by ZEFSAII (Michael W. Deem and Ramdas Pophale) SiO2 
 PCOD8043565
Probable space group: P -1
;
_chemical_formula_sum "Si O2"
_cell_formula_units_Z 16
_cell_length_a 11.419897
_cell_length_b 14.357772
_cell_length_c 10.652115
_cell_angle_alpha 53.006477
_cell_angle_beta 63.378702
_cell_angle_gamma 31.742094
_cell_volume 725.435444
_symmetry_space_group_name_H-M "P -1"
_symmetry_group_IT_number 2
_symmetry_cell_setting 'triclinic'
loop_
_space_group_symop_operation_xyz
x,y,z
-x,-y,-z
loop_
_atom_site_type_symbol
_atom_site_label
_atom_site_fract_x
_atom_site_fract_y
_atom_site_fract_z
Si Si1 0.855504 0.825294 0.222146
Si Si2 0.335947 0.933153 0.133825
Si Si3 0.427503 0.805615 0.802176
Si Si4 0.495432 0.393581 0.826490
Si Si5 0.628478 0.554543 0.676235
Si Si6 0.000564 0.308186 0.141433
Si Si7 0.867355 0.615690 0.784684
Si Si8 0.275565 0.320178 0.664235
O O1 0.759329 0.765444 0.341295
O O2 0.124345 0.628882 0.229125
O O3 0.801042 0.953945 0.259051
O O4 0.716875 0.964409 0.053582
O O5 0.369184 0.773061 0.212608
O O6 0.563472 0.820261 0.178780
O O7 0.130445 0.101183 0.192912
O O8 0.438043 0.729042 0.727880
O O9 0.618099 0.766958 0.737697
O O10 0.449306 0.693366 0.990936
O O11 0.563784 0.477379 0.713418
O O12 0.231029 0.567621 0.787254
O O13 0.620105 0.650165 0.488482
O O14 0.150424 0.261502 0.213601
O O15 0.968969 0.425413 0.952062
O O16 0.027094 0.534961 0.657887
#
# Coordination Sequence:
#
# PCOD8043565 Si02
#       8
#     2   2   2   2   2   2   2   2
#     4  11  23  41  67  93 121 162 211 258 306 363
#     4  11  22  40  68  96 118 159 212 265 299 359
#     4  10  22  40  66  92 117 164 216 257 293 368
#     4  10  23  41  64  91 123 168 214 248 299 366
#     4  12  26  43  60  89 136 172 194 250 315 377
#     4  10  19  37  65  92 122 154 207 266 299 356
#     4  10  19  36  64  95 123 155 201 260 320 351
#     4  12  23  41  64  95 132 157 198 262 325 365
#
# _framework density 22.055717000000001
#
# number of rings (size 3 to 8) (size 9 to 14) (size 15 to 20)
#    0.000    1.250    3.750    2.625    1.750    4.000 
#    2.250    0.625    0.000    0.000    0.000    0.000 
#    0.000    0.000    0.000    0.000    0.000    0.000 
#
# Total GULP energy -198381.044726 kJ/mol
# GULP energy per Si atom -12398.815295 kJ/mol
# Density = 2.200552 g / cm^3
# Si number density = 22.055717 Si / 1000 Ang^3
#
#
#
# Elastic Constant Matrix: (Units=GPa)
#
#
# Indices 1 2 3 4 5 6 
#
# 1 111.1030 35.3484 21.3918 -10.5552 -25.5644 25.8427
# 2 35.3484 129.5447 27.9095 -5.1439 -10.8399 41.1891
# 3 21.3918 27.9095 38.3330 -2.7334 -13.6859 2.6781
# 4 -10.5552 -5.1439 -2.7334 13.8744 -1.0907 0.0870
# 5 -25.5644 -10.8399 -13.6859 -1.0907 31.8310 -4.7349
# 6 25.8427 41.1891 2.6781 0.0870 -4.7349 41.4808
#
#
#
# Elastic Compliance Matrix: (Units=1/GPa)
#
#
# Indices 1 2 3 4 5 6 
#
# 1 0.014860 0.000886 -0.004075 0.011639 0.009573 -0.008807
# 2 0.000886 0.014158 -0.009750 0.004042 -0.000612 -0.014059
# 3 -0.004075 -0.009750 0.039074 0.001850 0.011914 0.011054
# 4 0.011639 0.004042 0.001850 0.083870 0.012893 -0.010089
# 5 0.009573 -0.000612 0.011914 0.012893 0.044297 -0.001096
# 6 -0.008807 -0.014059 0.011054 -0.010089 -0.001096 0.042737
#
#
# Mechanical properties :
#
#
# Convention : Reuss Voigt Hill
#
# Bulk Modulus (GPa) = 23.68916 49.80889 36.74902
# Shear Modulus (GPa) = 17.92469 30.39264 24.15866
#
# Velocity S-wave (km/s) = 2.85388 3.71616 3.31319
# Velocity P-wave (km/s) = 4.65010 6.40667 5.59771
#
# Compressibility (1/GPa) = 0.04221341
#
# Stress axis : x y z
#
# Youngs Moduli (GPa) = 67.29379 70.63360 25.59259
#
# Poissons Ratio (x) = -0.06261 0.10429
# Poissons Ratio (y) = -0.05965 0.24954
# Poissons Ratio (z) = 0.27423 0.68871
#
# Static dielectric constant tensor:
#      x y z
#    x 3.906860 0.217900 0.012050 
#    y 0.217900 4.264770 -0.084210 
#    z 0.012050 -0.084210 3.525780 
# 
# 
# High freq. dielectric constant tensor:
#      x y z
#    x 1.862860 0.017200 -0.000090 
#    y 0.017200 1.880580 -0.000430 
#    z -0.000090 -0.000430 1.829570 
# 
# From -- ./inp_files/432567.got.cif
#   From: 2010.06.25/outbox.cif.g09.slc.cpg/sg2_217_cif.got.tgz:432567.got - 2010.06.27 13:26:56.
