data_PCOD8043541
_publ_section_title
;
Structure prediction by ZEFSAII (Michael W. Deem and Ramdas Pophale) SiO2 
 PCOD8043541
Probable space group: P -1
;
_chemical_formula_sum "Si O2"
_cell_formula_units_Z 16
_cell_length_a 28.060507
_cell_length_b 22.418805
_cell_length_c 8.683483
_cell_angle_alpha 46.566472
_cell_angle_beta 133.383785
_cell_angle_gamma 168.982957
_cell_volume 755.203358
_symmetry_space_group_name_H-M "P -1"
_symmetry_group_IT_number 2
_symmetry_cell_setting 'triclinic'
loop_
_space_group_symop_operation_xyz
x,y,z
-x,-y,-z
loop_
_atom_site_type_symbol
_atom_site_label
_atom_site_fract_x
_atom_site_fract_y
_atom_site_fract_z
Si Si1 0.639590 0.250320 0.914856
Si Si2 0.884360 0.635062 0.017277
Si Si3 0.430701 0.651392 0.962849
Si Si4 0.297050 0.325969 0.393155
Si Si5 0.928517 0.299973 0.071431
Si Si6 0.660449 0.908478 0.700879
Si Si7 0.762713 0.636743 0.516805
Si Si8 0.861732 0.278963 0.293279
O O1 0.734689 0.373202 0.085758
O O2 0.888388 0.554906 0.820327
O O3 0.441825 0.083208 0.744220
O O4 0.500000 0.000000 0.000000
O O5 0.786801 0.547086 0.123161
O O6 0.832662 0.641213 0.762470
O O7 0.181276 0.977643 0.085015
O O8 0.344111 0.453274 0.144667
O O9 0.650567 0.935672 0.067970
O O10 0.505982 0.760688 0.761151
O O11 0.500000 0.500000 0.500000
O O12 0.314509 0.381986 0.507283
O O13 0.007447 0.948699 0.400263
O O14 0.970931 0.371872 0.215535
O O15 0.001719 0.468277 0.828689
O O16 0.475829 0.659853 0.596630
O O17 0.883482 0.241045 0.549531
#
# Coordination Sequence:
#
# PCOD8043541 Si02
#       8
#     2   2   2   2   2   2   2   2
#     4  10  19  36  64  89 121 169 213 256 306 358
#     4  11  22  43  62  93 133 164 210 262 307 371
#     4  11  23  39  61  92 129 163 205 262 312 371
#     4  10  22  42  70  94 120 165 209 255 319 377
#     4  10  20  38  65  86 125 171 205 256 316 359
#     4  12  24  40  65  96 127 167 207 257 313 370
#     4  10  23  44  66  92 128 162 207 260 311 375
#     4  10  21  38  61  93 123 165 216 254 301 374
#
# _framework density 21.186347999999999
#
# number of rings (size 3 to 8) (size 9 to 14) (size 15 to 20)
#    0.000    1.500    3.750    1.500    0.000    3.000 
#    0.000    9.375    0.000    0.000    0.000    0.000 
#    0.000    0.000    0.000    0.000    0.000    0.000 
#
# Total GULP energy -198240.617130 kJ/mol
# GULP energy per Si atom -12390.038571 kJ/mol
# Density = 2.113813 g / cm^3
# Si number density = 21.186348 Si / 1000 Ang^3
#
#
#
# Elastic Constant Matrix: (Units=GPa)
#
#
# Indices 1 2 3 4 5 6 
#
# 1 130.3495 36.5198 38.0076 2.6621 -2.9082 19.8716
# 2 36.5198 96.3831 38.3381 2.5658 8.6219 3.3859
# 3 38.0076 38.3381 76.2870 -7.0134 -6.9923 -5.2081
# 4 2.6621 2.5658 -7.0134 41.0625 4.6433 -0.9317
# 5 -2.9082 8.6219 -6.9923 4.6433 21.6043 -0.3650
# 6 19.8716 3.3859 -5.2081 -0.9317 -0.3650 36.3254
#
#
#
# Elastic Compliance Matrix: (Units=1/GPa)
#
#
# Indices 1 2 3 4 5 6 
#
# 1 0.010647 -0.001917 -0.004847 -0.001642 0.000874 -0.006374
# 2 -0.001917 0.014941 -0.007540 -0.001178 -0.008434 -0.001540
# 3 -0.004847 -0.007540 0.020858 0.003540 0.008457 0.006521
# 4 -0.001642 -0.001178 0.003540 0.025648 -0.004081 0.002132
# 5 0.000874 -0.008434 0.008457 -0.004081 0.053418 0.001952
# 6 -0.006374 -0.001540 0.006521 0.002132 0.001952 0.032168
#
#
# Mechanical properties :
#
#
# Convention : Reuss Voigt Hill
#
# Bulk Modulus (GPa) = 56.05990 58.75006 57.40498
# Shear Modulus (GPa) = 26.01011 32.47538 29.24274
#
# Velocity S-wave (km/s) = 3.50763 3.91940 3.71922
# Velocity P-wave (km/s) = 6.55152 6.94785 6.75260
#
# Compressibility (1/GPa) = 0.01783806
#
# Stress axis : x y z
#
# Youngs Moduli (GPa) = 93.92559 66.93196 47.94265
#
# Poissons Ratio (x) = 0.12828 0.23238
# Poissons Ratio (y) = 0.18002 0.36149
# Poissons Ratio (z) = 0.45527 0.50466
#
# Static dielectric constant tensor:
#      x y z
#    x 4.299470 0.271800 0.120250 
#    y 0.271800 4.123000 -0.099580 
#    z 0.120250 -0.099580 3.657420 
# 
# 
# High freq. dielectric constant tensor:
#      x y z
#    x 1.848440 0.012000 0.002920 
#    y 0.012000 1.838350 -0.009810 
#    z 0.002920 -0.009810 1.796060 
# 
# From -- ./inp_files/359027.got.cif
#   From: 2010.06.25/outbox.cif.g09.slc.cpg/sg2_180_cif.got.tgz:359027.got - 2010.06.27 13:26:56.
