data_PCOD8043189
_publ_section_title
;
Structure prediction by ZEFSAII (Michael W. Deem and Ramdas Pophale) SiO2 
 PCOD8043189
Probable space group: P -1
;
_chemical_formula_sum "Si O2"
_cell_formula_units_Z 16
_cell_length_a 8.526587
_cell_length_b 13.868963
_cell_length_c 16.158259
_cell_angle_alpha 42.970973
_cell_angle_beta 103.470140
_cell_angle_gamma 68.779590
_cell_volume 754.603629
_symmetry_space_group_name_H-M "P -1"
_symmetry_group_IT_number 2
_symmetry_cell_setting 'triclinic'
loop_
_space_group_symop_operation_xyz
x,y,z
-x,-y,-z
loop_
_atom_site_type_symbol
_atom_site_label
_atom_site_fract_x
_atom_site_fract_y
_atom_site_fract_z
Si Si1 0.714808 0.634248 0.309106
Si Si2 0.544648 0.131626 0.410171
Si Si3 0.094888 0.619377 0.349048
Si Si4 0.461102 0.734489 0.838880
Si Si5 0.841509 0.301565 0.258218
Si Si6 0.835207 0.078531 0.009988
Si Si7 0.369229 0.481776 0.293684
Si Si8 0.084200 0.766421 0.497053
O O1 0.689246 0.605772 0.420973
O O2 0.934347 0.371492 0.462909
O O3 0.823295 0.715626 0.257376
O O4 0.431078 0.819232 0.113301
O O5 0.461000 0.204077 0.258174
O O6 0.360201 0.358837 0.304579
O O7 0.500000 0.000000 0.500000
O O8 0.859928 0.949481 0.580087
O O9 0.215085 0.541884 0.319891
O O10 0.012184 0.837536 0.234196
O O11 0.376085 0.662537 0.816080
O O12 0.723664 0.526701 0.059560
O O13 0.207133 0.955953 0.726018
O O14 0.847735 0.312674 0.349484
O O15 0.762828 0.282606 0.913767
O O16 0.000000 0.000000 0.000000
O O17 0.677825 0.303771 0.468089
#
# Coordination Sequence:
#
# PCOD8043189 Si02
#       8
#     2   2   2   2   2   2   2   2
#     4  10  22  38  63  87 119 156 190 244 300 354
#     4  11  22  38  61  86 128 155 188 245 295 347
#     4  10  22  40  59  88 122 150 197 242 300 352
#     4  10  20  38  62  85 120 151 199 239 292 346
#     4  10  20  38  61  86 117 155 197 244 285 352
#     4   9  20  38  61  83 115 148 198 243 286 338
#     4  10  20  37  60  86 115 156 199 236 292 347
#     4  10  19  36  59  88 116 155 198 238 292 344
#
# _framework density 21.203182999999999
#
# number of rings (size 3 to 8) (size 9 to 14) (size 15 to 20)
#    0.000    2.000    2.500    1.125    3.500    7.000 
#    0.000    3.750    0.000    0.000    0.000    0.000 
#    0.000    0.000    0.000    0.000    0.000    0.000 
#
# Total GULP energy -198262.259155 kJ/mol
# GULP energy per Si atom -12391.391197 kJ/mol
# Density = 2.115492 g / cm^3
# Si number density = 21.203183 Si / 1000 Ang^3
#
#
#
# Elastic Constant Matrix: (Units=GPa)
#
#
# Indices 1 2 3 4 5 6 
#
# 1 88.8692 30.8327 22.2646 -4.8249 -30.6828 -6.1180
# 2 30.8327 65.5571 15.3715 -24.9576 -5.4342 0.0843
# 3 22.2646 15.3715 97.2574 -7.5612 -16.4687 -14.5577
# 4 -4.8249 -24.9576 -7.5612 30.4354 6.0396 -2.9952
# 5 -30.6828 -5.4342 -16.4687 6.0396 25.8767 -3.4867
# 6 -6.1180 0.0843 -14.5577 -2.9952 -3.4867 32.6505
#
#
#
# Elastic Compliance Matrix: (Units=1/GPa)
#
#
# Indices 1 2 3 4 5 6 
#
# 1 0.029388 -0.017147 0.002572 -0.015330 0.037716 0.009319
# 2 -0.017147 0.032653 -0.003726 0.027184 -0.022851 -0.004905
# 3 0.002572 -0.003726 0.013395 -0.000956 0.012048 0.007663
# 4 -0.015330 0.027184 -0.000956 0.057680 -0.026665 -0.000925
# 5 0.037716 -0.022851 0.012048 -0.026665 0.095182 0.020216
# 6 0.009319 -0.004905 0.007663 -0.000925 0.020216 0.037877
#
#
# Mechanical properties :
#
#
# Convention : Reuss Voigt Hill
#
# Bulk Modulus (GPa) = 25.74981 43.18013 34.46497
# Shear Modulus (GPa) = 15.83678 30.00684 22.92181
#
# Velocity S-wave (km/s) = 2.73592 3.76600 3.29151
# Velocity P-wave (km/s) = 4.70649 6.27053 5.54394
#
# Compressibility (1/GPa) = 0.03883525
#
# Stress axis : x y z
#
# Youngs Moduli (GPa) = 34.02740 30.62512 74.65643
#
# Poissons Ratio (x) = 0.52512 -0.19201
# Poissons Ratio (y) = 0.58345 0.27814
# Poissons Ratio (z) = -0.08752 0.11410
#
# Static dielectric constant tensor:
#      x y z
#    x 3.908320 -0.126840 -0.241190 
#    y -0.126840 3.834650 -0.308270 
#    z -0.241190 -0.308270 4.218360 
# 
# 
# High freq. dielectric constant tensor:
#      x y z
#    x 1.826860 -0.007960 -0.015410 
#    y -0.007960 1.821750 -0.015750 
#    z -0.015410 -0.015750 1.828570 
# 
# From -- ./inp_files/405534.got.cif
#   From: 2010.06.25/outbox.cif.g09.slc.cpg/sg2_203_cif.got.tgz:405534.got - 2010.06.27 13:26:56.
