data_PCOD8043748
_publ_section_title
;
Structure prediction by ZEFSAII (Michael W. Deem and Ramdas Pophale) SiO2 
 PCOD8043748
Probable space group: P -1
;
_chemical_formula_sum "Si O2"
_cell_formula_units_Z 16
_cell_length_a 10.251285
_cell_length_b 20.948030
_cell_length_c 12.065594
_cell_angle_alpha 149.463822
_cell_angle_beta 142.329063
_cell_angle_gamma 50.686212
_cell_volume 794.768849
_symmetry_space_group_name_H-M "P -1"
_symmetry_group_IT_number 2
_symmetry_cell_setting 'triclinic'
loop_
_space_group_symop_operation_xyz
x,y,z
-x,-y,-z
loop_
_atom_site_type_symbol
_atom_site_label
_atom_site_fract_x
_atom_site_fract_y
_atom_site_fract_z
Si Si1 0.018201 0.661441 0.327787
Si Si2 0.509534 0.864585 0.451161
Si Si3 0.032433 0.148830 0.248636
Si Si4 0.291366 0.453236 0.576467
Si Si5 0.626715 0.405520 0.380194
Si Si6 0.574848 0.148623 0.878198
Si Si7 0.164251 0.639635 0.943136
Si Si8 0.755461 0.413324 0.833660
O O1 0.158465 0.592348 0.402931
O O2 0.133679 0.679031 0.311813
O O3 0.984166 0.798122 0.557201
O O4 0.798516 0.557654 0.027153
O O5 0.718658 0.810048 0.562934
O O6 0.530283 0.855273 0.318537
O O7 0.512214 0.015122 0.702832
O O8 0.297137 0.781514 0.233334
O O9 0.839373 0.189525 0.105299
O O10 0.000000 0.000000 0.000000
O O11 0.312332 0.552734 0.640128
O O12 0.280906 0.534027 0.802493
O O13 0.494429 0.376202 0.604977
O O14 0.070855 0.354999 0.260885
O O15 0.500000 0.500000 0.500000
O O16 0.493747 0.260590 0.064263
O O17 0.144271 0.601270 0.000510
#
# Coordination Sequence:
#
# PCOD8043748 Si02
#       8
#     2   2   2   2   2   2   2   2
#     4  10  21  35  58  87 117 142 195 235 284 340
#     4  10  19  37  58  84 111 146 187 236 281 330
#     4   9  19  35  58  86 109 142 189 240 280 321
#     4  11  22  36  53  86 118 154 187 231 287 337
#     4  11  19  36  60  86 115 147 186 241 285 329
#     4   9  20  34  58  87 108 139 191 236 276 329
#     4  11  23  36  55  81 121 154 188 229 283 344
#     4  11  22  36  53  88 116 151 184 233 287 340
#
# _framework density 20.131640000000001
#
# number of rings (size 3 to 8) (size 9 to 14) (size 15 to 20)
#    0.000    1.750    3.750    1.125    0.000    1.000 
#    0.000    0.000    0.000    7.500    0.000    0.000 
#    0.000    0.000    0.000    0.000    0.000    0.000 
#
# Total GULP energy -198252.076665 kJ/mol
# GULP energy per Si atom -12390.754792 kJ/mol
# Density = 2.008582 g / cm^3
# Si number density = 20.131640 Si / 1000 Ang^3
#
#
#
# Elastic Constant Matrix: (Units=GPa)
#
#
# Indices 1 2 3 4 5 6 
#
# 1 92.2402 23.9569 43.6884 14.1076 -7.2100 -5.0374
# 2 23.9569 54.7261 35.2714 10.4457 -1.6820 -13.7282
# 3 43.6884 35.2714 114.3997 18.9026 4.3707 -15.3058
# 4 14.1076 10.4457 18.9026 37.6971 -7.0577 -7.1015
# 5 -7.2100 -1.6820 4.3707 -7.0577 38.5493 -2.7977
# 6 -5.0374 -13.7282 -15.3058 -7.1015 -2.7977 28.5905
#
#
#
# Elastic Compliance Matrix: (Units=1/GPa)
#
#
# Indices 1 2 3 4 5 6 
#
# 1 0.014201 -0.003360 -0.004375 -0.002044 0.002507 -0.001716
# 2 -0.003360 0.025634 -0.005302 -0.001267 0.001491 0.008709
# 3 -0.004375 -0.005302 0.013083 -0.003542 -0.002999 0.002514
# 4 -0.002044 -0.001267 -0.003542 0.031626 0.006160 0.005594
# 5 0.002507 0.001491 -0.002999 0.006160 0.028222 0.003844
# 6 -0.001716 0.008709 0.002514 0.005594 0.003844 0.041967
#
#
# Mechanical properties :
#
#
# Convention : Reuss Voigt Hill
#
# Bulk Modulus (GPa) = 37.25476 51.91104 44.58290
# Shear Modulus (GPa) = 26.34977 31.53068 28.94023
#
# Velocity S-wave (km/s) = 3.62176 3.96185 3.79562
# Velocity P-wave (km/s) = 6.00294 6.83887 6.43449
#
# Compressibility (1/GPa) = 0.02684221
#
# Stress axis : x y z
#
# Youngs Moduli (GPa) = 70.41817 39.01137 76.43538
#
# Poissons Ratio (x) = 0.13109 0.33439
# Poissons Ratio (y) = 0.23662 0.40530
# Poissons Ratio (z) = 0.30807 0.20686
#
# Static dielectric constant tensor:
#      x y z
#    x 3.567050 -0.250000 0.036240 
#    y -0.250000 3.467250 -0.373630 
#    z 0.036240 -0.373630 4.121170 
# 
# 
# High freq. dielectric constant tensor:
#      x y z
#    x 1.753170 -0.014990 -0.005780 
#    y -0.014990 1.773570 -0.020030 
#    z -0.005780 -0.020030 1.804650 
# 
# From -- ./inp_files/406832.got.cif
#   From: 2010.06.25/outbox.cif.g09.slc.cpg/sg2_204_cif.got.tgz:406832.got - 2010.06.27 13:26:56.
