data_PCOD8043709
_publ_section_title
;
Structure prediction by ZEFSAII (Michael W. Deem and Ramdas Pophale) SiO2 
 PCOD8043709
Probable space group: P -1
;
_chemical_formula_sum "Si O2"
_cell_formula_units_Z 14
_cell_length_a 11.465020
_cell_length_b 18.130857
_cell_length_c 8.848242
_cell_angle_alpha 63.737908
_cell_angle_beta 50.457627
_cell_angle_gamma 33.673225
_cell_volume 769.840392
_symmetry_space_group_name_H-M "P -1"
_symmetry_group_IT_number 2
_symmetry_cell_setting 'triclinic'
loop_
_space_group_symop_operation_xyz
x,y,z
-x,-y,-z
loop_
_atom_site_type_symbol
_atom_site_label
_atom_site_fract_x
_atom_site_fract_y
_atom_site_fract_z
Si Si1 0.017931 0.310133 0.088509
Si Si2 0.466468 0.519083 0.832661
Si Si3 0.436238 0.014842 0.367266
Si Si4 0.875151 0.280788 0.495561
Si Si5 0.698191 0.253065 0.386886
Si Si6 0.520655 0.824144 0.283815
Si Si7 0.771556 0.953201 0.920618
O O1 0.804970 0.401096 0.054385
O O2 0.892807 0.359903 0.313743
O O3 0.197507 0.150624 0.085995
O O4 0.204786 0.304677 0.905689
O O5 0.681585 0.372845 0.708253
O O6 0.483095 0.605133 0.679202
O O7 0.500000 0.500000 0.000000
O O8 0.139704 0.143648 0.473476
O O9 0.500000 0.000000 0.500000
O O10 0.542827 0.880044 0.350913
O O11 0.578246 0.027890 0.150595
O O12 0.776649 0.252381 0.488907
O O13 0.554945 0.230005 0.537045
O O14 0.951008 0.134558 0.183607
O O15 0.323349 0.939800 0.218825
#
# Coordination Sequence:
#
# PCOD8043709 Si02
#       7
#     2   2   2   2   2   2   2
#     4   9  17  34  58  79 103 145 188 220 254 327
#     4  10  22  38  57  77 108 149 187 221 270 328
#     4  11  21  32  57  87 113 146 176 220 272 335
#     4  10  19  37  57  79 106 145 193 215 262 329
#     4  10  21  35  60  82 107 144 183 233 266 315
#     4  11  18  36  58  85 112 136 182 230 276 314
#     4   9  17  34  55  81 109 142 182 213 270 325
#
# _framework density 18.185587999999999
#
# number of rings (size 3 to 8) (size 9 to 14) (size 15 to 20)
#    0.000    2.286    4.286    3.000    6.000    0.000 
#    0.000    5.714    0.000    0.000    0.000    0.000 
#    0.000    0.000    0.000    0.000    0.000    0.000 
#
# Total GULP energy -173492.713164 kJ/mol
# GULP energy per Si atom -12392.336655 kJ/mol
# Density = 1.814420 g / cm^3
# Si number density = 18.185588 Si / 1000 Ang^3
#
#
#
# Elastic Constant Matrix: (Units=GPa)
#
#
# Indices 1 2 3 4 5 6 
#
# 1 73.2843 27.4612 51.3728 -7.5353 1.8519 -6.2600
# 2 27.4612 62.4742 37.2019 3.2367 -0.2313 -10.7488
# 3 51.3728 37.2019 103.9552 0.6883 -8.6307 3.7017
# 4 -7.5353 3.2367 0.6883 29.7515 -1.0380 -1.1445
# 5 1.8519 -0.2313 -8.6307 -1.0380 45.0609 -8.3237
# 6 -6.2600 -10.7488 3.7017 -1.1445 -8.3237 20.5261
#
#
#
# Elastic Compliance Matrix: (Units=1/GPa)
#
#
# Indices 1 2 3 4 5 6 
#
# 1 0.024050 -0.002904 -0.011295 0.006904 -0.001607 0.007584
# 2 -0.002904 0.024298 -0.007624 -0.002638 0.001229 0.013564
# 3 -0.011295 -0.007624 0.018476 -0.002776 0.002035 -0.010099
# 4 0.006904 -0.002638 -0.002776 0.035868 0.000641 0.003485
# 5 -0.001607 0.001229 0.002035 0.000641 0.024469 0.009745
# 6 0.007584 0.013564 -0.010099 0.003485 0.009745 0.064102
#
#
# Mechanical properties :
#
#
# Convention : Reuss Voigt Hill
#
# Bulk Modulus (GPa) = 43.14335 52.42061 47.78198
# Shear Modulus (GPa) = 20.60711 27.31290 23.96000
#
# Velocity S-wave (km/s) = 3.36989 3.87964 3.63371
# Velocity P-wave (km/s) = 6.23835 6.99691 6.62849
#
# Compressibility (1/GPa) = 0.02317854
#
# Stress axis : x y z
#
# Youngs Moduli (GPa) = 41.58015 41.15583 54.12325
#
# Poissons Ratio (x) = 0.11953 0.61131
# Poissons Ratio (y) = 0.12077 0.41261
# Poissons Ratio (z) = 0.46964 0.31375
#
# Static dielectric constant tensor:
#      x y z
#    x 3.076090 -0.200230 -0.154380 
#    y -0.200230 3.257460 0.246550 
#    z -0.154380 0.246550 3.677240 
# 
# 
# High freq. dielectric constant tensor:
#      x y z
#    x 1.669060 -0.026910 -0.010240 
#    y -0.026910 1.691300 0.015380 
#    z -0.010240 0.015380 1.715590 
# 
# From -- ./inp_files/168543.got.cif
#   From: 2010.06.25/outbox.cif.g09.slc.cpg/sg2_85_cif.got.tgz:168543.got - 2010.06.27 13:26:56.
