data_PCOD8043490
_publ_section_title
;
Structure prediction by ZEFSAII (Michael W. Deem and Ramdas Pophale) SiO2 
 PCOD8043490
Probable space group: P -1
;
_chemical_formula_sum "Si O2"
_cell_formula_units_Z 14
_cell_length_a 9.609953
_cell_length_b 15.260600
_cell_length_c 23.946223
_cell_angle_alpha 29.543723
_cell_angle_beta 152.592256
_cell_angle_gamma 151.613721
_cell_volume 702.155339
_symmetry_space_group_name_H-M "P -1"
_symmetry_group_IT_number 2
_symmetry_cell_setting 'triclinic'
loop_
_space_group_symop_operation_xyz
x,y,z
-x,-y,-z
loop_
_atom_site_type_symbol
_atom_site_label
_atom_site_fract_x
_atom_site_fract_y
_atom_site_fract_z
Si Si1 0.825207 0.494982 0.643996
Si Si2 0.731745 0.919893 0.877022
Si Si3 0.681534 0.517188 0.760311
Si Si4 0.972595 0.195617 0.366801
Si Si5 0.700149 0.196917 0.864164
Si Si6 0.652542 0.221195 0.073622
Si Si7 0.774696 0.632576 0.221391
O O1 0.500000 0.500000 0.500000
O O2 0.703865 0.306043 0.747033
O O3 0.035398 0.704752 0.633477
O O4 0.088623 0.502966 0.686097
O O5 0.356372 0.821735 0.772046
O O6 0.673541 0.903001 0.932458
O O7 0.917870 0.142580 0.795057
O O8 0.935508 0.799854 0.998870
O O9 0.671488 0.315256 0.842763
O O10 0.329244 0.448144 0.707431
O O11 0.702977 0.661502 0.636320
O O12 0.991210 0.647488 0.841426
O O13 0.000000 0.000000 0.500000
O O14 0.381196 0.965133 0.875033
O O15 0.567995 0.377137 0.922833
#
# Coordination Sequence:
#
# PCOD8043490 Si02
#       7
#     2   2   2   2   2   2   2
#     4  11  22  37  65  85 116 160 205 245 288 362
#     4  10  19  36  66  85 122 154 203 247 280 370
#     4  10  24  36  61  89 129 149 195 256 296 356
#     4  10  23  41  60  87 115 163 203 244 294 357
#     4  10  20  39  60  91 117 163 199 235 307 348
#     4  10  19  36  63  88 126 157 190 248 288 371
#     4  11  20  39  58  94 118 153 196 248 307 337
#
# _framework density 19.938609
#
# number of rings (size 3 to 8) (size 9 to 14) (size 15 to 20)
#    0.000    1.714    2.857    2.143    4.000    4.000 
#    2.571    7.143    0.000    0.000    0.000    0.000 
#    0.000    0.000    0.000    0.000    0.000    0.000 
#
# Total GULP energy -173499.710385 kJ/mol
# GULP energy per Si atom -12392.836456 kJ/mol
# Density = 1.989323 g / cm^3
# Si number density = 19.938609 Si / 1000 Ang^3
#
#
#
# Elastic Constant Matrix: (Units=GPa)
#
#
# Indices 1 2 3 4 5 6 
#
# 1 144.7049 53.5780 43.1733 -23.9926 11.7433 5.6534
# 2 53.5780 74.9021 19.8759 -19.4692 6.2343 -12.3658
# 3 43.1733 19.8759 97.3320 -23.2885 6.6583 -8.5118
# 4 -23.9926 -19.4692 -23.2885 24.9823 -6.3619 2.3238
# 5 11.7433 6.2343 6.6583 -6.3619 20.8621 -6.6773
# 6 5.6534 -12.3658 -8.5118 2.3238 -6.6773 32.4198
#
#
#
# Elastic Compliance Matrix: (Units=1/GPa)
#
#
# Indices 1 2 3 4 5 6 
#
# 1 0.011820 -0.007957 -0.003624 0.001150 -0.005064 -0.007173
# 2 -0.007957 0.023138 0.002528 0.012790 0.004117 0.010808
# 3 -0.003624 0.002528 0.014560 0.012088 0.001906 0.004945
# 4 0.001150 0.012790 0.012088 0.065247 0.013474 0.005950
# 5 -0.005064 0.004117 0.001906 0.013474 0.057480 0.013827
# 6 -0.007173 0.010808 0.004945 0.005950 0.013827 0.039938
#
#
# Mechanical properties :
#
#
# Convention : Reuss Voigt Hill
#
# Bulk Modulus (GPa) = 31.83472 61.13260 46.48366
# Shear Modulus (GPa) = 20.76779 29.00696 24.88738
#
# Velocity S-wave (km/s) = 3.23086 3.81834 3.53682
# Velocity P-wave (km/s) = 5.46983 7.08284 6.32794
#
# Compressibility (1/GPa) = 0.03141224
#
# Stress axis : x y z
#
# Youngs Moduli (GPa) = 84.60390 43.21966 68.68364
#
# Poissons Ratio (x) = 0.34390 0.24889
# Poissons Ratio (y) = 0.67319 -0.17365
# Poissons Ratio (z) = 0.30658 -0.10927
#
# Static dielectric constant tensor:
#      x y z
#    x 3.846540 0.006100 -0.125180 
#    y 0.006100 3.751070 -0.305460 
#    z -0.125180 -0.305460 3.694750 
# 
# 
# High freq. dielectric constant tensor:
#      x y z
#    x 1.776620 -0.009570 -0.006800 
#    y -0.009570 1.780760 -0.007700 
#    z -0.006800 -0.007700 1.767050 
# 
# From -- ./inp_files/156971.got.cif
#   From: 2010.06.25/outbox.cif.g09.slc.cpg/sg2_79_cif.got.tgz:156971.got - 2010.06.27 13:26:56.
