data_PCOD8043877
_publ_section_title
;
Structure prediction by ZEFSAII (Michael W. Deem and Ramdas Pophale) SiO2 
 PCOD8043877
Probable space group: P -1
;
_chemical_formula_sum "Si O2"
_cell_formula_units_Z 16
_cell_length_a 8.401727
_cell_length_b 22.215884
_cell_length_c 10.770832
_cell_angle_alpha 30.984881
_cell_angle_beta 77.080993
_cell_angle_gamma 57.873565
_cell_volume 741.676772
_symmetry_space_group_name_H-M "P -1"
_symmetry_group_IT_number 2
_symmetry_cell_setting 'triclinic'
loop_
_space_group_symop_operation_xyz
x,y,z
-x,-y,-z
loop_
_atom_site_type_symbol
_atom_site_label
_atom_site_fract_x
_atom_site_fract_y
_atom_site_fract_z
Si Si1 0.693985 0.721784 0.253988
Si Si2 0.972985 0.997012 0.864495
Si Si3 0.358515 0.230825 0.191308
Si Si4 0.239737 0.655992 0.475494
Si Si5 0.678414 0.009879 0.321100
Si Si6 0.192095 0.496320 0.580030
Si Si7 0.782057 0.533817 0.004927
Si Si8 0.510399 0.302259 0.457127
O O1 0.691143 0.595393 0.407571
O O2 0.617455 0.741263 0.374719
O O3 0.938024 0.660393 0.315294
O O4 0.524050 0.891380 0.916172
O O5 0.117595 0.013808 0.724623
O O6 0.715376 0.148233 0.614965
O O7 0.054094 0.824308 0.138970
O O8 0.000000 0.000000 0.000000
O O9 0.594546 0.100666 0.308568
O O10 0.389333 0.299743 0.183386
O O11 0.250270 0.159382 0.375320
O O12 0.183200 0.380179 0.867098
O O13 0.332123 0.528369 0.572805
O O14 0.422833 0.642155 0.541184
O O15 0.138148 0.619434 0.662745
O O16 0.655732 0.555620 0.862614
O O17 0.000000 0.500000 0.000000
#
# Coordination Sequence:
#
# PCOD8043877 Si02
#       8
#     2   2   2   2   2   2   2   2
#     4  10  19  37  60  90 117 154 201 246 299 347
#     4  10  21  38  59  88 123 156 199 240 306 356
#     4   9  21  38  62  85 117 157 204 243 300 338
#     4  10  21  40  59  87 120 158 196 242 306 351
#     4  10  19  40  63  85 117 161 199 250 288 360
#     4   9  20  38  60  89 119 151 203 249 293 357
#     4  11  24  40  60  89 123 156 203 250 296 359
#     4  11  22  38  60  88 121 159 198 244 304 359
#
# _framework density 21.572738999999999
#
# number of rings (size 3 to 8) (size 9 to 14) (size 15 to 20)
#    0.000    2.000    2.500    1.875    3.500    1.500 
#    4.500    2.500    0.000    0.000    0.000    0.000 
#    0.000    0.000    0.000    0.000    0.000    0.000 
#
# Total GULP energy -198219.541539 kJ/mol
# GULP energy per Si atom -12388.721346 kJ/mol
# Density = 2.152364 g / cm^3
# Si number density = 21.572739 Si / 1000 Ang^3
#
#
#
# Elastic Constant Matrix: (Units=GPa)
#
#
# Indices 1 2 3 4 5 6 
#
# 1 65.2969 34.7532 38.6433 -1.2992 1.7839 5.3043
# 2 34.7532 99.8851 27.9994 7.3706 -7.3399 -13.3808
# 3 38.6433 27.9994 103.5835 4.9856 -10.7837 -11.2100
# 4 -1.2992 7.3706 4.9856 23.8050 -2.7789 -5.5467
# 5 1.7839 -7.3399 -10.7837 -2.7789 34.9572 3.1798
# 6 5.3043 -13.3808 -11.2100 -5.5467 3.1798 37.8476
#
#
#
# Elastic Compliance Matrix: (Units=1/GPa)
#
#
# Indices 1 2 3 4 5 6 
#
# 1 0.025866 -0.008188 -0.008994 0.003339 -0.004794 -0.008292
# 2 -0.008188 0.013942 0.000314 -0.003241 0.002687 0.005469
# 3 -0.008994 0.000314 0.013985 -0.001884 0.004245 0.004881
# 4 0.003339 -0.003241 -0.001884 0.044781 0.001742 0.004245
# 5 -0.004794 0.002687 0.004245 0.001742 0.030814 0.000546
# 6 -0.008292 0.005469 0.004881 0.004245 0.000546 0.031539
#
#
# Mechanical properties :
#
#
# Convention : Reuss Voigt Hill
#
# Bulk Modulus (GPa) = 49.85727 52.39525 51.12626
# Shear Modulus (GPa) = 24.83266 30.47993 27.65629
#
# Velocity S-wave (km/s) = 3.39649 3.76292 3.58439
# Velocity P-wave (km/s) = 6.20829 6.57418 6.39386
#
# Compressibility (1/GPa) = 0.02005726
#
# Stress axis : x y z
#
# Youngs Moduli (GPa) = 38.66083 71.72756 71.50377
#
# Poissons Ratio (x) = 0.58730 0.64307
# Poissons Ratio (y) = 0.31655 -0.02243
# Poissons Ratio (z) = 0.34770 -0.02250
#
# Static dielectric constant tensor:
#      x y z
#    x 3.528980 0.132760 -0.110340 
#    y 0.132760 4.204240 -0.160620 
#    z -0.110340 -0.160620 4.507600 
# 
# 
# High freq. dielectric constant tensor:
#      x y z
#    x 1.811880 0.001870 -0.007690 
#    y 0.001870 1.857050 0.005670 
#    z -0.007690 0.005670 1.846880 
# 
# From -- ./inp_files/406518.got.cif
#   From: 2010.06.25/outbox.cif.g09.slc.cpg/sg2_204_cif.got.tgz:406518.got - 2010.06.27 13:26:56.
