data_PCOD8043409
_publ_section_title
;
Structure prediction by ZEFSAII (Michael W. Deem and Ramdas Pophale) SiO2 
 PCOD8043409
Probable space group: P -1
;
_chemical_formula_sum "Si O2"
_cell_formula_units_Z 12
_cell_length_a 9.438738
_cell_length_b 17.127074
_cell_length_c 7.745877
_cell_angle_alpha 146.893525
_cell_angle_beta 71.992430
_cell_angle_gamma 121.453356
_cell_volume 561.014270
_symmetry_space_group_name_H-M "P -1"
_symmetry_group_IT_number 2
_symmetry_cell_setting 'triclinic'
loop_
_space_group_symop_operation_xyz
x,y,z
-x,-y,-z
loop_
_atom_site_type_symbol
_atom_site_label
_atom_site_fract_x
_atom_site_fract_y
_atom_site_fract_z
Si Si1 0.231690 0.492595 0.109197
Si Si2 0.624156 0.322791 0.926488
Si Si3 0.889853 0.354712 0.138538
Si Si4 0.744848 0.760960 0.141801
Si Si5 0.330510 0.845688 0.704628
Si Si6 0.900921 0.101343 0.891408
O O1 0.297959 0.514685 0.926666
O O2 0.295501 0.677380 0.505548
O O3 0.022619 0.383167 0.984640
O O4 0.309003 0.405587 0.038913
O O5 0.424725 0.260283 0.927724
O O6 0.644535 0.178693 0.553265
O O7 0.727546 0.364861 0.144874
O O8 0.000000 0.500000 0.500000
O O9 0.826509 0.175357 0.912990
O O10 0.889765 0.799446 0.012279
O O11 0.821349 0.908217 0.525932
O O12 0.167718 0.874056 0.851706
O O13 0.500000 0.000000 0.000000
#
# Coordination Sequence:
#
# PCOD8043409 Si02
#       6
#     2   2   2   2   2   2
#     4   9  20  35  62  83 122 153 191 247 296 351
#     4  10  21  34  62  92 113 158 202 241 289 354
#     4  11  20  37  61  86 118 159 204 244 286 345
#     4  10  20  36  59  92 124 154 189 244 309 343
#     4  10  19  36  62  89 114 153 201 238 288 360
#     4  10  20  37  61  85 124 160 186 244 300 352
#
# _framework density 21.389828999999999
#
# number of rings (size 3 to 8) (size 9 to 14) (size 15 to 20)
#    1.000    1.000    3.333    1.000    0.000    0.667 
#    0.000    3.333    0.000   22.000    0.000    0.000 
#    0.000    0.000    0.000    0.000    0.000    0.000 
#
# Total GULP energy -148687.567530 kJ/mol
# GULP energy per Si atom -12390.630628 kJ/mol
# Density = 2.134114 g / cm^3
# Si number density = 21.389829 Si / 1000 Ang^3
#
#
#
# Elastic Constant Matrix: (Units=GPa)
#
#
# Indices 1 2 3 4 5 6 
#
# 1 158.9348 39.8412 38.9110 -16.0273 5.3884 26.8931
# 2 39.8412 48.5699 19.5348 0.1290 -3.7830 21.0126
# 3 38.9110 19.5348 83.3628 6.5038 -8.8576 -3.0031
# 4 -16.0273 0.1290 6.5038 31.8833 1.6284 -9.7861
# 5 5.3884 -3.7830 -8.8576 1.6284 33.2873 -4.6169
# 6 26.8931 21.0126 -3.0031 -9.7861 -4.6169 25.7729
#
#
#
# Elastic Compliance Matrix: (Units=1/GPa)
#
#
# Indices 1 2 3 4 5 6 
#
# 1 0.010288 -0.003324 -0.005124 0.004036 -0.004704 -0.007933
# 2 -0.003324 0.043032 -0.009164 -0.011335 -0.001626 -0.037279
# 3 -0.005124 -0.009164 0.017954 -0.001809 0.006796 0.015441
# 4 0.004036 -0.011335 -0.001809 0.039935 -0.001646 0.019688
# 5 -0.004704 -0.001626 0.006796 -0.001646 0.034246 0.012536
# 6 -0.007933 -0.037279 0.015441 0.019688 0.012536 0.088992
#
#
# Mechanical properties :
#
#
# Convention : Reuss Voigt Hill
#
# Bulk Modulus (GPa) = 27.73787 54.16016 40.94902
# Shear Modulus (GPa) = 17.75018 31.02742 24.38880
#
# Velocity S-wave (km/s) = 2.88382 3.81277 3.38036
# Velocity P-wave (km/s) = 4.90760 6.69017 5.86698
#
# Compressibility (1/GPa) = 0.03605179
#
# Stress axis : x y z
#
# Youngs Moduli (GPa) = 97.19786 23.23843 55.69699
#
# Poissons Ratio (x) = 0.07723 0.28539
# Poissons Ratio (y) = 0.32304 0.51041
# Poissons Ratio (z) = 0.49803 0.21296
#
# Static dielectric constant tensor:
#      x y z
#    x 3.770720 0.362860 -0.382630 
#    y 0.362860 4.008250 0.049600 
#    z -0.382630 0.049600 3.678470 
# 
# 
# High freq. dielectric constant tensor:
#      x y z
#    x 1.816490 0.031440 -0.023790 
#    y 0.031440 1.838380 0.013800 
#    z -0.023790 0.013800 1.820280 
# 
# From -- ./inp_files/222729.got.cif
#   From: 2010.06.25/outbox.cif.g09.slc.cpg/sg2_112_cif.got.tgz:222729.got - 2010.06.27 13:26:56.
