data_PCOD8043059
_publ_section_title
;
Structure prediction by ZEFSAII (Michael W. Deem and Ramdas Pophale) SiO2 
 PCOD8043059
Probable space group: P -1
;
_chemical_formula_sum "Si O2"
_cell_formula_units_Z 16
_cell_length_a 32.614252
_cell_length_b 9.003442
_cell_length_c 10.376752
_cell_angle_alpha 29.677272
_cell_angle_beta 142.844345
_cell_angle_gamma 141.732500
_cell_volume 866.326087
_symmetry_space_group_name_H-M "P -1"
_symmetry_group_IT_number 2
_symmetry_cell_setting 'triclinic'
loop_
_space_group_symop_operation_xyz
x,y,z
-x,-y,-z
loop_
_atom_site_type_symbol
_atom_site_label
_atom_site_fract_x
_atom_site_fract_y
_atom_site_fract_z
Si Si1 0.031379 0.707409 0.546082
Si Si2 0.524911 0.695472 0.287198
Si Si3 0.975693 0.299407 0.963555
Si Si4 0.670558 0.016131 0.041861
Si Si5 0.169112 0.045459 0.243469
Si Si6 0.469335 0.288514 0.204562
Si Si7 0.669965 0.711866 0.540651
Si Si8 0.830108 0.252632 0.255715
O O1 0.117462 0.812151 0.671759
O O2 0.000000 0.500000 0.500000
O O3 0.006773 0.012040 0.259680
O O4 0.007382 0.511867 0.761417
O O5 0.500000 0.500000 0.500000
O O6 0.488326 0.484925 0.233758
O O7 0.611229 0.800246 0.413986
O O8 0.500000 0.000000 0.000000
O O9 0.000000 0.500000 0.000000
O O10 0.888989 0.173915 0.834592
O O11 0.749825 0.084505 0.132119
O O12 0.658343 0.785438 0.307713
O O13 0.657397 0.340803 0.806665
O O14 0.616453 0.844892 0.923100
O O15 0.249818 0.087422 0.364550
O O16 0.155636 0.886911 0.468248
O O17 0.154841 0.377375 0.967064
O O18 0.500000 0.000000 0.500000
O O19 0.500000 0.500000 0.000000
#
# Coordination Sequence:
#
# PCOD8043059 Si02
#       8
#     2   2   2   2   2   2   2   2
#     4  12  21  38  61  87 115 150 200 240 285 336
#     4  12  24  38  56  88 119 149 187 235 292 342
#     4  12  24  38  57  89 123 155 191 237 293 347
#     4  10  19  36  58  88 110 144 196 244 282 331
#     4  10  19  36  57  84 111 151 195 233 284 349
#     4  12  21  38  62  85 112 148 195 236 283 337
#     4  10  20  36  59  81 113 151 194 233 284 348
#     4  10  20  33  60  87 111 143 196 248 282 326
#
# _framework density 18.468795
#
# number of rings (size 3 to 8) (size 9 to 14) (size 15 to 20)
#    0.000    1.000    5.000    3.000    0.000    0.000 
#    0.000    2.500    0.000    0.000    0.000    0.000 
#    0.000    0.000    0.000    0.000    0.000    0.000 
#
# Total GULP energy -198415.799881 kJ/mol
# GULP energy per Si atom -12400.987493 kJ/mol
# Density = 1.842676 g / cm^3
# Si number density = 18.468795 Si / 1000 Ang^3
#
#
#
# Elastic Constant Matrix: (Units=GPa)
#
#
# Indices 1 2 3 4 5 6 
#
# 1 131.8364 80.6391 61.9091 10.3585 6.6645 11.4857
# 2 80.6391 147.7110 64.1797 22.2459 5.1161 6.9075
# 3 61.9091 64.1797 148.0755 -9.5332 2.9605 -1.7159
# 4 10.3585 22.2459 -9.5332 37.6670 6.3033 6.2481
# 5 6.6645 5.1161 2.9605 6.3033 40.9075 4.2705
# 6 11.4857 6.9075 -1.7159 6.2481 4.2705 40.7988
#
#
#
# Elastic Compliance Matrix: (Units=1/GPa)
#
#
# Indices 1 2 3 4 5 6 
#
# 1 0.012554 -0.005335 -0.002982 -0.000489 -0.000816 -0.002596
# 2 -0.005335 0.012186 -0.003496 -0.006761 0.000612 0.000263
# 3 -0.002982 -0.003496 0.009885 0.005325 -0.000729 0.001108
# 4 -0.000489 -0.006761 0.005325 0.033257 -0.004257 -0.003141
# 5 -0.000816 0.000612 -0.000729 -0.004257 0.025410 -0.001912
# 6 -0.002596 0.000263 0.001108 -0.003141 -0.001912 0.025925
#
#
# Mechanical properties :
#
#
# Convention : Reuss Voigt Hill
#
# Bulk Modulus (GPa) = 90.90213 93.45320 92.17767
# Shear Modulus (GPa) = 34.12760 38.60098 36.36429
#
# Velocity S-wave (km/s) = 4.30333 4.57668 4.44211
# Velocity P-wave (km/s) = 8.60335 8.86783 8.73659
#
# Compressibility (1/GPa) = 0.01100084
#
# Stress axis : x y z
#
# Youngs Moduli (GPa) = 79.65352 82.06209 101.15947
#
# Poissons Ratio (x) = 0.43778 0.30165
# Poissons Ratio (y) = 0.42493 0.35363
# Poissons Ratio (z) = 0.23752 0.28687
#
# Static dielectric constant tensor:
#      x y z
#    x 3.688270 0.214190 0.108170 
#    y 0.214190 3.817440 0.133430 
#    z 0.108170 0.133430 3.693500 
# 
# 
# High freq. dielectric constant tensor:
#      x y z
#    x 1.696810 0.031490 0.005360 
#    y 0.031490 1.718720 -0.005040 
#    z 0.005360 -0.005040 1.747320 
# 
# From -- ./inp_files/351580.got.cif
#   From: 2010.06.25/outbox.cif.g09.slc.cpg/sg2_176_cif.got.tgz:351580.got - 2010.06.27 13:26:56.
