data_PCOD8043408
_publ_section_title
;
Structure prediction by ZEFSAII (Michael W. Deem and Ramdas Pophale) SiO2 
 PCOD8043408
Probable space group: P -1
;
_chemical_formula_sum "Si O2"
_cell_formula_units_Z 14
_cell_length_a 9.764713
_cell_length_b 17.261012
_cell_length_c 8.509976
_cell_angle_alpha 62.255264
_cell_angle_beta 147.948142
_cell_angle_gamma 113.154570
_cell_volume 673.672130
_symmetry_space_group_name_H-M "P -1"
_symmetry_group_IT_number 2
_symmetry_cell_setting 'triclinic'
loop_
_space_group_symop_operation_xyz
x,y,z
-x,-y,-z
loop_
_atom_site_type_symbol
_atom_site_label
_atom_site_fract_x
_atom_site_fract_y
_atom_site_fract_z
Si Si1 0.575832 0.105487 0.331395
Si Si2 0.114510 0.026628 0.420132
Si Si3 0.987528 0.375813 0.237937
Si Si4 0.518465 0.706529 0.048555
Si Si5 0.487757 0.594096 0.820087
Si Si6 0.995140 0.572346 0.152640
Si Si7 0.371405 0.928142 0.246048
O O1 0.835379 0.062084 0.549132
O O2 0.610340 0.131734 0.523818
O O3 0.490920 0.188900 0.069862
O O4 0.353056 0.031371 0.179780
O O5 0.384181 0.082602 0.627523
O O6 0.000000 0.000000 0.500000
O O7 0.900911 0.092654 0.078925
O O8 0.221705 0.317634 0.584195
O O9 0.998274 0.467166 0.255097
O O10 0.720469 0.327717 0.052054
O O11 0.996555 0.389493 0.048856
O O12 0.500740 0.668307 0.893300
O O13 0.231423 0.606113 0.455559
O O14 0.500000 0.500000 0.000000
O O15 0.731012 0.608026 0.932338
#
# Coordination Sequence:
#
# PCOD8043408 Si02
#       7
#     2   2   2   2   2   2   2
#     4   9  23  37  62  84 120 148 196 236 287 347
#     4  10  19  36  62  89 109 150 195 235 279 350
#     4  11  23  39  61  86 115 161 195 242 299 347
#     4  12  24  37  61  90 120 151 200 248 291 337
#     4  12  21  38  61  90 114 155 201 248 286 342
#     4  11  22  41  61  82 118 158 203 237 291 361
#     4   9  20  38  62  83 112 157 192 224 290 353
#
# _framework density 20.781624000000001
#
# number of rings (size 3 to 8) (size 9 to 14) (size 15 to 20)
#    0.857    0.571    2.857    3.000    2.000    2.286 
#    0.000    4.286    0.000    0.000    0.000    0.000 
#    0.000    0.000    0.000    0.000    0.000    0.000 
#
# Total GULP energy -173514.965732 kJ/mol
# GULP energy per Si atom -12393.926124 kJ/mol
# Density = 2.073432 g / cm^3
# Si number density = 20.781624 Si / 1000 Ang^3
#
#
#
# Elastic Constant Matrix: (Units=GPa)
#
#
# Indices 1 2 3 4 5 6 
#
# 1 134.6938 -41.1147 -46.7084 -5.9845 14.0334 -0.9459
# 2 -41.1147 126.7684 110.2496 -4.2270 -3.4083 48.3320
# 3 -46.7084 110.2496 197.2996 14.8422 -4.9428 51.8870
# 4 -5.9845 -4.2270 14.8422 28.7018 6.4941 -5.8587
# 5 14.0334 -3.4083 -4.9428 6.4941 36.0137 2.5927
# 6 -0.9459 48.3320 51.8870 -5.8587 2.5927 35.1742
#
#
#
# Elastic Compliance Matrix: (Units=1/GPa)
#
#
# Indices 1 2 3 4 5 6 
#
# 1 0.009789 0.004988 0.001753 0.000640 -0.002578 -0.008880
# 2 0.004988 0.023842 -0.006384 0.003096 0.000515 -0.022732
# 3 0.001753 -0.006384 0.013372 -0.010920 0.003452 -0.012980
# 4 0.000640 0.003096 -0.010920 0.047927 -0.011589 0.020709
# 5 -0.002578 0.000515 0.003452 -0.011589 0.032116 -0.010166
# 6 -0.008880 -0.022732 -0.012980 0.020709 -0.010166 0.082774
#
#
# Mechanical properties :
#
#
# Convention : Reuss Voigt Hill
#
# Bulk Modulus (GPa) = 20.95648 55.95723 38.45685
# Shear Modulus (GPa) = 22.22114 49.06697 35.64405
#
# Velocity S-wave (km/s) = 3.27351 4.86436 4.14596
# Velocity P-wave (km/s) = 4.93902 7.65076 6.43925
#
# Compressibility (1/GPa) = 0.04771793
#
# Stress axis : x y z
#
# Youngs Moduli (GPa) = 102.15190 41.94282 74.78293
#
# Poissons Ratio (x) = -0.20922 -0.13106
# Poissons Ratio (y) = -0.50956 0.47738
# Poissons Ratio (z) = -0.17903 0.26774
#
# Static dielectric constant tensor:
#      x y z
#    x 3.828710 0.120460 -0.008570 
#    y 0.120460 3.379870 0.118210 
#    z -0.008570 0.118210 3.821170 
# 
# 
# High freq. dielectric constant tensor:
#      x y z
#    x 1.826280 0.018160 -0.000180 
#    y 0.018160 1.776690 0.005170 
#    z -0.000180 0.005170 1.824860 
# 
# From -- ./inp_files/223305.got.cif
#   From: 2010.06.25/outbox.cif.g09.slc.cpg/sg2_112_cif.got.tgz:223305.got - 2010.06.27 13:26:56.
