data_PCOD8043911
_publ_section_title
;
Structure prediction by ZEFSAII (Michael W. Deem and Ramdas Pophale) SiO2 
 PCOD8043911
Probable space group: P -1
;
_chemical_formula_sum "Si O2"
_cell_formula_units_Z 14
_cell_length_a 11.873944
_cell_length_b 12.665965
_cell_length_c 16.186076
_cell_angle_alpha 26.006887
_cell_angle_beta 120.124982
_cell_angle_gamma 131.586918
_cell_volume 764.379784
_symmetry_space_group_name_H-M "P -1"
_symmetry_group_IT_number 2
_symmetry_cell_setting 'triclinic'
loop_
_space_group_symop_operation_xyz
x,y,z
-x,-y,-z
loop_
_atom_site_type_symbol
_atom_site_label
_atom_site_fract_x
_atom_site_fract_y
_atom_site_fract_z
Si Si1 0.580919 0.713969 0.111326
Si Si2 0.509656 0.143684 0.719003
Si Si3 0.735052 0.818433 0.655469
Si Si4 0.287055 0.755327 0.765995
Si Si5 0.692232 0.781385 0.283011
Si Si6 0.521850 0.279172 0.272128
Si Si7 0.028102 0.286698 0.110706
O O1 0.397395 0.472680 0.239097
O O2 0.689822 0.818785 0.157830
O O3 0.635888 0.565056 0.170365
O O4 0.598134 0.989541 0.880750
O O5 0.643522 0.459155 0.512877
O O6 0.427800 0.158379 0.760948
O O7 0.375020 0.970444 0.723007
O O8 0.654715 0.787609 0.738700
O O9 0.890840 0.823103 0.721045
O O10 0.772445 0.102776 0.419748
O O11 0.405812 0.681925 0.819571
O O12 0.135720 0.454200 0.953379
O O13 0.868023 0.002833 0.222091
O O14 0.500000 0.000000 0.500000
O O15 0.000000 0.500000 0.000000
#
# Coordination Sequence:
#
# PCOD8043911 Si02
#       7
#     2   2   2   2   2   2   2
#     4  10  19  37  61  85 111 153 199 241 284 342
#     4  11  21  36  61  83 112 165 199 230 289 351
#     4   9  20  36  61  87 113 149 199 239 284 341
#     4  11  19  39  63  88 115 154 197 247 288 337
#     4  11  23  38  54  84 126 149 195 245 283 351
#     4   8  17  35  64  90 110 147 209 245 277 341
#     4  12  24  38  54  91 124 152 191 242 296 351
#
# _framework density 18.315501999999999
#
# number of rings (size 3 to 8) (size 9 to 14) (size 15 to 20)
#    0.857    0.857    4.286    0.429    0.000    4.000 
#    0.000    0.714    0.000   10.286    0.000    0.000 
#    0.000    0.000    0.000    0.000    0.000    0.000 
#
# Total GULP energy -173488.195719 kJ/mol
# GULP energy per Si atom -12392.013980 kJ/mol
# Density = 1.827382 g / cm^3
# Si number density = 18.315502 Si / 1000 Ang^3
#
#
#
# Elastic Constant Matrix: (Units=GPa)
#
#
# Indices 1 2 3 4 5 6 
#
# 1 64.9862 16.4232 31.5575 0.7900 8.3058 -8.9706
# 2 16.4232 87.1380 37.1326 -3.3019 8.2174 7.0865
# 3 31.5575 37.1326 97.9261 -2.8212 3.6464 -2.9643
# 4 0.7900 -3.3019 -2.8212 25.7758 1.5999 -2.2394
# 5 8.3058 8.2174 3.6464 1.5999 32.2183 -4.1074
# 6 -8.9706 7.0865 -2.9643 -2.2394 -4.1074 32.6489
#
#
#
# Elastic Compliance Matrix: (Units=1/GPa)
#
#
# Indices 1 2 3 4 5 6 
#
# 1 0.019511 -0.001422 -0.005502 -0.000763 -0.003409 0.004689
# 2 -0.001422 0.014621 -0.005057 0.001195 -0.003407 -0.004370
# 3 -0.005502 -0.005057 0.013920 0.001062 0.001217 0.001076
# 4 -0.000763 0.001195 0.001062 0.039389 -0.001918 0.002088
# 5 -0.003409 -0.003407 0.001217 -0.001918 0.033249 0.003965
# 6 0.004689 -0.004370 0.001076 0.002088 0.003965 0.033605
#
#
# Mechanical properties :
#
#
# Convention : Reuss Voigt Hill
#
# Bulk Modulus (GPa) = 41.50837 46.69745 44.10291
# Shear Modulus (GPa) = 26.84039 29.12438 27.98239
#
# Velocity S-wave (km/s) = 3.83227 3.99199 3.91295
# Velocity P-wave (km/s) = 6.50337 6.84102 6.67433
#
# Compressibility (1/GPa) = 0.02409152
#
# Stress axis : x y z
#
# Youngs Moduli (GPa) = 51.25331 68.39543 71.83839
#
# Poissons Ratio (x) = 0.09723 0.39523
# Poissons Ratio (y) = 0.07286 0.36328
# Poissons Ratio (z) = 0.28198 0.34587
#
# Static dielectric constant tensor:
#      x y z
#    x 3.680020 -0.171750 0.037560 
#    y -0.171750 2.860790 -0.190890 
#    z 0.037560 -0.190890 3.438260 
# 
# 
# High freq. dielectric constant tensor:
#      x y z
#    x 1.697660 -0.015780 0.008240 
#    y -0.015780 1.687610 -0.003040 
#    z 0.008240 -0.003040 1.725630 
# 
# From -- ./inp_files/518609.got.cif
#   From: 2010.06.25/outbox.cif.g09.slc.cpg/sg2_260_cif.got.tgz:518609.got - 2010.06.27 13:26:56.
