data_PCOD8043763
_publ_section_title
;
Structure prediction by ZEFSAII (Michael W. Deem and Ramdas Pophale) SiO2 
 PCOD8043763
Probable space group: P -1
;
_chemical_formula_sum "Si O2"
_cell_formula_units_Z 16
_cell_length_a 21.770670
_cell_length_b 9.205686
_cell_length_c 21.371465
_cell_angle_alpha 40.423206
_cell_angle_beta 160.109460
_cell_angle_gamma 127.995990
_cell_volume 841.701536
_symmetry_space_group_name_H-M "P -1"
_symmetry_group_IT_number 2
_symmetry_cell_setting 'triclinic'
loop_
_space_group_symop_operation_xyz
x,y,z
-x,-y,-z
loop_
_atom_site_type_symbol
_atom_site_label
_atom_site_fract_x
_atom_site_fract_y
_atom_site_fract_z
Si Si1 0.239407 0.695460 0.134106
Si Si2 0.341833 0.682437 0.097107
Si Si3 0.788395 0.554803 0.168399
Si Si4 0.400575 0.205994 0.515680
Si Si5 0.440361 0.018350 0.748781
Si Si6 0.511043 0.321047 0.267439
Si Si7 0.910000 0.223275 0.621285
Si Si8 0.093157 0.898705 0.481935
O O1 0.324710 0.598258 0.178455
O O2 0.230394 0.466537 0.238284
O O3 0.384465 0.788421 0.278132
O O4 0.017204 0.929419 0.840914
O O5 0.450487 0.432822 0.241864
O O6 0.479710 0.827713 0.181387
O O7 0.122577 0.858918 0.800541
O O8 0.901495 0.286453 0.397535
O O9 0.952597 0.642627 0.274082
O O10 0.631880 0.756361 0.000599
O O11 0.674100 0.530411 0.005742
O O12 0.334432 0.167375 0.534559
O O13 0.429168 0.973832 0.575306
O O14 0.272614 0.976193 0.640332
O O15 0.700174 0.362303 0.411357
O O16 0.870197 0.243795 0.502325
#
# Coordination Sequence:
#
# PCOD8043763 Si02
#       8
#     2   2   2   2   2   2   2   2
#     4   9  18  37  63  83 107 149 188 233 278 326
#     4  10  23  38  53  84 122 147 185 230 281 335
#     4  11  21  37  61  84 112 144 197 237 271 327
#     4   9  17  36  63  82 112 143 189 233 278 326
#     4  10  19  37  58  87 109 148 188 239 270 330
#     4  11  23  37  55  84 120 151 182 230 284 334
#     4  11  20  36  60  88 105 150 191 233 275 331
#     4  11  21  36  63  83 107 153 194 230 279 328
#
# _framework density 19.009112999999999
#
# number of rings (size 3 to 8) (size 9 to 14) (size 15 to 20)
#    0.000    1.750    7.500    0.750    0.000    2.500 
#    0.000    1.250    0.000    2.250    0.000    0.000 
#    0.000    0.000    0.000    0.000    0.000    0.000 
#
# Total GULP energy -198434.612748 kJ/mol
# GULP energy per Si atom -12402.163297 kJ/mol
# Density = 1.896585 g / cm^3
# Si number density = 19.009113 Si / 1000 Ang^3
#
#
#
# Elastic Constant Matrix: (Units=GPa)
#
#
# Indices 1 2 3 4 5 6 
#
# 1 59.1025 37.3547 32.5660 -4.1170 9.8540 -0.3860
# 2 37.3547 93.7994 42.2800 2.9041 9.5260 -0.2920
# 3 32.5660 42.2800 74.1121 12.4205 0.5893 13.8258
# 4 -4.1170 2.9041 12.4205 26.0406 9.2878 -6.9682
# 5 9.8540 9.5260 0.5893 9.2878 27.6967 -7.2058
# 6 -0.3860 -0.2920 13.8258 -6.9682 -7.2058 31.5396
#
#
#
# Elastic Compliance Matrix: (Units=1/GPa)
#
#
# Indices 1 2 3 4 5 6 
#
# 1 0.033504 -0.004645 -0.017393 0.021935 -0.014851 0.009444
# 2 -0.004645 0.016913 -0.009050 0.004335 -0.004379 0.004024
# 3 -0.017393 -0.009050 0.034278 -0.027684 0.013053 -0.018457
# 4 0.021935 0.004335 -0.027684 0.069869 -0.026455 0.021837
# 5 -0.014851 -0.004379 0.013053 -0.026455 0.051482 -0.000027
# 6 0.009444 0.004024 -0.018457 0.021837 -0.000027 0.044768
#
#
# Mechanical properties :
#
#
# Convention : Reuss Voigt Hill
#
# Bulk Modulus (GPa) = 44.40394 50.15727 47.28060
# Shear Modulus (GPa) = 15.60085 24.70960 20.15523
#
# Velocity S-wave (km/s) = 2.86790 3.60930 3.25975
# Velocity P-wave (km/s) = 5.86315 6.61911 6.25256
#
# Compressibility (1/GPa) = 0.02252052
#
# Stress axis : x y z
#
# Youngs Moduli (GPa) = 29.84676 59.12585 29.17358
#
# Poissons Ratio (x) = 0.27462 0.50740
# Poissons Ratio (y) = 0.13863 0.26402
# Poissons Ratio (z) = 0.51911 0.53510
#
# Static dielectric constant tensor:
#      x y z
#    x 3.202590 0.157800 -0.139470 
#    y 0.157800 3.517580 0.100670 
#    z -0.139470 0.100670 3.511070 
# 
# 
# High freq. dielectric constant tensor:
#      x y z
#    x 1.708420 0.013560 -0.010080 
#    y 0.013560 1.740490 0.013190 
#    z -0.010080 0.013190 1.742560 
# 
# From -- ./inp_files/200620.got.cif
#   From: 2010.06.25/outbox.cif.g09.slc.cpg/sg2_101_cif.got.tgz:200620.got - 2010.06.27 13:26:56.
