data_PCOD8043939
_publ_section_title
;
Structure prediction by ZEFSAII (Michael W. Deem and Ramdas Pophale) SiO2 
 PCOD8043939
Probable space group: P -1
;
_chemical_formula_sum "Si O2"
_cell_formula_units_Z 16
_cell_length_a 13.060088
_cell_length_b 14.603057
_cell_length_c 8.588936
_cell_angle_alpha 109.701906
_cell_angle_beta 43.612893
_cell_angle_gamma 132.755334
_cell_volume 790.159074
_symmetry_space_group_name_H-M "P -1"
_symmetry_group_IT_number 2
_symmetry_cell_setting 'triclinic'
loop_
_space_group_symop_operation_xyz
x,y,z
-x,-y,-z
loop_
_atom_site_type_symbol
_atom_site_label
_atom_site_fract_x
_atom_site_fract_y
_atom_site_fract_z
Si Si1 0.586711 0.939600 0.935020
Si Si2 0.136304 0.224024 0.267622
Si Si3 0.854766 0.573423 0.783280
Si Si4 0.972691 0.849534 0.310957
Si Si5 0.214212 0.047942 0.562552
Si Si6 0.705410 0.308970 0.666649
Si Si7 0.694718 0.618247 0.265139
Si Si8 0.610263 0.769519 0.250179
O O1 0.617326 0.884141 0.718047
O O2 0.433274 0.821252 0.152181
O O3 0.791263 0.056945 0.867243
O O4 0.500000 0.000000 0.000000
O O5 0.195527 0.361430 0.244943
O O6 0.150721 0.209768 0.426300
O O7 0.275194 0.204588 0.020949
O O8 0.910516 0.107581 0.385164
O O9 0.734760 0.424638 0.785840
O O10 0.089720 0.656265 0.573001
O O11 0.777308 0.570191 0.035942
O O12 0.940814 0.937403 0.311138
O O13 0.881826 0.724718 0.231877
O O14 0.295713 0.102060 0.677132
O O15 0.607988 0.289232 0.594288
O O16 0.500000 0.500000 0.500000
O O17 0.611921 0.675125 0.298785
#
# Coordination Sequence:
#
# PCOD8043939 Si02
#       8
#     2   2   2   2   2   2   2   2
#     4  11  23  40  64  90 120 162 202 247 303 363
#     4  10  19  37  61  88 123 154 201 248 298 363
#     4  10  25  41  59  87 124 164 202 247 306 364
#     4  10  21  38  64  92 120 159 202 252 304 350
#     4  10  20  37  59  92 122 154 200 253 301 350
#     4  11  23  42  61  87 124 164 203 244 304 370
#     4  10  24  41  63  91 125 158 206 254 300 357
#     4  10  22  35  61  92 117 159 203 248 305 349
#
# _framework density 20.249085999999998
#
# number of rings (size 3 to 8) (size 9 to 14) (size 15 to 20)
#    0.000    1.750    0.000    4.875    7.000    4.000 
#    0.000    2.500    0.000    0.000    0.000    0.000 
#    0.000    0.000    0.000    0.000    0.000    0.000 
#
# Total GULP energy -198361.672277 kJ/mol
# GULP energy per Si atom -12397.604517 kJ/mol
# Density = 2.020300 g / cm^3
# Si number density = 20.249086 Si / 1000 Ang^3
#
#
#
# Elastic Constant Matrix: (Units=GPa)
#
#
# Indices 1 2 3 4 5 6 
#
# 1 98.2273 52.0869 30.3274 -5.2227 -5.4177 23.9628
# 2 52.0869 112.2936 46.4112 -5.2148 2.4468 3.9717
# 3 30.3274 46.4112 83.1252 -11.3759 5.1709 8.5628
# 4 -5.2227 -5.2148 -11.3759 31.7688 -2.9257 3.1135
# 5 -5.4177 2.4468 5.1709 -2.9257 30.4786 -1.7827
# 6 23.9628 3.9717 8.5628 3.1135 -1.7827 21.6012
#
#
#
# Elastic Compliance Matrix: (Units=1/GPa)
#
#
# Indices 1 2 3 4 5 6 
#
# 1 0.020346 -0.008519 -0.000098 0.004320 0.003486 -0.021301
# 2 -0.008519 0.015156 -0.006569 -0.002314 -0.001283 0.009495
# 3 -0.000098 -0.006569 0.017305 0.005532 -0.002277 -0.006528
# 4 0.004320 -0.002314 0.005532 0.035157 0.002723 -0.011403
# 5 0.003486 -0.001283 -0.002277 0.002723 0.034163 -0.000302
# 6 -0.021301 0.009495 -0.006528 -0.011403 -0.000302 0.072384
#
#
# Mechanical properties :
#
#
# Convention : Reuss Voigt Hill
#
# Bulk Modulus (GPa) = 44.57323 61.25524 52.91424
# Shear Modulus (GPa) = 21.51813 27.75775 24.63794
#
# Velocity S-wave (km/s) = 3.26340 3.70647 3.49197
# Velocity P-wave (km/s) = 6.02163 6.97379 6.51513
#
# Compressibility (1/GPa) = 0.02243499
#
# Stress axis : x y z
#
# Youngs Moduli (GPa) = 49.14865 65.97862 57.78733
#
# Poissons Ratio (x) = 0.56207 0.00568
# Poissons Ratio (y) = 0.41870 0.37961
# Poissons Ratio (z) = 0.00483 0.43342
#
# Static dielectric constant tensor:
#      x y z
#    x 3.698150 0.105070 0.084680 
#    y 0.105070 3.813610 0.057830 
#    z 0.084680 0.057830 3.751590 
# 
# 
# High freq. dielectric constant tensor:
#      x y z
#    x 1.791320 0.000430 0.006110 
#    y 0.000430 1.797480 -0.002170 
#    z 0.006110 -0.002170 1.791770 
# 
# From -- ./inp_files/187661.got.cif
#   From: 2010.06.25/outbox.cif.g09.slc.cpg/sg2_94_cif.got.tgz:187661.got - 2010.06.27 13:26:56.
