data_PCOD8043081
_publ_section_title
;
Structure prediction by ZEFSAII (Michael W. Deem and Ramdas Pophale) SiO2 
 PCOD8043081
Probable space group: P -1
;
_chemical_formula_sum "Si O2"
_cell_formula_units_Z 16
_cell_length_a 20.367468
_cell_length_b 12.450943
_cell_length_c 15.427204
_cell_angle_alpha 136.967877
_cell_angle_beta 17.871816
_cell_angle_gamma 139.464659
_cell_volume 779.733430
_symmetry_space_group_name_H-M "P -1"
_symmetry_group_IT_number 2
_symmetry_cell_setting 'triclinic'
loop_
_space_group_symop_operation_xyz
x,y,z
-x,-y,-z
loop_
_atom_site_type_symbol
_atom_site_label
_atom_site_fract_x
_atom_site_fract_y
_atom_site_fract_z
Si Si1 0.938954 0.355397 0.791340
Si Si2 0.146198 0.165999 0.163187
Si Si3 0.242822 0.471366 0.324788
Si Si4 0.030644 0.167284 0.726120
Si Si5 0.656338 0.187951 0.538817
Si Si6 0.997300 0.715389 0.985289
Si Si7 0.239379 0.029611 0.581912
Si Si8 0.512157 0.863652 0.836501
O O1 0.164472 0.394545 0.473261
O O2 0.943470 0.224400 0.781965
O O3 0.909557 0.519386 0.967906
O O4 0.725187 0.278279 0.953155
O O5 0.109819 0.339890 0.341747
O O6 0.405839 0.186741 0.830311
O O7 0.061931 0.032346 0.267981
O O8 0.998497 0.102954 0.225828
O O9 0.211878 0.653895 0.472077
O O10 0.500000 0.500000 0.000000
O O11 0.302191 0.222148 0.417447
O O12 0.943664 0.245881 0.964954
O O13 0.777889 0.197953 0.300157
O O14 0.664330 0.025269 0.484164
O O15 0.803723 0.794173 0.244033
O O16 0.422709 0.048672 0.287203
O O17 0.500000 0.000000 0.000000
#
# Coordination Sequence:
#
# PCOD8043081 Si02
#       8
#     2   2   2   2   2   2   2   2
#     4  11  20  38  61  78 112 152 176 225 284 315
#     4   9  19  36  53  81 113 137 181 231 266 320
#     4   9  20  36  55  82 111 138 181 228 267 328
#     4  10  22  36  57  84 110 146 187 225 271 328
#     4  10  19  36  58  77 108 150 180 221 279 321
#     4   9  21  38  54  83 114 140 190 233 261 326
#     4  10  21  35  55  81 109 144 185 224 270 326
#     4  10  22  37  56  86 112 140 187 228 268 333
#
# _framework density 20.519833999999999
#
# number of rings (size 3 to 8) (size 9 to 14) (size 15 to 20)
#    0.000    2.500    0.000    3.000    0.000    8.500 
#    0.000   12.500    0.000    0.000    0.000    0.000 
#    0.000    0.000    0.000    0.000    0.000    0.000 
#
# Total GULP energy -198312.331093 kJ/mol
# GULP energy per Si atom -12394.520693 kJ/mol
# Density = 2.047313 g / cm^3
# Si number density = 20.519834 Si / 1000 Ang^3
#
#
#
# Elastic Constant Matrix: (Units=GPa)
#
#
# Indices 1 2 3 4 5 6 
#
# 1 47.9462 10.5379 39.2347 -2.4476 9.2066 -0.6678
# 2 10.5379 67.8571 25.4078 -6.9132 5.7761 10.7662
# 3 39.2347 25.4078 99.9458 -8.7277 19.4505 -1.8811
# 4 -2.4476 -6.9132 -8.7277 26.8367 -0.6640 2.2016
# 5 9.2066 5.7761 19.4505 -0.6640 27.0745 0.3726
# 6 -0.6678 10.7662 -1.8811 2.2016 0.3726 31.8288
#
#
#
# Elastic Compliance Matrix: (Units=1/GPa)
#
#
# Indices 1 2 3 4 5 6 
#
# 1 0.030866 -0.000379 -0.011725 -0.001161 -0.002023 0.000187
# 2 -0.000379 0.017778 -0.004055 0.003746 -0.000569 -0.006513
# 3 -0.011725 -0.004055 0.017441 0.003203 -0.007627 0.002024
# 4 -0.001161 0.003746 0.003203 0.039434 -0.001686 -0.003810
# 5 -0.002023 -0.000569 -0.007627 -0.001686 0.043192 -0.000690
# 6 0.000187 -0.006513 0.002024 -0.003810 -0.000690 0.034016
#
#
# Mechanical properties :
#
#
# Convention : Reuss Voigt Hill
#
# Bulk Modulus (GPa) = 29.61467 40.67887 35.14677
# Shear Modulus (GPa) = 22.09446 26.51925 24.30685
#
# Velocity S-wave (km/s) = 3.28493 3.59886 3.44547
# Velocity P-wave (km/s) = 5.37133 6.09395 5.74402
#
# Compressibility (1/GPa) = 0.03376705
#
# Stress axis : x y z
#
# Youngs Moduli (GPa) = 32.39796 56.25027 57.33592
#
# Poissons Ratio (x) = 0.02132 0.67224
# Poissons Ratio (y) = 0.01228 0.23251
# Poissons Ratio (z) = 0.37985 0.22811
#
# Static dielectric constant tensor:
#      x y z
#    x 3.459980 0.189600 0.266960 
#    y 0.189600 4.028140 0.007810 
#    z 0.266960 0.007810 3.846740 
# 
# 
# High freq. dielectric constant tensor:
#      x y z
#    x 1.780300 0.009660 0.022550 
#    y 0.009660 1.806870 -0.002810 
#    z 0.022550 -0.002810 1.806480 
# 
# From -- ./inp_files/538451.got.cif
#   From: 2010.06.25/outbox.cif.g09.slc.cpg/sg2_270_cif.got.tgz:538451.got - 2010.06.27 13:26:56.
