data_PCOD8043480
_publ_section_title
;
Structure prediction by ZEFSAII (Michael W. Deem and Ramdas Pophale) SiO2 
 PCOD8043480
Probable space group: P -1
;
_chemical_formula_sum "Si O2"
_cell_formula_units_Z 16
_cell_length_a 20.974345
_cell_length_b 9.561062
_cell_length_c 8.322782
_cell_angle_alpha 105.743107
_cell_angle_beta 106.407852
_cell_angle_gamma 28.004097
_cell_volume 750.859783
_symmetry_space_group_name_H-M "P -1"
_symmetry_group_IT_number 2
_symmetry_cell_setting 'triclinic'
loop_
_space_group_symop_operation_xyz
x,y,z
-x,-y,-z
loop_
_atom_site_type_symbol
_atom_site_label
_atom_site_fract_x
_atom_site_fract_y
_atom_site_fract_z
Si Si1 0.685624 0.645050 0.311699
Si Si2 0.572203 0.683391 0.703295
Si Si3 0.575165 0.370460 0.684014
Si Si4 0.226630 0.476483 0.300151
Si Si5 0.119460 0.130366 0.845263
Si Si6 0.372891 0.540886 0.680318
Si Si7 0.946965 0.050675 0.148746
Si Si8 0.181169 0.236427 0.186098
O O1 0.719568 0.612199 0.509707
O O2 0.614215 0.622104 0.242084
O O3 0.822313 0.390614 0.223019
O O4 0.580753 0.965280 0.274147
O O5 0.587765 0.517648 0.785724
O O6 0.681210 0.604574 0.784343
O O7 0.601938 0.562493 0.512252
O O8 0.500000 0.500000 0.500000
O O9 0.483460 0.455327 0.774154
O O10 0.726310 0.010917 0.683847
O O11 0.236736 0.289652 0.195763
O O12 0.071605 0.830307 0.294299
O O13 0.975493 0.456601 0.768142
O O14 0.220249 0.897812 0.698300
O O15 0.097187 0.033690 0.915196
O O16 0.188814 0.124650 0.996779
O O17 0.000000 0.000000 0.000000
#
# Coordination Sequence:
#
# PCOD8043480 Si02
#       8
#     2   2   2   2   2   2   2   2
#     4  10  19  38  63  86 114 152 198 234 282 356
#     4  10  20  35  58  91 116 145 189 247 288 332
#     4  10  20  35  55  85 119 148 186 243 291 327
#     4  10  19  36  63  87 111 154 199 232 288 342
#     4   9  21  39  61  83 111 160 202 227 284 359
#     4   9  18  37  60  83 116 151 196 236 283 345
#     4  10  22  38  60  87 121 148 187 249 293 336
#     4  10  20  38  61  81 116 155 197 233 281 352
#
# _framework density 21.308904999999999
#
# number of rings (size 3 to 8) (size 9 to 14) (size 15 to 20)
#    0.000    2.250    0.000    4.125    1.750    1.500 
#    6.750    3.125    0.000    0.000    0.000    0.000 
#    0.000    0.000    0.000    0.000    0.000    0.000 
#
# Total GULP energy -198287.842265 kJ/mol
# GULP energy per Si atom -12392.990142 kJ/mol
# Density = 2.126040 g / cm^3
# Si number density = 21.308905 Si / 1000 Ang^3
#
#
#
# Elastic Constant Matrix: (Units=GPa)
#
#
# Indices 1 2 3 4 5 6 
#
# 1 152.2668 71.2741 30.8755 3.1404 12.2356 3.6566
# 2 71.2741 194.5090 36.9402 9.4326 1.2776 -0.2500
# 3 30.8755 36.9402 29.0855 1.7025 8.1912 -4.1659
# 4 3.1404 9.4326 1.7025 24.1946 0.0995 -1.2718
# 5 12.2356 1.2776 8.1912 0.0995 21.5610 2.7309
# 6 3.6566 -0.2500 -4.1659 -1.2718 2.7309 25.8945
#
#
#
# Elastic Compliance Matrix: (Units=1/GPa)
#
#
# Indices 1 2 3 4 5 6 
#
# 1 0.009130 -0.002045 -0.006782 -0.000015 -0.002209 -0.002168
# 2 -0.002045 0.007648 -0.008854 -0.002196 0.004286 -0.001622
# 3 -0.006782 -0.008854 0.060272 0.000843 -0.020141 0.012734
# 4 -0.000015 -0.002196 0.000843 0.042252 -0.000663 0.002262
# 5 -0.002209 0.004286 -0.020141 -0.000663 0.056154 -0.008842
# 6 -0.002168 -0.001622 0.012734 0.002262 -0.008842 0.042001
#
#
# Mechanical properties :
#
#
# Convention : Reuss Voigt Hill
#
# Bulk Modulus (GPa) = 23.98716 72.67120 48.32918
# Shear Modulus (GPa) = 18.74660 30.11480 24.43070
#
# Velocity S-wave (km/s) = 2.96928 3.76340 3.38968
# Velocity P-wave (km/s) = 4.79967 7.28436 6.16842
#
# Compressibility (1/GPa) = 0.04168897
#
# Stress axis : x y z
#
# Youngs Moduli (GPa) = 109.53286 130.74985 16.59135
#
# Poissons Ratio (x) = 0.26737 0.11252
# Poissons Ratio (y) = 0.22399 0.14690
# Poissons Ratio (z) = 0.74285 1.15762
#
# Static dielectric constant tensor:
#      x y z
#    x 5.024280 0.058690 0.204240 
#    y 0.058690 4.130590 0.047970 
#    z 0.204240 0.047970 3.289190 
# 
# 
# High freq. dielectric constant tensor:
#      x y z
#    x 1.853510 -0.000850 0.017440 
#    y -0.000850 1.851270 0.004120 
#    z 0.017440 0.004120 1.783380 
# 
# From -- ./inp_files/342826.got.cif
#   From: 2010.06.25/outbox.cif.g09.slc.cpg/sg2_172_cif.got.tgz:342826.got - 2010.06.27 13:26:56.
