data_PCOD8043259
_publ_section_title
;
Structure prediction by ZEFSAII (Michael W. Deem and Ramdas Pophale) SiO2 
 PCOD8043259
Probable space group: P -1
;
_chemical_formula_sum "Si O2"
_cell_formula_units_Z 16
_cell_length_a 12.740572
_cell_length_b 9.462401
_cell_length_c 9.041050
_cell_angle_alpha 101.703981
_cell_angle_beta 119.669068
_cell_angle_gamma 56.196353
_cell_volume 782.979257
_symmetry_space_group_name_H-M "P -1"
_symmetry_group_IT_number 2
_symmetry_cell_setting 'triclinic'
loop_
_space_group_symop_operation_xyz
x,y,z
-x,-y,-z
loop_
_atom_site_type_symbol
_atom_site_label
_atom_site_fract_x
_atom_site_fract_y
_atom_site_fract_z
Si Si1 0.794824 0.438836 0.874150
Si Si2 0.768356 0.115454 0.411292
Si Si3 0.247131 0.863387 0.247261
Si Si4 0.472459 0.347564 0.765831
Si Si5 0.196753 0.440027 0.415494
Si Si6 0.049635 0.249227 0.203764
Si Si7 0.037132 0.758622 0.540674
Si Si8 0.487624 0.340772 0.116544
O O1 0.797923 0.265215 0.867153
O O2 0.781555 0.487091 0.704991
O O3 0.662826 0.600993 0.899103
O O4 0.946320 0.389891 0.040076
O O5 0.734873 0.152356 0.567956
O O6 0.832227 0.221852 0.411541
O O7 0.620032 0.166114 0.239939
O O8 0.882685 0.916509 0.417734
O O9 0.395596 0.809834 0.261365
O O10 0.129142 0.056129 0.155914
O O11 0.332662 0.370147 0.600152
O O12 0.475018 0.517877 0.790915
O O13 0.476768 0.303403 0.931075
O O14 0.170941 0.287625 0.338673
O O15 0.058922 0.593403 0.436818
O O16 0.954224 0.266541 0.282469
#
# Coordination Sequence:
#
# PCOD8043259 Si02
#       8
#     2   2   2   2   2   2   2   2
#     4  11  22  38  62  87 116 152 197 242 284 340
#     4  10  19  36  60  90 115 146 191 245 287 332
#     4  10  21  39  61  88 114 151 194 244 286 339
#     4  10  21  35  61  87 115 154 191 240 291 342
#     4  12  22  40  59  85 122 156 192 232 295 350
#     4  11  25  38  58  86 122 156 191 237 288 350
#     4  10  21  36  59  85 117 154 188 234 288 345
#     4  10  20  36  60  91 114 143 199 247 285 334
#
# _framework density 20.434768999999999
#
# number of rings (size 3 to 8) (size 9 to 14) (size 15 to 20)
#    0.000    1.500    2.500    2.625    3.500    3.500 
#    0.000    0.000    0.000    4.500    0.000    0.000 
#    0.000    0.000    0.000    0.000    0.000    0.000 
#
# Total GULP energy -198437.320205 kJ/mol
# GULP energy per Si atom -12402.332513 kJ/mol
# Density = 2.038826 g / cm^3
# Si number density = 20.434769 Si / 1000 Ang^3
#
#
#
# Elastic Constant Matrix: (Units=GPa)
#
#
# Indices 1 2 3 4 5 6 
#
# 1 85.2427 45.0228 48.3972 0.8993 -3.2700 -32.5029
# 2 45.0228 74.5718 25.8782 -2.6450 -0.4044 -24.3408
# 3 48.3972 25.8782 124.1289 -18.7764 10.2235 -20.3879
# 4 0.8993 -2.6450 -18.7764 30.2228 -4.7002 2.6040
# 5 -3.2700 -0.4044 10.2235 -4.7002 29.8820 5.5135
# 6 -32.5029 -24.3408 -20.3879 2.6040 5.5135 34.7337
#
#
#
# Elastic Compliance Matrix: (Units=1/GPa)
#
#
# Indices 1 2 3 4 5 6 
#
# 1 0.026001 -0.008805 -0.007133 -0.006982 0.001435 0.014270
# 2 -0.008805 0.020805 0.000625 0.001579 -0.001919 0.006893
# 3 -0.007133 0.000625 0.012307 0.007189 -0.004054 0.001092
# 4 -0.006982 0.001579 0.007189 0.038896 0.003788 -0.004725
# 5 0.001435 -0.001919 -0.004054 0.003788 0.037159 -0.008564
# 6 0.014270 0.006893 0.001092 -0.004725 -0.008564 0.049329
#
#
# Mechanical properties :
#
#
# Convention : Reuss Voigt Hill
#
# Bulk Modulus (GPa) = 35.10336 58.05998 46.58167
# Shear Modulus (GPa) = 22.25998 29.94403 26.10200
#
# Velocity S-wave (km/s) = 3.30406 3.83214 3.57786
# Velocity P-wave (km/s) = 5.63661 6.93213 6.31766
#
# Compressibility (1/GPa) = 0.02848730
#
# Stress axis : x y z
#
# Youngs Moduli (GPa) = 38.45983 48.06594 81.25137
#
# Poissons Ratio (x) = 0.42323 0.57953
# Poissons Ratio (y) = 0.33865 -0.05076
# Poissons Ratio (z) = 0.27432 -0.03003
#
# Static dielectric constant tensor:
#      x y z
#    x 3.674190 -0.258470 -0.108630 
#    y -0.258470 3.716460 -0.052030 
#    z -0.108630 -0.052030 3.558160 
# 
# 
# High freq. dielectric constant tensor:
#      x y z
#    x 1.796640 -0.023840 -0.009880 
#    y -0.023840 1.790040 -0.008100 
#    z -0.009880 -0.008100 1.799590 
# 
# From -- ./inp_files/189913.got.cif
#   From: 2010.06.25/outbox.cif.g09.slc.cpg/sg2_95_cif.got.tgz:189913.got - 2010.06.27 13:26:56.
