data_PCOD8043822
_publ_section_title
;
Structure prediction by ZEFSAII (Michael W. Deem and Ramdas Pophale) SiO2 
 PCOD8043822
Probable space group: P -1
;
_chemical_formula_sum "Si O2"
_cell_formula_units_Z 16
_cell_length_a 12.260317
_cell_length_b 11.697965
_cell_length_c 8.734304
_cell_angle_alpha 98.498897
_cell_angle_beta 122.893201
_cell_angle_gamma 53.082401
_cell_volume 810.716275
_symmetry_space_group_name_H-M "P -1"
_symmetry_group_IT_number 2
_symmetry_cell_setting 'triclinic'
loop_
_space_group_symop_operation_xyz
x,y,z
-x,-y,-z
loop_
_atom_site_type_symbol
_atom_site_label
_atom_site_fract_x
_atom_site_fract_y
_atom_site_fract_z
Si Si1 0.225966 0.476671 0.156963
Si Si2 0.412925 0.727705 0.762751
Si Si3 0.481986 0.293327 0.826503
Si Si4 0.119225 0.304100 0.169046
Si Si5 0.626067 0.471988 0.463209
Si Si6 0.635424 0.977697 0.876621
Si Si7 0.841739 0.664397 0.450418
Si Si8 0.309960 0.039452 0.730377
O O1 0.404077 0.378794 0.193441
O O2 0.167804 0.377381 0.102536
O O3 0.230504 0.536514 0.340289
O O4 0.078065 0.618964 0.972723
O O5 0.305663 0.679248 0.605495
O O6 0.307176 0.902242 0.674901
O O7 0.442754 0.693863 0.959083
O O8 0.468871 0.396087 0.706181
O O9 0.308595 0.324669 0.737210
O O10 0.608294 0.124548 0.832665
O O11 0.224773 0.136454 0.159979
O O12 0.178697 0.312995 0.380329
O O13 0.500000 0.500000 0.500000
O O14 0.466894 0.996572 0.741728
O O15 0.688945 0.936739 0.084819
O O16 0.846403 0.794674 0.414528
O O17 0.000000 0.500000 0.500000
#
# Coordination Sequence:
#
# PCOD8043822 Si02
#       8
#     2   2   2   2   2   2   2   2
#     4  10  21  34  52  84 107 149 186 223 277 325
#     4  10  19  37  60  76 115 146 187 226 271 327
#     4  10  20  36  56  87 110 144 189 226 278 329
#     4  11  21  33  55  79 117 146 176 231 282 327
#     4  10  21  36  56  81 110 148 192 231 261 324
#     4   9  19  33  56  81 114 142 179 234 278 333
#     4  11  23  34  55  86 119 143 178 234 282 338
#     4   9  19  34  53  83 111 144 184 225 282 328
#
# _framework density 19.735634999999998
#
# number of rings (size 3 to 8) (size 9 to 14) (size 15 to 20)
#    0.000    2.000    2.500    1.875    3.500    4.000 
#    0.000    0.000    0.000   15.000    0.000    0.000 
#    0.000    0.000    0.000    0.000    0.000    0.000 
#
# Total GULP energy -198245.849021 kJ/mol
# GULP energy per Si atom -12390.365564 kJ/mol
# Density = 1.969072 g / cm^3
# Si number density = 19.735635 Si / 1000 Ang^3
#
#
#
# Elastic Constant Matrix: (Units=GPa)
#
#
# Indices 1 2 3 4 5 6 
#
# 1 41.3985 33.2411 8.4420 -3.6764 -12.5927 12.4815
# 2 33.2411 158.3884 47.6280 -0.7439 -6.3845 6.7382
# 3 8.4420 47.6280 65.2318 4.9857 -2.9899 14.2747
# 4 -3.6764 -0.7439 4.9857 34.7228 5.1912 -1.9228
# 5 -12.5927 -6.3845 -2.9899 5.1912 26.8765 -5.7221
# 6 12.4815 6.7382 14.2747 -1.9228 -5.7221 33.5315
#
#
#
# Elastic Compliance Matrix: (Units=1/GPa)
#
#
# Indices 1 2 3 4 5 6 
#
# 1 0.037501 -0.008089 0.004212 0.000520 0.013507 -0.011792
# 2 -0.008089 0.009953 -0.007200 0.000839 -0.001567 0.003857
# 3 0.004212 -0.007200 0.022505 -0.003687 0.001420 -0.009671
# 4 0.000520 0.000839 -0.003687 0.030320 -0.005392 0.002026
# 5 0.013507 -0.001567 0.001420 -0.005392 0.044793 0.002017
# 6 -0.011792 0.003857 -0.009671 0.002026 0.002017 0.038015
#
#
# Mechanical properties :
#
#
# Convention : Reuss Voigt Hill
#
# Bulk Modulus (GPa) = 20.91755 49.29345 35.10550
# Shear Modulus (GPa) = 22.60654 30.74000 26.67327
#
# Velocity S-wave (km/s) = 3.38815 3.95091 3.68030
# Velocity P-wave (km/s) = 5.09195 6.77082 5.99049
#
# Compressibility (1/GPa) = 0.04780675
#
# Stress axis : x y z
#
# Youngs Moduli (GPa) = 26.66570 100.47306 44.43457
#
# Poissons Ratio (x) = 0.81268 -0.18717
# Poissons Ratio (y) = 0.21569 0.31993
# Poissons Ratio (z) = -0.11232 0.72341
#
# Static dielectric constant tensor:
#      x y z
#    x 3.252290 0.229120 0.051470 
#    y 0.229120 3.960360 0.124920 
#    z 0.051470 0.124920 3.966330 
# 
# 
# High freq. dielectric constant tensor:
#      x y z
#    x 1.730520 0.011080 -0.018270 
#    y 0.011080 1.783010 0.007540 
#    z -0.018270 0.007540 1.768220 
# 
# From -- ./inp_files/189402.got.cif
#   From: 2010.06.25/outbox.cif.g09.slc.cpg/sg2_95_cif.got.tgz:189402.got - 2010.06.27 13:26:56.
