data_PCOD8043287
_publ_section_title
;
Structure prediction by ZEFSAII (Michael W. Deem and Ramdas Pophale) SiO2 
 PCOD8043287
Probable space group: P -1
;
_chemical_formula_sum "Si O2"
_cell_formula_units_Z 14
_cell_length_a 9.008526
_cell_length_b 9.535720
_cell_length_c 8.443070
_cell_angle_alpha 75.756015
_cell_angle_beta 70.565235
_cell_angle_gamma 73.389141
_cell_volume 646.208031
_symmetry_space_group_name_H-M "P -1"
_symmetry_group_IT_number 2
_symmetry_cell_setting 'triclinic'
loop_
_space_group_symop_operation_xyz
x,y,z
-x,-y,-z
loop_
_atom_site_type_symbol
_atom_site_label
_atom_site_fract_x
_atom_site_fract_y
_atom_site_fract_z
Si Si1 0.083398 0.574844 0.089090
Si Si2 0.728124 0.655936 0.682538
Si Si3 0.645473 0.003467 0.063149
Si Si4 0.369384 0.706674 0.828046
Si Si5 0.179198 0.197082 0.695996
Si Si6 0.174918 0.905925 0.596212
Si Si7 0.172510 0.086139 0.264742
O O1 0.133699 0.470577 0.253208
O O2 0.960819 0.720625 0.157896
O O3 0.247701 0.605049 0.947731
O O4 0.000000 0.500000 0.000000
O O5 0.553031 0.612580 0.765617
O O6 0.772130 0.685820 0.476503
O O7 0.714935 0.804768 0.749236
O O8 0.663334 0.885303 0.234384
O O9 0.635954 0.170214 0.071571
O O10 0.806742 0.953586 0.915311
O O11 0.500000 0.000000 0.000000
O O12 0.318674 0.788023 0.656471
O O13 0.121755 0.065273 0.660488
O O14 0.016132 0.837192 0.665050
O O15 0.227283 0.936118 0.391551
#
# Coordination Sequence:
#
# PCOD8043287 Si02
#       7
#     2   2   2   2   2   2   2
#     4  12  25  43  64  83 120 167 210 240 286 361
#     4  11  23  40  62  88 125 160 199 245 298 354
#     4  11  21  35  64  93 123 147 193 252 307 352
#     4  11  23  39  62  91 124 152 199 251 307 344
#     4  10  23  40  63  87 120 162 199 247 301 354
#     4   9  20  36  62  90 121 154 193 251 303 362
#     4  10  19  36  60  94 120 155 199 238 306 359
#
# _framework density 21.664850999999999
#
# number of rings (size 3 to 8) (size 9 to 14) (size 15 to 20)
#    0.000    1.429    1.429    4.286    2.000    4.000 
#    0.000    2.143    0.000    0.000    0.000    0.000 
#    0.000    0.000    0.000    0.000    0.000    0.000 
#
# Total GULP energy -173544.741082 kJ/mol
# GULP energy per Si atom -12396.052934 kJ/mol
# Density = 2.161554 g / cm^3
# Si number density = 21.664851 Si / 1000 Ang^3
#
#
#
# Elastic Constant Matrix: (Units=GPa)
#
#
# Indices 1 2 3 4 5 6 
#
# 1 128.5293 23.7729 43.9222 -14.8840 7.7707 4.2699
# 2 23.7729 42.1830 27.4733 -6.5322 2.4087 -1.6235
# 3 43.9222 27.4733 100.9771 -8.5322 12.6868 1.3925
# 4 -14.8840 -6.5322 -8.5322 28.3836 -2.2402 0.6527
# 5 7.7707 2.4087 12.6868 -2.2402 45.9823 -7.1985
# 6 4.2699 -1.6235 1.3925 0.6527 -7.1985 28.1424
#
#
#
# Elastic Compliance Matrix: (Units=1/GPa)
#
#
# Indices 1 2 3 4 5 6 
#
# 1 0.009910 -0.003073 -0.003051 0.003552 -0.000783 -0.001812
# 2 -0.003073 0.030476 -0.006889 0.003379 0.001435 0.002854
# 3 -0.003051 -0.006889 0.013565 0.000684 -0.003053 -0.001402
# 4 0.003552 0.003379 0.000684 0.038160 0.000724 -0.001078
# 5 -0.000783 0.001435 -0.003053 0.000724 0.023683 0.006394
# 6 -0.001812 0.002854 -0.001402 -0.001078 0.006394 0.037703
#
#
# Mechanical properties :
#
#
# Convention : Reuss Voigt Hill
#
# Bulk Modulus (GPa) = 35.81002 51.33624 43.57313
# Shear Modulus (GPa) = 26.47853 32.26972 29.37412
#
# Velocity S-wave (km/s) = 3.49977 3.86359 3.68617
# Velocity P-wave (km/s) = 5.73552 6.60683 6.18653
#
# Compressibility (1/GPa) = 0.02792515
#
# Stress axis : x y z
#
# Youngs Moduli (GPa) = 100.90559 32.81264 73.71684
#
# Poissons Ratio (x) = 0.10083 0.22492
# Poissons Ratio (y) = 0.31007 0.50786
# Poissons Ratio (z) = 0.30788 0.22606
#
# Static dielectric constant tensor:
#      x y z
#    x 4.056290 0.037300 0.201820 
#    y 0.037300 3.618990 0.010600 
#    z 0.201820 0.010600 4.354770 
# 
# 
# High freq. dielectric constant tensor:
#      x y z
#    x 1.863410 -0.001660 0.013370 
#    y -0.001660 1.816410 -0.006920 
#    z 0.013370 -0.006920 1.864810 
# 
# From -- ./inp_files/157183.got.cif
#   From: 2010.06.25/outbox.cif.g09.slc.cpg/sg2_79_cif.got.tgz:157183.got - 2010.06.27 13:26:56.
