data_PCOD8043269
_publ_section_title
;
Structure prediction by ZEFSAII (Michael W. Deem and Ramdas Pophale) SiO2 
 PCOD8043269
Probable space group: P -1
;
_chemical_formula_sum "Si O2"
_cell_formula_units_Z 14
_cell_length_a 5.014125
_cell_length_b 7.579709
_cell_length_c 21.413737
_cell_angle_alpha 118.741662
_cell_angle_beta 118.179262
_cell_angle_gamma 68.935290
_cell_volume 619.707013
_symmetry_space_group_name_H-M "P -1"
_symmetry_group_IT_number 2
_symmetry_cell_setting 'triclinic'
loop_
_space_group_symop_operation_xyz
x,y,z
-x,-y,-z
loop_
_atom_site_type_symbol
_atom_site_label
_atom_site_fract_x
_atom_site_fract_y
_atom_site_fract_z
Si Si1 0.866623 0.856351 0.912609
Si Si2 0.842774 0.298062 0.537403
Si Si3 0.630182 0.415400 0.407828
Si Si4 0.166223 0.993565 0.848785
Si Si5 0.558443 0.937102 0.425681
Si Si6 0.159818 0.463755 0.945577
Si Si7 0.892454 0.832645 0.670453
O O1 0.000316 0.619897 0.901655
O O2 0.503827 0.885491 0.887079
O O3 0.937463 0.923610 0.862215
O O4 0.000000 0.000000 0.000000
O O5 0.784404 0.455310 0.499197
O O6 0.618753 0.365596 0.585058
O O7 0.206362 0.279572 0.593901
O O8 0.776974 0.100374 0.457774
O O9 0.400294 0.251631 0.349783
O O10 0.885482 0.353927 0.371890
O O11 0.143673 0.236311 0.882702
O O12 0.083983 0.917468 0.759456
O O13 0.500000 0.000000 0.500000
O O14 0.244152 0.973956 0.356845
O O15 0.500000 0.500000 0.000000
O O16 0.000000 0.500000 0.000000
#
# Coordination Sequence:
#
# PCOD8043269 Si02
#       7
#     2   2   2   2   2   2   2
#     4  12  23  43  75 101 134 178 226 278 337 405
#     4   9  20  34  60  89 114 158 226 282 314 394
#     4  10  21  38  61  87 119 167 219 271 337 394
#     4  12  25  45  66 101 147 178 221 288 341 405
#     4  10  19  36  60  90 121 166 222 273 332 390
#     4  12  23  41  73 107 130 174 229 277 332 408
#     4  11  24  41  61  87 136 174 211 279 350 392
#
# _framework density 22.591324
#
# number of rings (size 3 to 8) (size 9 to 14) (size 15 to 20)
#    0.000    1.143    4.286    2.143    2.000    1.714 
#    2.571    1.429    0.000    0.000    0.000    0.000 
#    0.000    0.000    0.000    0.000    0.000    0.000 
#
# Total GULP energy -173433.373465 kJ/mol
# GULP energy per Si atom -12388.098105 kJ/mol
# Density = 2.253990 g / cm^3
# Si number density = 22.591324 Si / 1000 Ang^3
#
#
#
# Elastic Constant Matrix: (Units=GPa)
#
#
# Indices 1 2 3 4 5 6 
#
# 1 109.4618 17.4449 21.7533 0.9128 -7.1288 -16.8770
# 2 17.4449 135.7245 44.0125 -0.5195 1.3677 -29.0826
# 3 21.7533 44.0125 130.4644 1.7870 -2.0036 -15.6624
# 4 0.9128 -0.5195 1.7870 31.0032 -2.4263 6.2921
# 5 -7.1288 1.3677 -2.0036 -2.4263 30.3845 0.5066
# 6 -16.8770 -29.0826 -15.6624 6.2921 0.5066 40.4649
#
#
#
# Elastic Compliance Matrix: (Units=1/GPa)
#
#
# Indices 1 2 3 4 5 6 
#
# 1 0.010116 -0.000147 -0.001139 -0.000830 0.002176 0.003774
# 2 -0.000147 0.009461 -0.002452 -0.000966 -0.000798 0.005950
# 3 -0.001139 -0.002452 0.008854 -0.000755 0.000345 0.001303
# 4 -0.000830 -0.000966 -0.000755 0.033857 0.002613 -0.006630
# 5 0.002176 -0.000798 0.000345 0.002613 0.033695 -0.000361
# 6 0.003774 0.005950 0.001303 -0.006630 -0.000361 0.032103
#
#
# Mechanical properties :
#
#
# Convention : Reuss Voigt Hill
#
# Bulk Modulus (GPa) = 47.72230 60.23025 53.97628
# Shear Modulus (GPa) = 35.07608 39.86651 37.47130
#
# Velocity S-wave (km/s) = 3.94462 4.20537 4.07708
# Velocity P-wave (km/s) = 6.47432 7.09217 6.79027
#
# Compressibility (1/GPa) = 0.02095456
#
# Stress axis : x y z
#
# Youngs Moduli (GPa) = 98.85334 105.69599 112.94212
#
# Poissons Ratio (x) = 0.01556 0.12866
# Poissons Ratio (y) = 0.01455 0.27693
# Poissons Ratio (z) = 0.11261 0.25916
#
# Static dielectric constant tensor:
#      x y z
#    x 3.375460 -2.383030 -0.332530 
#    y -2.383030 -1.233990 -1.261270 
#    z -0.332530 -1.261270 3.607730 
# 
# 
# High freq. dielectric constant tensor:
#      x y z
#    x 1.919410 -0.003830 0.012940 
#    y -0.003830 1.916180 -0.004090 
#    z 0.012940 -0.004090 1.849830 
# 
# From -- ./inp_files/582540.got.cif
#   From: 2010.06.25/outbox.cif.g09.slc.cpg/sg2_292_cif.got.tgz:582540.got - 2010.06.27 13:26:56.
