data_PCOD8043370
_publ_section_title
;
Structure prediction by ZEFSAII (Michael W. Deem and Ramdas Pophale) SiO2 
 PCOD8043370
Probable space group: P -1
;
_chemical_formula_sum "Si O2"
_cell_formula_units_Z 16
_cell_length_a 14.247297
_cell_length_b 7.911673
_cell_length_c 12.976824
_cell_angle_alpha 48.487058
_cell_angle_beta 138.604224
_cell_angle_gamma 125.104429
_cell_volume 715.270661
_symmetry_space_group_name_H-M "P -1"
_symmetry_group_IT_number 2
_symmetry_cell_setting 'triclinic'
loop_
_space_group_symop_operation_xyz
x,y,z
-x,-y,-z
loop_
_atom_site_type_symbol
_atom_site_label
_atom_site_fract_x
_atom_site_fract_y
_atom_site_fract_z
Si Si1 0.664142 0.478107 0.662651
Si Si2 0.396418 0.286567 0.813788
Si Si3 0.349433 0.811974 0.051834
Si Si4 0.844228 0.718533 0.540391
Si Si5 0.038277 0.893209 0.362231
Si Si6 0.789873 0.492283 0.302079
Si Si7 0.875987 0.451089 0.165524
Si Si8 0.083989 0.305205 0.097553
O O1 0.500000 0.500000 0.500000
O O2 0.668809 0.234326 0.821518
O O3 0.754821 0.514164 0.617673
O O4 0.749295 0.660314 0.740187
O O5 0.540825 0.350127 0.839843
O O6 0.261814 0.206037 0.660722
O O7 0.365209 0.493780 0.778815
O O8 0.416523 0.074637 0.989403
O O9 0.199793 0.747667 0.893190
O O10 0.976885 0.616501 0.639700
O O11 0.912819 0.943667 0.567429
O O12 0.157501 0.726935 0.514401
O O13 0.886911 0.730956 0.320170
O O14 0.018874 0.047975 0.182854
O O15 0.778995 0.483784 0.171966
O O16 0.915129 0.675872 0.034096
O O17 0.000000 0.500000 0.000000
#
# Coordination Sequence:
#
# PCOD8043370 Si02
#       8
#     2   2   2   2   2   2   2   2
#     4  10  19  36  61  93 114 145 197 265 300 345
#     4  11  23  39  59  91 119 165 199 255 297 360
#     4  10  23  39  63  88 121 151 214 252 295 353
#     4  11  20  37  67  88 118 158 208 248 299 355
#     4  10  21  38  58  93 122 161 200 254 297 362
#     4  11  24  37  57  88 133 163 196 242 312 369
#     4  11  22  39  61  93 120 164 196 255 301 356
#     4  10  20  38  64  92 117 154 208 260 291 348
#
# _framework density 22.369156
#
# number of rings (size 3 to 8) (size 9 to 14) (size 15 to 20)
#    0.000    1.500    3.750    3.000    1.750    2.500 
#    0.000    1.250    0.000    3.750    0.000    0.000 
#    0.000    0.000    0.000    0.000    0.000    0.000 
#
# Total GULP energy -198237.182774 kJ/mol
# GULP energy per Si atom -12389.823923 kJ/mol
# Density = 2.231824 g / cm^3
# Si number density = 22.369156 Si / 1000 Ang^3
#
#
#
# Elastic Constant Matrix: (Units=GPa)
#
#
# Indices 1 2 3 4 5 6 
#
# 1 83.0151 16.5009 25.3500 -21.5262 1.6923 -6.8253
# 2 16.5009 50.4875 21.1210 -12.0078 -8.4066 6.1014
# 3 25.3500 21.1210 95.5316 -7.8334 -2.9291 6.3546
# 4 -21.5262 -12.0078 -7.8334 42.1158 10.8969 -2.6260
# 5 1.6923 -8.4066 -2.9291 10.8969 42.6608 0.7501
# 6 -6.8253 6.1014 6.3546 -2.6260 0.7501 23.7633
#
#
#
# Elastic Compliance Matrix: (Units=1/GPa)
#
#
# Indices 1 2 3 4 5 6 
#
# 1 0.016734 -0.003555 -0.003602 0.008356 -0.003882 0.007728
# 2 -0.003555 0.024684 -0.003727 0.003091 0.004068 -0.006149
# 3 -0.003602 -0.003727 0.012421 -0.000960 0.000569 -0.003523
# 4 0.008356 0.003091 -0.000960 0.031088 -0.007827 0.005545
# 5 -0.003882 0.004068 0.000569 -0.007827 0.026505 -0.004013
# 6 0.007728 -0.006149 -0.003523 0.005545 -0.004013 0.047562
#
#
# Mechanical properties :
#
#
# Convention : Reuss Voigt Hill
#
# Bulk Modulus (GPa) = 31.18215 39.44200 35.31208
# Shear Modulus (GPa) = 26.11622 32.77878 29.44750
#
# Velocity S-wave (km/s) = 3.42059 3.83215 3.63220
# Velocity P-wave (km/s) = 5.43789 6.10337 5.78021
#
# Compressibility (1/GPa) = 0.03206963
#
# Stress axis : x y z
#
# Youngs Moduli (GPa) = 59.75885 40.51283 80.51119
#
# Poissons Ratio (x) = 0.14403 0.29003
# Poissons Ratio (y) = 0.21246 0.30004
# Poissons Ratio (z) = 0.21528 0.15098
#
# Static dielectric constant tensor:
#      x y z
#    x 4.284040 0.315680 -0.158940 
#    y 0.315680 3.671160 -0.085390 
#    z -0.158940 -0.085390 4.337700 
# 
# 
# High freq. dielectric constant tensor:
#      x y z
#    x 1.887370 0.022640 -0.013250 
#    y 0.022640 1.833610 0.000090 
#    z -0.013250 0.000090 1.896250 
# 
# From -- ./inp_files/528182.got.cif
#   From: 2010.06.25/outbox.cif.g09.slc.cpg/sg2_265_cif.got.tgz:528182.got - 2010.06.27 13:26:56.
