data_PCOD8043357
_publ_section_title
;
Structure prediction by ZEFSAII (Michael W. Deem and Ramdas Pophale) SiO2 
 PCOD8043357
Probable space group: P -1
;
_chemical_formula_sum "Si O2"
_cell_formula_units_Z 14
_cell_length_a 9.321608
_cell_length_b 7.883016
_cell_length_c 9.023813
_cell_angle_alpha 115.212610
_cell_angle_beta 116.441512
_cell_angle_gamma 65.805583
_cell_volume 516.946042
_symmetry_space_group_name_H-M "P -1"
_symmetry_group_IT_number 2
_symmetry_cell_setting 'triclinic'
loop_
_space_group_symop_operation_xyz
x,y,z
-x,-y,-z
loop_
_atom_site_type_symbol
_atom_site_label
_atom_site_fract_x
_atom_site_fract_y
_atom_site_fract_z
Si Si1 0.316272 0.361219 0.601970
Si Si2 0.272644 0.866822 0.909480
Si Si3 0.228606 0.986013 0.602996
Si Si4 0.074728 0.667120 0.415320
Si Si5 0.837772 0.465833 0.128434
Si Si6 0.394837 0.124582 0.288064
Si Si7 0.581465 0.565395 0.805592
O O1 0.169689 0.551612 0.556635
O O2 0.281233 0.358316 0.760524
O O3 0.314807 0.169055 0.432776
O O4 0.499798 0.389837 0.670550
O O5 0.200291 0.978431 0.766153
O O6 0.151346 0.746177 0.876246
O O7 0.288027 0.021259 0.098863
O O8 0.544285 0.274082 0.090514
O O9 0.195444 0.787494 0.442997
O O10 0.413131 0.003280 0.657309
O O11 0.092276 0.172425 0.542728
O O12 0.018369 0.513678 0.222923
O O13 0.757660 0.481277 0.935533
O O14 0.385810 0.338579 0.297571
#
# Coordination Sequence:
#
# PCOD8043357 Si02
#       7
#     2   2   2   2   2   2   2
#     4  11  22  38  68  94 124 155 208 263 308 347
#     4  10  19  36  61  90 122 164 207 246 298 375
#     4  10  21  37  65  93 121 162 212 251 299 368
#     4  11  21  39  64  92 123 164 209 248 301 374
#     4  11  22  40  63  91 125 169 205 240 309 383
#     4  11  21  39  66  97 121 154 210 267 301 345
#     4  10  20  39  63  89 121 167 210 243 300 378
#
# _framework density 27.082128000000001
#
# number of rings (size 3 to 8) (size 9 to 14) (size 15 to 20)
#    0.000    1.429    4.286    6.000    0.000    0.000 
#    0.000   10.000    0.000    0.000    0.000    0.000 
#    0.000    0.000    0.000    0.000    0.000    0.000 
#
# Total GULP energy -173507.121834 kJ/mol
# GULP energy per Si atom -12393.365845 kJ/mol
# Density = 2.702049 g / cm^3
# Si number density = 27.082128 Si / 1000 Ang^3
#
#
#
# Elastic Constant Matrix: (Units=GPa)
#
#
# Indices 1 2 3 4 5 6 
#
# 1 55.2305 8.7123 35.5249 5.2018 11.4388 5.8116
# 2 8.7123 67.1571 15.2529 -16.9119 2.3423 4.8099
# 3 35.5249 15.2529 157.4303 6.5466 24.5637 10.4670
# 4 5.2018 -16.9119 6.5466 51.4716 0.2498 12.8266
# 5 11.4388 2.3423 24.5637 0.2498 49.4313 6.0629
# 6 5.8116 4.8099 10.4670 12.8266 6.0629 23.5650
#
#
#
# Elastic Compliance Matrix: (Units=1/GPa)
#
#
# Indices 1 2 3 4 5 6 
#
# 1 0.022037 -0.002261 -0.004150 -0.002112 -0.002764 -0.001269
# 2 -0.002261 0.017992 -0.001267 0.008105 0.001150 -0.007259
# 3 -0.004150 -0.001267 0.007952 -0.000709 -0.002787 -0.001147
# 4 -0.002112 0.008105 -0.000709 0.026299 0.002251 -0.015713
# 5 -0.002764 0.001150 -0.002787 0.002251 0.022853 -0.005420
# 6 -0.001269 -0.007259 -0.001147 -0.015713 -0.005420 0.054687
#
#
# Mechanical properties :
#
#
# Convention : Reuss Voigt Hill
#
# Bulk Modulus (GPa) = 30.65114 44.31090 37.48102
# Shear Modulus (GPa) = 28.08165 39.58209 33.83187
#
# Velocity S-wave (km/s) = 3.22360 3.82718 3.53828
# Velocity P-wave (km/s) = 5.01975 5.99391 5.52833
#
# Compressibility (1/GPa) = 0.03262522
#
# Stress axis : x y z
#
# Youngs Moduli (GPa) = 45.37827 55.57932 125.75718
#
# Poissons Ratio (x) = 0.12566 0.52193
# Poissons Ratio (y) = 0.10260 0.15930
# Poissons Ratio (z) = 0.18833 0.07041
#
# Static dielectric constant tensor:
#      x y z
#    x 4.623920 0.311770 0.537840 
#    y 0.311770 4.909280 0.088720 
#    z 0.537840 0.088720 5.048680 
# 
# 
# High freq. dielectric constant tensor:
#      x y z
#    x 2.058790 0.015890 0.024490 
#    y 0.015890 2.091860 0.001270 
#    z 0.024490 0.001270 2.103510 
# 
# From -- ./inp_files/420117.got.cif
#   From: 2010.06.25/outbox.cif.g09.slc.cpg/sg2_211_cif.got.tgz:420117.got - 2010.06.27 13:26:56.
