data_PCOD8043422
_publ_section_title
;
Structure prediction by ZEFSAII (Michael W. Deem and Ramdas Pophale) SiO2 
 PCOD8043422
Probable space group: P -1
;
_chemical_formula_sum "Si O2"
_cell_formula_units_Z 16
_cell_length_a 14.823754
_cell_length_b 14.175618
_cell_length_c 9.382053
_cell_angle_alpha 93.052278
_cell_angle_beta 124.610421
_cell_angle_gamma 41.142629
_cell_volume 771.107267
_symmetry_space_group_name_H-M "P -1"
_symmetry_group_IT_number 2
_symmetry_cell_setting 'triclinic'
loop_
_space_group_symop_operation_xyz
x,y,z
-x,-y,-z
loop_
_atom_site_type_symbol
_atom_site_label
_atom_site_fract_x
_atom_site_fract_y
_atom_site_fract_z
Si Si1 0.162830 0.944163 0.471455
Si Si2 0.530293 0.082453 0.483409
Si Si3 0.002433 0.255258 0.277561
Si Si4 0.346239 0.348256 0.127222
Si Si5 0.987615 0.321322 0.590384
Si Si6 0.471943 0.226154 0.729151
Si Si7 0.253260 0.288745 0.773217
Si Si8 0.112656 0.022555 0.759073
O O1 0.418866 0.773804 0.635473
O O2 0.176308 0.940347 0.653017
O O3 0.978511 0.159362 0.257904
O O4 0.081247 0.901820 0.346179
O O5 0.314384 0.294637 0.221394
O O6 0.575618 0.112041 0.664448
O O7 0.500000 0.000000 0.500000
O O8 0.734607 0.923664 0.539498
O O9 0.934927 0.348001 0.378007
O O10 0.847245 0.423027 0.030842
O O11 0.339958 0.296709 0.969519
O O12 0.771396 0.535852 0.488678
O O13 0.226524 0.202554 0.805707
O O14 0.020427 0.199224 0.693632
O O15 0.432840 0.165408 0.794255
O O16 0.658424 0.157573 0.954475
O O17 0.000000 0.500000 0.500000
#
# Coordination Sequence:
#
# PCOD8043422 Si02
#       8
#     2   2   2   2   2   2   2   2
#     4   9  20  38  61  98 117 154 211 258 301 360
#     4  11  27  39  56  93 131 161 201 245 306 372
#     4  10  20  41  62  86 121 166 203 241 308 366
#     4  11  21  41  63  84 125 168 195 245 311 360
#     4  10  21  36  63  93 119 158 210 246 300 370
#     4  11  22  40  58  93 126 157 204 257 297 357
#     4  10  19  36  62  90 118 156 205 244 294 370
#     4  10  20  36  63  92 127 151 203 266 307 339
#
# _framework density 20.749382000000001
#
# number of rings (size 3 to 8) (size 9 to 14) (size 15 to 20)
#    0.000    1.750    3.750    0.750    3.500    3.000 
#    0.000    6.250    0.000    4.500    0.000    0.000 
#    0.000    0.000    0.000    0.000    0.000    0.000 
#
# Total GULP energy -198242.758822 kJ/mol
# GULP energy per Si atom -12390.172426 kJ/mol
# Density = 2.070216 g / cm^3
# Si number density = 20.749382 Si / 1000 Ang^3
#
#
#
# Elastic Constant Matrix: (Units=GPa)
#
#
# Indices 1 2 3 4 5 6 
#
# 1 103.8210 22.1526 36.4911 3.3801 1.5633 29.5554
# 2 22.1526 58.1062 15.3492 -2.2507 -5.3647 9.2045
# 3 36.4911 15.3492 80.9172 -0.9827 -6.7247 10.3075
# 4 3.3801 -2.2507 -0.9827 19.2386 3.7684 -3.0799
# 5 1.5633 -5.3647 -6.7247 3.7684 36.6172 2.0932
# 6 29.5554 9.2045 10.3075 -3.0799 2.0932 32.8286
#
#
#
# Elastic Compliance Matrix: (Units=1/GPa)
#
#
# Indices 1 2 3 4 5 6 
#
# 1 0.015691 -0.002992 -0.005096 -0.005146 -0.000822 -0.012118
# 2 -0.002992 0.019491 -0.001833 0.001857 0.002581 -0.002187
# 3 -0.005096 -0.001833 0.015202 0.000984 0.002625 0.000253
# 4 -0.005146 0.001857 0.000984 0.055751 -0.005602 0.009391
# 5 -0.000822 0.002581 0.002625 -0.005602 0.028963 -0.003180
# 6 -0.012118 -0.002187 0.000253 0.009391 -0.003180 0.042989
#
#
# Mechanical properties :
#
#
# Convention : Reuss Voigt Hill
#
# Bulk Modulus (GPa) = 32.73975 43.42559 38.08267
# Shear Modulus (GPa) = 24.02596 28.99363 26.50980
#
# Velocity S-wave (km/s) = 3.40650 3.74214 3.57826
# Velocity P-wave (km/s) = 5.59332 6.29647 5.95528
#
# Compressibility (1/GPa) = 0.03054391
#
# Stress axis : x y z
#
# Youngs Moduli (GPa) = 63.73047 51.30565 65.78159
#
# Poissons Ratio (x) = 0.15348 0.33521
# Poissons Ratio (y) = 0.19065 0.12055
# Poissons Ratio (z) = 0.32476 0.09402
#
# Static dielectric constant tensor:
#      x y z
#    x 4.349950 0.290670 -0.111220 
#    y 0.290670 3.597660 -0.096210 
#    z -0.111220 -0.096210 3.791230 
# 
# 
# High freq. dielectric constant tensor:
#      x y z
#    x 1.815470 0.015680 -0.008660 
#    y 0.015680 1.789160 -0.010360 
#    z -0.008660 -0.010360 1.803700 
# 
# From -- ./inp_files/207546.got.cif
#   From: 2010.06.25/outbox.cif.g09.slc.cpg/sg2_104_cif.got.tgz:207546.got - 2010.06.27 13:26:56.
