data_PCOD8043356
_publ_section_title
;
Structure prediction by ZEFSAII (Michael W. Deem and Ramdas Pophale) SiO2 
 PCOD8043356
Probable space group: P -1
;
_chemical_formula_sum "Si O2"
_cell_formula_units_Z 14
_cell_length_a 8.516154
_cell_length_b 11.292192
_cell_length_c 7.486965
_cell_angle_alpha 113.435503
_cell_angle_beta 77.468571
_cell_angle_gamma 76.489313
_cell_volume 602.319741
_symmetry_space_group_name_H-M "P -1"
_symmetry_group_IT_number 2
_symmetry_cell_setting 'triclinic'
loop_
_space_group_symop_operation_xyz
x,y,z
-x,-y,-z
loop_
_atom_site_type_symbol
_atom_site_label
_atom_site_fract_x
_atom_site_fract_y
_atom_site_fract_z
Si Si1 0.044331 0.859340 0.010690
Si Si2 0.176691 0.309141 0.968306
Si Si3 0.372604 0.623153 0.822018
Si Si4 0.652737 0.634892 0.515854
Si Si5 0.797606 0.221802 0.720330
Si Si6 0.505004 0.150375 0.596662
Si Si7 0.008296 0.600152 0.308407
O O1 0.221981 0.744235 0.824656
O O2 0.889073 0.802632 0.986527
O O3 0.071868 0.882723 0.231329
O O4 0.000000 0.000000 0.000000
O O5 0.141483 0.442625 0.183022
O O6 0.379103 0.237486 0.836464
O O7 0.068781 0.356728 0.842926
O O8 0.559773 0.621901 0.714734
O O9 0.354883 0.477453 0.695411
O O10 0.343093 0.651326 0.057820
O O11 0.553802 0.783903 0.543373
O O12 0.851892 0.615398 0.494222
O O13 0.699395 0.141412 0.583132
O O14 0.893872 0.293709 0.603991
O O15 0.500000 0.000000 0.500000
#
# Coordination Sequence:
#
# PCOD8043356 Si02
#       7
#     2   2   2   2   2   2   2
#     4   9  18  35  61  86 118 158 193 233 291 367
#     4   9  17  32  57  84 113 154 196 234 288 352
#     4   9  19  35  64  89 118 156 199 232 300 346
#     4  10  19  36  61  90 122 154 190 252 289 346
#     4   9  20  38  61  87 114 159 205 234 296 362
#     4  11  24  37  58  88 120 156 200 250 299 344
#     4   9  15  34  61  85 110 151 200 240 286 344
#
# _framework density 23.243469000000001
#
# number of rings (size 3 to 8) (size 9 to 14) (size 15 to 20)
#    0.857    1.714    1.429    1.714    2.000    2.286 
#    0.000    9.286    3.143    2.571    0.000    0.000 
#    0.000    0.000    0.000    0.000    0.000    0.000 
#
# Total GULP energy -173522.785836 kJ/mol
# GULP energy per Si atom -12394.484703 kJ/mol
# Density = 2.319057 g / cm^3
# Si number density = 23.243469 Si / 1000 Ang^3
#
#
#
# Elastic Constant Matrix: (Units=GPa)
#
#
# Indices 1 2 3 4 5 6 
#
# 1 131.8349 44.9614 23.0982 0.2690 -20.9919 40.5666
# 2 44.9614 118.2515 8.2190 19.0528 -10.0282 26.2902
# 3 23.0982 8.2190 30.1970 -9.1421 -17.6105 10.0013
# 4 0.2690 19.0528 -9.1421 19.7108 10.0600 -8.9951
# 5 -20.9919 -10.0282 -17.6105 10.0600 31.8161 -6.7097
# 6 40.5666 26.2902 10.0013 -8.9951 -6.7097 41.2816
#
#
#
# Elastic Compliance Matrix: (Units=1/GPa)
#
#
# Indices 1 2 3 4 5 6 
#
# 1 0.014354 0.001966 -0.006283 -0.016690 0.008496 -0.016091
# 2 0.001966 0.018611 -0.003881 -0.034322 0.011992 -0.018373
# 3 -0.006283 -0.003881 0.055731 0.021097 0.019419 0.002897
# 4 -0.016690 -0.034322 0.021097 0.141912 -0.042986 0.057083
# 5 0.008496 0.011992 0.019419 -0.042986 0.060905 -0.020158
# 6 -0.016091 -0.018373 0.002897 0.057083 -0.020158 0.060197
#
#
# Mechanical properties :
#
#
# Convention : Reuss Voigt Hill
#
# Bulk Modulus (GPa) = 13.83154 48.09338 30.96246
# Shear Modulus (GPa) = 12.74844 32.16202 22.45523
#
# Velocity S-wave (km/s) = 2.34449 3.72385 3.11157
# Velocity P-wave (km/s) = 3.64589 6.26302 5.12435
#
# Compressibility (1/GPa) = 0.07229854
#
# Stress axis : x y z
#
# Youngs Moduli (GPa) = 69.66847 53.73298 17.94339
#
# Poissons Ratio (x) = -0.10565 0.11274
# Poissons Ratio (y) = -0.13698 0.06964
# Poissons Ratio (z) = 0.43775 0.20855
#
# Static dielectric constant tensor:
#      x y z
#    x 4.172240 0.229680 -0.492990 
#    y 0.229680 3.943580 0.017130 
#    z -0.492990 0.017130 3.828240 
# 
# 
# High freq. dielectric constant tensor:
#      x y z
#    x 1.915980 0.017510 -0.026340 
#    y 0.017510 1.914210 -0.001050 
#    z -0.026340 -0.001050 1.885050 
# 
# From -- ./inp_files/172081.got.cif
#   From: 2010.06.25/outbox.cif.g09.slc.cpg/sg2_87_cif.got.tgz:172081.got - 2010.06.27 13:26:56.
