data_PCOD8043578
_publ_section_title
;
Structure prediction by ZEFSAII (Michael W. Deem and Ramdas Pophale) SiO2 
 PCOD8043578
Probable space group: P -1
;
_chemical_formula_sum "Si O2"
_cell_formula_units_Z 16
_cell_length_a 12.901959
_cell_length_b 16.801553
_cell_length_c 7.909149
_cell_angle_alpha 80.181082
_cell_angle_beta 115.830614
_cell_angle_gamma 44.963798
_cell_volume 717.822102
_symmetry_space_group_name_H-M "P -1"
_symmetry_group_IT_number 2
_symmetry_cell_setting 'triclinic'
loop_
_space_group_symop_operation_xyz
x,y,z
-x,-y,-z
loop_
_atom_site_type_symbol
_atom_site_label
_atom_site_fract_x
_atom_site_fract_y
_atom_site_fract_z
Si Si1 0.943221 0.300464 0.617544
Si Si2 0.824886 0.682754 0.334518
Si Si3 0.091019 0.062125 0.306474
Si Si4 0.720031 0.036562 0.172965
Si Si5 0.191333 0.154300 0.166912
Si Si6 0.544494 0.398440 0.693519
Si Si7 0.607748 0.187492 0.687119
Si Si8 0.686661 0.783491 0.562101
O O1 0.649588 0.482332 0.330187
O O2 0.066244 0.312047 0.697208
O O3 0.073695 0.159747 0.632172
O O4 0.978410 0.254442 0.856750
O O5 0.843347 0.697128 0.537162
O O6 0.000000 0.500000 0.500000
O O7 0.547006 0.835473 0.029699
O O8 0.193570 0.968152 0.595932
O O9 0.189994 0.092975 0.345797
O O10 0.800084 0.241152 0.029124
O O11 0.187227 0.945364 0.264882
O O12 0.714486 0.095684 0.980427
O O13 0.160059 0.267649 0.160636
O O14 0.440592 0.989195 0.296495
O O15 0.500000 0.500000 0.500000
O O16 0.513622 0.336784 0.579731
O O17 0.382740 0.267873 0.441346
#
# Coordination Sequence:
#
# PCOD8043578 Si02
#       8
#     2   2   2   2   2   2   2   2
#     4  12  22  39  67  96 135 182 217 276 335 395
#     4  11  23  40  59  96 141 173 215 279 338 401
#     4  11  23  43  71  99 133 183 229 272 328 405
#     4  11  23  43  71 100 133 177 224 278 343 397
#     4  10  19  36  65 100 129 170 221 263 328 404
#     4  12  25  46  68  95 138 183 228 279 336 392
#     4  10  22  45  68  98 134 173 225 283 337 396
#     4   9  19  37  64  94 133 164 211 274 330 397
#
# _framework density 22.289645
#
# number of rings (size 3 to 8) (size 9 to 14) (size 15 to 20)
#    0.000    1.250    5.000    3.000    5.250    1.000 
#    2.250    2.500    0.000    0.000    0.000    0.000 
#    0.000    0.000    0.000    0.000    0.000    0.000 
#
# Total GULP energy -198303.672929 kJ/mol
# GULP energy per Si atom -12393.979558 kJ/mol
# Density = 2.223891 g / cm^3
# Si number density = 22.289645 Si / 1000 Ang^3
#
#
#
# Elastic Constant Matrix: (Units=GPa)
#
#
# Indices 1 2 3 4 5 6 
#
# 1 79.2084 60.7236 36.0169 -7.2007 4.0396 6.9526
# 2 60.7236 145.8544 48.3264 -8.0860 5.7751 -1.9385
# 3 36.0169 48.3264 55.7904 -0.7722 12.2747 -16.2735
# 4 -7.2007 -8.0860 -0.7722 40.7347 -9.1810 2.9805
# 5 4.0396 5.7751 12.2747 -9.1810 28.9621 -6.8570
# 6 6.9526 -1.9385 -16.2735 2.9805 -6.8570 44.3368
#
#
#
# Elastic Compliance Matrix: (Units=1/GPa)
#
#
# Indices 1 2 3 4 5 6 
#
# 1 0.024267 -0.005384 -0.014243 0.004276 0.002925 -0.009104
# 2 -0.005384 0.011477 -0.007157 0.001669 0.001759 -0.001121
# 3 -0.014243 -0.007157 0.040400 -0.007071 -0.012323 0.015318
# 4 0.004276 0.001669 -0.007071 0.028041 0.010125 -0.003512
# 5 0.002925 0.001759 -0.012323 0.010125 0.042433 0.000977
# 6 -0.009104 -0.001121 0.015318 -0.003512 0.000977 0.029943
#
#
# Mechanical properties :
#
#
# Convention : Reuss Voigt Hill
#
# Bulk Modulus (GPa) = 44.29162 63.44299 53.86731
# Shear Modulus (GPa) = 21.03910 31.85916 26.44913
#
# Velocity S-wave (km/s) = 3.07562 3.78474 3.44846
# Velocity P-wave (km/s) = 5.70322 6.90100 6.33050
#
# Compressibility (1/GPa) = 0.02257763
#
# Stress axis : x y z
#
# Youngs Moduli (GPa) = 41.20775 87.13206 24.75266
#
# Poissons Ratio (x) = 0.46911 0.35254
# Poissons Ratio (y) = 0.22186 0.17714
# Poissons Ratio (z) = 0.58691 0.62357
#
# Static dielectric constant tensor:
#      x y z
#    x 4.089000 -0.055970 0.174090 
#    y -0.055970 4.194470 0.002520 
#    z 0.174090 0.002520 3.833870 
# 
# 
# High freq. dielectric constant tensor:
#      x y z
#    x 1.874460 -0.005670 0.013670 
#    y -0.005670 1.886780 -0.002210 
#    z 0.013670 -0.002210 1.854390 
# 
# From -- ./inp_files/317164.got.cif
#   From: 2010.06.25/outbox.cif.g09.slc.cpg/sg2_159_cif.got.tgz:317164.got - 2010.06.27 13:26:56.
