data_PCOD8043273
_publ_section_title
;
Structure prediction by ZEFSAII (Michael W. Deem and Ramdas Pophale) SiO2 
 PCOD8043273
Probable space group: P -1
;
_chemical_formula_sum "Si O2"
_cell_formula_units_Z 14
_cell_length_a 10.789902
_cell_length_b 17.047536
_cell_length_c 13.093209
_cell_angle_alpha 13.569985
_cell_angle_beta 99.353100
_cell_angle_gamma 97.189716
_cell_volume 551.939656
_symmetry_space_group_name_H-M "P -1"
_symmetry_group_IT_number 2
_symmetry_cell_setting 'triclinic'
loop_
_space_group_symop_operation_xyz
x,y,z
-x,-y,-z
loop_
_atom_site_type_symbol
_atom_site_label
_atom_site_fract_x
_atom_site_fract_y
_atom_site_fract_z
Si Si1 0.332847 0.239899 0.680066
Si Si2 0.604362 0.228636 0.408548
Si Si3 0.886293 0.887128 0.066243
Si Si4 0.426696 0.863417 0.977919
Si Si5 0.024269 0.225496 0.986434
Si Si6 0.196307 0.916508 0.748280
Si Si7 0.241460 0.262155 0.109294
O O1 0.252128 0.010043 0.030550
O O2 0.424093 0.004256 0.914500
O O3 0.420126 0.453238 0.494158
O O4 0.235311 0.507996 0.262109
O O5 0.548050 0.958457 0.814231
O O6 0.675623 0.024252 0.583628
O O7 0.500000 0.500000 0.000000
O O8 0.688834 0.426082 0.244531
O O9 0.915162 0.476897 0.595303
O O10 0.888579 0.989740 0.816292
O O11 0.000000 0.000000 0.000000
O O12 0.301808 0.052054 0.662963
O O13 0.945882 0.988320 0.344204
O O14 0.118390 0.412765 0.833879
O O15 0.193149 0.081881 0.428687
#
# Coordination Sequence:
#
# PCOD8043273 Si02
#       7
#     2   2   2   2   2   2   2
#     4   9  19  34  61  93 113 155 210 254 299 361
#     4  12  23  41  64  89 129 173 211 247 304 374
#     4  10  21  39  68  87 126 166 210 255 313 381
#     4  10  19  36  60  91 116 160 214 243 299 363
#     4  10  23  41  59 100 123 166 203 258 321 369
#     4   9  20  37  61  90 129 161 198 249 312 378
#     4  12  25  39  63  96 133 163 202 262 306 374
#
# _framework density 25.365089999999999
#
# number of rings (size 3 to 8) (size 9 to 14) (size 15 to 20)
#    0.857    0.857    1.429    3.429    4.000    0.000 
#    0.000    1.429    0.000    5.143    0.000    0.000 
#    0.000    0.000    0.000    0.000    0.000    0.000 
#
# Total GULP energy -173563.639944 kJ/mol
# GULP energy per Si atom -12397.402853 kJ/mol
# Density = 2.530736 g / cm^3
# Si number density = 25.365090 Si / 1000 Ang^3
#
#
#
# Elastic Constant Matrix: (Units=GPa)
#
#
# Indices 1 2 3 4 5 6 
#
# 1 106.2061 81.3618 40.8017 12.6847 -42.1534 -3.7249
# 2 81.3618 201.8167 49.7389 -8.6471 -30.1765 -16.2614
# 3 40.8017 49.7389 80.3140 1.1910 -13.5455 -15.3746
# 4 12.6847 -8.6471 1.1910 32.3355 0.4522 -10.3623
# 5 -42.1534 -30.1765 -13.5455 0.4522 53.5853 7.4172
# 6 -3.7249 -16.2614 -15.3746 -10.3623 7.4172 53.2127
#
#
#
# Elastic Compliance Matrix: (Units=1/GPa)
#
#
# Indices 1 2 3 4 5 6 
#
# 1 0.025050 -0.007372 -0.006827 -0.014096 0.014959 -0.007302
# 2 -0.007372 0.008500 -0.001313 0.006257 -0.001837 0.003177
# 3 -0.006827 -0.001313 0.017240 0.003362 -0.002486 0.005103
# 4 -0.014096 0.006257 0.003362 0.041722 -0.008621 0.011223
# 5 0.014959 -0.001837 -0.002486 -0.008621 0.029676 -0.006048
# 6 -0.007302 0.003177 0.005103 0.011223 -0.006048 0.023755
#
#
# Mechanical properties :
#
#
# Convention : Reuss Voigt Hill
#
# Bulk Modulus (GPa) = 50.59053 81.34907 65.96980
# Shear Modulus (GPa) = 27.23948 42.25567 34.74758
#
# Velocity S-wave (km/s) = 3.28059 4.08597 3.70523
# Velocity P-wave (km/s) = 5.85986 7.37571 6.66105
#
# Compressibility (1/GPa) = 0.01976654
#
# Stress axis : x y z
#
# Youngs Moduli (GPa) = 39.91941 117.64519 58.00360
#
# Poissons Ratio (x) = 0.86731 0.39596
# Poissons Ratio (y) = 0.29429 0.07618
# Poissons Ratio (z) = 0.27251 0.15452
#
# Static dielectric constant tensor:
#      x y z
#    x 4.792480 -0.012880 0.071020 
#    y -0.012880 4.581980 0.202090 
#    z 0.071020 0.202090 4.576350 
# 
# 
# High freq. dielectric constant tensor:
#      x y z
#    x 2.031630 0.003780 0.001220 
#    y 0.003780 2.023550 0.010260 
#    z 0.001220 0.010260 2.003380 
# 
# From -- ./inp_files/433620.got.cif
#   From: 2010.06.25/outbox.cif.g09.slc.cpg/sg2_217_cif.got.tgz:433620.got - 2010.06.27 13:26:56.
