data_PCOD8043085
_publ_section_title
;
Structure prediction by ZEFSAII (Michael W. Deem and Ramdas Pophale) SiO2 
 PCOD8043085
Probable space group: P -1
;
_chemical_formula_sum "Si O2"
_cell_formula_units_Z 16
_cell_length_a 22.539976
_cell_length_b 14.625425
_cell_length_c 17.939659
_cell_angle_alpha 30.632929
_cell_angle_beta 155.942524
_cell_angle_gamma 161.882361
_cell_volume 748.410156
_symmetry_space_group_name_H-M "P -1"
_symmetry_group_IT_number 2
_symmetry_cell_setting 'triclinic'
loop_
_space_group_symop_operation_xyz
x,y,z
-x,-y,-z
loop_
_atom_site_type_symbol
_atom_site_label
_atom_site_fract_x
_atom_site_fract_y
_atom_site_fract_z
Si Si1 0.807756 0.350112 0.675542
Si Si2 0.064200 0.784456 0.532337
Si Si3 0.855649 0.129667 0.208914
Si Si4 0.099303 0.923019 0.094032
Si Si5 0.799202 0.790331 0.507137
Si Si6 0.688640 0.335242 0.125204
Si Si7 0.595263 0.811023 0.604140
Si Si8 0.051410 0.252861 0.736264
O O1 0.867077 0.525131 0.547241
O O2 0.769710 0.106249 0.781300
O O3 0.566247 0.187652 0.549842
O O4 0.019447 0.568040 0.827779
O O5 0.263396 0.827784 0.717291
O O6 0.917141 0.683443 0.359610
O O7 0.208187 0.106189 0.496357
O O8 0.012126 0.190577 0.279695
O O9 0.891618 0.026071 0.389594
O O10 0.588541 0.903963 0.038003
O O11 0.848176 0.604863 0.061333
O O12 0.270196 0.154928 0.195646
O O13 0.051818 0.040916 0.902067
O O14 0.546273 0.470041 0.411876
O O15 0.737801 0.440577 0.192840
O O16 0.801044 0.095204 0.588229
#
# Coordination Sequence:
#
# PCOD8043085 Si02
#       8
#     2   2   2   2   2   2   2   2
#     4   9  20  37  59  81 106 142 183 223 262 319
#     4  10  22  36  54  83 112 140 178 225 273 315
#     4   9  17  33  57  80 105 140 185 224 259 310
#     4  10  20  34  58  83 106 142 185 222 260 320
#     4   9  18  33  54  81 109 140 177 223 269 316
#     4  10  20  37  57  79 108 145 184 220 264 322
#     4  10  19  36  58  79 109 145 181 217 267 323
#     4  11  22  36  55  82 113 142 175 224 276 317
#
# _framework density 21.378651000000001
#
# number of rings (size 3 to 8) (size 9 to 14) (size 15 to 20)
#    0.000    2.250    0.000    4.500    0.000    6.000 
#    0.000    3.750    0.000    3.000    0.000    0.000 
#    0.000    0.000    0.000    0.000    0.000    0.000 
#
# Total GULP energy -198311.670146 kJ/mol
# GULP energy per Si atom -12394.479384 kJ/mol
# Density = 2.132999 g / cm^3
# Si number density = 21.378651 Si / 1000 Ang^3
#
#
#
# Elastic Constant Matrix: (Units=GPa)
#
#
# Indices 1 2 3 4 5 6 
#
# 1 106.5243 43.1539 56.0529 -0.6016 -4.9468 -27.3566
# 2 43.1539 53.7454 34.7527 12.7234 1.7118 -18.1882
# 3 56.0529 34.7527 93.3918 13.2792 0.8763 -3.8879
# 4 -0.6016 12.7234 13.2792 29.3055 -0.1240 6.0486
# 5 -4.9468 1.7118 0.8763 -0.1240 13.2782 3.3208
# 6 -27.3566 -18.1882 -3.8879 6.0486 3.3208 29.5783
#
#
#
# Elastic Compliance Matrix: (Units=1/GPa)
#
#
# Indices 1 2 3 4 5 6 
#
# 1 0.021480 -0.008712 -0.010196 0.006599 0.007104 0.011022
# 2 -0.008712 0.043435 -0.006845 -0.020878 -0.014503 0.023649
# 3 -0.010196 -0.006845 0.019544 -0.004026 -0.001730 -0.010053
# 4 0.006599 -0.020878 -0.004026 0.049003 0.010491 -0.018463
# 5 0.007104 -0.014503 -0.001730 0.010491 0.083567 -0.014103
# 6 0.011022 0.023649 -0.010053 -0.018463 -0.014103 0.062583
#
#
# Mechanical properties :
#
#
# Convention : Reuss Voigt Hill
#
# Bulk Modulus (GPa) = 30.34605 57.95338 44.14972
# Shear Modulus (GPa) = 14.61549 22.41250 18.51400
#
# Velocity S-wave (km/s) = 2.61750 3.24135 2.94599
# Velocity P-wave (km/s) = 4.83327 6.41680 5.68049
#
# Compressibility (1/GPa) = 0.03295321
#
# Stress axis : x y z
#
# Youngs Moduli (GPa) = 46.55543 23.02272 51.16545
#
# Poissons Ratio (x) = 0.20058 0.52168
# Poissons Ratio (y) = 0.40561 0.35022
# Poissons Ratio (z) = 0.47468 0.15759
#
# Static dielectric constant tensor:
#      x y z
#    x 4.127540 -0.498310 0.186330 
#    y -0.498310 3.901520 0.038250 
#    z 0.186330 0.038250 3.631160 
# 
# 
# High freq. dielectric constant tensor:
#      x y z
#    x 1.833570 -0.031890 0.018020 
#    y -0.031890 1.830730 0.012060 
#    z 0.018020 0.012060 1.824230 
# 
# From -- ./inp_files/579315.got.cif
#   From: 2010.06.25/outbox.cif.g09.slc.cpg/sg2_290_cif.got.tgz:579315.got - 2010.06.27 13:26:56.
