data_PCOD8043473
_publ_section_title
;
Structure prediction by ZEFSAII (Michael W. Deem and Ramdas Pophale) SiO2 
 PCOD8043473
Probable space group: P -1
;
_chemical_formula_sum "Si O2"
_cell_formula_units_Z 14
_cell_length_a 17.570040
_cell_length_b 8.989145
_cell_length_c 12.037849
_cell_angle_alpha 127.318638
_cell_angle_beta 149.364811
_cell_angle_gamma 48.096081
_cell_volume 718.556656
_symmetry_space_group_name_H-M "P -1"
_symmetry_group_IT_number 2
_symmetry_cell_setting 'triclinic'
loop_
_space_group_symop_operation_xyz
x,y,z
-x,-y,-z
loop_
_atom_site_type_symbol
_atom_site_label
_atom_site_fract_x
_atom_site_fract_y
_atom_site_fract_z
Si Si1 0.333904 0.170342 0.483736
Si Si2 0.319141 0.074439 0.174899
Si Si3 0.063632 0.436047 0.928038
Si Si4 0.211687 0.703055 0.871025
Si Si5 0.450943 0.527631 0.824643
Si Si6 0.995056 0.795729 0.852882
Si Si7 0.880601 0.229062 0.454779
O O1 0.270501 0.136827 0.268608
O O2 0.375037 0.368111 0.617736
O O3 0.188286 0.187302 0.391049
O O4 0.491040 0.983522 0.631992
O O5 0.235331 0.257464 0.069446
O O6 0.261498 0.892957 0.992765
O O7 0.085453 0.620845 0.974623
O O8 0.942604 0.359433 0.674216
O O9 0.000000 0.500000 0.000000
O O10 0.135706 0.669508 0.642935
O O11 0.078784 0.745271 0.816453
O O12 0.373935 0.517086 0.032759
O O13 0.303023 0.742531 0.720839
O O14 0.500000 0.500000 0.000000
O O15 0.000000 0.000000 0.000000
O O16 0.000000 0.000000 0.500000
#
# Coordination Sequence:
#
# PCOD8043473 Si02
#       7
#     2   2   2   2   2   2   2
#     4  10  19  36  63  85 118 162 206 240 307 365
#     4  10  19  37  62  87 116 160 207 252 291 368
#     4  12  22  39  63  91 122 160 209 253 302 368
#     4  10  21  38  62  89 127 158 203 253 309 360
#     4   9  19  37  58  88 115 162 206 244 294 376
#     4  12  23  39  61  93 128 163 200 261 310 358
#     4  11  21  37  65  95 118 159 209 256 300 363
#
# _framework density 19.483502999999999
#
# number of rings (size 3 to 8) (size 9 to 14) (size 15 to 20)
#    0.000    1.429    5.714    0.000    0.000    0.571 
#    0.000    2.143    0.000    1.714    0.000    0.000 
#    0.000    0.000    0.000    0.000    0.000    0.000 
#
# Total GULP energy -173445.946256 kJ/mol
# GULP energy per Si atom -12388.996161 kJ/mol
# Density = 1.943916 g / cm^3
# Si number density = 19.483503 Si / 1000 Ang^3
#
#
#
# Elastic Constant Matrix: (Units=GPa)
#
#
# Indices 1 2 3 4 5 6 
#
# 1 116.8360 37.6891 44.3727 -18.9797 8.7262 -20.5293
# 2 37.6891 118.7594 40.6122 -35.9468 4.8654 -8.1188
# 3 44.3727 40.6122 100.8355 -21.7122 -6.8867 -11.4000
# 4 -18.9797 -35.9468 -21.7122 43.5991 -15.1762 3.6857
# 5 8.7262 4.8654 -6.8867 -15.1762 34.7164 -3.8807
# 6 -20.5293 -8.1188 -11.4000 3.6857 -3.8807 31.6480
#
#
#
# Elastic Compliance Matrix: (Units=1/GPa)
#
#
# Indices 1 2 3 4 5 6 
#
# 1 0.011877 -0.001847 -0.004020 0.000202 -0.002831 0.005412
# 2 -0.001847 0.012417 -0.001973 0.009257 0.002435 0.000497
# 3 -0.004020 -0.001973 0.014550 0.006154 0.007119 0.002283
# 4 0.000202 0.009257 0.006154 0.039601 0.017435 0.002249
# 5 -0.002831 0.002435 0.007119 0.017435 0.038663 0.004063
# 6 0.005412 0.000497 0.002283 0.002249 0.004063 0.036294
#
#
# Mechanical properties :
#
#
# Convention : Reuss Voigt Hill
#
# Bulk Modulus (GPa) = 43.16970 64.64211 53.90591
# Shear Modulus (GPa) = 28.27979 36.24315 32.26147
#
# Velocity S-wave (km/s) = 3.81395 4.31768 4.07361
# Velocity P-wave (km/s) = 6.44982 7.62275 7.06068
#
# Compressibility (1/GPa) = 0.02316439
#
# Stress axis : x y z
#
# Youngs Moduli (GPa) = 84.19690 80.53223 68.72687
#
# Poissons Ratio (x) = 0.14876 0.27631
# Poissons Ratio (y) = 0.15553 0.13557
# Poissons Ratio (z) = 0.33851 0.15885
#
# Static dielectric constant tensor:
#      x y z
#    x 3.517600 -0.523180 0.081490 
#    y -0.523180 3.987850 -0.346950 
#    z 0.081490 -0.346950 3.872460 
# 
# 
# High freq. dielectric constant tensor:
#      x y z
#    x 1.728410 -0.048340 -0.009460 
#    y -0.048340 1.761500 -0.011910 
#    z -0.009460 -0.011910 1.776280 
# 
# From -- ./inp_files/166356.got.cif
#   From: 2010.06.25/outbox.cif.g09.slc.cpg/sg2_84_cif.got.tgz:166356.got - 2010.06.27 13:26:56.
