data_PCOD8043879
_publ_section_title
;
Structure prediction by ZEFSAII (Michael W. Deem and Ramdas Pophale) SiO2 
 PCOD8043879
Probable space group: P -1
;
_chemical_formula_sum "Si O2"
_cell_formula_units_Z 16
_cell_length_a 25.710248
_cell_length_b 8.922626
_cell_length_c 25.105714
_cell_angle_alpha 26.205063
_cell_angle_beta 161.584857
_cell_angle_gamma 143.523299
_cell_volume 756.068092
_symmetry_space_group_name_H-M "P -1"
_symmetry_group_IT_number 2
_symmetry_cell_setting 'triclinic'
loop_
_space_group_symop_operation_xyz
x,y,z
-x,-y,-z
loop_
_atom_site_type_symbol
_atom_site_label
_atom_site_fract_x
_atom_site_fract_y
_atom_site_fract_z
Si Si1 0.706042 0.456606 0.654897
Si Si2 0.052466 0.818336 0.473637
Si Si3 0.423811 0.533885 0.641536
Si Si4 0.542695 0.934629 0.713297
Si Si5 0.925987 0.880615 0.913605
Si Si6 0.289105 0.301808 0.939469
Si Si7 0.756558 0.344826 0.963712
Si Si8 0.371039 0.008553 0.686086
O O1 0.620774 0.142077 0.679457
O O2 0.630935 0.771559 0.524808
O O3 0.665242 0.631433 0.500697
O O4 0.914617 0.274281 0.923798
O O5 0.133817 0.682327 0.654748
O O6 0.000000 0.500000 0.500000
O O7 0.202577 0.886989 0.561396
O O8 0.879340 0.174189 0.189650
O O9 0.419627 0.130070 0.753496
O O10 0.490280 0.609788 0.739853
O O11 0.224141 0.785417 0.363240
O O12 0.565034 0.590206 0.718973
O O13 0.685566 0.751576 0.955872
O O14 0.842109 0.578346 0.938830
O O15 0.000000 0.000000 0.000000
O O16 0.247241 0.964518 0.982099
O O17 0.465410 0.314667 0.076548
#
# Coordination Sequence:
#
# PCOD8043879 Si02
#       8
#     2   2   2   2   2   2   2   2
#     4  10  21  37  58  83 126 156 192 243 282 361
#     4  10  19  38  64  89 111 149 206 257 287 326
#     4  11  23  35  59  86 123 160 188 242 297 356
#     4  10  23  39  54  87 127 161 189 225 307 355
#     4  12  21  34  58  90 118 149 194 246 295 342
#     4   9  21  38  61  84 118 158 194 246 286 348
#     4  10  21  36  61  87 113 150 207 243 289 337
#     4  10  19  37  60  91 113 149 204 249 286 341
#
# _framework density 21.162113999999999
#
# number of rings (size 3 to 8) (size 9 to 14) (size 15 to 20)
#    0.000    1.750    2.500    1.500    7.000    0.500 
#    0.000    1.250    0.000    0.000    0.000    0.000 
#    0.000    0.000    0.000    0.000    0.000    0.000 
#
# Total GULP energy -198234.892489 kJ/mol
# GULP energy per Si atom -12389.680781 kJ/mol
# Density = 2.111395 g / cm^3
# Si number density = 21.162114 Si / 1000 Ang^3
#
#
#
# Elastic Constant Matrix: (Units=GPa)
#
#
# Indices 1 2 3 4 5 6 
#
# 1 59.3996 32.0355 15.7925 13.7293 -2.4370 -4.4021
# 2 32.0355 87.6303 -0.7005 25.6187 4.2522 0.1222
# 3 15.7925 -0.7005 86.9782 19.5206 2.5300 -2.3255
# 4 13.7293 25.6187 19.5206 27.0125 3.6073 2.5199
# 5 -2.4370 4.2522 2.5300 3.6073 37.3833 10.6451
# 6 -4.4021 0.1222 -2.3255 2.5199 10.6451 28.3740
#
#
#
# Elastic Compliance Matrix: (Units=1/GPa)
#
#
# Indices 1 2 3 4 5 6 
#
# 1 0.022834 -0.007934 -0.003778 -0.001875 0.002071 0.002657
# 2 -0.007934 0.020077 0.006020 -0.019265 -0.001793 0.001560
# 3 -0.003778 0.006020 0.015755 -0.015242 -0.001238 0.002497
# 4 -0.001875 -0.019265 -0.015242 0.068106 -0.001494 -0.006945
# 5 0.002071 -0.001793 -0.001238 -0.001494 0.030469 -0.011071
# 6 0.002657 0.001560 0.002497 -0.006945 -0.011071 0.040624
#
#
# Mechanical properties :
#
#
# Convention : Reuss Voigt Hill
#
# Bulk Modulus (GPa) = 21.14983 36.47368 28.81176
# Shear Modulus (GPa) = 22.22125 31.01265 26.61695
#
# Velocity S-wave (km/s) = 3.24396 3.83231 3.55034
# Velocity P-wave (km/s) = 4.90377 6.07083 5.51824
#
# Compressibility (1/GPa) = 0.04728171
#
# Stress axis : x y z
#
# Youngs Moduli (GPa) = 43.79493 49.80823 63.47132
#
# Poissons Ratio (x) = 0.39516 0.23980
# Poissons Ratio (y) = 0.34745 -0.38208
# Poissons Ratio (z) = 0.16546 -0.29983
#
# Static dielectric constant tensor:
#      x y z
#    x 3.614430 0.026530 0.107820 
#    y 0.026530 3.881070 0.128950 
#    z 0.107820 0.128950 4.635190 
# 
# 
# High freq. dielectric constant tensor:
#      x y z
#    x 1.788250 0.004800 0.005510 
#    y 0.004800 1.831610 0.014390 
#    z 0.005510 0.014390 1.843370 
# 
# From -- ./inp_files/467309.got.cif
#   From: 2010.06.25/outbox.cif.g09.slc.cpg/sg2_234_cif.got.tgz:467309.got - 2010.06.27 13:26:56.
