data_PCOD8043237
_publ_section_title
;
Structure prediction by ZEFSAII (Michael W. Deem and Ramdas Pophale) SiO2 
 PCOD8043237
Probable space group: P -1
;
_chemical_formula_sum "Si O2"
_cell_formula_units_Z 16
_cell_length_a 14.685825
_cell_length_b 9.462913
_cell_length_c 12.362314
_cell_angle_alpha 125.968213
_cell_angle_beta 41.553877
_cell_angle_gamma 102.015574
_cell_volume 832.289416
_symmetry_space_group_name_H-M "P -1"
_symmetry_group_IT_number 2
_symmetry_cell_setting 'triclinic'
loop_
_space_group_symop_operation_xyz
x,y,z
-x,-y,-z
loop_
_atom_site_type_symbol
_atom_site_label
_atom_site_fract_x
_atom_site_fract_y
_atom_site_fract_z
Si Si1 0.871447 0.107438 0.286081
Si Si2 0.981728 0.714633 0.905799
Si Si3 0.582979 0.292269 0.472633
Si Si4 0.739297 0.603095 0.141868
Si Si5 0.470676 0.740722 0.732074
Si Si6 0.787782 0.176772 0.850083
Si Si7 0.210128 0.323553 0.626525
Si Si8 0.123398 0.978828 0.523209
O O1 0.977995 0.215765 0.213143
O O2 0.728190 0.181627 0.367030
O O3 0.818166 0.145586 0.474802
O O4 0.966394 0.876837 0.081543
O O5 0.121359 0.514152 0.721096
O O6 0.824662 0.690921 0.025004
O O7 0.441886 0.265426 0.640957
O O8 0.538785 0.517058 0.602589
O O9 0.614212 0.208524 0.285566
O O10 0.801338 0.605798 0.208225
O O11 0.777542 0.386731 0.976541
O O12 0.615540 0.790382 0.621389
O O13 0.344775 0.859650 0.987060
O O14 0.949726 0.015612 0.673922
O O15 0.770155 0.149917 0.725816
O O16 0.130245 0.183080 0.618675
#
# Coordination Sequence:
#
# PCOD8043237 Si02
#       8
#     2   2   2   2   2   2   2   2
#     4  11  23  35  55  91 121 142 186 245 292 322
#     4  11  21  33  59  87 112 147 187 241 281 331
#     4   9  19  34  57  86 121 142 186 240 288 328
#     4  10  19  36  60  86 110 151 193 231 278 338
#     4   9  19  35  58  85 112 154 187 231 282 341
#     4  10  22  38  61  81 117 152 193 227 285 342
#     4  11  19  37  63  86 111 147 200 233 273 343
#     4  11  23  39  58  86 116 152 190 237 278 341
#
# _framework density 19.224080000000001
#
# number of rings (size 3 to 8) (size 9 to 14) (size 15 to 20)
#    0.000    1.750    3.750    1.875    3.500    1.000 
#    0.000    3.125    0.000    0.000    0.000    0.000 
#    0.000    0.000    0.000    0.000    0.000    0.000 
#
# Total GULP energy -198354.914306 kJ/mol
# GULP energy per Si atom -12397.182144 kJ/mol
# Density = 1.918033 g / cm^3
# Si number density = 19.224080 Si / 1000 Ang^3
#
#
#
# Elastic Constant Matrix: (Units=GPa)
#
#
# Indices 1 2 3 4 5 6 
#
# 1 75.9186 36.9225 48.9677 -16.3911 7.8436 -11.5156
# 2 36.9225 76.4786 36.3844 -15.9491 -2.8590 -3.6601
# 3 48.9677 36.3844 113.5204 -22.2282 8.3576 -13.0775
# 4 -16.3911 -15.9491 -22.2282 25.3736 6.9125 5.4634
# 5 7.8436 -2.8590 8.3576 6.9125 31.5664 -3.4732
# 6 -11.5156 -3.6601 -13.0775 5.4634 -3.4732 22.6186
#
#
#
# Elastic Compliance Matrix: (Units=1/GPa)
#
#
# Indices 1 2 3 4 5 6 
#
# 1 0.022735 -0.007158 -0.005355 0.005949 -0.005630 0.005019
# 2 -0.007158 0.018684 -0.002490 0.004783 0.002776 -0.002790
# 3 -0.005355 -0.002490 0.014036 0.007846 -0.004058 0.002468
# 4 0.005949 0.004783 0.007846 0.059682 -0.017150 -0.008710
# 5 -0.005630 0.002776 -0.004058 -0.017150 0.038746 0.005329
# 6 0.005019 -0.002790 0.002468 -0.008710 0.005329 0.050664
#
#
# Mechanical properties :
#
#
# Convention : Reuss Voigt Hill
#
# Bulk Modulus (GPa) = 39.29402 56.71854 48.00628
# Shear Modulus (GPa) = 20.57322 25.48791 23.03056
#
# Velocity S-wave (km/s) = 3.27491 3.64515 3.46498
# Velocity P-wave (km/s) = 5.89783 6.87634 6.40580
#
# Compressibility (1/GPa) = 0.02544916
#
# Stress axis : x y z
#
# Youngs Moduli (GPa) = 43.98597 53.52311 71.24413
#
# Poissons Ratio (x) = 0.38311 0.38151
# Poissons Ratio (y) = 0.31484 0.17738
# Poissons Ratio (z) = 0.23554 0.13326
#
# Static dielectric constant tensor:
#      x y z
#    x 3.385430 0.141360 -0.163980 
#    y 0.141360 3.550060 -0.416460 
#    z -0.163980 -0.416460 3.738980 
# 
# 
# High freq. dielectric constant tensor:
#      x y z
#    x 1.725640 0.005250 -0.017250 
#    y 0.005250 1.741750 -0.023780 
#    z -0.017250 -0.023780 1.748040 
# 
# From -- ./inp_files/258927.got.cif
#   From: 2010.06.25/outbox.cif.g09.slc.cpg/sg2_130_cif.got.tgz:258927.got - 2010.06.27 13:26:56.
