data_PCOD8043705
_publ_section_title
;
Structure prediction by ZEFSAII (Michael W. Deem and Ramdas Pophale) SiO2 
 PCOD8043705
Probable space group: P -1
;
_chemical_formula_sum "Si O2"
_cell_formula_units_Z 16
_cell_length_a 12.156791
_cell_length_b 9.274470
_cell_length_c 8.299324
_cell_angle_alpha 116.577440
_cell_angle_beta 108.291631
_cell_angle_gamma 67.509684
_cell_volume 761.586266
_symmetry_space_group_name_H-M "P -1"
_symmetry_group_IT_number 2
_symmetry_cell_setting 'triclinic'
loop_
_space_group_symop_operation_xyz
x,y,z
-x,-y,-z
loop_
_atom_site_type_symbol
_atom_site_label
_atom_site_fract_x
_atom_site_fract_y
_atom_site_fract_z
Si Si1 0.507641 0.628198 0.817883
Si Si2 0.281763 0.683677 0.535784
Si Si3 0.650969 0.410105 0.017218
Si Si4 0.862553 0.882883 0.828649
Si Si5 0.690730 0.675083 0.708252
Si Si6 0.323526 0.945459 0.439251
Si Si7 0.873711 0.199709 0.164564
Si Si8 0.422420 0.239666 0.649960
O O1 0.418002 0.602648 0.625065
O O2 0.424738 0.700579 0.973930
O O3 0.591446 0.737531 0.839099
O O4 0.599511 0.446805 0.829407
O O5 0.253794 0.527384 0.353759
O O6 0.275820 0.841501 0.499599
O O7 0.183972 0.744828 0.661429
O O8 0.792002 0.313496 0.041687
O O9 0.626194 0.591766 0.184643
O O10 0.798627 0.757529 0.822839
O O11 0.993500 0.774639 0.768675
O O12 0.787910 0.982473 0.695295
O O13 0.881362 0.006225 0.039485
O O14 0.624607 0.729636 0.537906
O O15 0.431646 0.829362 0.321897
O O16 0.366870 0.093863 0.620688
#
# Coordination Sequence:
#
# PCOD8043705 Si02
#       8
#     2   2   2   2   2   2   2   2
#     4  10  20  33  58  92 120 146 187 239 301 344
#     4  11  21  36  63  90 118 150 193 246 287 351
#     4  10  21  36  61  88 118 159 192 241 290 348
#     4  10  25  42  61  81 118 164 195 239 291 347
#     4  11  20  38  60  91 116 150 197 240 292 349
#     4  10  22  35  61  89 124 153 185 242 302 346
#     4  10  23  44  60  80 119 159 204 236 289 342
#     4  10  19  37  56  94 123 147 191 242 297 350
#
# _framework density 21.008780999999999
#
# number of rings (size 3 to 8) (size 9 to 14) (size 15 to 20)
#    0.000    1.750    3.750    1.125    7.000    2.000 
#    0.000    3.750    0.000    0.000    0.000    0.000 
#    0.000    0.000    0.000    0.000    0.000    0.000 
#
# Total GULP energy -198234.431483 kJ/mol
# GULP energy per Si atom -12389.651968 kJ/mol
# Density = 2.096096 g / cm^3
# Si number density = 21.008781 Si / 1000 Ang^3
#
#
#
# Elastic Constant Matrix: (Units=GPa)
#
#
# Indices 1 2 3 4 5 6 
#
# 1 157.9309 63.0900 34.6675 9.2532 11.5275 1.3816
# 2 63.0900 94.6772 20.1782 -0.1440 -0.7054 11.2843
# 3 34.6675 20.1782 40.0010 8.3392 -6.1003 4.6110
# 4 9.2532 -0.1440 8.3392 24.1497 -7.5980 -1.1552
# 5 11.5275 -0.7054 -6.1003 -7.5980 19.8231 -1.4100
# 6 1.3816 11.2843 4.6110 -1.1552 -1.4100 42.9176
#
#
#
# Elastic Compliance Matrix: (Units=1/GPa)
#
#
# Indices 1 2 3 4 5 6 
#
# 1 0.011739 -0.006466 -0.007715 -0.005373 -0.011374 0.001633
# 2 -0.006466 0.015785 -0.002168 0.004811 0.005256 -0.003407
# 3 -0.007715 -0.002168 0.036278 -0.005550 0.013248 -0.002794
# 4 -0.005373 0.004811 -0.005550 0.052337 0.021764 0.001628
# 5 -0.011374 0.005256 0.013248 0.021764 0.069697 0.000436
# 6 0.001633 -0.003407 -0.002794 0.001628 0.000436 0.024502
#
#
# Mechanical properties :
#
#
# Convention : Reuss Voigt Hill
#
# Bulk Modulus (GPa) = 32.14804 58.72005 45.43405
# Shear Modulus (GPa) = 19.73129 29.02298 24.37714
#
# Velocity S-wave (km/s) = 3.06795 3.72084 3.41006
# Velocity P-wave (km/s) = 5.28064 6.81693 6.09736
#
# Compressibility (1/GPa) = 0.03110609
#
# Stress axis : x y z
#
# Youngs Moduli (GPa) = 85.18591 63.34975 27.56456
#
# Poissons Ratio (x) = 0.40961 0.21266
# Poissons Ratio (y) = 0.55079 0.05975
# Poissons Ratio (z) = 0.65720 0.13732
#
# Static dielectric constant tensor:
#      x y z
#    x 3.949990 0.113770 0.067470 
#    y 0.113770 4.062300 -0.076300 
#    z 0.067470 -0.076300 3.777420 
# 
# 
# High freq. dielectric constant tensor:
#      x y z
#    x 1.814230 0.006320 0.000630 
#    y 0.006320 1.822320 -0.001950 
#    z 0.000630 -0.001950 1.813620 
# 
# From -- ./inp_files/245091.got.cif
#   From: 2010.06.25/outbox.cif.g09.slc.cpg/sg2_123_cif.got.tgz:245091.got - 2010.06.27 13:26:56.
