data_PCOD8043967
_publ_section_title
;
Structure prediction by ZEFSAII (Michael W. Deem and Ramdas Pophale) SiO2 
 PCOD8043967
Probable space group: P -1
;
_chemical_formula_sum "Si O2"
_cell_formula_units_Z 16
_cell_length_a 15.961812
_cell_length_b 8.564228
_cell_length_c 11.593361
_cell_angle_alpha 103.329056
_cell_angle_beta 56.814178
_cell_angle_gamma 57.637787
_cell_volume 752.825345
_symmetry_space_group_name_H-M "P -1"
_symmetry_group_IT_number 2
_symmetry_cell_setting 'triclinic'
loop_
_space_group_symop_operation_xyz
x,y,z
-x,-y,-z
loop_
_atom_site_type_symbol
_atom_site_label
_atom_site_fract_x
_atom_site_fract_y
_atom_site_fract_z
Si Si1 0.304183 0.297292 0.626766
Si Si2 0.749666 0.055235 0.949686
Si Si3 0.405595 0.248494 0.785044
Si Si4 0.964601 0.871892 0.960699
Si Si5 0.835683 0.855750 0.272651
Si Si6 0.103310 0.029898 0.414226
Si Si7 0.595100 0.325747 0.699173
Si Si8 0.117656 0.463276 0.180127
O O1 0.336233 0.369483 0.726832
O O2 0.279424 0.148611 0.670666
O O3 0.463179 0.074556 0.379984
O O4 0.143839 0.573049 0.721844
O O5 0.852981 0.993797 0.754802
O O6 0.787373 0.818729 0.894565
O O7 0.816181 0.067835 0.011863
O O8 0.544557 0.350157 0.149443
O O9 0.497496 0.283111 0.777335
O O10 0.256145 0.404989 0.013975
O O11 0.921558 0.807112 0.084928
O O12 0.000000 0.000000 0.000000
O O13 0.980092 0.603858 0.208955
O O14 0.719946 0.150342 0.463704
O O15 0.979368 0.331569 0.604158
O O16 0.285926 0.790400 0.300947
O O17 0.000000 0.000000 0.500000
#
# Coordination Sequence:
#
# PCOD8043967 Si02
#       8
#     2   2   2   2   2   2   2   2
#     4  10  19  37  61  95 134 177 212 254 318 396
#     4  12  25  42  66 102 131 168 220 276 320 380
#     4  10  20  37  67  94 129 176 215 256 326 383
#     4  12  24  35  65  99 138 166 219 264 318 393
#     4  10  21  41  64  92 136 181 210 255 327 387
#     4  11  26  48  73  88 125 178 222 272 330 388
#     4  10  24  43  67  93 129 170 219 271 324 388
#     4  11  22  42  69  97 132 173 220 266 321 388
#
# _framework density 21.253269
#
# number of rings (size 3 to 8) (size 9 to 14) (size 15 to 20)
#    0.000    1.250    2.500    3.375    3.500    1.500 
#    0.000    1.250    0.000    0.000    0.000    0.000 
#    0.000    0.000    0.000    0.000    0.000    0.000 
#
# Total GULP energy -198375.490220 kJ/mol
# GULP energy per Si atom -12398.468139 kJ/mol
# Density = 2.120490 g / cm^3
# Si number density = 21.253269 Si / 1000 Ang^3
#
#
#
# Elastic Constant Matrix: (Units=GPa)
#
#
# Indices 1 2 3 4 5 6 
#
# 1 109.3550 38.2656 6.7929 10.8185 -5.2473 6.6160
# 2 38.2656 84.3121 44.0809 25.0636 5.3199 -7.0078
# 3 6.7929 44.0809 106.4553 33.2346 -2.4651 -2.7765
# 4 10.8185 25.0636 33.2346 32.0125 -1.6643 0.9486
# 5 -5.2473 5.3199 -2.4651 -1.6643 32.0432 1.4660
# 6 6.6160 -7.0078 -2.7765 0.9486 1.4660 13.6102
#
#
#
# Elastic Compliance Matrix: (Units=1/GPa)
#
#
# Indices 1 2 3 4 5 6 
#
# 1 0.012643 -0.008125 0.002322 0.000195 0.004080 -0.010309
# 2 -0.008125 0.023437 -0.005600 -0.010636 -0.006953 0.016365
# 3 0.002322 -0.005600 0.015456 -0.012343 0.001867 -0.000200
# 4 0.000195 -0.010636 -0.012343 0.052892 0.004155 -0.012223
# 5 0.004080 -0.006953 0.001867 0.004155 0.033807 -0.009114
# 6 -0.010309 0.016365 -0.000200 -0.012223 -0.009114 0.088705
#
#
# Mechanical properties :
#
#
# Convention : Reuss Voigt Hill
#
# Bulk Modulus (GPa) = 34.80514 53.15572 43.98043
# Shear Modulus (GPa) = 19.28114 29.59872 24.43993
#
# Velocity S-wave (km/s) = 3.01526 3.73589 3.39475
# Velocity P-wave (km/s) = 5.34175 6.60864 6.00868
#
# Compressibility (1/GPa) = 0.02873139
#
# Stress axis : x y z
#
# Youngs Moduli (GPa) = 79.09267 42.66813 64.70117
#
# Poissons Ratio (x) = 0.34666 -0.15025
# Poissons Ratio (y) = 0.64260 0.36231
# Poissons Ratio (z) = -0.18367 0.23893
#
# Static dielectric constant tensor:
#      x y z
#    x 3.660460 -0.155500 0.022500 
#    y -0.155500 3.553850 0.268990 
#    z 0.022500 0.268990 4.207670 
# 
# 
# High freq. dielectric constant tensor:
#      x y z
#    x 1.840350 0.001620 -0.003870 
#    y 0.001620 1.805260 0.018370 
#    z -0.003870 0.018370 1.856460 
# 
# From -- ./inp_files/170232.got.cif
#   From: 2010.06.25/outbox.cif.g09.slc.cpg/sg2_86_cif.got.tgz:170232.got - 2010.06.27 13:26:56.
