data_PCOD8043226
_publ_section_title
;
Structure prediction by ZEFSAII (Michael W. Deem and Ramdas Pophale) SiO2 
 PCOD8043226
Probable space group: P -1
;
_chemical_formula_sum "Si O2"
_cell_formula_units_Z 14
_cell_length_a 12.383813
_cell_length_b 17.556558
_cell_length_c 11.164766
_cell_angle_alpha 143.947794
_cell_angle_beta 44.680498
_cell_angle_gamma 150.348801
_cell_volume 706.451817
_symmetry_space_group_name_H-M "P -1"
_symmetry_group_IT_number 2
_symmetry_cell_setting 'triclinic'
loop_
_space_group_symop_operation_xyz
x,y,z
-x,-y,-z
loop_
_atom_site_type_symbol
_atom_site_label
_atom_site_fract_x
_atom_site_fract_y
_atom_site_fract_z
Si Si1 0.109981 0.452756 0.011658
Si Si2 0.742982 0.175299 0.375531
Si Si3 0.983960 0.315130 0.677025
Si Si4 0.774552 0.518899 0.531161
Si Si5 0.651572 0.931303 0.341315
Si Si6 0.458209 0.406235 0.037643
Si Si7 0.686576 0.181453 0.158936
O O1 0.067531 0.355289 0.796342
O O2 0.325703 0.523823 0.987502
O O3 0.136527 0.621545 0.179056
O O4 0.913337 0.303487 0.066062
O O5 0.593658 0.200937 0.580087
O O6 0.700492 0.121864 0.201550
O O7 0.993686 0.366470 0.440156
O O8 0.679561 0.007428 0.283460
O O9 0.187696 0.419944 0.559413
O O10 0.813807 0.096952 0.517044
O O11 0.644908 0.556809 0.741318
O O12 0.634456 0.302701 0.374017
O O13 0.706072 0.811847 0.135464
O O14 0.500000 0.500000 0.000000
O O15 0.500000 0.000000 0.000000
#
# Coordination Sequence:
#
# PCOD8043226 Si02
#       7
#     2   2   2   2   2   2   2
#     4  10  21  39  61  84 116 152 186 238 287 329
#     4  10  19  36  60  84 111 148 196 238 273 325
#     4   9  20  40  63  86 109 146 201 239 276 326
#     4  10  22  37  56  84 117 151 185 231 286 340
#     4  10  20  36  60  84 109 149 195 237 275 331
#     4  12  24  38  56  84 122 155 183 225 291 348
#     4  11  21  36  60  86 111 146 196 240 277 331
#
# _framework density 19.817347000000002
#
# number of rings (size 3 to 8) (size 9 to 14) (size 15 to 20)
#    0.000    1.714    0.000    6.429    0.000    5.143 
#    0.000    4.286    0.000    0.000    0.000    0.000 
#    0.000    0.000    0.000    0.000    0.000    0.000 
#
# Total GULP energy -173611.526443 kJ/mol
# GULP energy per Si atom -12400.823317 kJ/mol
# Density = 1.977224 g / cm^3
# Si number density = 19.817347 Si / 1000 Ang^3
#
#
#
# Elastic Constant Matrix: (Units=GPa)
#
#
# Indices 1 2 3 4 5 6 
#
# 1 111.0332 39.0927 61.9827 2.4631 23.7053 -14.6304
# 2 39.0927 85.9849 66.9158 8.1591 2.0159 -1.5700
# 3 61.9827 66.9158 170.3468 10.3528 6.2706 -6.3405
# 4 2.4631 8.1591 10.3528 39.0431 -2.7998 7.8237
# 5 23.7053 2.0159 6.2706 -2.7998 33.7350 -4.7922
# 6 -14.6304 -1.5700 -6.3405 7.8237 -4.7922 31.8130
#
#
#
# Elastic Compliance Matrix: (Units=1/GPa)
#
#
# Indices 1 2 3 4 5 6 
#
# 1 0.014732 -0.003720 -0.003340 -0.000866 -0.008899 0.004798
# 2 -0.003720 0.017813 -0.005679 -0.001570 0.002300 -0.001231
# 3 -0.003340 -0.005679 0.009368 -0.001113 0.000919 0.000463
# 4 -0.000866 -0.001570 -0.001113 0.027897 0.002198 -0.007227
# 5 -0.008899 0.002300 0.000919 0.002198 0.035923 0.001075
# 6 0.004798 -0.001231 0.000463 -0.007227 0.001075 0.035611
#
#
# Mechanical properties :
#
#
# Convention : Reuss Voigt Hill
#
# Bulk Modulus (GPa) = 60.84694 78.14969 69.49832
# Shear Modulus (GPa) = 29.01905 34.20981 31.61443
#
# Velocity S-wave (km/s) = 3.83080 4.15933 3.99844
# Velocity P-wave (km/s) = 7.09488 7.91121 7.51414
#
# Compressibility (1/GPa) = 0.01643468
#
# Stress axis : x y z
#
# Youngs Moduli (GPa) = 67.87869 56.13773 106.74978
#
# Poissons Ratio (x) = 0.20883 0.35659
# Poissons Ratio (y) = 0.25250 0.60623
# Poissons Ratio (z) = 0.22674 0.31880
#
# Static dielectric constant tensor:
#      x y z
#    x 3.507750 -0.188370 0.210560 
#    y -0.188370 3.661750 -0.039340 
#    z 0.210560 -0.039340 3.775780 
# 
# 
# High freq. dielectric constant tensor:
#      x y z
#    x 1.761570 -0.014930 0.020890 
#    y -0.014930 1.776110 0.001990 
#    z 0.020890 0.001990 1.778540 
# 
# From -- ./inp_files/175045.got.cif
#   From: 2010.06.25/outbox.cif.g09.slc.cpg/sg2_88_cif.got.tgz:175045.got - 2010.06.27 13:26:56.
