data_PCOD8043742
_publ_section_title
;
Structure prediction by ZEFSAII (Michael W. Deem and Ramdas Pophale) SiO2 
 PCOD8043742
Probable space group: P -1
;
_chemical_formula_sum "Si O2"
_cell_formula_units_Z 16
_cell_length_a 10.542771
_cell_length_b 13.571784
_cell_length_c 11.259935
_cell_angle_alpha 75.530975
_cell_angle_beta 111.029735
_cell_angle_gamma 146.615360
_cell_volume 823.585040
_symmetry_space_group_name_H-M "P -1"
_symmetry_group_IT_number 2
_symmetry_cell_setting 'triclinic'
loop_
_space_group_symop_operation_xyz
x,y,z
-x,-y,-z
loop_
_atom_site_type_symbol
_atom_site_label
_atom_site_fract_x
_atom_site_fract_y
_atom_site_fract_z
Si Si1 0.019361 0.890322 0.274324
Si Si2 0.205064 0.754088 0.736701
Si Si3 0.087758 0.488629 0.643307
Si Si4 0.218813 0.843307 0.954725
Si Si5 0.603159 0.510604 0.307673
Si Si6 0.937613 0.767195 0.530118
Si Si7 0.751265 0.136658 0.778314
Si Si8 0.060257 0.148033 0.241342
O O1 0.095785 0.909884 0.430505
O O2 0.197620 0.946587 0.224489
O O3 0.751504 0.679649 0.221133
O O4 0.021286 0.011465 0.220521
O O5 0.195171 0.630499 0.735457
O O6 0.114956 0.704455 0.859334
O O7 0.027129 0.709854 0.609460
O O8 0.464776 0.967423 0.743318
O O9 0.304615 0.547702 0.663896
O O10 0.000000 0.500000 0.500000
O O11 0.858548 0.284936 0.677990
O O12 0.144662 0.911899 0.871536
O O13 0.125985 0.766451 0.080496
O O14 0.500000 0.000000 0.000000
O O15 0.324430 0.350217 0.232668
O O16 0.665578 0.582397 0.443656
O O17 0.956197 0.856262 0.619584
#
# Coordination Sequence:
#
# PCOD8043742 Si02
#       8
#     2   2   2   2   2   2   2   2
#     4   9  20  34  52  84 111 137 185 226 276 333
#     4  10  19  37  58  81 114 154 182 228 282 322
#     4  11  20  36  58  88 117 145 185 227 279 343
#     4   9  22  41  58  81 109 146 198 233 266 334
#     4   9  20  34  51  86 112 138 182 226 271 334
#     4   9  19  35  50  84 116 135 184 233 266 340
#     4  10  21  38  56  79 118 147 189 237 267 321
#     4  11  19  36  60  74 108 153 177 225 292 316
#
# _framework density 19.427258999999999
#
# number of rings (size 3 to 8) (size 9 to 14) (size 15 to 20)
#    0.750    1.500    1.250    1.500    0.000    4.000 
#    0.000   12.500    0.000    0.000    0.000    0.000 
#    0.000    0.000    0.000    0.000    0.000    0.000 
#
# Total GULP energy -198225.851644 kJ/mol
# GULP energy per Si atom -12389.115728 kJ/mol
# Density = 1.938304 g / cm^3
# Si number density = 19.427259 Si / 1000 Ang^3
#
#
#
# Elastic Constant Matrix: (Units=GPa)
#
#
# Indices 1 2 3 4 5 6 
#
# 1 93.9681 34.6333 42.7943 1.8585 -2.7760 -7.5697
# 2 34.6333 66.9449 28.3486 3.1444 5.4853 -6.7065
# 3 42.7943 28.3486 72.1691 -1.1339 -5.6103 -12.1494
# 4 1.8585 3.1444 -1.1339 17.6092 9.0933 -0.9136
# 5 -2.7760 5.4853 -5.6103 9.0933 32.0558 1.9383
# 6 -7.5697 -6.7065 -12.1494 -0.9136 1.9383 27.0553
#
#
#
# Elastic Compliance Matrix: (Units=1/GPa)
#
#
# Indices 1 2 3 4 5 6 
#
# 1 0.015993 -0.005204 -0.007403 -0.002072 0.001587 -0.000323
# 2 -0.005204 0.020336 -0.005002 -0.000921 -0.004644 0.001640
# 3 -0.007403 -0.005002 0.021522 0.001779 0.003102 0.006192
# 4 -0.002072 -0.000921 0.001779 0.067296 -0.019020 0.003626
# 5 0.001587 -0.004644 0.003102 -0.019020 0.038229 -0.002695
# 6 -0.000323 0.001640 0.006192 0.003626 -0.002695 0.040373
#
#
# Mechanical properties :
#
#
# Convention : Reuss Voigt Hill
#
# Bulk Modulus (GPa) = 44.18098 49.40384 46.79241
# Shear Modulus (GPa) = 20.28301 23.83112 22.05706
#
# Velocity S-wave (km/s) = 3.23468 3.50621 3.37318
# Velocity P-wave (km/s) = 6.06152 6.47122 6.26972
#
# Compressibility (1/GPa) = 0.02263417
#
# Stress axis : x y z
#
# Youngs Moduli (GPa) = 62.52672 49.17371 46.46381
#
# Poissons Ratio (x) = 0.25591 0.34396
# Poissons Ratio (y) = 0.32540 0.23239
# Poissons Ratio (z) = 0.46288 0.24594
#
# Static dielectric constant tensor:
#      x y z
#    x 3.664480 -0.022830 -0.334940 
#    y -0.022830 3.211590 0.025700 
#    z -0.334940 0.025700 3.736260 
# 
# 
# High freq. dielectric constant tensor:
#      x y z
#    x 1.768860 -0.003060 -0.016450 
#    y -0.003060 1.728100 0.004940 
#    z -0.016450 0.004940 1.748260 
# 
# From -- ./inp_files/431406.got.cif
#   From: 2010.06.25/outbox.cif.g09.slc.cpg/sg2_216_cif.got.tgz:431406.got - 2010.06.27 13:26:56.
