data_PCOD8043247
_publ_section_title
;
Structure prediction by ZEFSAII (Michael W. Deem and Ramdas Pophale) SiO2 
 PCOD8043247
Probable space group: P -1
;
_chemical_formula_sum "Si O2"
_cell_formula_units_Z 16
_cell_length_a 9.417966
_cell_length_b 8.476698
_cell_length_c 14.041195
_cell_angle_alpha 131.335024
_cell_angle_beta 77.119223
_cell_angle_gamma 103.581883
_cell_volume 814.602847
_symmetry_space_group_name_H-M "P -1"
_symmetry_group_IT_number 2
_symmetry_cell_setting 'triclinic'
loop_
_space_group_symop_operation_xyz
x,y,z
-x,-y,-z
loop_
_atom_site_type_symbol
_atom_site_label
_atom_site_fract_x
_atom_site_fract_y
_atom_site_fract_z
Si Si1 0.588467 0.577326 0.154762
Si Si2 0.532929 0.813210 0.699976
Si Si3 0.819905 0.657174 0.527460
Si Si4 0.571913 0.008063 0.392090
Si Si5 0.409562 0.209522 0.949026
Si Si6 0.117955 0.815193 0.629994
Si Si7 0.728988 0.474767 0.279057
Si Si8 0.877328 0.080871 0.114764
O O1 0.505349 0.778685 0.271035
O O2 0.645748 0.632839 0.060851
O O3 0.712340 0.568945 0.213805
O O4 0.482351 0.355953 0.081861
O O5 0.696505 0.747501 0.647665
O O6 0.426071 0.644564 0.708615
O O7 0.475280 0.809709 0.597610
O O8 0.526538 0.050519 0.835814
O O9 0.832936 0.417035 0.458853
O O10 0.782145 0.660506 0.421418
O O11 0.971884 0.805700 0.584144
O O12 0.500000 0.000000 0.500000
O O13 0.749656 0.037808 0.382886
O O14 0.267497 0.069737 0.953471
O O15 0.089494 0.923833 0.779222
O O16 0.854355 0.320403 0.187908
O O17 0.000000 0.000000 0.000000
#
# Coordination Sequence:
#
# PCOD8043247 Si02
#       8
#     2   2   2   2   2   2   2   2
#     4  10  20  36  61  81 119 148 191 250 290 341
#     4  10  19  36  60  87 117 147 203 248 285 343
#     4  10  20  35  61  86 119 152 192 253 295 337
#     4  11  21  38  61  85 118 163 191 235 306 349
#     4   9  20  39  58  85 117 153 197 245 289 356
#     4  10  21  39  56  88 124 152 195 245 295 352
#     4  10  20  35  57  91 114 150 203 250 283 349
#     4  10  20  39  60  81 120 159 195 244 295 341
#
# _framework density 19.641473000000001
#
# number of rings (size 3 to 8) (size 9 to 14) (size 15 to 20)
#    0.000    2.000    5.000    1.125    1.750    4.000 
#    4.500    3.125    5.500    0.000    0.000    0.000 
#    0.000    0.000    0.000    0.000    0.000    0.000 
#
# Total GULP energy -198235.332733 kJ/mol
# GULP energy per Si atom -12389.708296 kJ/mol
# Density = 1.959677 g / cm^3
# Si number density = 19.641473 Si / 1000 Ang^3
#
#
#
# Elastic Constant Matrix: (Units=GPa)
#
#
# Indices 1 2 3 4 5 6 
#
# 1 108.6536 22.1668 64.3067 -3.9344 -4.3902 8.8438
# 2 22.1668 43.8522 32.4564 -5.3729 -2.7163 1.8540
# 3 64.3067 32.4564 113.6273 -2.8011 -7.3019 18.9822
# 4 -3.9344 -5.3729 -2.8011 29.6481 3.8867 5.2309
# 5 -4.3902 -2.7163 -7.3019 3.8867 39.4231 -4.4667
# 6 8.8438 1.8540 18.9822 5.2309 -4.4667 26.9871
#
#
#
# Elastic Compliance Matrix: (Units=1/GPa)
#
#
# Indices 1 2 3 4 5 6 
#
# 1 0.013954 -0.001356 -0.007611 0.000749 0.000061 0.000739
# 2 -0.001356 0.029939 -0.008253 0.003790 0.000409 0.003526
# 3 -0.007611 -0.008253 0.017011 0.000585 0.000668 -0.008907
# 4 0.000749 0.003790 0.000585 0.036651 -0.004147 -0.008708
# 5 0.000061 0.000409 0.000668 -0.004147 0.026462 0.004666
# 6 0.000739 0.003526 -0.008907 -0.008708 0.004666 0.045296
#
#
# Mechanical properties :
#
#
# Convention : Reuss Voigt Hill
#
# Bulk Modulus (GPa) = 37.78941 55.99923 46.89432
# Shear Modulus (GPa) = 23.52124 29.02520 26.27322
#
# Velocity S-wave (km/s) = 3.46429 3.84832 3.66134
# Velocity P-wave (km/s) = 5.93996 6.95117 6.46536
#
# Compressibility (1/GPa) = 0.02646244
#
# Stress axis : x y z
#
# Youngs Moduli (GPa) = 71.66278 33.40161 58.78610
#
# Poissons Ratio (x) = 0.04531 0.44742
# Poissons Ratio (y) = 0.09720 0.48518
# Poissons Ratio (z) = 0.54542 0.27568
#
# Static dielectric constant tensor:
#      x y z
#    x 4.017370 -0.166710 0.853350 
#    y -0.166710 3.519040 0.030240 
#    z 0.853350 0.030240 4.836890 
# 
# 
# High freq. dielectric constant tensor:
#      x y z
#    x 1.744650 -0.007690 0.011350 
#    y -0.007690 1.752460 0.009570 
#    z 0.011350 0.009570 1.771800 
# 
# From -- ./inp_files/205749.got.cif
#   From: 2010.06.25/outbox.cif.g09.slc.cpg/sg2_103_cif.got.tgz:205749.got - 2010.06.27 13:26:56.
