data_PCOD8043778
_publ_section_title
;
Structure prediction by ZEFSAII (Michael W. Deem and Ramdas Pophale) SiO2 
 PCOD8043778
Probable space group: P -1
;
_chemical_formula_sum "Si O2"
_cell_formula_units_Z 16
_cell_length_a 8.978337
_cell_length_b 10.685466
_cell_length_c 13.961369
_cell_angle_alpha 112.598951
_cell_angle_beta 45.036480
_cell_angle_gamma 95.719374
_cell_volume 844.111337
_symmetry_space_group_name_H-M "P -1"
_symmetry_group_IT_number 2
_symmetry_cell_setting 'triclinic'
loop_
_space_group_symop_operation_xyz
x,y,z
-x,-y,-z
loop_
_atom_site_type_symbol
_atom_site_label
_atom_site_fract_x
_atom_site_fract_y
_atom_site_fract_z
Si Si1 0.677703 0.187063 0.481040
Si Si2 0.247656 0.966289 0.413380
Si Si3 0.641067 0.362847 0.205279
Si Si4 0.804169 0.430287 0.578471
Si Si5 0.411265 0.664433 0.178314
Si Si6 0.233409 0.602819 0.046755
Si Si7 0.251232 0.383727 0.687234
Si Si8 0.500165 0.193828 0.369253
O O1 0.746214 0.051740 0.479162
O O2 0.839222 0.288353 0.455975
O O3 0.431905 0.284856 0.647521
O O4 0.676925 0.132114 0.355788
O O5 0.397547 0.824248 0.257724
O O6 0.356957 0.089555 0.372298
O O7 0.000000 0.000000 0.500000
O O8 0.395028 0.450988 0.335018
O O9 0.773042 0.452298 0.233355
O O10 0.636921 0.222545 0.224346
O O11 0.747544 0.321907 0.040808
O O12 0.765143 0.390860 0.695014
O O13 0.000000 0.500000 0.500000
O O14 0.361159 0.662864 0.088153
O O15 0.654473 0.565408 0.061209
O O16 0.981378 0.643514 0.198928
O O17 0.333882 0.338694 0.527705
#
# Coordination Sequence:
#
# PCOD8043778 Si02
#       8
#     2   2   2   2   2   2   2   2
#     4   8  20  34  52  88 110 140 190 229 275 338
#     4  11  21  36  57  83 110 153 192 230 277 337
#     4  10  20  32  50  89 112 142 184 229 286 333
#     4   9  18  29  53  80 118 137 174 239 282 322
#     4   9  21  36  53  85 111 147 197 225 273 341
#     4  10  19  37  59  80 115 151 182 232 282 340
#     4   9  19  34  60  82 111 146 182 229 284 336
#     4  10  21  35  57  83 118 142 180 244 277 329
#
# _framework density 18.954844999999999
#
# number of rings (size 3 to 8) (size 9 to 14) (size 15 to 20)
#    0.750    1.750    0.000    2.625    5.250    0.000 
#    0.000    0.625    0.000    3.000    0.000    0.000 
#    0.000    0.000    0.000    0.000    0.000    0.000 
#
# Total GULP energy -198260.446890 kJ/mol
# GULP energy per Si atom -12391.277931 kJ/mol
# Density = 1.891170 g / cm^3
# Si number density = 18.954845 Si / 1000 Ang^3
#
#
#
# Elastic Constant Matrix: (Units=GPa)
#
#
# Indices 1 2 3 4 5 6 
#
# 1 81.0299 37.4756 28.7656 -10.4503 10.1441 -1.8674
# 2 37.4756 74.1682 17.0818 -15.0500 11.8119 0.4381
# 3 28.7656 17.0818 58.9911 -12.5618 11.1884 -3.8363
# 4 -10.4503 -15.0500 -12.5618 24.4768 1.1049 0.9246
# 5 10.1441 11.8119 11.1884 1.1049 31.8567 -0.6017
# 6 -1.8674 0.4381 -3.8363 0.9246 -0.6017 26.9537
#
#
#
# Elastic Compliance Matrix: (Units=1/GPa)
#
#
# Indices 1 2 3 4 5 6 
#
# 1 0.018292 -0.007681 -0.006608 -0.000293 -0.000637 0.000447
# 2 -0.007681 0.020046 0.001056 0.009891 -0.005723 -0.001175
# 3 -0.006608 0.001056 0.023467 0.010091 -0.006835 0.002366
# 4 -0.000293 0.009891 0.010091 0.052423 -0.008951 -0.000743
# 5 -0.000637 -0.005723 -0.006835 -0.008951 0.036430 0.000196
# 6 0.000447 -0.001175 0.002366 -0.000743 0.000196 0.037517
#
#
# Mechanical properties :
#
#
# Convention : Reuss Voigt Hill
#
# Bulk Modulus (GPa) = 28.29687 42.31501 35.30594
# Shear Modulus (GPa) = 22.08286 25.38186 23.73236
#
# Velocity S-wave (km/s) = 3.41695 3.66330 3.54227
# Velocity P-wave (km/s) = 5.52525 6.34552 5.94954
#
# Compressibility (1/GPa) = 0.03533960
#
# Stress axis : x y z
#
# Youngs Moduli (GPa) = 54.66987 49.88486 42.61313
#
# Poissons Ratio (x) = 0.38317 0.28157
# Poissons Ratio (y) = 0.41992 -0.04500
# Poissons Ratio (z) = 0.36124 -0.05268
#
# Static dielectric constant tensor:
#      x y z
#    x 3.661520 0.002630 0.117750 
#    y 0.002630 3.308520 -0.025420 
#    z 0.117750 -0.025420 3.216490 
# 
# 
# High freq. dielectric constant tensor:
#      x y z
#    x 1.748250 0.002060 0.008730 
#    y 0.002060 1.716240 -0.005670 
#    z 0.008730 -0.005670 1.702220 
# 
# From -- ./inp_files/498083.got.cif
#   From: 2010.06.25/outbox.cif.g09.slc.cpg/sg2_250_cif.got.tgz:498083.got - 2010.06.27 13:26:56.
