data_PCOD8043061
_publ_section_title
;
Structure prediction by ZEFSAII (Michael W. Deem and Ramdas Pophale) SiO2 
 PCOD8043061
Probable space group: P -1
;
_chemical_formula_sum "Si O2"
_cell_formula_units_Z 14
_cell_length_a 11.630379
_cell_length_b 10.726683
_cell_length_c 10.586224
_cell_angle_alpha 116.479630
_cell_angle_beta 101.245924
_cell_angle_gamma 128.969481
_cell_volume 671.166030
_symmetry_space_group_name_H-M "P -1"
_symmetry_group_IT_number 2
_symmetry_cell_setting 'triclinic'
loop_
_space_group_symop_operation_xyz
x,y,z
-x,-y,-z
loop_
_atom_site_type_symbol
_atom_site_label
_atom_site_fract_x
_atom_site_fract_y
_atom_site_fract_z
Si Si1 0.546432 0.500276 0.649067
Si Si2 0.478758 0.193562 0.822446
Si Si3 0.795257 0.014323 0.559077
Si Si4 0.090857 0.339333 0.143986
Si Si5 0.301900 0.797781 0.284887
Si Si6 0.254651 0.083656 0.942967
Si Si7 0.153005 0.253521 0.872946
O O1 0.500000 0.500000 0.500000
O O2 0.706098 0.528960 0.693528
O O3 0.339921 0.246774 0.549946
O O4 0.620507 0.705026 0.835518
O O5 0.624033 0.199867 0.830925
O O6 0.399011 0.113835 0.913468
O O7 0.281995 0.005346 0.602214
O O8 0.618582 0.465066 0.950802
O O9 0.788566 0.134733 0.715738
O O10 0.026409 0.178867 0.687682
O O11 0.133497 0.538781 0.200386
O O12 0.916484 0.168909 0.134948
O O13 0.030291 0.187489 0.941106
O O14 0.500000 0.000000 0.500000
O O15 0.165376 0.098268 0.819702
#
# Coordination Sequence:
#
# PCOD8043061 Si02
#       7
#     2   2   2   2   2   2   2
#     4  11  20  35  59  86 116 149 194 239 284 346
#     4  10  21  38  57  88 120 155 180 248 286 336
#     4  11  20  37  64  87 108 157 201 230 279 345
#     4  10  19  36  57  84 114 154 190 240 281 338
#     4   9  18  39  62  81 112 154 204 230 274 343
#     4  11  21  37  56  89 126 144 185 243 303 332
#     4  10  20  36  60  86 117 149 194 232 288 351
#
# _framework density 20.859221999999999
#
# number of rings (size 3 to 8) (size 9 to 14) (size 15 to 20)
#    0.000    1.714    5.714    3.857    0.000    2.857 
#    2.571    2.857    0.000    4.286    0.000    0.000 
#    0.000    0.000    0.000    0.000    0.000    0.000 
#
# Total GULP energy -173503.691330 kJ/mol
# GULP energy per Si atom -12393.120809 kJ/mol
# Density = 2.081175 g / cm^3
# Si number density = 20.859222 Si / 1000 Ang^3
#
#
#
# Elastic Constant Matrix: (Units=GPa)
#
#
# Indices 1 2 3 4 5 6 
#
# 1 62.0376 23.6631 33.8242 1.7072 -5.2514 15.2619
# 2 23.6631 63.5930 18.1265 8.8218 -6.6425 31.4201
# 3 33.8242 18.1265 77.4300 1.4214 6.3278 0.2538
# 4 1.7072 8.8218 1.4214 31.4102 -6.8750 1.7481
# 5 -5.2514 -6.6425 6.3278 -6.8750 26.1031 -6.8093
# 6 15.2619 31.4201 0.2538 1.7481 -6.8093 31.2157
#
#
#
# Elastic Compliance Matrix: (Units=1/GPa)
#
#
# Indices 1 2 3 4 5 6 
#
# 1 0.025678 -0.000491 -0.011515 0.001021 0.005264 -0.010875
# 2 -0.000491 0.037902 -0.008354 -0.008236 -0.000370 -0.037462
# 3 -0.011515 -0.008354 0.020358 0.000017 -0.006102 0.012542
# 4 0.001021 -0.008236 0.000017 0.035751 0.009576 0.007878
# 5 0.005264 -0.000370 -0.006102 0.009576 0.045143 0.007160
# 6 -0.010875 -0.037462 0.012542 0.007878 0.007160 0.076078
#
#
# Mechanical properties :
#
#
# Convention : Reuss Voigt Hill
#
# Bulk Modulus (GPa) = 23.13902 39.36538 31.25220
# Shear Modulus (GPa) = 16.88976 26.24228 21.56602
#
# Velocity S-wave (km/s) = 2.84861 3.55077 3.21890
# Velocity P-wave (km/s) = 4.68364 5.97692 5.36936
#
# Compressibility (1/GPa) = 0.04321704
#
# Stress axis : x y z
#
# Youngs Moduli (GPa) = 38.94400 26.38384 49.12034
#
# Poissons Ratio (x) = 0.01295 0.56564
# Poissons Ratio (y) = 0.01912 0.41036
# Poissons Ratio (z) = 0.44846 0.22042
#
# Static dielectric constant tensor:
#      x y z
#    x 4.182180 -0.014490 -0.245700 
#    y -0.014490 3.563690 0.032110 
#    z -0.245700 0.032110 4.037490 
# 
# 
# High freq. dielectric constant tensor:
#      x y z
#    x 1.803000 0.003590 -0.000460 
#    y 0.003590 1.788150 0.008210 
#    z -0.000460 0.008210 1.820370 
# 
# From -- ./inp_files/428733.got.cif
#   From: 2010.06.25/outbox.cif.g09.slc.cpg/sg2_215_cif.got.tgz:428733.got - 2010.06.27 13:26:56.
