data_PCOD8043724
_publ_section_title
;
Structure prediction by ZEFSAII (Michael W. Deem and Ramdas Pophale) SiO2 
 PCOD8043724
Probable space group: P -1
;
_chemical_formula_sum "Si O2"
_cell_formula_units_Z 14
_cell_length_a 14.076884
_cell_length_b 11.432529
_cell_length_c 10.191085
_cell_angle_alpha 113.411360
_cell_angle_beta 79.998197
_cell_angle_gamma 148.587824
_cell_volume 736.022840
_symmetry_space_group_name_H-M "P -1"
_symmetry_group_IT_number 2
_symmetry_cell_setting 'triclinic'
loop_
_space_group_symop_operation_xyz
x,y,z
-x,-y,-z
loop_
_atom_site_type_symbol
_atom_site_label
_atom_site_fract_x
_atom_site_fract_y
_atom_site_fract_z
Si Si1 0.184215 0.449007 0.482275
Si Si2 0.455351 0.527294 0.152556
Si Si3 0.138603 0.122784 0.403857
Si Si4 0.923283 0.012862 0.918238
Si Si5 0.439200 0.996410 0.380165
Si Si6 0.787442 0.498838 0.807757
Si Si7 0.758297 0.967952 0.481862
O O1 0.257457 0.386289 0.452447
O O2 0.158519 0.448860 0.334695
O O3 0.984646 0.247177 0.515246
O O4 0.361278 0.738314 0.626416
O O5 0.310895 0.267919 0.153182
O O6 0.357801 0.550614 0.150311
O O7 0.648803 0.777657 0.300653
O O8 0.500000 0.500000 0.000000
O O9 0.009270 0.934868 0.224223
O O10 0.268804 0.154949 0.439331
O O11 0.000000 0.000000 0.500000
O O12 0.000000 0.000000 0.000000
O O13 0.011342 0.249802 0.047762
O O14 0.307865 0.741976 0.221676
O O15 0.320354 0.985759 0.438962
O O16 0.500000 0.000000 0.500000
#
# Coordination Sequence:
#
# PCOD8043724 Si02
#       7
#     2   2   2   2   2   2   2
#     4  10  19  37  57  87 120 152 195 244 296 345
#     4  11  21  33  56  91 117 146 203 241 296 352
#     4  10  21  35  61  91 117 154 194 248 304 346
#     4  10  19  37  58  81 118 155 188 243 300 338
#     4  10  20  38  55  86 118 159 200 237 289 359
#     4  10  20  37  59  80 121 156 192 247 287 345
#     4  11  22  36  60  89 121 151 198 248 294 357
#
# _framework density 19.021149000000001
#
# number of rings (size 3 to 8) (size 9 to 14) (size 15 to 20)
#    0.000    1.714    5.714    0.857    6.000    4.571 
#    2.571    0.714    0.000    3.429    0.000    0.000 
#    0.000    0.000    0.000    0.000    0.000    0.000 
#
# Total GULP energy -173444.342389 kJ/mol
# GULP energy per Si atom -12388.881599 kJ/mol
# Density = 1.897786 g / cm^3
# Si number density = 19.021149 Si / 1000 Ang^3
#
#
#
# Elastic Constant Matrix: (Units=GPa)
#
#
# Indices 1 2 3 4 5 6 
#
# 1 100.0010 40.5682 34.4236 14.9384 -1.1308 -7.3534
# 2 40.5682 141.2753 56.1042 37.8418 -10.2482 -10.3354
# 3 34.4236 56.1042 111.5962 12.7313 -9.7826 -13.6030
# 4 14.9384 37.8418 12.7313 36.8447 -10.4384 -9.9871
# 5 -1.1308 -10.2482 -9.7826 -10.4384 22.1763 0.0659
# 6 -7.3534 -10.3354 -13.6030 -9.9871 0.0659 29.7866
#
#
#
# Elastic Compliance Matrix: (Units=1/GPa)
#
#
# Indices 1 2 3 4 5 6 
#
# 1 0.012074 -0.001825 -0.002705 -0.002818 -0.002748 0.000173
# 2 -0.001825 0.012198 -0.004706 -0.011259 -0.001825 -0.002138
# 3 -0.002705 -0.004706 0.012736 0.004397 0.005361 0.004978
# 4 -0.002818 -0.011259 0.004397 0.047227 0.018784 0.013199
# 5 -0.002748 -0.001825 0.005361 0.018784 0.055294 0.007312
# 6 0.000173 -0.002138 0.004978 0.013199 0.007312 0.039556
#
#
# Mechanical properties :
#
#
# Convention : Reuss Voigt Hill
#
# Bulk Modulus (GPa) = 53.94651 68.34050 61.14351
# Shear Modulus (GPa) = 24.54153 32.54662 28.54407
#
# Velocity S-wave (km/s) = 3.59586 4.14100 3.87802
# Velocity P-wave (km/s) = 6.75746 7.67272 7.22958
#
# Compressibility (1/GPa) = 0.01853688
#
# Stress axis : x y z
#
# Youngs Moduli (GPa) = 82.82240 81.97959 78.51569
#
# Poissons Ratio (x) = 0.14958 0.21242
# Poissons Ratio (y) = 0.15111 0.36948
# Poissons Ratio (z) = 0.22407 0.38578
#
# Static dielectric constant tensor:
#      x y z
#    x 3.151800 -0.006890 0.035250 
#    y -0.006890 3.941490 0.427210 
#    z 0.035250 0.427210 3.791990 
# 
# 
# High freq. dielectric constant tensor:
#      x y z
#    x 1.719240 -0.004980 -0.008300 
#    y -0.004980 1.750220 0.015140 
#    z -0.008300 0.015140 1.723490 
# 
# From -- ./inp_files/308000.got.cif
#   From: 2010.06.25/outbox.cif.g09.slc.cpg/sg2_154_cif.got.tgz:308000.got - 2010.06.27 13:26:56.
