data_PCOD8043254
_publ_section_title
;
Structure prediction by ZEFSAII (Michael W. Deem and Ramdas Pophale) SiO2 
 PCOD8043254
Probable space group: P -1
;
_chemical_formula_sum "Si O2"
_cell_formula_units_Z 14
_cell_length_a 8.774357
_cell_length_b 9.453559
_cell_length_c 19.376018
_cell_angle_alpha 123.875866
_cell_angle_beta 47.500134
_cell_angle_gamma 87.084016
_cell_volume 704.228470
_symmetry_space_group_name_H-M "P -1"
_symmetry_group_IT_number 2
_symmetry_cell_setting 'triclinic'
loop_
_space_group_symop_operation_xyz
x,y,z
-x,-y,-z
loop_
_atom_site_type_symbol
_atom_site_label
_atom_site_fract_x
_atom_site_fract_y
_atom_site_fract_z
Si Si1 0.124007 0.091797 0.949947
Si Si2 0.236088 0.421647 0.851558
Si Si3 0.777742 0.222128 0.824859
Si Si4 0.734941 0.856718 0.718167
Si Si5 0.174769 0.761260 0.338776
Si Si6 0.116964 0.366139 0.533884
Si Si7 0.732088 0.971850 0.270939
O O1 0.434878 0.935951 0.846410
O O2 0.140444 0.068978 0.855590
O O3 0.916225 0.374668 0.105450
O O4 0.000000 0.000000 0.000000
O O5 0.486118 0.390898 0.801433
O O6 0.348948 0.176440 0.722212
O O7 0.000000 0.500000 0.000000
O O8 0.915443 0.186169 0.699128
O O9 0.685359 0.078934 0.815317
O O10 0.500000 0.500000 0.000000
O O11 0.031923 0.093190 0.767092
O O12 0.813731 0.795365 0.596742
O O13 0.980468 0.625301 0.625504
O O14 0.108644 0.608926 0.343993
O O15 0.000000 0.000000 0.500000
O O16 0.417393 0.242294 0.446680
#
# Coordination Sequence:
#
# PCOD8043254 Si02
#       7
#     2   2   2   2   2   2   2
#     4  10  19  36  60  89 117 163 214 244 296 377
#     4  10  19  36  61  87 124 161 202 252 302 368
#     4  12  24  40  62  92 129 164 198 258 326 361
#     4  10  21  39  63  87 124 167 202 252 313 366
#     4  12  21  40  66  94 119 162 220 251 293 377
#     4  10  21  40  62  91 120 161 212 254 300 369
#     4  10  21  37  57  87 125 160 200 254 315 360
#
# _framework density 19.879911
#
# number of rings (size 3 to 8) (size 9 to 14) (size 15 to 20)
#    0.000    1.429    2.857    5.143    0.000    1.143 
#    0.000    4.286    0.000    0.000    0.000    0.000 
#    0.000    0.000    0.000    0.000    0.000    0.000 
#
# Total GULP energy -173537.017890 kJ/mol
# GULP energy per Si atom -12395.501278 kJ/mol
# Density = 1.983466 g / cm^3
# Si number density = 19.879911 Si / 1000 Ang^3
#
#
#
# Elastic Constant Matrix: (Units=GPa)
#
#
# Indices 1 2 3 4 5 6 
#
# 1 113.4539 56.0789 55.4157 2.6974 -21.9830 -3.9232
# 2 56.0789 145.7938 61.8569 5.0696 -11.7425 12.5268
# 3 55.4157 61.8569 95.5127 14.3465 -18.7420 -3.4437
# 4 2.6974 5.0696 14.3465 39.4325 1.3600 -7.6552
# 5 -21.9830 -11.7425 -18.7420 1.3600 39.3443 3.2245
# 6 -3.9232 12.5268 -3.4437 -7.6552 3.2245 32.9276
#
#
#
# Elastic Compliance Matrix: (Units=1/GPa)
#
#
# Indices 1 2 3 4 5 6 
#
# 1 0.013722 -0.002868 -0.005509 0.001718 0.003950 0.002162
# 2 -0.002868 0.010695 -0.005553 -0.000097 -0.000647 -0.004950
# 3 -0.005509 -0.005553 0.019034 -0.005655 0.004388 0.001702
# 4 0.001718 -0.000097 -0.005655 0.028717 -0.003301 0.006650
# 5 0.003950 -0.000647 0.004388 -0.003301 0.029841 -0.002514
# 6 0.002162 -0.004950 0.001702 0.006650 -0.002514 0.034481
#
#
# Mechanical properties :
#
#
# Convention : Reuss Voigt Hill
#
# Bulk Modulus (GPa) = 64.14015 77.94038 71.04027
# Shear Modulus (GPa) = 29.49041 34.43479 31.96260
#
# Velocity S-wave (km/s) = 3.85571 4.16641 4.01407
# Velocity P-wave (km/s) = 7.22190 7.90165 7.56941
#
# Compressibility (1/GPa) = 0.01559086
#
# Stress axis : x y z
#
# Youngs Moduli (GPa) = 72.87612 93.50240 52.53740
#
# Poissons Ratio (x) = 0.26819 0.28942
# Poissons Ratio (y) = 0.20902 0.29174
# Poissons Ratio (z) = 0.40146 0.51922
#
# Static dielectric constant tensor:
#      x y z
#    x 3.545550 -0.023510 -0.212000 
#    y -0.023510 3.947100 0.330560 
#    z -0.212000 0.330560 3.809110 
# 
# 
# High freq. dielectric constant tensor:
#      x y z
#    x 1.758660 0.002960 -0.029840 
#    y 0.002960 1.786770 0.013730 
#    z -0.029840 0.013730 1.771820 
# 
# From -- ./inp_files/154096.got.cif
#   From: 2010.06.25/outbox.cif.g09.slc.cpg/sg2_78_cif.got.tgz:154096.got - 2010.06.27 13:26:56.
