data_PCOD8043499
_publ_section_title
;
Structure prediction by ZEFSAII (Michael W. Deem and Ramdas Pophale) SiO2 
 PCOD8043499
Probable space group: P -1
;
_chemical_formula_sum "Si O2"
_cell_formula_units_Z 16
_cell_length_a 13.505851
_cell_length_b 27.969159
_cell_length_c 9.402211
_cell_angle_alpha 39.304367
_cell_angle_beta 49.045811
_cell_angle_gamma 20.929265
_cell_volume 767.298241
_symmetry_space_group_name_H-M "P -1"
_symmetry_group_IT_number 2
_symmetry_cell_setting 'triclinic'
loop_
_space_group_symop_operation_xyz
x,y,z
-x,-y,-z
loop_
_atom_site_type_symbol
_atom_site_label
_atom_site_fract_x
_atom_site_fract_y
_atom_site_fract_z
Si Si1 0.914334 0.999022 0.282363
Si Si2 0.163674 0.020864 0.894504
Si Si3 0.736626 0.688236 0.768783
Si Si4 0.131394 0.613213 0.043257
Si Si5 0.781705 0.268268 0.192581
Si Si6 0.259185 0.226551 0.704760
Si Si7 0.132689 0.131643 0.923853
Si Si8 0.315741 0.171604 0.268083
O O1 0.571532 0.192931 0.176403
O O2 0.988021 0.910971 0.274159
O O3 0.016891 0.901500 0.547785
O O4 0.097521 0.981748 0.142144
O O5 0.505225 0.856474 0.922450
O O6 0.062737 0.146724 0.790016
O O7 0.763139 0.689861 0.570748
O O8 0.754396 0.759824 0.667897
O O9 0.000000 0.500000 0.000000
O O10 0.449254 0.414436 0.185729
O O11 0.968690 0.650385 0.234708
O O12 0.143174 0.695258 0.876349
O O13 0.980147 0.687444 0.862244
O O14 0.857017 0.243383 0.014574
O O15 0.578927 0.059318 0.854691
O O16 0.184654 0.193265 0.752330
O O17 0.500000 0.000000 0.500000
#
# Coordination Sequence:
#
# PCOD8043499 Si02
#       8
#     2   2   2   2   2   2   2   2
#     4  10  22  40  58  82 126 168 201 247 319 386
#     4  10  21  36  60  89 114 159 210 249 302 379
#     4  11  24  41  61  92 130 167 207 263 321 373
#     4  10  21  38  61  93 121 155 213 268 307 364
#     4  10  21  38  60  89 126 160 200 263 321 364
#     4  10  20  37  63  90 122 157 210 268 306 371
#     4  10  19  36  63  92 115 156 218 258 309 369
#     4  11  22  40  67  92 120 167 219 259 311 378
#
# _framework density 20.852385999999999
#
# number of rings (size 3 to 8) (size 9 to 14) (size 15 to 20)
#    0.000    1.750    2.500    2.250    1.750    4.500 
#    2.250    2.500    0.000    6.750    0.000    0.000 
#    0.000    0.000    0.000    0.000    0.000    0.000 
#
# Total GULP energy -198346.452181 kJ/mol
# GULP energy per Si atom -12396.653261 kJ/mol
# Density = 2.080493 g / cm^3
# Si number density = 20.852386 Si / 1000 Ang^3
#
#
#
# Elastic Constant Matrix: (Units=GPa)
#
#
# Indices 1 2 3 4 5 6 
#
# 1 63.1538 19.2527 -2.1041 5.1702 3.4534 -1.3249
# 2 19.2527 128.7417 37.1704 3.1120 0.1850 -13.1532
# 3 -2.1041 37.1704 81.9612 1.3060 -1.8246 -11.6002
# 4 5.1702 3.1120 1.3060 31.7156 3.9142 -1.6740
# 5 3.4534 0.1850 -1.8246 3.9142 19.4908 2.4246
# 6 -1.3249 -13.1532 -11.6002 -1.6740 2.4246 27.5550
#
#
#
# Elastic Compliance Matrix: (Units=1/GPa)
#
#
# Indices 1 2 3 4 5 6 
#
# 1 0.017133 -0.003005 0.001818 -0.002263 -0.002411 0.000229
# 2 -0.003005 0.009681 -0.004079 -0.000113 -0.000264 0.002776
# 3 0.001818 -0.004079 0.014720 -0.000356 0.000636 0.004260
# 4 -0.002263 -0.000113 -0.000356 0.032847 -0.006508 0.002256
# 5 -0.002411 -0.000264 0.000636 -0.006508 0.053737 -0.005098
# 6 0.000229 0.002776 0.004260 0.002256 -0.005098 0.040006
#
#
# Mechanical properties :
#
#
# Convention : Reuss Voigt Hill
#
# Bulk Modulus (GPa) = 32.25691 42.49942 37.37816
# Shear Modulus (GPa) = 26.45620 30.38811 28.42215
#
# Velocity S-wave (km/s) = 3.56580 3.82160 3.69591
# Velocity P-wave (km/s) = 5.69701 6.31650 6.01474
#
# Compressibility (1/GPa) = 0.03100111
#
# Stress axis : x y z
#
# Youngs Moduli (GPa) = 58.36667 103.29156 67.93428
#
# Poissons Ratio (x) = 0.31043 -0.12348
# Poissons Ratio (y) = 0.17541 0.27710
# Poissons Ratio (z) = -0.10609 0.42132
#
# Static dielectric constant tensor:
#      x y z
#    x 3.893300 0.006510 0.049780 
#    y 0.006510 4.006630 0.266030 
#    z 0.049780 0.266030 3.449480 
# 
# 
# High freq. dielectric constant tensor:
#      x y z
#    x 1.816120 -0.003830 0.007480 
#    y -0.003830 1.818750 0.026740 
#    z 0.007480 0.026740 1.794980 
# 
# From -- ./inp_files/320930.got.cif
#   From: 2010.06.25/outbox.cif.g09.slc.cpg/sg2_161_cif.got.tgz:320930.got - 2010.06.27 13:26:56.
