data_PCOD8043298
_publ_section_title
;
Structure prediction by ZEFSAII (Michael W. Deem and Ramdas Pophale) SiO2 
 PCOD8043298
Probable space group: P -1
;
_chemical_formula_sum "Si O2"
_cell_formula_units_Z 14
_cell_length_a 9.267877
_cell_length_b 15.444986
_cell_length_c 8.958929
_cell_angle_alpha 67.865162
_cell_angle_beta 65.999269
_cell_angle_gamma 38.661888
_cell_volume 727.933639
_symmetry_space_group_name_H-M "P -1"
_symmetry_group_IT_number 2
_symmetry_cell_setting 'triclinic'
loop_
_space_group_symop_operation_xyz
x,y,z
-x,-y,-z
loop_
_atom_site_type_symbol
_atom_site_label
_atom_site_fract_x
_atom_site_fract_y
_atom_site_fract_z
Si Si1 0.533498 0.732416 0.675801
Si Si2 0.889445 0.650928 0.099500
Si Si3 0.664400 0.476172 0.827202
Si Si4 0.026184 0.738696 0.407437
Si Si5 0.133038 0.012967 0.543115
Si Si6 0.061095 0.376724 0.234791
Si Si7 0.611628 0.839875 0.343642
O O1 0.518767 0.628000 0.726625
O O2 0.680697 0.697334 0.782728
O O3 0.667639 0.717091 0.485312
O O4 0.268129 0.891647 0.691431
O O5 0.661442 0.799802 0.173939
O O6 0.104781 0.589192 0.148206
O O7 0.876542 0.543570 0.185305
O O8 0.909046 0.681491 0.903856
O O9 0.745478 0.374439 0.721819
O O10 0.500000 0.500000 0.000000
O O11 0.044487 0.834820 0.406867
O O12 0.036823 0.656893 0.587346
O O13 0.782093 0.841898 0.347973
O O14 0.333958 0.985659 0.386701
O O15 0.000000 0.000000 0.500000
#
# Coordination Sequence:
#
# PCOD8043298 Si02
#       7
#     2   2   2   2   2   2   2
#     4   8  18  35  57  76 109 146 179 221 275 324
#     4   9  17  33  54  88 110 139 177 240 264 319
#     4  10  20  36  56  82 113 143 182 225 279 327
#     4  10  19  36  61  81 104 152 186 223 266 334
#     4  10  21  37  55  83 114 143 185 224 276 330
#     4   9  17  31  58  85 108 135 194 222 271 317
#     4   8  17  34  61  74 109 144 188 215 270 320
#
# _framework density 19.232520999999998
#
# number of rings (size 3 to 8) (size 9 to 14) (size 15 to 20)
#    0.857    2.000    0.000    1.286    0.000    4.571 
#    7.714    2.857    0.000    0.000    0.000    0.000 
#    0.000    0.000    0.000    0.000    0.000    0.000 
#
# Total GULP energy -173444.279959 kJ/mol
# GULP energy per Si atom -12388.877140 kJ/mol
# Density = 1.918875 g / cm^3
# Si number density = 19.232521 Si / 1000 Ang^3
#
#
#
# Elastic Constant Matrix: (Units=GPa)
#
#
# Indices 1 2 3 4 5 6 
#
# 1 51.1770 30.1881 22.8203 2.9119 0.5848 24.6045
# 2 30.1881 99.0062 46.4935 11.1743 -1.0965 24.3448
# 3 22.8203 46.4935 96.0911 23.8819 9.5648 15.7762
# 4 2.9119 11.1743 23.8819 25.3186 1.6342 8.5606
# 5 0.5848 -1.0965 9.5648 1.6342 26.5262 2.8611
# 6 24.6045 24.3448 15.7762 8.5606 2.8611 27.2527
#
#
#
# Elastic Compliance Matrix: (Units=1/GPa)
#
#
# Indices 1 2 3 4 5 6 
#
# 1 0.039708 -0.001839 -0.006727 0.014222 0.004399 -0.035242
# 2 -0.001839 0.016033 -0.006727 0.002604 0.004048 -0.010010
# 3 -0.006727 -0.006727 0.018718 -0.015822 -0.006650 0.006915
# 4 0.014222 0.002604 -0.015822 0.059897 0.004538 -0.025298
# 5 0.004399 0.004048 -0.006650 0.004538 0.040908 -0.009458
# 6 -0.035242 -0.010010 0.006915 -0.025298 -0.009458 0.082390
#
#
# Mechanical properties :
#
#
# Convention : Reuss Voigt Hill
#
# Bulk Modulus (GPa) = 22.79330 49.47534 36.13432
# Shear Modulus (GPa) = 16.50902 25.60431 21.05667
#
# Velocity S-wave (km/s) = 2.93301 3.65266 3.31244
# Velocity P-wave (km/s) = 4.83190 6.60075 5.78434
#
# Compressibility (1/GPa) = 0.04387253
#
# Stress axis : x y z
#
# Youngs Moduli (GPa) = 25.18358 62.37253 53.42352
#
# Poissons Ratio (x) = 0.11473 0.35937
# Poissons Ratio (y) = 0.04632 0.35940
# Poissons Ratio (z) = 0.16940 0.41960
#
# Static dielectric constant tensor:
#      x y z
#    x 2.362420 0.624500 0.923680 
#    y 0.624500 3.136190 -0.389480 
#    z 0.923680 -0.389480 2.676120 
# 
# 
# High freq. dielectric constant tensor:
#      x y z
#    x 1.729040 0.010430 0.011950 
#    y 0.010430 1.735620 0.004100 
#    z 0.011950 0.004100 1.731960 
# 
# From -- ./inp_files/200720.got.cif
#   From: 2010.06.25/outbox.cif.g09.slc.cpg/sg2_101_cif.got.tgz:200720.got - 2010.06.27 13:26:56.
