data_PCOD8043373
_publ_section_title
;
Structure prediction by ZEFSAII (Michael W. Deem and Ramdas Pophale) SiO2 
 PCOD8043373
Probable space group: P -1
;
_chemical_formula_sum "Si O2"
_cell_formula_units_Z 16
_cell_length_a 9.940068
_cell_length_b 14.091919
_cell_length_c 5.494036
_cell_angle_alpha 121.461205
_cell_angle_beta 97.730993
_cell_angle_gamma 86.838152
_cell_volume 650.372881
_symmetry_space_group_name_H-M "P -1"
_symmetry_group_IT_number 2
_symmetry_cell_setting 'triclinic'
loop_
_space_group_symop_operation_xyz
x,y,z
-x,-y,-z
loop_
_atom_site_type_symbol
_atom_site_label
_atom_site_fract_x
_atom_site_fract_y
_atom_site_fract_z
Si Si1 0.285052 0.479264 0.746696
Si Si2 0.219922 0.113616 0.625007
Si Si3 0.217850 0.867941 0.422046
Si Si4 0.994871 0.750673 0.477930
Si Si5 0.707517 0.739219 0.759094
Si Si6 0.453080 0.411239 0.117874
Si Si7 0.516849 0.811759 0.435160
Si Si8 0.916865 0.327749 0.096300
O O1 0.229059 0.349524 0.538316
O O2 0.352283 0.491773 0.048470
O O3 0.157671 0.555303 0.765385
O O4 0.412793 0.520479 0.657962
O O5 0.382598 0.123202 0.641908
O O6 0.139471 0.170587 0.454967
O O7 0.169057 0.987707 0.476897
O O8 0.186092 0.183997 0.958739
O O9 0.129052 0.831798 0.589124
O O10 0.377397 0.875535 0.526974
O O11 0.189539 0.776730 0.081337
O O12 0.999915 0.684874 0.647512
O O13 0.989815 0.671573 0.127483
O O14 0.594609 0.817241 0.719180
O O15 0.634886 0.645683 0.776002
O O16 0.510302 0.314807 0.822642
#
# Coordination Sequence:
#
# PCOD8043373 Si02
#       8
#     2   2   2   2   2   2   2   2
#     4  10  19  36  61  93 125 172 215 275 321 393
#     4  11  24  43  61  93 135 176 219 269 334 399
#     4  10  23  41  67  98 128 172 224 279 324 390
#     4  10  25  44  69  98 130 178 223 273 326 390
#     4  10  23  34  62  90 134 171 212 267 337 396
#     4   9  18  34  58  91 130 164 217 263 338 383
#     4  10  21  38  63  97 132 168 217 272 338 389
#     4  10  24  41  71  97 130 166 231 272 324 379
#
# _framework density 24.601271000000001
#
# number of rings (size 3 to 8) (size 9 to 14) (size 15 to 20)
#    0.750    1.250    1.250    1.125    5.250    2.000 
#    0.000    1.250    0.000    0.000    0.000    0.000 
#    0.000    0.000    0.000    0.000    0.000    0.000 
#
# Total GULP energy -198229.351865 kJ/mol
# GULP energy per Si atom -12389.334492 kJ/mol
# Density = 2.454528 g / cm^3
# Si number density = 24.601271 Si / 1000 Ang^3
#
#
#
# Elastic Constant Matrix: (Units=GPa)
#
#
# Indices 1 2 3 4 5 6 
#
# 1 87.0751 3.2365 5.8522 -5.3775 1.5586 -25.1969
# 2 3.2365 114.8692 41.8096 -2.6934 7.0414 -23.9829
# 3 5.8522 41.8096 77.7682 -9.3411 10.3898 -15.5820
# 4 -5.3775 -2.6934 -9.3411 39.0432 2.2938 8.8106
# 5 1.5586 7.0414 10.3898 2.2938 22.6208 -2.1135
# 6 -25.1969 -23.9829 -15.5820 8.8106 -2.1135 35.9831
#
#
#
# Elastic Compliance Matrix: (Units=1/GPa)
#
#
# Indices 1 2 3 4 5 6 
#
# 1 0.014816 0.002011 0.000213 -0.000414 -0.000593 0.011874
# 2 0.002011 0.012167 -0.005305 -0.001842 -0.000589 0.007637
# 3 0.000213 -0.005305 0.017593 0.003586 -0.006530 0.002970
# 4 -0.000414 -0.001842 0.003586 0.028164 -0.004567 -0.007129
# 5 -0.000593 -0.000589 -0.006530 -0.004567 0.047921 0.000297
# 6 0.011874 0.007637 0.002970 -0.007129 0.000297 0.044244
#
#
# Mechanical properties :
#
#
# Convention : Reuss Voigt Hill
#
# Bulk Modulus (GPa) = 26.03265 42.38987 34.21126
# Shear Modulus (GPa) = 27.19265 34.78372 30.98819
#
# Velocity S-wave (km/s) = 3.32827 3.76426 3.55296
# Velocity P-wave (km/s) = 5.03732 6.01341 5.54688
#
# Compressibility (1/GPa) = 0.03841331
#
# Stress axis : x y z
#
# Youngs Moduli (GPa) = 67.49324 82.18872 56.84089
#
# Poissons Ratio (x) = -0.16528 -0.01208
# Poissons Ratio (y) = -0.13572 0.30154
# Poissons Ratio (z) = -0.01434 0.43601
#
# Static dielectric constant tensor:
#      x y z
#    x 4.326840 0.081430 0.002030 
#    y 0.081430 4.232400 -0.028890 
#    z 0.002030 -0.028890 4.498010 
# 
# 
# High freq. dielectric constant tensor:
#      x y z
#    x 1.979910 0.008410 0.008390 
#    y 0.008410 1.977150 -0.004680 
#    z 0.008390 -0.004680 1.963630 
# 
# From -- ./inp_files/76775.got.cif
#   From: 2010.06.25/outbox.cif.g09.slc.cpg/sg2_39_cif.got.tgz:76775.got - 2010.06.27 13:26:56.
