data_PCOD8043016
_publ_section_title
;
Structure prediction by ZEFSAII (Michael W. Deem and Ramdas Pophale) SiO2 
 PCOD8043016
Probable space group: P -1
;
_chemical_formula_sum "Si O2"
_cell_formula_units_Z 12
_cell_length_a 15.986020
_cell_length_b 25.061543
_cell_length_c 6.638842
_cell_angle_alpha 133.368272
_cell_angle_beta 126.680455
_cell_angle_gamma 17.172787
_cell_volume 549.099908
_symmetry_space_group_name_H-M "P -1"
_symmetry_group_IT_number 2
_symmetry_cell_setting 'triclinic'
loop_
_space_group_symop_operation_xyz
x,y,z
-x,-y,-z
loop_
_atom_site_type_symbol
_atom_site_label
_atom_site_fract_x
_atom_site_fract_y
_atom_site_fract_z
Si Si1 0.431986 0.302557 0.392173
Si Si2 0.250631 0.494688 0.020340
Si Si3 0.805362 0.310085 0.559023
Si Si4 0.323820 0.000646 0.215937
Si Si5 0.876548 0.712037 0.396314
Si Si6 0.742443 0.198748 0.281980
O O1 0.393982 0.343519 0.680538
O O2 0.685192 0.190690 0.382050
O O3 0.117341 0.520522 0.397087
O O4 0.542583 0.146532 0.128319
O O5 0.177855 0.620616 0.130897
O O6 0.449918 0.383832 0.209842
O O7 0.966668 0.647160 0.119137
O O8 0.500000 0.500000 0.500000
O O9 0.819254 0.233238 0.539144
O O10 0.074120 0.124712 0.308495
O O11 0.580716 0.858649 0.370384
O O12 0.190411 0.158218 0.311129
O O13 0.000000 0.000000 0.000000
#
# Coordination Sequence:
#
# PCOD8043016 Si02
#       6
#     2   2   2   2   2   2
#     4  11  21  37  60  87 113 147 191 236 283 331
#     4   9  21  37  56  85 115 142 190 242 273 333
#     4   9  18  37  57  77 116 149 183 232 279 332
#     4  10  19  38  62  81 112 157 187 229 286 341
#     4   9  21  40  58  81 117 150 187 232 288 335
#     4  10  19  36  56  81 112 151 186 224 281 338
#
# _framework density 21.853949
#
# number of rings (size 3 to 8) (size 9 to 14) (size 15 to 20)
#    0.000    2.333    1.667    1.500    0.000    2.000 
#    3.000    7.500    0.000    0.000    0.000    0.000 
#    0.000    0.000    0.000    0.000    0.000    0.000 
#
# Total GULP energy -148701.153680 kJ/mol
# GULP energy per Si atom -12391.762807 kJ/mol
# Density = 2.180421 g / cm^3
# Si number density = 21.853949 Si / 1000 Ang^3
#
#
#
# Elastic Constant Matrix: (Units=GPa)
#
#
# Indices 1 2 3 4 5 6 
#
# 1 81.0789 20.7862 37.9872 4.4090 10.9103 -12.5281
# 2 20.7862 52.0471 17.6784 20.0111 -6.7770 -21.3128
# 3 37.9872 17.6784 134.1990 17.1282 16.6697 7.7962
# 4 4.4090 20.0111 17.1282 28.1705 4.1180 1.4588
# 5 10.9103 -6.7770 16.6697 4.1180 30.3522 7.5864
# 6 -12.5281 -21.3128 7.7962 1.4588 7.5864 28.0463
#
#
#
# Elastic Compliance Matrix: (Units=1/GPa)
#
#
# Indices 1 2 3 4 5 6 
#
# 1 0.017536 -0.005624 -0.004260 0.004595 -0.007474 0.006526
# 2 -0.005624 0.057162 -0.004675 -0.040853 0.012666 0.040924
# 3 -0.004260 -0.004675 0.010271 -0.001419 -0.003112 -0.007395
# 4 0.004595 -0.040853 -0.001419 0.067911 -0.011987 -0.028888
# 5 -0.007474 0.012666 -0.003112 -0.011987 0.042743 -0.003787
# 6 0.006526 0.040924 -0.007395 -0.028888 -0.003787 0.074252
#
#
# Mechanical properties :
#
#
# Convention : Reuss Voigt Hill
#
# Bulk Modulus (GPa) = 17.90474 46.69206 32.29840
# Shear Modulus (GPa) = 15.74266 30.03869 22.89068
#
# Velocity S-wave (km/s) = 2.68686 3.71147 3.23993
# Velocity P-wave (km/s) = 4.22331 6.30703 5.36726
#
# Compressibility (1/GPa) = 0.05585112
#
# Stress axis : x y z
#
# Youngs Moduli (GPa) = 57.02656 17.49420 97.36431
#
# Poissons Ratio (x) = 0.09838 0.41479
# Poissons Ratio (y) = 0.32069 0.45515
# Poissons Ratio (z) = 0.24294 0.08178
#
# Static dielectric constant tensor:
#      x y z
#    x 4.066150 0.233210 0.424620 
#    y 0.233210 3.191770 0.309700 
#    z 0.424620 0.309700 3.681660 
# 
# 
# High freq. dielectric constant tensor:
#      x y z
#    x 1.863920 -0.022250 0.023120 
#    y -0.022250 1.849650 0.039880 
#    z 0.023120 0.039880 1.837600 
# 
# From -- ./inp_files/18292.got.cif
#   From: 2010.06.25/outbox.cif.g09.slc.cpg/sg2_10_cif.got.tgz:18292.got - 2010.06.27 13:26:56.
