data_PCOD8043329
_publ_section_title
;
Structure prediction by ZEFSAII (Michael W. Deem and Ramdas Pophale) SiO2 
 PCOD8043329
Probable space group: P -1
;
_chemical_formula_sum "Si O2"
_cell_formula_units_Z 16
_cell_length_a 9.183487
_cell_length_b 12.465310
_cell_length_c 18.038004
_cell_angle_alpha 153.020521
_cell_angle_beta 132.119202
_cell_angle_gamma 46.093966
_cell_volume 666.113965
_symmetry_space_group_name_H-M "P -1"
_symmetry_group_IT_number 2
_symmetry_cell_setting 'triclinic'
loop_
_space_group_symop_operation_xyz
x,y,z
-x,-y,-z
loop_
_atom_site_type_symbol
_atom_site_label
_atom_site_fract_x
_atom_site_fract_y
_atom_site_fract_z
Si Si1 0.011184 0.929926 0.337280
Si Si2 0.759571 0.752453 0.901466
Si Si3 0.052716 0.874935 0.722967
Si Si4 0.242451 0.632546 0.872373
Si Si5 0.418314 0.539944 0.241580
Si Si6 0.779631 0.831594 0.796518
Si Si7 0.699906 0.675902 0.523270
Si Si8 0.886254 0.714963 0.293091
O O1 0.194509 0.688962 0.226453
O O2 0.837785 0.856590 0.284104
O O3 0.905653 0.065831 0.311232
O O4 0.106490 0.106293 0.526671
O O5 0.586065 0.721352 0.880908
O O6 0.668069 0.849316 0.849167
O O7 0.890880 0.472204 0.759683
O O8 0.896919 0.920889 0.081537
O O9 0.820124 0.864039 0.648661
O O10 0.191310 0.610203 0.633311
O O11 0.423460 0.527251 0.812373
O O12 0.271608 0.437084 0.830221
O O13 0.018797 0.668641 0.780195
O O14 0.242084 0.891414 0.066996
O O15 0.485684 0.722735 0.435664
O O16 0.666229 0.712589 0.622745
#
# Coordination Sequence:
#
# PCOD8043329 Si02
#       8
#     2   2   2   2   2   2   2   2
#     4  10  22  40  63  88 121 165 205 248 300 363
#     4  10  22  40  62  90 124 162 203 251 304 362
#     4  11  22  39  65  91 120 164 209 241 297 378
#     4  10  19  36  61  87 120 162 203 249 301 359
#     4  11  24  39  61  96 128 152 199 266 309 337
#     4  10  20  38  62  85 122 170 203 235 304 383
#     4  11  22  37  62  95 122 155 205 255 299 359
#     4   9  19  38  60  81 117 166 205 232 294 376
#
# _framework density 24.019914
#
# number of rings (size 3 to 8) (size 9 to 14) (size 15 to 20)
#    0.000    1.750    0.000    6.750    0.000    6.500 
#    0.000    5.000    0.000    9.000    0.000    0.000 
#    0.000    0.000    0.000    0.000    0.000    0.000 
#
# Total GULP energy -198315.121913 kJ/mol
# GULP energy per Si atom -12394.695120 kJ/mol
# Density = 2.396524 g / cm^3
# Si number density = 24.019914 Si / 1000 Ang^3
#
#
#
# Elastic Constant Matrix: (Units=GPa)
#
#
# Indices 1 2 3 4 5 6 
#
# 1 138.6313 35.6941 34.4787 10.9158 9.1476 34.5112
# 2 35.6941 41.4001 15.8865 5.3259 2.9447 24.7997
# 3 34.4787 15.8865 89.0822 5.8659 11.1467 8.9182
# 4 10.9158 5.3259 5.8659 30.4142 9.3664 7.0955
# 5 9.1476 2.9447 11.1467 9.3664 38.8701 6.6143
# 6 34.5112 24.7997 8.9182 7.0955 6.6143 42.2063
#
#
#
# Elastic Compliance Matrix: (Units=1/GPa)
#
#
# Indices 1 2 3 4 5 6 
#
# 1 0.010441 -0.004938 -0.002567 -0.001182 -0.000236 -0.004858
# 2 -0.004938 0.041764 -0.003815 -0.000989 0.002726 -0.019957
# 3 -0.002567 -0.003815 0.013106 -0.000479 -0.003114 0.002139
# 4 -0.001182 -0.000989 -0.000479 0.036743 -0.007801 -0.003306
# 5 -0.000236 0.002726 -0.003114 -0.007801 0.029027 -0.003989
# 6 -0.004858 -0.019957 0.002139 -0.003306 -0.003989 0.040120
#
#
# Mechanical properties :
#
#
# Convention : Reuss Voigt Hill
#
# Bulk Modulus (GPa) = 23.43483 49.02579 36.23031
# Shear Modulus (GPa) = 24.03088 34.50173 29.26630
#
# Velocity S-wave (km/s) = 3.16643 3.79407 3.49437
# Velocity P-wave (km/s) = 4.81103 6.29667 5.60331
#
# Compressibility (1/GPa) = 0.04267153
#
# Stress axis : x y z
#
# Youngs Moduli (GPa) = 95.77418 23.94408 76.29867
#
# Poissons Ratio (x) = 0.11825 0.19585
# Poissons Ratio (y) = 0.47297 0.29106
# Poissons Ratio (z) = 0.24584 0.09134
#
# Static dielectric constant tensor:
#      x y z
#    x 4.507690 0.424270 0.169460 
#    y 0.424270 4.120280 0.322420 
#    z 0.169460 0.322420 4.323540 
# 
# 
# High freq. dielectric constant tensor:
#      x y z
#    x 1.959680 0.028720 -0.005830 
#    y 0.028720 1.923290 0.023790 
#    z -0.005830 0.023790 1.953990 
# 
# From -- ./inp_files/560194.got.cif
#   From: 2010.06.25/outbox.cif.g09.slc.cpg/sg2_281_cif.got.tgz:560194.got - 2010.06.27 13:26:56.
