data_PCOD8043426
_publ_section_title
;
Structure prediction by ZEFSAII (Michael W. Deem and Ramdas Pophale) SiO2 
 PCOD8043426
Probable space group: P -1
;
_chemical_formula_sum "Si O2"
_cell_formula_units_Z 16
_cell_length_a 14.482217
_cell_length_b 11.006056
_cell_length_c 8.942426
_cell_angle_alpha 118.300412
_cell_angle_beta 78.005121
_cell_angle_gamma 139.597707
_cell_volume 783.559256
_symmetry_space_group_name_H-M "P -1"
_symmetry_group_IT_number 2
_symmetry_cell_setting 'triclinic'
loop_
_space_group_symop_operation_xyz
x,y,z
-x,-y,-z
loop_
_atom_site_type_symbol
_atom_site_label
_atom_site_fract_x
_atom_site_fract_y
_atom_site_fract_z
Si Si1 0.734345 0.520631 0.217773
Si Si2 0.051347 0.749496 0.528445
Si Si3 0.230316 0.273870 0.165203
Si Si4 0.078426 0.079928 0.789615
Si Si5 0.273144 0.863621 0.727035
Si Si6 0.724841 0.429751 0.498629
Si Si7 0.904915 0.456139 0.138165
Si Si8 0.543975 0.673763 0.975636
O O1 0.879046 0.771977 0.273505
O O2 0.708675 0.497432 0.390164
O O3 0.774973 0.409446 0.090129
O O4 0.592580 0.423502 0.128337
O O5 0.156707 0.755752 0.570893
O O6 0.893275 0.575314 0.562180
O O7 0.022517 0.678361 0.324068
O O8 0.126589 0.982896 0.662113
O O9 0.322428 0.517648 0.322432
O O10 0.334180 0.256209 0.135024
O O11 0.173367 0.228851 0.989897
O O12 0.095612 0.101898 0.225371
O O13 0.357986 0.812688 0.630515
O O14 0.179483 0.750012 0.848122
O O15 0.389609 0.118957 0.840916
O O16 0.000000 0.500000 0.000000
O O17 0.500000 0.500000 0.000000
#
# Coordination Sequence:
#
# PCOD8043426 Si02
#       8
#     2   2   2   2   2   2   2   2
#     4  10  22  39  60  83 133 157 189 247 309 359
#     4   9  17  36  59  88 118 156 197 250 302 348
#     4  10  21  35  62  92 112 151 216 246 293 354
#     4  10  19  36  62  91 116 155 203 257 297 342
#     4  10  20  39  63  83 122 164 193 248 307 354
#     4   9  21  36  57  91 120 157 193 251 308 353
#     4  10  23  36  60  96 123 151 202 248 303 359
#     4  12  23  41  63  87 119 169 205 243 299 365
#
# _framework density 20.419643000000001
#
# number of rings (size 3 to 8) (size 9 to 14) (size 15 to 20)
#    0.000    2.250    2.500    1.500    1.750    8.000 
#    0.000    0.625    5.500    0.000    0.000    0.000 
#    0.000    0.000    0.000    0.000    0.000    0.000 
#
# Total GULP energy -198232.556716 kJ/mol
# GULP energy per Si atom -12389.534795 kJ/mol
# Density = 2.037317 g / cm^3
# Si number density = 20.419643 Si / 1000 Ang^3
#
#
#
# Elastic Constant Matrix: (Units=GPa)
#
#
# Indices 1 2 3 4 5 6 
#
# 1 136.4160 44.1156 58.3769 1.4536 3.3982 -7.2356
# 2 44.1156 72.4108 40.9814 13.3988 -0.8270 -19.4296
# 3 58.3769 40.9814 116.9135 12.0723 -23.2861 -12.5451
# 4 1.4536 13.3988 12.0723 21.4913 -4.0832 -6.6544
# 5 3.3982 -0.8270 -23.2861 -4.0832 40.0287 1.6834
# 6 -7.2356 -19.4296 -12.5451 -6.6544 1.6834 32.0011
#
#
#
# Elastic Compliance Matrix: (Units=1/GPa)
#
#
# Indices 1 2 3 4 5 6 
#
# 1 0.011106 -0.005136 -0.005033 0.004139 -0.003490 -0.001536
# 2 -0.005136 0.023725 -0.004311 -0.009577 -0.002967 0.009718
# 3 -0.005033 -0.004311 0.014713 -0.003349 0.008519 0.000868
# 4 0.004139 -0.009577 -0.003349 0.056338 0.003024 0.005364
# 5 -0.003490 -0.002967 0.008519 0.003024 0.030491 -0.000226
# 6 -0.001536 0.009718 0.000868 0.005364 -0.000226 0.038270
#
#
# Mechanical properties :
#
#
# Convention : Reuss Voigt Hill
#
# Bulk Modulus (GPa) = 48.57910 68.07645 58.32777
# Shear Modulus (GPa) = 23.75703 30.85531 27.30617
#
# Velocity S-wave (km/s) = 3.41462 3.89145 3.66081
# Velocity P-wave (km/s) = 6.27600 7.32136 6.81874
#
# Compressibility (1/GPa) = 0.02058498
#
# Stress axis : x y z
#
# Youngs Moduli (GPa) = 90.03768 42.14982 67.96696
#
# Poissons Ratio (x) = 0.21649 0.34205
# Poissons Ratio (y) = 0.46245 0.29300
# Poissons Ratio (z) = 0.45312 0.18171
#
# Static dielectric constant tensor:
#      x y z
#    x 4.051270 -0.200360 -0.309530 
#    y -0.200360 3.639940 0.218360 
#    z -0.309530 0.218360 3.845200 
# 
# 
# High freq. dielectric constant tensor:
#      x y z
#    x 1.805430 -0.016720 -0.006800 
#    y -0.016720 1.771140 0.009750 
#    z -0.006800 0.009750 1.794710 
# 
# From -- ./inp_files/308319.got.cif
#   From: 2010.06.25/outbox.cif.g09.slc.cpg/sg2_155_cif.got.tgz:308319.got - 2010.06.27 13:26:56.
