data_PCOD8043332
_publ_section_title
;
Structure prediction by ZEFSAII (Michael W. Deem and Ramdas Pophale) SiO2 
 PCOD8043332
Probable space group: P -1
;
_chemical_formula_sum "Si O2"
_cell_formula_units_Z 12
_cell_length_a 16.424905
_cell_length_b 5.214892
_cell_length_c 13.119172
_cell_angle_alpha 129.056795
_cell_angle_beta 37.210091
_cell_angle_gamma 129.327462
_cell_volume 506.432934
_symmetry_space_group_name_H-M "P -1"
_symmetry_group_IT_number 2
_symmetry_cell_setting 'triclinic'
loop_
_space_group_symop_operation_xyz
x,y,z
-x,-y,-z
loop_
_atom_site_type_symbol
_atom_site_label
_atom_site_fract_x
_atom_site_fract_y
_atom_site_fract_z
Si Si1 0.424928 0.400197 0.734325
Si Si2 0.287784 0.625084 0.618752
Si Si3 0.426531 0.611429 0.005615
Si Si4 0.123479 0.267780 0.220161
Si Si5 0.804225 0.357576 0.072619
Si Si6 0.018203 0.406673 0.714917
O O1 0.582045 0.533680 0.564802
O O2 0.438227 0.380651 0.838006
O O3 0.338986 0.667445 0.854025
O O4 0.345312 0.033683 0.673884
O O5 0.201164 0.466386 0.767987
O O6 0.183894 0.523706 0.600547
O O7 0.500000 0.500000 0.000000
O O8 0.263226 0.561686 0.188265
O O9 0.500000 0.000000 0.000000
O O10 0.012405 0.444034 0.325444
O O11 0.044252 0.014119 0.327207
O O12 0.180844 0.028943 0.023133
O O13 0.937878 0.565119 0.923402
#
# Coordination Sequence:
#
# PCOD8043332 Si02
#       6
#     2   2   2   2   2   2
#     4  11  23  40  58  99 130 159 212 257 316 369
#     4  11  23  36  62  94 140 165 186 259 326 388
#     4  12  23  42  69  88 118 165 220 266 297 352
#     4  10  21  40  61  93 123 154 223 252 291 368
#     4  10  19  36  61  87 134 160 203 247 299 378
#     4  10  21  37  63  91 131 166 201 242 316 383
#
# _framework density 23.695143000000002
#
# number of rings (size 3 to 8) (size 9 to 14) (size 15 to 20)
#    1.000    0.333    3.333    3.000    2.333    1.333 
#    0.000    0.000    0.000    6.000    0.000    0.000 
#    0.000    0.000    0.000    0.000    0.000    0.000 
#
# Total GULP energy -148703.499731 kJ/mol
# GULP energy per Si atom -12391.958311 kJ/mol
# Density = 2.364121 g / cm^3
# Si number density = 23.695143 Si / 1000 Ang^3
#
#
#
# Elastic Constant Matrix: (Units=GPa)
#
#
# Indices 1 2 3 4 5 6 
#
# 1 139.3612 45.8937 -1.9409 4.4916 -39.1554 -9.0137
# 2 45.8937 118.9431 6.6721 -5.1086 -22.3535 1.7323
# 3 -1.9409 6.6721 38.5458 -8.5526 -27.5584 3.7753
# 4 4.4916 -5.1086 -8.5526 13.9579 8.8919 -7.5424
# 5 -39.1554 -22.3535 -27.5584 8.8919 35.5350 -8.3392
# 6 -9.0137 1.7323 3.7753 -7.5424 -8.3392 43.3717
#
#
#
# Elastic Compliance Matrix: (Units=1/GPa)
#
#
# Indices 1 2 3 4 5 6 
#
# 1 0.060999 0.000506 0.115201 -0.044821 0.174762 0.028437
# 2 0.000506 0.010265 0.007674 0.000834 0.013157 0.001702
# 3 0.115201 0.007674 0.282091 -0.072878 0.382855 0.060020
# 4 -0.044821 0.000834 -0.072878 0.125873 -0.138706 -0.007784
# 5 0.174762 0.013157 0.382855 -0.138706 0.581778 0.090208
# 6 0.028437 0.001702 0.060020 -0.007784 0.090208 0.039665
#
#
# Mechanical properties :
#
#
# Convention : Reuss Voigt Hill
#
# Bulk Modulus (GPa) = 1.66634 44.23331 22.94983
# Shear Modulus (GPa) = 4.74407 34.98794 19.86600
#
# Velocity S-wave (km/s) = 1.41650 3.84681 2.89865
# Velocity P-wave (km/s) = 1.83850 6.19990 4.57268
#
# Compressibility (1/GPa) = 0.60011678
#
# Stress axis : x y z
#
# Youngs Moduli (GPa) = 16.39373 97.41531 3.54496
#
# Poissons Ratio (x) = -0.04932 -0.40838
# Poissons Ratio (y) = -0.00830 -0.02720
# Poissons Ratio (z) = -1.88857 -0.74756
#
# Static dielectric constant tensor:
#      x y z
#    x 4.056450 0.078750 -0.144790 
#    y 0.078750 4.004970 -0.210190 
#    z -0.144790 -0.210190 4.096850 
# 
# 
# High freq. dielectric constant tensor:
#      x y z
#    x 1.934090 -0.005050 -0.021430 
#    y -0.005050 1.927260 -0.022150 
#    z -0.021430 -0.022150 1.917570 
# 
# From -- ./inp_files/526048.got.cif
#   From: 2010.06.25/outbox.cif.g09.slc.cpg/sg2_264_cif.got.tgz:526048.got - 2010.06.27 13:26:56.
