data_PCOD8043474
_publ_section_title
;
Structure prediction by ZEFSAII (Michael W. Deem and Ramdas Pophale) SiO2 
 PCOD8043474
Probable space group: P -1
;
_chemical_formula_sum "Si O2"
_cell_formula_units_Z 16
_cell_length_a 10.180920
_cell_length_b 9.080546
_cell_length_c 17.931497
_cell_angle_alpha 76.803518
_cell_angle_beta 154.641611
_cell_angle_gamma 99.568838
_cell_volume 688.027605
_symmetry_space_group_name_H-M "P -1"
_symmetry_group_IT_number 2
_symmetry_cell_setting 'triclinic'
loop_
_space_group_symop_operation_xyz
x,y,z
-x,-y,-z
loop_
_atom_site_type_symbol
_atom_site_label
_atom_site_fract_x
_atom_site_fract_y
_atom_site_fract_z
Si Si1 0.140681 0.744503 0.697841
Si Si2 0.909908 0.377092 0.683659
Si Si3 0.878639 0.195852 0.062066
Si Si4 0.249418 0.437884 0.565385
Si Si5 0.940560 0.320144 0.920118
Si Si6 0.493613 0.511217 0.155036
Si Si7 0.261466 0.138476 0.978277
Si Si8 0.756761 0.688037 0.640984
O O1 0.368138 0.583402 0.834511
O O2 0.919043 0.720096 0.515024
O O3 0.922177 0.781232 0.651885
O O4 0.386808 0.869668 0.807156
O O5 0.908629 0.438663 0.590307
O O6 0.903371 0.513076 0.726069
O O7 0.608187 0.291852 0.556462
O O8 0.203443 0.254045 0.864313
O O9 0.942354 0.215476 0.005876
O O10 0.593467 0.313542 0.930539
O O11 0.177570 0.237860 0.254928
O O12 0.796339 0.028432 0.058204
O O13 0.604311 0.408495 0.725159
O O14 0.245324 0.496021 0.643124
O O15 0.015654 0.200077 0.906895
O O16 0.190705 0.442795 0.040833
#
# Coordination Sequence:
#
# PCOD8043474 Si02
#       8
#     2   2   2   2   2   2   2   2
#     4  10  22  37  56  83 115 150 185 228 278 327
#     4  10  20  37  61  86 109 142 187 235 279 323
#     4  11  22  36  58  85 114 147 186 227 276 333
#     4  10  19  36  63  86 107 141 193 237 271 320
#     4  10  20  39  63  84 108 143 189 236 277 323
#     4  10  20  37  62  87 109 141 189 235 275 325
#     4  11  23  37  55  83 118 150 181 224 282 336
#     4  10  20  37  59  83 111 146 190 231 272 326
#
# _framework density 23.254878999999999
#
# number of rings (size 3 to 8) (size 9 to 14) (size 15 to 20)
#    0.000    1.750    0.000    7.500    0.000    5.500 
#    0.000    2.500    0.000   10.500    0.000    0.000 
#    0.000    0.000    0.000    0.000    0.000    0.000 
#
# Total GULP energy -198251.295315 kJ/mol
# GULP energy per Si atom -12390.705957 kJ/mol
# Density = 2.320195 g / cm^3
# Si number density = 23.254879 Si / 1000 Ang^3
#
#
#
# Elastic Constant Matrix: (Units=GPa)
#
#
# Indices 1 2 3 4 5 6 
#
# 1 81.4358 6.2079 5.9101 4.1878 -12.4371 0.8938
# 2 6.2079 110.4511 38.6041 20.7070 -15.3745 -0.1232
# 3 5.9101 38.6041 107.8999 32.8682 -8.6823 6.1950
# 4 4.1878 20.7070 32.8682 28.1358 -1.3226 -1.5142
# 5 -12.4371 -15.3745 -8.6823 -1.3226 32.4467 3.2771
# 6 0.8938 -0.1232 6.1950 -1.5142 3.2771 19.9433
#
#
#
# Elastic Compliance Matrix: (Units=1/GPa)
#
#
# Indices 1 2 3 4 5 6 
#
# 1 0.013203 0.000330 0.000507 -0.002644 0.005431 -0.001840
# 2 0.000330 0.011516 -0.001813 -0.006211 0.004912 -0.000659
# 3 0.000507 -0.001813 0.015914 -0.017534 0.003575 -0.006896
# 4 -0.002644 -0.006211 -0.017534 0.061259 -0.007301 0.011378
# 5 0.005431 0.004912 0.003575 -0.007301 0.036686 -0.007906
# 6 -0.001840 -0.000659 -0.006896 0.011378 -0.007906 0.054526
#
#
# Mechanical properties :
#
#
# Convention : Reuss Voigt Hill
#
# Bulk Modulus (GPa) = 25.85244 44.58122 35.21683
# Shear Modulus (GPa) = 24.04416 32.70949 28.37682
#
# Velocity S-wave (km/s) = 3.21898 3.75449 3.49700
# Velocity P-wave (km/s) = 4.99569 6.16500 5.61089
#
# Compressibility (1/GPa) = 0.03868107
#
# Stress axis : x y z
#
# Youngs Moduli (GPa) = 75.73875 86.83276 62.83883
#
# Poissons Ratio (x) = -0.02870 -0.03184
# Poissons Ratio (y) = -0.02503 0.11395
# Poissons Ratio (z) = -0.03837 0.15746
#
# Static dielectric constant tensor:
#      x y z
#    x 4.170080 -0.069960 0.153690 
#    y -0.069960 3.790590 0.335630 
#    z 0.153690 0.335630 4.692100 
# 
# 
# High freq. dielectric constant tensor:
#      x y z
#    x 1.925530 -0.012450 0.010550 
#    y -0.012450 1.872290 0.031450 
#    z 0.010550 0.031450 1.944990 
# 
# From -- ./inp_files/261513.got.cif
#   From: 2010.06.25/outbox.cif.g09.slc.cpg/sg2_131_cif.got.tgz:261513.got - 2010.06.27 13:26:56.
