data_PCOD8043781
_publ_section_title
;
Structure prediction by ZEFSAII (Michael W. Deem and Ramdas Pophale) SiO2 
 PCOD8043781
Probable space group: P -1
;
_chemical_formula_sum "Si O2"
_cell_formula_units_Z 16
_cell_length_a 10.190691
_cell_length_b 8.692156
_cell_length_c 18.525631
_cell_angle_alpha 126.680186
_cell_angle_beta 142.134195
_cell_angle_gamma 42.470957
_cell_volume 679.670061
_symmetry_space_group_name_H-M "P -1"
_symmetry_group_IT_number 2
_symmetry_cell_setting 'triclinic'
loop_
_space_group_symop_operation_xyz
x,y,z
-x,-y,-z
loop_
_atom_site_type_symbol
_atom_site_label
_atom_site_fract_x
_atom_site_fract_y
_atom_site_fract_z
Si Si1 0.555846 0.237913 0.543989
Si Si2 0.013882 0.597463 0.630918
Si Si3 0.212317 0.559352 0.109382
Si Si4 0.853076 0.004145 0.748269
Si Si5 0.728774 0.929066 0.818852
Si Si6 0.080988 0.176318 0.498464
Si Si7 0.533474 0.322557 0.319359
Si Si8 0.301057 0.649733 0.017163
O O1 0.265027 0.326897 0.442486
O O2 0.679317 0.081325 0.623807
O O3 0.593850 0.449971 0.622516
O O4 0.693751 0.084858 0.489881
O O5 0.170409 0.318450 0.626798
O O6 0.032016 0.667790 0.578133
O O7 0.085869 0.738608 0.757406
O O8 0.057476 0.825269 0.143569
O O9 0.442555 0.398385 0.218342
O O10 0.345736 0.528300 0.080898
O O11 0.000000 0.500000 0.000000
O O12 0.671431 0.017953 0.736997
O O13 0.543873 0.848072 0.736134
O O14 0.021504 0.719258 0.890896
O O15 0.684058 0.127120 0.909156
O O16 0.837256 0.178415 0.422291
O O17 0.500000 0.500000 0.000000
#
# Coordination Sequence:
#
# PCOD8043781 Si02
#       8
#     2   2   2   2   2   2   2   2
#     4   9  18  34  57  81 108 142 180 227 276 317
#     4   9  17  33  55  81 108 141 182 226 271 325
#     4  10  19  37  59  81 110 146 188 229 277 327
#     4   9  18  32  57  78 104 147 180 218 277 329
#     4  10  21  38  54  75 115 143 180 232 283 322
#     4   9  17  30  54  83 109 134 181 229 266 320
#     4  10  20  34  56  82 109 145 180 228 273 325
#     4  10  22  39  58  77 107 151 188 226 281 330
#
# _framework density 23.540832999999999
#
# number of rings (size 3 to 8) (size 9 to 14) (size 15 to 20)
#    0.000    2.500    1.250    1.500    0.000    4.000 
#    2.250    5.625    0.000    3.750    0.000    0.000 
#    0.000    0.000    0.000    0.000    0.000    0.000 
#
# Total GULP energy -198220.886351 kJ/mol
# GULP energy per Si atom -12388.805397 kJ/mol
# Density = 2.348725 g / cm^3
# Si number density = 23.540833 Si / 1000 Ang^3
#
#
#
# Elastic Constant Matrix: (Units=GPa)
#
#
# Indices 1 2 3 4 5 6 
#
# 1 91.1912 44.8621 20.4268 25.0402 8.3701 -3.5302
# 2 44.8621 97.3668 30.0896 35.5301 -0.2077 -11.3689
# 3 20.4268 30.0896 61.4569 27.7544 2.4244 -2.7499
# 4 25.0402 35.5301 27.7544 32.8425 -1.8130 2.0660
# 5 8.3701 -0.2077 2.4244 -1.8130 30.0023 12.1071
# 6 -3.5302 -11.3689 -2.7499 2.0660 12.1071 41.0068
#
#
#
# Elastic Compliance Matrix: (Units=1/GPa)
#
#
# Indices 1 2 3 4 5 6 
#
# 1 0.015895 -0.003999 0.001272 -0.009376 -0.006200 0.002648
# 2 -0.003999 0.019901 0.001032 -0.019960 -0.002903 0.007105
# 3 0.001272 0.001032 0.027643 -0.026140 -0.006358 0.005444
# 4 -0.009376 -0.019960 -0.026140 0.083275 0.016554 -0.017177
# 5 -0.006200 -0.002903 -0.006358 0.016554 0.042689 -0.015203
# 6 0.002648 0.007105 0.005444 -0.017177 -0.015203 0.032303
#
#
# Mechanical properties :
#
#
# Convention : Reuss Voigt Hill
#
# Bulk Modulus (GPa) = 16.65305 48.97465 32.81385
# Shear Modulus (GPa) = 20.39881 31.07943 25.73912
#
# Velocity S-wave (km/s) = 2.94688 3.63745 3.31022
# Velocity P-wave (km/s) = 4.32068 6.20408 5.34598
#
# Compressibility (1/GPa) = 0.06004906
#
# Stress axis : x y z
#
# Youngs Moduli (GPa) = 62.91455 50.24810 36.17559
#
# Poissons Ratio (x) = 0.20096 -0.04603
# Poissons Ratio (y) = 0.25162 -0.03734
# Poissons Ratio (z) = -0.08006 -0.05186
#
# Static dielectric constant tensor:
#      x y z
#    x 4.082390 -0.050720 -0.230830 
#    y -0.050720 4.634610 0.536570 
#    z -0.230830 0.536570 4.449850 
# 
# 
# High freq. dielectric constant tensor:
#      x y z
#    x 1.920870 0.003100 -0.003820 
#    y 0.003100 1.933530 0.025200 
#    z -0.003820 0.025200 1.929610 
# 
# From -- ./inp_files/557502.got.cif
#   From: 2010.06.25/outbox.cif.g09.slc.cpg/sg2_279_cif.got.tgz:557502.got - 2010.06.27 13:26:56.
