data_PCOD8043873
_publ_section_title
;
Structure prediction by ZEFSAII (Michael W. Deem and Ramdas Pophale) SiO2 
 PCOD8043873
Probable space group: P -1
;
_chemical_formula_sum "Si O2"
_cell_formula_units_Z 16
_cell_length_a 15.299392
_cell_length_b 9.584189
_cell_length_c 9.667077
_cell_angle_alpha 112.213469
_cell_angle_beta 83.059881
_cell_angle_gamma 141.475783
_cell_volume 778.835372
_symmetry_space_group_name_H-M "P -1"
_symmetry_group_IT_number 2
_symmetry_cell_setting 'triclinic'
loop_
_space_group_symop_operation_xyz
x,y,z
-x,-y,-z
loop_
_atom_site_type_symbol
_atom_site_label
_atom_site_fract_x
_atom_site_fract_y
_atom_site_fract_z
Si Si1 0.030298 0.557413 0.816178
Si Si2 0.630345 0.621758 0.831283
Si Si3 0.577652 0.215661 0.674482
Si Si4 0.702150 0.105050 0.265262
Si Si5 0.318442 0.272208 0.827945
Si Si6 0.087349 0.858857 0.153175
Si Si7 0.961779 0.979556 0.339992
Si Si8 0.139846 0.499044 0.379384
O O1 0.925207 0.271883 0.763225
O O2 0.981411 0.553260 0.675374
O O3 0.203488 0.745383 0.838394
O O4 0.013410 0.668959 0.969434
O O5 0.592508 0.408870 0.688869
O O6 0.485478 0.528579 0.838513
O O7 0.743392 0.865720 0.802548
O O8 0.700224 0.692317 0.997858
O O9 0.744152 0.382529 0.723525
O O10 0.500000 0.000000 0.500000
O O11 0.471073 0.080224 0.781358
O O12 0.774927 0.308958 0.441322
O O13 0.713125 0.948103 0.251986
O O14 0.208330 0.206680 0.719756
O O15 0.988506 0.868128 0.202692
O O16 0.000000 0.000000 0.500000
O O17 0.066509 0.249461 0.358956
#
# Coordination Sequence:
#
# PCOD8043873 Si02
#       8
#     2   2   2   2   2   2   2   2
#     4  11  23  39  61  90 122 167 205 250 312 371
#     4  10  19  41  65  92 126 158 211 256 307 373
#     4   9  20  35  60  95 119 153 204 257 305 365
#     4  10  19  37  60  89 119 158 209 246 302 373
#     4  10  22  37  66  94 120 166 206 254 312 368
#     4  11  24  40  59  91 130 159 203 262 310 366
#     4  12  25  40  60  94 128 161 209 261 312 361
#     4  11  21  37  64  88 120 165 209 251 308 369
#
# _framework density 20.543495
#
# number of rings (size 3 to 8) (size 9 to 14) (size 15 to 20)
#    0.000    1.500    3.750    1.125    3.500    1.000 
#    0.000    5.625    0.000    3.000    0.000    0.000 
#    0.000    0.000    0.000    0.000    0.000    0.000 
#
# Total GULP energy -198248.001006 kJ/mol
# GULP energy per Si atom -12390.500063 kJ/mol
# Density = 2.049674 g / cm^3
# Si number density = 20.543495 Si / 1000 Ang^3
#
#
#
# Elastic Constant Matrix: (Units=GPa)
#
#
# Indices 1 2 3 4 5 6 
#
# 1 92.1713 55.6134 39.9012 -0.9669 -5.4214 12.4529
# 2 55.6134 146.5789 25.9440 0.2631 -5.9909 1.1277
# 3 39.9012 25.9440 49.7638 5.5893 -3.2393 -6.0128
# 4 -0.9669 0.2631 5.5893 30.6146 -3.5279 -10.5407
# 5 -5.4214 -5.9909 -3.2393 -3.5279 35.4596 3.6464
# 6 12.4529 1.1277 -6.0128 -10.5407 3.6464 38.7682
#
#
#
# Elastic Compliance Matrix: (Units=1/GPa)
#
#
# Indices 1 2 3 4 5 6 
#
# 1 0.022793 -0.005570 -0.016485 0.000669 0.002105 -0.009732
# 2 -0.005570 0.008947 -0.000013 0.000352 0.000532 0.001573
# 3 -0.016485 -0.000013 0.034861 -0.003595 -0.000703 0.009791
# 4 0.000669 0.000352 -0.003595 0.036719 0.002565 0.008959
# 5 0.002105 0.000532 -0.000703 0.002565 0.029096 -0.002840
# 6 -0.009732 0.001573 0.009791 0.008959 -0.002840 0.033096
#
#
# Mechanical properties :
#
#
# Convention : Reuss Voigt Hill
#
# Bulk Modulus (GPa) = 44.51733 59.04791 51.78262
# Shear Modulus (GPa) = 23.02695 32.10551 27.56623
#
# Velocity S-wave (km/s) = 3.35160 3.95752 3.66710
# Velocity P-wave (km/s) = 6.05759 7.04897 6.57200
#
# Compressibility (1/GPa) = 0.02246316
#
# Stress axis : x y z
#
# Youngs Moduli (GPa) = 43.87407 111.76980 28.68527
#
# Poissons Ratio (x) = 0.62257 0.47289
# Poissons Ratio (y) = 0.24438 0.00038
# Poissons Ratio (z) = 0.72328 0.00147
#
# Static dielectric constant tensor:
#      x y z
#    x 3.949400 0.461040 -0.461670 
#    y 0.461040 4.524090 0.046390 
#    z -0.461670 0.046390 3.633480 
# 
# 
# High freq. dielectric constant tensor:
#      x y z
#    x 1.791410 0.020120 -0.043860 
#    y 0.020120 1.821770 0.018010 
#    z -0.043860 0.018010 1.785760 
# 
# From -- ./inp_files/205196.got.cif
#   From: 2010.06.25/outbox.cif.g09.slc.cpg/sg2_103_cif.got.tgz:205196.got - 2010.06.27 13:26:56.
