data_PCOD8043253
_publ_section_title
;
Structure prediction by ZEFSAII (Michael W. Deem and Ramdas Pophale) SiO2 
 PCOD8043253
Probable space group: P -1
;
_chemical_formula_sum "Si O2"
_cell_formula_units_Z 16
_cell_length_a 9.269042
_cell_length_b 16.945835
_cell_length_c 22.822045
_cell_angle_alpha 149.666707
_cell_angle_beta 151.177035
_cell_angle_gamma 33.927633
_cell_volume 831.996186
_symmetry_space_group_name_H-M "P -1"
_symmetry_group_IT_number 2
_symmetry_cell_setting 'triclinic'
loop_
_space_group_symop_operation_xyz
x,y,z
-x,-y,-z
loop_
_atom_site_type_symbol
_atom_site_label
_atom_site_fract_x
_atom_site_fract_y
_atom_site_fract_z
Si Si1 0.098163 0.065320 0.217508
Si Si2 0.931246 0.825630 0.514990
Si Si3 0.488356 0.171288 0.330312
Si Si4 0.820482 0.656810 0.998834
Si Si5 0.742767 0.122400 0.726761
Si Si6 0.702881 0.030351 0.954808
Si Si7 0.859005 0.483293 0.532097
Si Si8 0.654702 0.420214 0.300670
O O1 0.389955 0.065616 0.278779
O O2 0.926150 0.248165 0.294581
O O3 0.228697 0.954196 0.247929
O O4 0.839421 0.998123 0.048813
O O5 0.623438 0.788011 0.357071
O O6 0.144117 0.839907 0.543334
O O7 0.130183 0.673364 0.526416
O O8 0.860711 0.989246 0.632967
O O9 0.262783 0.356140 0.368501
O O10 0.466342 0.099096 0.210534
O O11 0.536006 0.783690 0.015029
O O12 0.067702 0.746474 0.122987
O O13 0.673747 0.593848 0.849371
O O14 0.000000 0.500000 0.000000
O O15 0.000000 0.000000 0.000000
O O16 0.611050 0.499948 0.400854
O O17 0.208986 0.468506 0.623241
#
# Coordination Sequence:
#
# PCOD8043253 Si02
#       8
#     2   2   2   2   2   2   2   2
#     4   9  19  37  59  86 118 150 200 242 288 349
#     4  11  22  37  56  87 123 154 195 239 294 349
#     4  10  20  37  60  86 115 159 191 238 300 347
#     4  11  22  39  61  87 118 156 199 241 297 352
#     4  11  23  37  58  87 118 156 194 247 289 345
#     4   9  19  37  62  88 115 153 194 242 295 346
#     4  10  19  36  60  88 120 149 196 243 285 350
#     4   9  19  35  60  89 116 153 195 242 288 340
#
# _framework density 19.230858000000001
#
# number of rings (size 3 to 8) (size 9 to 14) (size 15 to 20)
#    0.000    2.000    2.500    1.875    0.000    3.500 
#    0.000    2.500    0.000    4.500    0.000    0.000 
#    0.000    0.000    0.000    0.000    0.000    0.000 
#
# Total GULP energy -198313.836170 kJ/mol
# GULP energy per Si atom -12394.614761 kJ/mol
# Density = 1.918709 g / cm^3
# Si number density = 19.230858 Si / 1000 Ang^3
#
#
#
# Elastic Constant Matrix: (Units=GPa)
#
#
# Indices 1 2 3 4 5 6 
#
# 1 79.2121 41.3434 37.1844 -10.8774 17.9123 6.0194
# 2 41.3434 86.5189 40.0533 -6.7444 4.6550 6.8132
# 3 37.1844 40.0533 127.5809 -5.8642 12.8727 5.7633
# 4 -10.8774 -6.7444 -5.8642 26.6902 -2.1147 2.1807
# 5 17.9123 4.6550 12.8727 -2.1147 34.7451 3.4890
# 6 6.0194 6.8132 5.7633 2.1807 3.4890 26.9628
#
#
#
# Elastic Compliance Matrix: (Units=1/GPa)
#
#
# Indices 1 2 3 4 5 6 
#
# 1 0.020459 -0.007687 -0.002415 0.005341 -0.008148 -0.001486
# 2 -0.007687 0.016795 -0.003210 0.000848 0.003187 -0.002323
# 3 -0.002415 -0.003210 0.009774 0.000245 -0.001879 -0.000516
# 4 0.005341 0.000848 0.000245 0.040294 -0.000032 -0.004714
# 5 -0.008148 0.003187 -0.001879 -0.000032 0.033543 -0.002922
# 6 -0.001486 -0.002323 -0.000516 -0.004714 -0.002922 0.038877
#
#
# Mechanical properties :
#
#
# Convention : Reuss Voigt Hill
#
# Bulk Modulus (GPa) = 49.00829 58.94155 53.97492
# Shear Modulus (GPa) = 25.88453 29.32834 27.60643
#
# Velocity S-wave (km/s) = 3.67275 3.90945 3.79295
# Velocity P-wave (km/s) = 6.59735 7.14803 6.87820
#
# Compressibility (1/GPa) = 0.02040471
#
# Stress axis : x y z
#
# Youngs Moduli (GPa) = 48.87874 59.54217 102.31280
#
# Poissons Ratio (x) = 0.45767 0.24708
# Poissons Ratio (y) = 0.37571 0.32842
# Poissons Ratio (z) = 0.11804 0.19113
#
# Static dielectric constant tensor:
#      x y z
#    x 3.469870 -0.102530 0.010830 
#    y -0.102530 3.272860 0.099910 
#    z 0.010830 0.099910 4.269380 
# 
# 
# High freq. dielectric constant tensor:
#      x y z
#    x 1.739820 -0.005110 0.002900 
#    y -0.005110 1.724390 0.007910 
#    z 0.002900 0.007910 1.765910 
# 
# From -- ./inp_files/270492.got.cif
#   From: 2010.06.25/outbox.cif.g09.slc.cpg/sg2_136_cif.got.tgz:270492.got - 2010.06.27 13:26:56.
