data_PCOD8043691
_publ_section_title
;
Structure prediction by ZEFSAII (Michael W. Deem and Ramdas Pophale) SiO2 
 PCOD8043691
Probable space group: P -1
;
_chemical_formula_sum "Si O2"
_cell_formula_units_Z 16
_cell_length_a 11.676174
_cell_length_b 14.359865
_cell_length_c 16.806286
_cell_angle_alpha 38.664774
_cell_angle_beta 137.794889
_cell_angle_gamma 151.346309
_cell_volume 829.547256
_symmetry_space_group_name_H-M "P -1"
_symmetry_group_IT_number 2
_symmetry_cell_setting 'triclinic'
loop_
_space_group_symop_operation_xyz
x,y,z
-x,-y,-z
loop_
_atom_site_type_symbol
_atom_site_label
_atom_site_fract_x
_atom_site_fract_y
_atom_site_fract_z
Si Si1 0.374558 0.905692 0.373652
Si Si2 0.497092 0.153674 0.845165
Si Si3 0.436081 0.957356 0.790986
Si Si4 0.119206 0.286856 0.809787
Si Si5 0.976303 0.868606 0.809166
Si Si6 0.475804 0.225379 0.331296
Si Si7 0.071813 0.411230 0.150827
Si Si8 0.872811 0.039480 0.005116
O O1 0.404444 0.782054 0.527448
O O2 0.091160 0.741700 0.316294
O O3 0.529517 0.973237 0.328651
O O4 0.472727 0.116442 0.325719
O O5 0.694590 0.398642 0.805822
O O6 0.535366 0.144803 0.777489
O O7 0.242014 0.080645 0.772995
O O8 0.500000 0.000000 0.000000
O O9 0.150092 0.757054 0.791190
O O10 0.597721 0.912180 0.924517
O O11 0.371807 0.532578 0.773002
O O12 0.135780 0.143955 0.864587
O O13 0.063976 0.211555 0.922818
O O14 0.798359 0.898796 0.704351
O O15 0.861392 0.682843 0.810490
O O16 0.026361 0.826265 0.950443
O O17 0.000000 0.500000 0.000000
#
# Coordination Sequence:
#
# PCOD8043691 Si02
#       8
#     2   2   2   2   2   2   2   2
#     4  10  23  44  58  82 117 157 205 246 273 336
#     4  11  20  36  54  85 121 149 183 234 294 348
#     4  10  21  37  60  84 118 153 189 241 289 344
#     4  10  22  37  57  87 120 153 190 238 296 345
#     4  11  22  35  56  89 117 152 185 240 289 347
#     4  11  24  39  62  83 115 163 201 234 287 344
#     4  11  20  34  58  87 116 153 188 225 300 362
#     4  10  19  37  55  90 127 143 182 249 292 348
#
# _framework density 19.287628999999999
#
# number of rings (size 3 to 8) (size 9 to 14) (size 15 to 20)
#    0.000    1.500    5.000    0.375    3.500    3.500 
#    0.000    2.500    0.000    1.500    0.000    0.000 
#    0.000    0.000    0.000    0.000    0.000    0.000 
#
# Total GULP energy -198364.430270 kJ/mol
# GULP energy per Si atom -12397.776892 kJ/mol
# Density = 1.924373 g / cm^3
# Si number density = 19.287629 Si / 1000 Ang^3
#
#
#
# Elastic Constant Matrix: (Units=GPa)
#
#
# Indices 1 2 3 4 5 6 
#
# 1 136.5736 55.1281 37.1116 0.8126 -13.3580 -8.7515
# 2 55.1281 129.5707 27.0169 -1.9515 -2.5172 -10.1120
# 3 37.1116 27.0169 58.8072 1.3856 0.3451 -1.7125
# 4 0.8126 -1.9515 1.3856 22.2800 -1.6551 -0.3194
# 5 -13.3580 -2.5172 0.3451 -1.6551 23.1754 8.5714
# 6 -8.7515 -10.1120 -1.7125 -0.3194 8.5714 22.2716
#
#
#
# Elastic Compliance Matrix: (Units=1/GPa)
#
#
# Indices 1 2 3 4 5 6 
#
# 1 0.010662 -0.003328 -0.005235 0.000081 0.005860 0.000022
# 2 -0.003328 0.009897 -0.002346 0.001029 -0.002159 0.003851
# 3 -0.005235 -0.002346 0.021444 -0.001622 -0.003677 -0.000082
# 4 0.000081 0.001029 -0.001622 0.045330 0.003546 -0.000340
# 5 0.005860 -0.002159 -0.003677 0.003546 0.053864 -0.019640
# 6 0.000022 0.003851 -0.000082 -0.000340 -0.019640 0.054205
#
#
# Mechanical properties :
#
#
# Convention : Reuss Voigt Hill
#
# Bulk Modulus (GPa) = 49.54353 62.60720 56.07536
# Shear Modulus (GPa) = 22.32661 27.25840 24.79251
#
# Velocity S-wave (km/s) = 3.40599 3.76341 3.58915
# Velocity P-wave (km/s) = 6.41951 7.17040 6.80532
#
# Compressibility (1/GPa) = 0.02018427
#
# Stress axis : x y z
#
# Youngs Moduli (GPa) = 93.79076 101.04039 46.63355
#
# Poissons Ratio (x) = 0.33626 0.24414
# Poissons Ratio (y) = 0.31213 0.10941
# Poissons Ratio (z) = 0.49102 0.23705
#
# Static dielectric constant tensor:
#      x y z
#    x 3.725510 -0.058720 -0.010720 
#    y -0.058720 3.149190 0.204410 
#    z -0.010720 0.204410 3.210570 
# 
# 
# High freq. dielectric constant tensor:
#      x y z
#    x 1.773010 -0.002020 0.001370 
#    y -0.002020 1.749270 0.019970 
#    z 0.001370 0.019970 1.716010 
# 
# From -- ./inp_files/569530.got.cif
#   From: 2010.06.25/outbox.cif.g09.slc.cpg/sg2_285_cif.got.tgz:569530.got - 2010.06.27 13:26:56.
