data_PCOD8043953
_publ_section_title
;
Structure prediction by ZEFSAII (Michael W. Deem and Ramdas Pophale) SiO2 
 PCOD8043953
Probable space group: P -1
;
_chemical_formula_sum "Si O2"
_cell_formula_units_Z 14
_cell_length_a 12.708135
_cell_length_b 9.481563
_cell_length_c 9.643175
_cell_angle_alpha 122.930010
_cell_angle_beta 99.812630
_cell_angle_gamma 117.897838
_cell_volume 706.599242
_symmetry_space_group_name_H-M "P -1"
_symmetry_group_IT_number 2
_symmetry_cell_setting 'triclinic'
loop_
_space_group_symop_operation_xyz
x,y,z
-x,-y,-z
loop_
_atom_site_type_symbol
_atom_site_label
_atom_site_fract_x
_atom_site_fract_y
_atom_site_fract_z
Si Si1 0.079917 0.062544 0.905342
Si Si2 0.404002 0.655857 0.592550
Si Si3 0.233422 0.429178 0.923807
Si Si4 0.364103 0.283340 0.719650
Si Si5 0.379215 0.338453 0.209673
Si Si6 0.492040 0.074285 0.685427
Si Si7 0.164551 0.298696 0.545037
O O1 0.131236 0.291568 0.962802
O O2 0.224484 0.108482 0.993687
O O3 0.981372 0.860934 0.662859
O O4 0.000000 0.000000 0.000000
O O5 0.345483 0.474656 0.359449
O O6 0.556358 0.739637 0.722544
O O7 0.284633 0.539372 0.623858
O O8 0.432006 0.876546 0.674933
O O9 0.332361 0.366159 0.890569
O O10 0.344351 0.699863 0.115454
O O11 0.136934 0.353253 0.720533
O O12 0.516008 0.502325 0.806242
O O13 0.375089 0.101257 0.668866
O O14 0.235162 0.186064 0.525144
O O15 0.500000 0.000000 0.500000
#
# Coordination Sequence:
#
# PCOD8043953 Si02
#       7
#     2   2   2   2   2   2   2
#     4  12  21  35  66  91 117 163 209 243 287 376
#     4  10  20  36  61  93 122 154 200 256 298 350
#     4  10  23  40  60  93 124 156 201 250 309 351
#     4   9  20  39  63  90 119 158 200 255 298 350
#     4  10  19  37  61  91 120 154 208 244 300 353
#     4  12  21  34  65  96 121 152 204 258 299 349
#     4   9  22  39  60  88 124 160 202 242 304 360
#
# _framework density 19.813210999999999
#
# number of rings (size 3 to 8) (size 9 to 14) (size 15 to 20)
#    0.857    0.857    4.286    0.857    0.000    0.571 
#    0.000    0.000    3.143    4.286    0.000    0.000 
#    0.000    0.000    0.000    0.000    0.000    0.000 
#
# Total GULP energy -173433.141102 kJ/mol
# GULP energy per Si atom -12388.081507 kJ/mol
# Density = 1.976812 g / cm^3
# Si number density = 19.813211 Si / 1000 Ang^3
#
#
#
# Elastic Constant Matrix: (Units=GPa)
#
#
# Indices 1 2 3 4 5 6 
#
# 1 52.3314 33.8108 36.8770 7.1965 8.0332 -1.6647
# 2 33.8108 144.8554 50.1255 8.6601 4.4739 -0.1142
# 3 36.8770 50.1255 142.7012 -19.7078 15.7377 -5.7052
# 4 7.1965 8.6601 -19.7078 21.1215 -5.6552 -4.8987
# 5 8.0332 4.4739 15.7377 -5.6552 28.2822 -0.2096
# 6 -1.6647 -0.1142 -5.7052 -4.8987 -0.2096 39.3760
#
#
#
# Elastic Compliance Matrix: (Units=1/GPa)
#
#
# Indices 1 2 3 4 5 6 
#
# 1 0.031333 -0.002588 -0.009367 -0.020985 -0.007494 -0.002691
# 2 -0.002588 0.009088 -0.003456 -0.006408 -0.000071 -0.001381
# 3 -0.009367 -0.003456 0.013308 0.017721 -0.000627 0.003723
# 4 -0.020985 -0.006408 0.017721 0.079892 0.013175 0.011671
# 5 -0.007494 -0.000071 -0.000627 0.013175 0.040491 0.001447
# 6 -0.002691 -0.001381 0.003723 0.011671 0.001447 0.027278
#
#
# Mechanical properties :
#
#
# Convention : Reuss Voigt Hill
#
# Bulk Modulus (GPa) = 43.65695 64.61272 54.13483
# Shear Modulus (GPa) = 20.84671 32.36091 26.60381
#
# Velocity S-wave (km/s) = 3.24722 4.04579 3.66830
# Velocity P-wave (km/s) = 6.01177 7.38284 6.73230
#
# Compressibility (1/GPa) = 0.02290586
#
# Stress axis : x y z
#
# Youngs Moduli (GPa) = 31.91553 110.04122 75.14534
#
# Poissons Ratio (x) = 0.28479 0.70391
# Poissons Ratio (y) = 0.08260 0.25968
# Poissons Ratio (z) = 0.29896 0.38026
#
# Static dielectric constant tensor:
#      x y z
#    x 3.412170 0.057990 0.170580 
#    y 0.057990 3.986760 -0.082080 
#    z 0.170580 -0.082080 3.799040 
# 
# 
# High freq. dielectric constant tensor:
#      x y z
#    x 1.728760 0.021060 0.016570 
#    y 0.021060 1.781940 -0.026770 
#    z 0.016570 -0.026770 1.775840 
# 
# From -- ./inp_files/418216.got.cif
#   From: 2010.06.25/outbox.cif.g09.slc.cpg/sg2_210_cif.got.tgz:418216.got - 2010.06.27 13:26:56.
