data_PCOD8043493
_publ_section_title
;
Structure prediction by ZEFSAII (Michael W. Deem and Ramdas Pophale) SiO2 
 PCOD8043493
Probable space group: P -1
;
_chemical_formula_sum "Si O2"
_cell_formula_units_Z 16
_cell_length_a 9.198842
_cell_length_b 11.386032
_cell_length_c 21.706760
_cell_angle_alpha 30.741704
_cell_angle_beta 134.856820
_cell_angle_gamma 140.206943
_cell_volume 736.746849
_symmetry_space_group_name_H-M "P -1"
_symmetry_group_IT_number 2
_symmetry_cell_setting 'triclinic'
loop_
_space_group_symop_operation_xyz
x,y,z
-x,-y,-z
loop_
_atom_site_type_symbol
_atom_site_label
_atom_site_fract_x
_atom_site_fract_y
_atom_site_fract_z
Si Si1 0.950708 0.896157 0.665319
Si Si2 0.898461 0.822460 0.991258
Si Si3 0.180989 0.680985 0.743644
Si Si4 0.396666 0.098839 0.781028
Si Si5 0.448541 0.506966 0.717631
Si Si6 0.384555 0.092561 0.974051
Si Si7 0.632084 0.098247 0.732154
Si Si8 0.050380 0.589314 0.606437
O O1 0.694507 0.751595 0.679996
O O2 0.980420 0.730453 0.693222
O O3 0.999135 0.172524 0.529440
O O4 0.131447 0.933821 0.757066
O O5 0.721077 0.892337 0.870974
O O6 0.778890 0.527203 0.109701
O O7 0.000000 0.000000 0.000000
O O8 0.118739 0.884511 0.986455
O O9 0.112980 0.579679 0.700528
O O10 0.413399 0.946092 0.691872
O O11 0.422328 0.323023 0.734725
O O12 0.553893 0.213505 0.715647
O O13 0.488575 0.903556 0.925517
O O14 0.248107 0.597675 0.615444
O O15 0.418604 0.372035 0.836691
O O16 0.500000 0.000000 0.000000
O O17 0.817327 0.328872 0.643043
#
# Coordination Sequence:
#
# PCOD8043493 Si02
#       8
#     2   2   2   2   2   2   2   2
#     4  11  26  43  64  92 128 175 216 255 310 380
#     4  12  19  39  67  93 131 161 204 267 321 375
#     4  11  24  41  66  97 126 166 212 263 318 378
#     4  10  23  41  64  94 126 167 211 261 318 378
#     4  11  23  42  64  90 127 172 211 263 316 368
#     4  10  19  36  63  89 124 164 201 253 320 368
#     4  11  23  40  66  98 127 167 210 261 320 376
#     4  12  24  43  65  94 130 168 215 262 312 372
#
# _framework density 21.717093999999999
#
# number of rings (size 3 to 8) (size 9 to 14) (size 15 to 20)
#    0.000    1.000    3.750    3.375    0.000    5.000 
#    0.000    0.000    0.000    0.000    0.000    0.000 
#    0.000    0.000    0.000    0.000    0.000    0.000 
#
# Total GULP energy -198396.400686 kJ/mol
# GULP energy per Si atom -12399.775043 kJ/mol
# Density = 2.166767 g / cm^3
# Si number density = 21.717094 Si / 1000 Ang^3
#
#
#
# Elastic Constant Matrix: (Units=GPa)
#
#
# Indices 1 2 3 4 5 6 
#
# 1 98.1201 38.8033 5.4097 -5.1161 6.1623 18.9492
# 2 38.8033 83.8800 18.1346 -20.2303 -13.4083 24.4343
# 3 5.4097 18.1346 72.7314 -20.1858 4.8556 2.9737
# 4 -5.1161 -20.2303 -20.1858 27.0214 1.4451 -2.4488
# 5 6.1623 -13.4083 4.8556 1.4451 30.3721 -10.1182
# 6 18.9492 24.4343 2.9737 -2.4488 -10.1182 31.6687
#
#
#
# Elastic Compliance Matrix: (Units=1/GPa)
#
#
# Indices 1 2 3 4 5 6 
#
# 1 0.014435 -0.006792 0.000910 -0.001803 -0.008050 -0.006194
# 2 -0.006792 0.022686 -0.001607 0.013196 0.007761 -0.009789
# 3 0.000910 -0.001607 0.017939 0.012488 -0.004884 -0.001584
# 4 -0.001803 0.013196 0.012488 0.055343 -0.000488 -0.006152
# 5 -0.008050 0.007761 -0.004884 -0.000488 0.043129 0.013030
# 6 -0.006194 -0.009789 -0.001584 -0.006152 0.013030 0.046672
#
#
# Mechanical properties :
#
#
# Convention : Reuss Voigt Hill
#
# Bulk Modulus (GPa) = 24.94832 42.15851 33.55341
# Shear Modulus (GPa) = 21.87782 30.63803 26.25792
#
# Velocity S-wave (km/s) = 3.17740 3.76011 3.48097
# Velocity P-wave (km/s) = 4.99740 6.18918 5.62494
#
# Compressibility (1/GPa) = 0.04008287
#
# Stress axis : x y z
#
# Youngs Moduli (GPa) = 69.27518 44.08051 55.74496
#
# Poissons Ratio (x) = 0.29939 -0.05074
# Poissons Ratio (y) = 0.47051 0.08957
# Poissons Ratio (z) = -0.06305 0.07083
#
# Static dielectric constant tensor:
#      x y z
#    x 4.170680 0.096650 -0.110080 
#    y 0.096650 3.810030 0.955910 
#    z -0.110080 0.955910 7.341200 
# 
# 
# High freq. dielectric constant tensor:
#      x y z
#    x 1.869530 0.015780 0.009790 
#    y 0.015780 1.841850 -0.002650 
#    z 0.009790 -0.002650 1.848150 
# 
# From -- ./inp_files/259018.got.cif
#   From: 2010.06.25/outbox.cif.g09.slc.cpg/sg2_130_cif.got.tgz:259018.got - 2010.06.27 13:26:56.
