data_PCOD8043340
_publ_section_title
;
Structure prediction by ZEFSAII (Michael W. Deem and Ramdas Pophale) SiO2 
 PCOD8043340
Probable space group: P -1
;
_chemical_formula_sum "Si O2"
_cell_formula_units_Z 16
_cell_length_a 15.018000
_cell_length_b 11.578724
_cell_length_c 11.689282
_cell_angle_alpha 99.358544
_cell_angle_beta 151.701693
_cell_angle_gamma 65.273345
_cell_volume 768.935480
_symmetry_space_group_name_H-M "P -1"
_symmetry_group_IT_number 2
_symmetry_cell_setting 'triclinic'
loop_
_space_group_symop_operation_xyz
x,y,z
-x,-y,-z
loop_
_atom_site_type_symbol
_atom_site_label
_atom_site_fract_x
_atom_site_fract_y
_atom_site_fract_z
Si Si1 0.620840 0.624884 0.701429
Si Si2 0.856846 0.804066 0.332820
Si Si3 0.640316 0.359001 0.056885
Si Si4 0.544964 0.036139 0.708627
Si Si5 0.077175 0.287953 0.861460
Si Si6 0.433472 0.874709 0.006337
Si Si7 0.578387 0.506561 0.406720
Si Si8 0.731995 0.064914 0.707598
O O1 0.638423 0.580630 0.582120
O O2 0.596318 0.524349 0.742445
O O3 0.397821 0.790839 0.492763
O O4 0.852513 0.609210 0.996951
O O5 0.902294 0.721686 0.252748
O O6 0.653987 0.807246 0.164217
O O7 0.088124 0.708364 0.654868
O O8 0.780841 0.967560 0.255424
O O9 0.500000 0.500000 0.000000
O O10 0.634412 0.235342 0.091314
O O11 0.540826 0.390072 0.821291
O O12 0.492127 0.114131 0.781351
O O13 0.615454 0.110381 0.709481
O O14 0.312575 0.048917 0.412844
O O15 0.762465 0.868713 0.926117
O O16 0.814530 0.356772 0.611092
O O17 0.000000 0.000000 0.000000
#
# Coordination Sequence:
#
# PCOD8043340 Si02
#       8
#     2   2   2   2   2   2   2   2
#     4  10  23  38  60  87 119 163 203 250 310 373
#     4  10  23  43  66  93 122 168 215 257 320 371
#     4  12  25  41  64  95 129 165 210 264 317 375
#     4   9  20  36  59  91 118 158 210 257 312 369
#     4  10  20  39  62  84 121 161 204 255 308 370
#     4  10  23  42  64  91 128 165 213 263 310 379
#     4  11  23  40  58  89 124 160 205 250 311 379
#     4  10  19  36  61  88 122 157 204 263 313 366
#
# _framework density 20.807988000000002
#
# number of rings (size 3 to 8) (size 9 to 14) (size 15 to 20)
#    0.000    1.750    1.250    2.250    1.750    3.500 
#    0.000    3.750    0.000    0.000    0.000    0.000 
#    0.000    0.000    0.000    0.000    0.000    0.000 
#
# Total GULP energy -198429.368045 kJ/mol
# GULP energy per Si atom -12401.835503 kJ/mol
# Density = 2.076063 g / cm^3
# Si number density = 20.807988 Si / 1000 Ang^3
#
#
#
# Elastic Constant Matrix: (Units=GPa)
#
#
# Indices 1 2 3 4 5 6 
#
# 1 89.8425 29.5713 27.8856 3.1382 -1.1776 -8.1204
# 2 29.5713 79.3926 19.9440 3.8170 1.0224 -5.3537
# 3 27.8856 19.9440 108.3402 4.0199 4.9051 -3.0444
# 4 3.1382 3.8170 4.0199 20.4678 -1.2800 -2.7318
# 5 -1.1776 1.0224 4.9051 -1.2800 25.2538 -1.5868
# 6 -8.1204 -5.3537 -3.0444 -2.7318 -1.5868 34.9170
#
#
#
# Elastic Compliance Matrix: (Units=1/GPa)
#
#
# Indices 1 2 3 4 5 6 
#
# 1 0.013606 -0.004232 -0.002710 -0.000364 0.001459 0.002317
# 2 -0.004232 0.014704 -0.001503 -0.001700 -0.000525 0.000982
# 3 -0.002710 -0.001503 0.010353 -0.001496 -0.002163 -0.000173
# 4 -0.000364 -0.001700 -0.001496 0.050198 0.003112 0.003593
# 5 0.001459 -0.000525 -0.002163 0.003112 0.040400 0.002150
# 6 0.002317 0.000982 -0.000173 0.003593 0.002150 0.029692
#
#
# Mechanical properties :
#
#
# Convention : Reuss Voigt Hill
#
# Bulk Modulus (GPa) = 45.93006 48.04188 46.98597
# Shear Modulus (GPa) = 27.30707 29.47269 28.38988
#
# Velocity S-wave (km/s) = 3.62655 3.76761 3.69775
# Velocity P-wave (km/s) = 6.29738 6.48574 6.39225
#
# Compressibility (1/GPa) = 0.02177224
#
# Stress axis : x y z
#
# Youngs Moduli (GPa) = 73.49652 68.00747 96.58948
#
# Poissons Ratio (x) = 0.28781 0.26180
# Poissons Ratio (y) = 0.31104 0.14519
# Poissons Ratio (z) = 0.19921 0.10222
#
# Static dielectric constant tensor:
#      x y z
#    x 3.752440 0.011430 -0.123840 
#    y 0.011430 3.737830 0.024940 
#    z -0.123840 0.024940 3.754930 
# 
# 
# High freq. dielectric constant tensor:
#      x y z
#    x 1.818920 -0.000430 -0.004460 
#    y -0.000430 1.813920 0.004150 
#    z -0.004460 0.004150 1.814310 
# 
# From -- ./inp_files/274514.got.cif
#   From: 2010.06.25/outbox.cif.g09.slc.cpg/sg2_138_cif.got.tgz:274514.got - 2010.06.27 13:26:56.
