data_PCOD8043731
_publ_section_title
;
Structure prediction by ZEFSAII (Michael W. Deem and Ramdas Pophale) SiO2 
 PCOD8043731
Probable space group: P -1
;
_chemical_formula_sum "Si O2"
_cell_formula_units_Z 16
_cell_length_a 12.600064
_cell_length_b 13.882071
_cell_length_c 14.163857
_cell_angle_alpha 32.197594
_cell_angle_beta 144.222838
_cell_angle_gamma 129.125836
_cell_volume 759.424134
_symmetry_space_group_name_H-M "P -1"
_symmetry_group_IT_number 2
_symmetry_cell_setting 'triclinic'
loop_
_space_group_symop_operation_xyz
x,y,z
-x,-y,-z
loop_
_atom_site_type_symbol
_atom_site_label
_atom_site_fract_x
_atom_site_fract_y
_atom_site_fract_z
Si Si1 0.269549 0.720131 0.288687
Si Si2 0.637186 0.173224 0.030914
Si Si3 0.332685 0.586434 0.972080
Si Si4 0.961769 0.139895 0.157947
Si Si5 0.416113 0.803180 0.513428
Si Si6 0.062103 0.474765 0.240487
Si Si7 0.337861 0.901776 0.581244
Si Si8 0.594738 0.783184 0.356436
O O1 0.264398 0.769934 0.354175
O O2 0.182170 0.535636 0.364346
O O3 0.482221 0.691895 0.429954
O O4 0.151587 0.880435 0.004802
O O5 0.630413 0.342316 0.956480
O O6 0.490064 0.242038 0.786612
O O7 0.839714 0.107848 0.186459
O O8 0.587832 0.997988 0.196432
O O9 0.434620 0.378184 0.207320
O O10 0.409592 0.710995 0.845390
O O11 0.114230 0.599788 0.785645
O O12 0.005519 0.347364 0.022465
O O13 0.146813 0.992149 0.417047
O O14 0.306305 0.865457 0.478246
O O15 0.514600 0.965015 0.411169
O O16 0.193818 0.320581 0.402727
#
# Coordination Sequence:
#
# PCOD8043731 Si02
#       8
#     2   2   2   2   2   2   2   2
#     4   9  20  37  62  87 117 160 199 242 297 352
#     4  10  22  35  61  90 121 157 198 240 300 359
#     4  12  24  40  61  92 122 158 199 244 300 358
#     4   9  21  40  56  91 119 157 194 241 300 349
#     4  11  23  42  67  85 116 160 203 251 299 346
#     4  10  21  36  58  86 126 154 194 241 295 359
#     4  11  24  43  62  88 121 155 204 251 294 354
#     4  10  19  37  57  90 124 155 196 246 290 359
#
# _framework density 21.068597
#
# number of rings (size 3 to 8) (size 9 to 14) (size 15 to 20)
#    0.750    1.000    1.250    3.000    1.750    4.000 
#    0.000    1.875    0.000    0.000    0.000    0.000 
#    0.000    0.000    0.000    0.000    0.000    0.000 
#
# Total GULP energy -198382.637058 kJ/mol
# GULP energy per Si atom -12398.914816 kJ/mol
# Density = 2.102064 g / cm^3
# Si number density = 21.068597 Si / 1000 Ang^3
#
#
#
# Elastic Constant Matrix: (Units=GPa)
#
#
# Indices 1 2 3 4 5 6 
#
# 1 54.4364 19.6574 12.4741 -8.5171 -4.5909 10.3310
# 2 19.6574 85.7305 14.4625 -16.3136 -7.2775 4.6328
# 3 12.4741 14.4625 39.2840 -15.2478 -8.0077 8.7044
# 4 -8.5171 -16.3136 -15.2478 23.9821 1.8446 -3.4843
# 5 -4.5909 -7.2775 -8.0077 1.8446 29.8748 -1.1284
# 6 10.3310 4.6328 8.7044 -3.4843 -1.1284 29.5331
#
#
#
# Elastic Compliance Matrix: (Units=1/GPa)
#
#
# Indices 1 2 3 4 5 6 
#
# 1 0.022000 -0.003632 -0.003165 0.002380 0.001279 -0.005864
# 2 -0.003632 0.014285 -0.000634 0.007883 0.002274 0.000234
# 3 -0.003165 -0.000634 0.038071 0.020985 0.007995 -0.007233
# 4 0.002380 0.007883 0.020985 0.060796 0.004122 -0.000924
# 5 0.001279 0.002274 0.007995 0.004122 0.036063 -0.001296
# 6 -0.005864 0.000234 -0.007233 -0.000924 -0.001296 0.037848
#
#
# Mechanical properties :
#
#
# Convention : Reuss Voigt Hill
#
# Bulk Modulus (GPa) = 16.80852 30.29322 23.55087
# Shear Modulus (GPa) = 20.51223 25.53512 23.02368
#
# Velocity S-wave (km/s) = 3.12363 3.48515 3.30933
# Velocity P-wave (km/s) = 4.58309 5.53215 5.07983
#
# Compressibility (1/GPa) = 0.05949364
#
# Stress axis : x y z
#
# Youngs Moduli (GPa) = 45.45464 70.00496 26.26640
#
# Poissons Ratio (x) = 0.25427 0.08313
# Poissons Ratio (y) = 0.16510 0.01666
# Poissons Ratio (z) = 0.14386 0.04439
#
# Static dielectric constant tensor:
#      x y z
#    x 3.583240 0.035140 -0.050220 
#    y 0.035140 3.830130 -0.086490 
#    z -0.050220 -0.086490 3.526220 
# 
# 
# High freq. dielectric constant tensor:
#      x y z
#    x 1.806010 0.003880 -0.004700 
#    y 0.003880 1.828010 -0.007270 
#    z -0.004700 -0.007270 1.817020 
# 
# From -- ./inp_files/522224.got.cif
#   From: 2010.06.25/outbox.cif.g09.slc.cpg/sg2_262_cif.got.tgz:522224.got - 2010.06.27 13:26:56.
