data_PCOD8043716
_publ_section_title
;
Structure prediction by ZEFSAII (Michael W. Deem and Ramdas Pophale) SiO2 
 PCOD8043716
Probable space group: P -1
;
_chemical_formula_sum "Si O2"
_cell_formula_units_Z 16
_cell_length_a 10.185962
_cell_length_b 5.198696
_cell_length_c 34.321272
_cell_angle_alpha 107.114087
_cell_angle_beta 31.433869
_cell_angle_gamma 120.566492
_cell_volume 775.652569
_symmetry_space_group_name_H-M "P -1"
_symmetry_group_IT_number 2
_symmetry_cell_setting 'triclinic'
loop_
_space_group_symop_operation_xyz
x,y,z
-x,-y,-z
loop_
_atom_site_type_symbol
_atom_site_label
_atom_site_fract_x
_atom_site_fract_y
_atom_site_fract_z
Si Si1 0.779612 0.677334 0.964785
Si Si2 0.332521 0.057334 0.366096
Si Si3 0.279895 0.953642 0.588344
Si Si4 0.151898 0.321847 0.586267
Si Si5 0.457491 0.239757 0.637866
Si Si6 0.250229 0.736564 0.975437
Si Si7 0.100076 0.993162 0.182594
Si Si8 0.106459 0.704946 0.813143
O O1 0.777376 0.427013 0.983694
O O2 0.070451 0.813130 0.869969
O O3 0.783782 0.962568 0.998310
O O4 0.500000 0.500000 0.000000
O O5 0.383702 0.384930 0.383614
O O6 0.554355 0.104557 0.277033
O O7 0.363584 0.868117 0.385382
O O8 0.008503 0.851268 0.420825
O O9 0.071197 0.579864 0.632068
O O10 0.500000 0.000000 0.500000
O O11 0.069022 0.077754 0.632130
O O12 0.466839 0.140308 0.587022
O O13 0.500000 0.500000 0.500000
O O14 0.115731 0.070404 0.729288
O O15 0.564134 0.840973 0.880708
O O16 0.000000 0.500000 0.000000
O O17 0.082160 0.227669 0.167037
O O18 0.011907 0.664147 0.170274
#
# Coordination Sequence:
#
# PCOD8043716 Si02
#       8
#     2   2   2   2   2   2   2   2
#     4  12  21  38  63  81 113 161 201 236 291 345
#     4  10  21  39  61  88 117 148 201 244 277 346
#     4  10  21  40  60  86 121 152 184 234 294 351
#     4  10  21  40  60  85 123 151 177 240 298 340
#     4  10  21  38  63  84 114 156 201 233 288 341
#     4  12  24  38  55  86 125 149 196 246 293 342
#     4  10  19  37  57  83 115 154 190 247 288 338
#     4  10  20  35  61  86 108 151 205 244 278 335
#
# _framework density 20.627794000000002
#
# number of rings (size 3 to 8) (size 9 to 14) (size 15 to 20)
#    0.000    1.500    2.500    3.000    0.000    0.000 
#    4.500   15.000    0.000    0.000    0.000    0.000 
#    0.000    0.000    0.000    0.000    0.000    0.000 
#
# Total GULP energy -198384.832252 kJ/mol
# GULP energy per Si atom -12399.052016 kJ/mol
# Density = 2.058084 g / cm^3
# Si number density = 20.627794 Si / 1000 Ang^3
#
#
#
# Elastic Constant Matrix: (Units=GPa)
#
#
# Indices 1 2 3 4 5 6 
#
# 1 126.3008 60.9537 33.8397 2.3356 -4.9586 -1.4623
# 2 60.9537 138.9897 26.8909 5.3166 -5.4220 -6.5294
# 3 33.8397 26.8909 74.0572 3.5097 -2.0134 17.1717
# 4 2.3356 5.3166 3.5097 16.6413 8.2274 -1.2218
# 5 -4.9586 -5.4220 -2.0134 8.2274 19.2688 -3.7548
# 6 -1.4623 -6.5294 17.1717 -1.2218 -3.7548 53.3072
#
#
#
# Elastic Compliance Matrix: (Units=1/GPa)
#
#
# Indices 1 2 3 4 5 6 
#
# 1 0.010903 -0.003929 -0.003767 -0.000194 0.001611 0.001140
# 2 -0.003929 0.009640 -0.001860 -0.003705 0.003446 0.001830
# 3 -0.003767 -0.001860 0.017459 -0.003278 0.000564 -0.005991
# 4 -0.000194 -0.003705 -0.003278 0.079483 -0.035387 -0.000074
# 5 0.001611 0.003446 0.000564 -0.035387 0.069298 0.004355
# 6 0.001140 0.001830 -0.005991 -0.000074 0.004355 0.021249
#
#
# Mechanical properties :
#
#
# Convention : Reuss Voigt Hill
#
# Bulk Modulus (GPa) = 52.93617 64.74625 58.84121
# Shear Modulus (GPa) = 21.41863 32.35437 26.88650
#
# Velocity S-wave (km/s) = 3.22582 3.96471 3.61420
# Velocity P-wave (km/s) = 6.29228 7.23979 6.78260
#
# Compressibility (1/GPa) = 0.01889067
#
# Stress axis : x y z
#
# Youngs Moduli (GPa) = 91.71785 103.73697 57.27561
#
# Poissons Ratio (x) = 0.40757 0.21575
# Poissons Ratio (y) = 0.36035 0.10654
# Poissons Ratio (z) = 0.34549 0.19296
#
# Static dielectric constant tensor:
#      x y z
#    x 0.588930 3.724690 0.022250 
#    y 3.724690 -0.745700 0.227400 
#    z 0.022250 0.227400 3.831600 
# 
# 
# High freq. dielectric constant tensor:
#      x y z
#    x 1.810850 -0.027510 0.001020 
#    y -0.027510 1.818260 0.001510 
#    z 0.001020 0.001510 1.791400 
# 
# From -- ./inp_files/605683.got.cif
#   From: 2010.06.25/outbox.cif.g09.slc.cpg/sg2_303_cif.got.tgz:605683.got - 2010.06.27 13:26:56.
