data_PCOD8043343
_publ_section_title
;
Structure prediction by ZEFSAII (Michael W. Deem and Ramdas Pophale) SiO2 
 PCOD8043343
Probable space group: P -1
;
_chemical_formula_sum "Si O2"
_cell_formula_units_Z 16
_cell_length_a 21.361760
_cell_length_b 9.495307
_cell_length_c 19.514080
_cell_angle_alpha 144.035309
_cell_angle_beta 151.924164
_cell_angle_gamma 27.144906
_cell_volume 844.489319
_symmetry_space_group_name_H-M "P -1"
_symmetry_group_IT_number 2
_symmetry_cell_setting 'triclinic'
loop_
_space_group_symop_operation_xyz
x,y,z
-x,-y,-z
loop_
_atom_site_type_symbol
_atom_site_label
_atom_site_fract_x
_atom_site_fract_y
_atom_site_fract_z
Si Si1 0.795566 0.946399 0.846296
Si Si2 0.730141 0.067305 0.677361
Si Si3 0.369515 0.647222 0.574721
Si Si4 0.114094 0.347971 0.617477
Si Si5 0.935739 0.280377 0.743368
Si Si6 0.911583 0.175365 0.414112
Si Si7 0.042203 0.903832 0.830424
Si Si8 0.400370 0.325309 0.617631
O O1 0.923669 0.578892 0.839793
O O2 0.812698 0.010778 0.809749
O O3 0.601856 0.093477 0.737558
O O4 0.852324 0.105889 0.009265
O O5 0.564687 0.430832 0.651043
O O6 0.862596 0.994383 0.718213
O O7 0.665900 0.867762 0.533802
O O8 0.251270 0.629071 0.402103
O O9 0.359400 0.529201 0.591724
O O10 0.295814 0.002714 0.645894
O O11 0.000000 0.500000 0.500000
O O12 0.992359 0.343831 0.549391
O O13 0.156497 0.559004 0.772840
O O14 0.016599 0.133465 0.837680
O O15 0.052189 0.041415 0.699957
O O16 0.705055 0.435605 0.326996
O O17 0.000000 0.000000 0.500000
#
# Coordination Sequence:
#
# PCOD8043343 Si02
#       8
#     2   2   2   2   2   2   2   2
#     4  11  23  42  59  85 120 158 193 236 295 350
#     4  11  21  39  63  88 113 152 206 243 277 339
#     4  10  19  36  61  89 115 145 200 244 283 330
#     4  11  21  37  58  86 121 150 187 242 293 341
#     4  11  21  39  59  86 123 152 188 243 293 348
#     4  11  19  35  64  90 107 148 208 236 276 340
#     4  12  25  38  58  89 124 155 185 241 303 346
#     4  11  19  37  66  90 109 152 205 246 273 340
#
# _framework density 18.946361
#
# number of rings (size 3 to 8) (size 9 to 14) (size 15 to 20)
#    0.000    1.000    8.750    1.500    0.000    0.500 
#    2.250    4.375    0.000    0.000    0.000    0.000 
#    0.000    0.000    0.000    0.000    0.000    0.000 
#
# Total GULP energy -198364.287340 kJ/mol
# GULP energy per Si atom -12397.767959 kJ/mol
# Density = 1.890324 g / cm^3
# Si number density = 18.946361 Si / 1000 Ang^3
#
#
#
# Elastic Constant Matrix: (Units=GPa)
#
#
# Indices 1 2 3 4 5 6 
#
# 1 71.4898 31.7954 19.3532 -6.5376 -14.5760 0.3712
# 2 31.7954 127.7213 32.7195 7.8997 -8.9595 -4.4340
# 3 19.3532 32.7195 87.2585 14.0839 -11.4010 -4.4459
# 4 -6.5376 7.8997 14.0839 25.6285 -2.6108 -2.2187
# 5 -14.5760 -8.9595 -11.4010 -2.6108 17.5072 -1.0743
# 6 0.3712 -4.4340 -4.4459 -2.2187 -1.0743 26.6227
#
#
#
# Elastic Compliance Matrix: (Units=1/GPa)
#
#
# Indices 1 2 3 4 5 6 
#
# 1 0.020259 -0.003927 -0.002623 0.009299 0.014535 -0.000013
# 2 -0.003927 0.009574 -0.002263 -0.002637 -0.000173 0.001045
# 3 -0.002623 -0.002263 0.014880 -0.007454 0.005343 0.001739
# 4 0.009299 -0.002637 -0.007454 0.047408 0.008762 0.002491
# 5 0.014535 -0.000173 0.005343 0.008762 0.074188 0.004385
# 6 -0.000013 0.001045 0.001739 0.002491 0.004385 0.038411
#
#
# Mechanical properties :
#
#
# Convention : Reuss Voigt Hill
#
# Bulk Modulus (GPa) = 36.91833 50.46731 43.69282
# Shear Modulus (GPa) = 21.60984 27.45844 24.53414
#
# Velocity S-wave (km/s) = 3.38091 3.81106 3.60241
# Velocity P-wave (km/s) = 5.89650 6.78678 6.35724
#
# Compressibility (1/GPa) = 0.02708682
#
# Stress axis : x y z
#
# Youngs Moduli (GPa) = 49.36122 104.44802 67.20261
#
# Poissons Ratio (x) = 0.41020 0.17628
# Poissons Ratio (y) = 0.19386 0.15206
# Poissons Ratio (z) = 0.12948 0.23634
#
# Static dielectric constant tensor:
#      x y z
#    x 3.609140 -0.238340 -0.077160 
#    y -0.238340 3.944440 0.005100 
#    z -0.077160 0.005100 3.161860 
# 
# 
# High freq. dielectric constant tensor:
#      x y z
#    x 1.737260 0.000250 -0.011700 
#    y 0.000250 1.754390 0.004870 
#    z -0.011700 0.004870 1.705300 
# 
# From -- ./inp_files/189172.got.cif
#   From: 2010.06.25/outbox.cif.g09.slc.cpg/sg2_95_cif.got.tgz:189172.got - 2010.06.27 13:26:56.
