data_PCOD8043538
_publ_section_title
;
Structure prediction by ZEFSAII (Michael W. Deem and Ramdas Pophale) SiO2 
 PCOD8043538
Probable space group: P -1
;
_chemical_formula_sum "Si O2"
_cell_formula_units_Z 16
_cell_length_a 9.744379
_cell_length_b 15.393290
_cell_length_c 8.772360
_cell_angle_alpha 111.116025
_cell_angle_beta 64.078600
_cell_angle_gamma 138.426553
_cell_volume 784.099215
_symmetry_space_group_name_H-M "P -1"
_symmetry_group_IT_number 2
_symmetry_cell_setting 'triclinic'
loop_
_space_group_symop_operation_xyz
x,y,z
-x,-y,-z
loop_
_atom_site_type_symbol
_atom_site_label
_atom_site_fract_x
_atom_site_fract_y
_atom_site_fract_z
Si Si1 0.570825 0.645540 0.689850
Si Si2 0.692509 0.566419 0.836215
Si Si3 0.414342 0.759620 0.759789
Si Si4 0.076786 0.750065 0.987983
Si Si5 0.740645 0.206043 0.591092
Si Si6 0.413477 0.943776 0.736154
Si Si7 0.253058 0.604214 0.440962
Si Si8 0.839520 0.649382 0.343420
O O1 0.700074 0.656248 0.773640
O O2 0.567395 0.757217 0.783612
O O3 0.700254 0.675307 0.491692
O O4 0.323822 0.503198 0.717729
O O5 0.652214 0.453461 0.694193
O O6 0.500000 0.500000 0.000000
O O7 0.911262 0.652002 0.875112
O O8 0.530539 0.897736 0.707299
O O9 0.333229 0.653313 0.603491
O O10 0.214844 0.714310 0.928565
O O11 0.965352 0.738821 0.187780
O O12 0.240027 0.896468 0.923745
O O13 0.713558 0.129382 0.406536
O O14 0.665643 0.278690 0.637715
O O15 0.988862 0.311746 0.589703
O O16 0.589210 0.100211 0.732830
O O17 0.000000 0.500000 0.500000
#
# Coordination Sequence:
#
# PCOD8043538 Si02
#       8
#     2   2   2   2   2   2   2   2
#     4  11  22  37  55  86 124 156 186 230 309 361
#     4  12  23  37  57  88 123 154 185 242 299 355
#     4   9  20  36  60  83 119 149 200 244 276 352
#     4  10  21  39  57  85 121 151 199 249 283 340
#     4  10  19  36  64  88 111 159 199 244 287 346
#     4   8  19  39  60  86 113 150 210 244 279 337
#     4  11  18  34  59  88 114 150 194 234 291 346
#     4  11  22  33  57  87 121 154 189 242 304 343
#
# _framework density 20.405581999999999
#
# number of rings (size 3 to 8) (size 9 to 14) (size 15 to 20)
#    0.750    1.000    2.500    3.750    0.000    2.000 
#    0.000    0.625    0.000    2.250    0.000    0.000 
#    0.000    0.000    0.000    0.000    0.000    0.000 
#
# Total GULP energy -198251.263704 kJ/mol
# GULP energy per Si atom -12390.703982 kJ/mol
# Density = 2.035914 g / cm^3
# Si number density = 20.405582 Si / 1000 Ang^3
#
#
#
# Elastic Constant Matrix: (Units=GPa)
#
#
# Indices 1 2 3 4 5 6 
#
# 1 90.5177 22.3394 27.6638 -7.2606 -1.3181 -16.3811
# 2 22.3394 50.0786 24.6989 -20.5518 -3.7756 -15.6335
# 3 27.6638 24.6989 103.5868 -30.1012 -13.8603 -8.4903
# 4 -7.2606 -20.5518 -30.1012 30.7817 5.4300 7.2218
# 5 -1.3181 -3.7756 -13.8603 5.4300 27.1509 -2.0367
# 6 -16.3811 -15.6335 -8.4903 7.2218 -2.0367 26.9960
#
#
#
# Elastic Compliance Matrix: (Units=1/GPa)
#
#
# Indices 1 2 3 4 5 6 
#
# 1 0.013939 -0.004505 -0.003519 -0.004476 -0.000408 0.005909
# 2 -0.004505 0.033229 -0.000409 0.017692 0.001538 0.011764
# 3 -0.003519 -0.000409 0.015027 0.012918 0.004805 -0.000739
# 4 -0.004476 0.017692 0.012918 0.057321 -0.002924 -0.003962
# 5 -0.000408 0.001538 0.004805 -0.002924 0.040512 0.005992
# 6 0.005909 0.011764 -0.000739 -0.003962 0.005992 0.048720
#
#
# Mechanical properties :
#
#
# Convention : Reuss Voigt Hill
#
# Bulk Modulus (GPa) = 22.06112 43.73193 32.89653
# Shear Modulus (GPa) = 20.77052 28.28445 24.52748
#
# Velocity S-wave (km/s) = 3.19389 3.72709 3.47075
# Velocity P-wave (km/s) = 4.94328 6.32452 5.67607
#
# Compressibility (1/GPa) = 0.04532861
#
# Stress axis : x y z
#
# Youngs Moduli (GPa) = 71.73878 30.09408 66.54636
#
# Poissons Ratio (x) = 0.13559 0.23420
# Poissons Ratio (y) = 0.32322 0.02720
# Poissons Ratio (z) = 0.25247 0.01230
#
# Static dielectric constant tensor:
#      x y z
#    x 3.901640 0.009360 0.120760 
#    y 0.009360 3.528810 -0.379350 
#    z 0.120760 -0.379350 3.670510 
# 
# 
# High freq. dielectric constant tensor:
#      x y z
#    x 1.796040 0.000140 0.012750 
#    y 0.000140 1.769310 -0.015060 
#    z 0.012750 -0.015060 1.794430 
# 
# From -- ./inp_files/207672.got.cif
#   From: 2010.06.25/outbox.cif.g09.slc.cpg/sg2_104_cif.got.tgz:207672.got - 2010.06.27 13:26:56.
