data_PCOD8043156
_publ_section_title
;
Structure prediction by ZEFSAII (Michael W. Deem and Ramdas Pophale) SiO2 
 PCOD8043156
Probable space group: P -1
;
_chemical_formula_sum "Si O2"
_cell_formula_units_Z 16
_cell_length_a 9.214492
_cell_length_b 11.560029
_cell_length_c 19.755347
_cell_angle_alpha 31.622690
_cell_angle_beta 69.946838
_cell_angle_gamma 55.718655
_cell_volume 865.084061
_symmetry_space_group_name_H-M "P -1"
_symmetry_group_IT_number 2
_symmetry_cell_setting 'triclinic'
loop_
_space_group_symop_operation_xyz
x,y,z
-x,-y,-z
loop_
_atom_site_type_symbol
_atom_site_label
_atom_site_fract_x
_atom_site_fract_y
_atom_site_fract_z
Si Si1 0.567366 0.417791 0.745911
Si Si2 0.483251 0.849566 0.640578
Si Si3 0.162659 0.335423 0.648555
Si Si4 0.914334 0.903020 0.007290
Si Si5 0.298547 0.468299 0.116159
Si Si6 0.763735 0.615740 0.533567
Si Si7 0.466111 0.798243 0.909178
Si Si8 0.325130 0.246389 0.800782
O O1 0.474990 0.609226 0.730591
O O2 0.609415 0.563073 0.608234
O O3 0.417249 0.364191 0.770458
O O4 0.758601 0.147886 0.867193
O O5 0.653188 0.723005 0.730909
O O6 0.500000 0.000000 0.500000
O O7 0.301933 0.078267 0.595765
O O8 0.199184 0.453309 0.517360
O O9 0.219878 0.428956 0.660255
O O10 0.949232 0.431507 0.638932
O O11 0.284422 0.015743 0.786883
O O12 0.827396 0.756951 0.128523
O O13 0.080923 0.692212 0.037150
O O14 0.000000 0.000000 0.000000
O O15 0.353567 0.315641 0.111119
O O16 0.432184 0.576311 0.049576
O O17 0.481318 0.946315 0.899105
#
# Coordination Sequence:
#
# PCOD8043156 Si02
#       8
#     2   2   2   2   2   2   2   2
#     4  11  22  35  56  83 113 149 175 230 290 329
#     4  10  20  32  54  82 109 141 183 227 267 327
#     4   9  19  36  59  80 106 147 187 234 265 326
#     4  12  20  35  61  85 108 144 192 230 268 333
#     4  11  19  34  58  86 105 142 188 233 273 307
#     4  10  19  36  59  82 107 142 200 227 261 326
#     4   9  19  35  58  81 109 139 184 234 269 326
#     4  10  21  37  56  83 115 145 179 228 290 330
#
# _framework density 18.495311999999998
#
# number of rings (size 3 to 8) (size 9 to 14) (size 15 to 20)
#    0.750    1.000    3.750    1.875    1.750    0.500 
#    0.000    1.250    5.500    0.000    0.000    0.000 
#    0.000    0.000    0.000    0.000    0.000    0.000 
#
# Total GULP energy -198233.337236 kJ/mol
# GULP energy per Si atom -12389.583577 kJ/mol
# Density = 1.845322 g / cm^3
# Si number density = 18.495312 Si / 1000 Ang^3
#
#
#
# Elastic Constant Matrix: (Units=GPa)
#
#
# Indices 1 2 3 4 5 6 
#
# 1 96.6817 44.9210 33.1807 -2.0410 -6.3049 -1.4325
# 2 44.9210 112.9672 26.8025 -8.0549 -6.4752 -11.2513
# 3 33.1807 26.8025 67.3113 1.0963 10.6784 -5.3260
# 4 -2.0410 -8.0549 1.0963 32.3116 -3.2976 4.5961
# 5 -6.3049 -6.4752 10.6784 -3.2976 26.5158 -1.0730
# 6 -1.4325 -11.2513 -5.3260 4.5961 -1.0730 23.1878
#
#
#
# Elastic Compliance Matrix: (Units=1/GPa)
#
#
# Indices 1 2 3 4 5 6 
#
# 1 0.014950 -0.004233 -0.006744 0.001030 0.005258 -0.002640
# 2 -0.004233 0.012093 -0.002988 0.002570 0.003655 0.004580
# 3 -0.006744 -0.002988 0.021475 -0.003512 -0.011287 0.003240
# 4 0.001030 0.002570 -0.003512 0.033229 0.006185 -0.005796
# 5 0.005258 0.003655 -0.011287 0.006185 0.045186 0.000371
# 6 -0.002640 0.004580 0.003240 -0.005796 0.000371 0.047095
#
#
# Mechanical properties :
#
#
# Convention : Reuss Voigt Hill
#
# Bulk Modulus (GPa) = 48.57172 54.08540 51.32856
# Shear Modulus (GPa) = 23.94399 27.87346 25.90872
#
# Velocity S-wave (km/s) = 3.60196 3.88629 3.74682
# Velocity P-wave (km/s) = 6.60435 7.03164 6.82134
#
# Compressibility (1/GPa) = 0.02058811
#
# Stress axis : x y z
#
# Youngs Moduli (GPa) = 66.89010 82.69133 46.56646
#
# Poissons Ratio (x) = 0.35002 0.31404
# Poissons Ratio (y) = 0.28313 0.13915
# Poissons Ratio (z) = 0.45110 0.24709
#
# Static dielectric constant tensor:
#      x y z
#    x 3.092320 -0.130240 0.175060 
#    y -0.130240 3.779810 -0.096840 
#    z 0.175060 -0.096840 3.473690 
# 
# 
# High freq. dielectric constant tensor:
#      x y z
#    x 1.669920 -0.006840 0.016120 
#    y -0.006840 1.729940 0.007840 
#    z 0.016120 0.007840 1.721980 
# 
# From -- ./inp_files/588846.got.cif
#   From: 2010.06.25/outbox.cif.g09.slc.cpg/sg2_295_cif.got.tgz:588846.got - 2010.06.27 13:26:56.
