data_PCOD8043095
_publ_section_title
;
Structure prediction by ZEFSAII (Michael W. Deem and Ramdas Pophale) SiO2 
 PCOD8043095
Probable space group: P -1
;
_chemical_formula_sum "Si O2"
_cell_formula_units_Z 16
_cell_length_a 18.437839
_cell_length_b 9.669265
_cell_length_c 13.143600
_cell_angle_alpha 52.182926
_cell_angle_beta 154.472140
_cell_angle_gamma 119.504756
_cell_volume 784.910557
_symmetry_space_group_name_H-M "P -1"
_symmetry_group_IT_number 2
_symmetry_cell_setting 'triclinic'
loop_
_space_group_symop_operation_xyz
x,y,z
-x,-y,-z
loop_
_atom_site_type_symbol
_atom_site_label
_atom_site_fract_x
_atom_site_fract_y
_atom_site_fract_z
Si Si1 0.466961 0.898228 0.107410
Si Si2 0.974976 0.117687 0.657645
Si Si3 0.125534 0.751580 0.738273
Si Si4 0.741673 0.557055 0.609384
Si Si5 0.980886 0.558448 0.334136
Si Si6 0.318053 0.529518 0.646988
Si Si7 0.591703 0.208650 0.207251
Si Si8 0.058129 0.733514 0.888459
O O1 0.574384 0.702645 0.349536
O O2 0.504286 0.031969 0.184717
O O3 0.276342 0.862667 0.883875
O O4 0.500000 0.000000 0.000000
O O5 0.003776 0.172008 0.551548
O O6 0.769965 0.155730 0.396908
O O7 0.063012 0.226352 0.806578
O O8 0.061968 0.914106 0.874317
O O9 0.165133 0.535341 0.863001
O O10 0.032237 0.776320 0.717337
O O11 0.736788 0.444169 0.551037
O O12 0.895637 0.663470 0.755950
O O13 0.771304 0.410979 0.804185
O O14 0.000000 0.500000 0.500000
O O15 0.158918 0.495131 0.528786
O O16 0.382449 0.708620 0.686307
O O17 0.470291 0.359477 0.920316
#
# Coordination Sequence:
#
# PCOD8043095 Si02
#       8
#     2   2   2   2   2   2   2   2
#     4  12  21  37  61  87 118 149 193 243 291 343
#     4  10  19  37  58  86 118 147 198 241 288 345
#     4  11  21  36  61  87 115 153 194 246 291 339
#     4  11  22  39  58  84 123 155 195 240 284 350
#     4   9  20  34  55  86 118 148 186 245 295 338
#     4  10  19  36  58  82 117 147 191 239 292 338
#     4  10  20  34  58  89 110 147 191 238 291 339
#     4  11  23  37  58  87 118 159 196 235 290 344
#
# _framework density 20.384488999999999
#
# number of rings (size 3 to 8) (size 9 to 14) (size 15 to 20)
#    0.000    1.500    5.000    0.375    0.000    2.500 
#    0.000    3.750    0.000    1.500    0.000    0.000 
#    0.000    0.000    0.000    0.000    0.000    0.000 
#
# Total GULP energy -198209.965250 kJ/mol
# GULP energy per Si atom -12388.122828 kJ/mol
# Density = 2.033809 g / cm^3
# Si number density = 20.384489 Si / 1000 Ang^3
#
#
#
# Elastic Constant Matrix: (Units=GPa)
#
#
# Indices 1 2 3 4 5 6 
#
# 1 45.5070 32.0628 7.2371 -8.4791 -1.9290 -5.7827
# 2 32.0628 192.7807 23.5881 3.4081 -2.1791 -19.2800
# 3 7.2371 23.5881 43.0221 -19.6047 -3.9708 -4.9078
# 4 -8.4791 3.4081 -19.6047 30.7829 -6.9247 4.6069
# 5 -1.9290 -2.1791 -3.9708 -6.9247 10.7230 2.3365
# 6 -5.7827 -19.2800 -4.9078 4.6069 2.3365 29.3165
#
#
#
# Elastic Compliance Matrix: (Units=1/GPa)
#
#
# Indices 1 2 3 4 5 6 
#
# 1 0.029119 -0.006171 0.008796 0.018969 0.019796 -0.001401
# 2 -0.006171 0.007943 -0.009203 -0.011863 -0.011712 0.005264
# 3 0.008796 -0.009203 0.054581 0.051727 0.055004 -0.007693
# 4 0.018969 -0.011863 0.051727 0.093405 0.084132 -0.016784
# 5 0.019796 -0.011712 0.055004 0.084132 0.173858 -0.021667
# 6 -0.001401 0.005264 -0.007693 -0.016784 -0.021667 0.040372
#
#
# Mechanical properties :
#
#
# Convention : Reuss Voigt Hill
#
# Bulk Modulus (GPa) = 12.74091 45.23173 28.98632
# Shear Modulus (GPa) = 11.39997 28.72593 20.06295
#
# Velocity S-wave (km/s) = 2.36741 3.75801 3.14064
# Velocity P-wave (km/s) = 3.70630 6.40841 5.23471
#
# Compressibility (1/GPa) = 0.07848733
#
# Stress axis : x y z
#
# Youngs Moduli (GPa) = 34.34160 125.88987 18.32147
#
# Poissons Ratio (x) = 0.77687 -0.16116
# Poissons Ratio (y) = 0.21192 0.16862
# Poissons Ratio (z) = -0.30208 1.15862
#
# Static dielectric constant tensor:
#      x y z
#    x 3.548940 -0.227420 -0.060130 
#    y -0.227420 4.778010 0.032660 
#    z -0.060130 0.032660 3.588450 
# 
# 
# High freq. dielectric constant tensor:
#      x y z
#    x 1.776770 -0.018410 0.007000 
#    y -0.018410 1.830550 0.006210 
#    z 0.007000 0.006210 1.751040 
# 
# From -- ./inp_files/461932.got.cif
#   From: 2010.06.25/outbox.cif.g09.slc.cpg/sg2_231_cif.got.tgz:461932.got - 2010.06.27 13:26:56.
