data_PCOD8043951
_publ_section_title
;
Structure prediction by ZEFSAII (Michael W. Deem and Ramdas Pophale) SiO2 
 PCOD8043951
Probable space group: P -1
;
_chemical_formula_sum "Si O2"
_cell_formula_units_Z 14
_cell_length_a 15.384474
_cell_length_b 9.267010
_cell_length_c 15.332705
_cell_angle_alpha 46.567919
_cell_angle_beta 145.256505
_cell_angle_gamma 145.836312
_cell_volume 699.384471
_symmetry_space_group_name_H-M "P -1"
_symmetry_group_IT_number 2
_symmetry_cell_setting 'triclinic'
loop_
_space_group_symop_operation_xyz
x,y,z
-x,-y,-z
loop_
_atom_site_type_symbol
_atom_site_label
_atom_site_fract_x
_atom_site_fract_y
_atom_site_fract_z
Si Si1 0.853631 0.889122 0.299427
Si Si2 0.492317 0.402773 0.438090
Si Si3 0.860504 0.541292 0.160025
Si Si4 0.545409 0.934893 0.973249
Si Si5 0.929485 0.978408 0.751471
Si Si6 0.265648 0.522312 0.115030
Si Si7 0.127867 0.398286 0.420776
O O1 0.806351 0.653515 0.413991
O O2 0.656248 0.816921 0.124524
O O3 0.001310 0.947026 0.321240
O O4 0.950402 0.135196 0.338081
O O5 0.500000 0.500000 0.500000
O O6 0.290543 0.104447 0.390006
O O7 0.469190 0.565927 0.281255
O O8 0.684229 0.432634 0.559672
O O9 0.667297 0.285620 0.155191
O O10 0.048260 0.550941 0.312648
O O11 0.799346 0.548070 0.009248
O O12 0.919311 0.788862 0.156215
O O13 0.686468 0.211220 0.924648
O O14 0.500000 0.000000 0.000000
O O15 0.906652 0.724882 0.865964
#
# Coordination Sequence:
#
# PCOD8043951 Si02
#       7
#     2   2   2   2   2   2   2
#     4  11  22  38  62  91 120 165 207 248 298 371
#     4  10  21  39  61  89 123 159 202 253 296 361
#     4  11  22  39  64  93 124 161 199 258 308 361
#     4  10  19  37  61  91 115 157 210 243 293 363
#     4  10  24  39  63  91 130 152 205 256 313 346
#     4   9  20  39  63  85 123 164 199 246 303 369
#     4  11  21  36  65  87 121 166 209 241 305 366
#
# _framework density 20.017603000000001
#
# number of rings (size 3 to 8) (size 9 to 14) (size 15 to 20)
#    0.857    0.857    4.286    2.143    2.000    2.286 
#    2.571    0.000    0.000    0.000    0.000    0.000 
#    0.000    0.000    0.000    0.000    0.000    0.000 
#
# Total GULP energy -173451.978631 kJ/mol
# GULP energy per Si atom -12389.427045 kJ/mol
# Density = 1.997204 g / cm^3
# Si number density = 20.017603 Si / 1000 Ang^3
#
#
#
# Elastic Constant Matrix: (Units=GPa)
#
#
# Indices 1 2 3 4 5 6 
#
# 1 76.3507 39.3987 33.8124 -7.6948 8.1323 18.7698
# 2 39.3987 110.2700 38.7855 14.3188 -1.9934 8.3727
# 3 33.8124 38.7855 90.1199 -4.9158 14.6163 -2.6681
# 4 -7.6948 14.3188 -4.9158 29.8559 1.0753 3.5020
# 5 8.1323 -1.9934 14.6163 1.0753 34.4467 3.0324
# 6 18.7698 8.3727 -2.6681 3.5020 3.0324 17.1071
#
#
#
# Elastic Compliance Matrix: (Units=1/GPa)
#
#
# Indices 1 2 3 4 5 6 
#
# 1 0.030279 -0.007202 -0.008245 0.013892 -0.001546 -0.033552
# 2 -0.007202 0.014668 -0.004908 -0.010008 0.004843 0.001148
# 3 -0.008245 -0.004908 0.018043 0.001679 -0.007386 0.015228
# 4 0.013892 -0.010008 0.001679 0.044467 -0.004338 -0.018415
# 5 -0.001546 0.004843 -0.007386 -0.004338 0.033551 -0.006885
# 6 -0.033552 0.001148 0.015228 -0.018415 -0.006885 0.102071
#
#
# Mechanical properties :
#
#
# Convention : Reuss Voigt Hill
#
# Bulk Modulus (GPa) = 44.88747 55.63708 50.26227
# Shear Modulus (GPa) = 17.16932 27.26487 22.21710
#
# Velocity S-wave (km/s) = 2.93185 3.69459 3.33510
# Velocity P-wave (km/s) = 5.82526 6.78634 6.32408
#
# Compressibility (1/GPa) = 0.02227793
#
# Stress axis : x y z
#
# Youngs Moduli (GPa) = 33.02662 68.17424 55.42417
#
# Poissons Ratio (x) = 0.49102 0.45700
# Poissons Ratio (y) = 0.23787 0.27202
# Poissons Ratio (z) = 0.27232 0.33460
#
# Static dielectric constant tensor:
#      x y z
#    x 3.356880 0.334800 0.059130 
#    y 0.334800 4.051460 0.044260 
#    z 0.059130 0.044260 3.709090 
# 
# 
# High freq. dielectric constant tensor:
#      x y z
#    x 1.757710 0.020020 0.004280 
#    y 0.020020 1.768110 0.006850 
#    z 0.004280 0.006850 1.781640 
# 
# From -- ./inp_files/527377.got.cif
#   From: 2010.06.25/outbox.cif.g09.slc.cpg/sg2_264_cif.got.tgz:527377.got - 2010.06.27 13:26:56.
