data_PCOD8043634
_publ_section_title
;
Structure prediction by ZEFSAII (Michael W. Deem and Ramdas Pophale) SiO2 
 PCOD8043634
Probable space group: P -1
;
_chemical_formula_sum "Si O2"
_cell_formula_units_Z 16
_cell_length_a 23.936284
_cell_length_b 18.604957
_cell_length_c 8.573758
_cell_angle_alpha 34.710649
_cell_angle_beta 30.954254
_cell_angle_gamma 22.234393
_cell_volume 735.274596
_symmetry_space_group_name_H-M "P -1"
_symmetry_group_IT_number 2
_symmetry_cell_setting 'triclinic'
loop_
_space_group_symop_operation_xyz
x,y,z
-x,-y,-z
loop_
_atom_site_type_symbol
_atom_site_label
_atom_site_fract_x
_atom_site_fract_y
_atom_site_fract_z
Si Si1 0.298462 0.419762 0.400590
Si Si2 0.690747 0.349204 0.837682
Si Si3 0.456914 0.966903 0.319396
Si Si4 0.327015 0.302115 0.213901
Si Si5 0.144443 0.644211 0.835450
Si Si6 0.084588 0.282204 0.264410
Si Si7 0.834617 0.952089 0.235905
Si Si8 0.958409 0.607069 0.148437
O O1 0.288391 0.573238 0.206216
O O2 0.396918 0.256164 0.588091
O O3 0.386920 0.317537 0.203053
O O4 0.112507 0.539309 0.609099
O O5 0.779930 0.310703 0.531130
O O6 0.500000 0.500000 0.000000
O O7 0.763936 0.152434 0.064256
O O8 0.286061 0.036504 0.591644
O O9 0.454274 0.082241 0.247870
O O10 0.500000 0.000000 0.000000
O O11 0.151482 0.383831 0.494268
O O12 0.299520 0.434960 0.913544
O O13 0.037462 0.653896 0.960433
O O14 0.017349 0.802738 0.989852
O O15 0.112380 0.384342 0.118693
O O16 0.151258 0.104287 0.516260
O O17 0.156312 0.234616 0.002250
#
# Coordination Sequence:
#
# PCOD8043634 Si02
#       8
#     2   2   2   2   2   2   2   2
#     4  11  23  46  65  97 141 178 220 287 342 396
#     4  12  27  48  68  93 139 189 239 280 334 409
#     4  12  26  40  71 104 143 180 218 278 360 419
#     4  11  23  40  71 104 137 167 228 281 352 406
#     4  12  22  44  70 101 133 186 228 287 335 407
#     4  10  22  39  69 103 132 170 225 282 343 402
#     4  12  25  45  69 102 134 187 237 273 335 412
#     4  10  19  36  67 102 136 160 211 290 342 397
#
# _framework density 21.760577000000001
#
# number of rings (size 3 to 8) (size 9 to 14) (size 15 to 20)
#    0.000    0.750    6.250    2.625    5.250    0.500 
#    0.000    0.625    0.000    0.000    0.000    0.000 
#    0.000    0.000    0.000    0.000    0.000    0.000 
#
# Total GULP energy -198290.730388 kJ/mol
# GULP energy per Si atom -12393.170649 kJ/mol
# Density = 2.171105 g / cm^3
# Si number density = 21.760577 Si / 1000 Ang^3
#
#
#
# Elastic Constant Matrix: (Units=GPa)
#
#
# Indices 1 2 3 4 5 6 
#
# 1 75.0419 28.2950 33.6059 -14.6705 7.1929 15.3855
# 2 28.2950 85.9565 40.0066 -32.5629 -5.5920 3.8416
# 3 33.6059 40.0066 117.0145 -27.7362 13.0375 0.5078
# 4 -14.6705 -32.5629 -27.7362 47.0307 -7.5330 -2.6586
# 5 7.1929 -5.5920 13.0375 -7.5330 26.4564 -6.0135
# 6 15.3855 3.8416 0.5078 -2.6586 -6.0135 40.1587
#
#
#
# Elastic Compliance Matrix: (Units=1/GPa)
#
#
# Indices 1 2 3 4 5 6 
#
# 1 0.018678 -0.005250 -0.003050 -0.001125 -0.006756 -0.007701
# 2 -0.005250 0.020479 -0.003909 0.012275 0.011787 0.002680
# 3 -0.003050 -0.003909 0.011929 0.002633 -0.004938 0.000826
# 4 -0.001125 0.012275 0.002633 0.033021 0.011724 0.003165
# 5 -0.006756 0.011787 -0.004938 0.011724 0.050127 0.009806
# 6 -0.007701 0.002680 0.000826 0.003165 0.009806 0.029263
#
#
# Mechanical properties :
#
#
# Convention : Reuss Voigt Hill
#
# Bulk Modulus (GPa) = 37.49864 53.53644 45.51754
# Shear Modulus (GPa) = 25.40619 34.46953 29.93786
#
# Velocity S-wave (km/s) = 3.42063 3.98431 3.71318
# Velocity P-wave (km/s) = 5.73330 6.76921 6.27268
#
# Compressibility (1/GPa) = 0.02666764
#
# Stress axis : x y z
#
# Youngs Moduli (GPa) = 53.53933 48.83123 83.82984
#
# Poissons Ratio (x) = 0.25639 0.25564
# Poissons Ratio (y) = 0.28111 0.32768
# Poissons Ratio (z) = 0.16327 0.19088
#
# Static dielectric constant tensor:
#      x y z
#    x 4.137220 -0.095240 0.350310 
#    y -0.095240 3.551000 0.273870 
#    z 0.350310 0.273870 4.047040 
# 
# 
# High freq. dielectric constant tensor:
#      x y z
#    x 1.854580 0.001840 0.014130 
#    y 0.001840 1.848620 -0.005110 
#    z 0.014130 -0.005110 1.856550 
# 
# From -- ./inp_files/357708.got.cif
#   From: 2010.06.25/outbox.cif.g09.slc.cpg/sg2_179_cif.got.tgz:357708.got - 2010.06.27 13:26:56.
