data_PCOD8043635
_publ_section_title
;
Structure prediction by ZEFSAII (Michael W. Deem and Ramdas Pophale) SiO2 
 PCOD8043635
Probable space group: P -1
;
_chemical_formula_sum "Si O2"
_cell_formula_units_Z 16
_cell_length_a 20.256600
_cell_length_b 10.420483
_cell_length_c 9.575260
_cell_angle_alpha 57.471365
_cell_angle_beta 150.358552
_cell_angle_gamma 127.074371
_cell_volume 797.062549
_symmetry_space_group_name_H-M "P -1"
_symmetry_group_IT_number 2
_symmetry_cell_setting 'triclinic'
loop_
_space_group_symop_operation_xyz
x,y,z
-x,-y,-z
loop_
_atom_site_type_symbol
_atom_site_label
_atom_site_fract_x
_atom_site_fract_y
_atom_site_fract_z
Si Si1 0.137558 0.098342 0.110398
Si Si2 0.415144 0.284652 0.104811
Si Si3 0.560124 0.862557 0.241996
Si Si4 0.874638 0.514413 0.441386
Si Si5 0.410598 0.634705 0.868288
Si Si6 0.148761 0.459257 0.936524
Si Si7 0.549551 0.365376 0.593149
Si Si8 0.878201 0.876937 0.258961
O O1 0.274444 0.069236 0.450381
O O2 0.150870 0.280941 0.048366
O O3 0.123347 0.058631 0.940965
O O4 0.000000 0.000000 0.000000
O O5 0.535535 0.260746 0.236558
O O6 0.449547 0.294165 0.323720
O O7 0.397997 0.451119 0.927281
O O8 0.266578 0.138822 0.913228
O O9 0.467540 0.785237 0.250570
O O10 0.528677 0.722002 0.149502
O O11 0.500000 0.000000 0.000000
O O12 0.748889 0.380393 0.371738
O O13 0.844832 0.474288 0.247521
O O14 0.894980 0.700616 0.396769
O O15 0.017396 0.479855 0.767851
O O16 0.291394 0.567028 0.210498
O O17 0.500000 0.500000 0.500000
O O18 0.000000 0.000000 0.500000
#
# Coordination Sequence:
#
# PCOD8043635 Si02
#       8
#     2   2   2   2   2   2   2   2
#     4  11  24  39  62  94 126 165 213 261 322 381
#     4  10  20  37  66  88 119 166 211 252 312 381
#     4  12  25  39  64  95 129 165 215 275 315 366
#     4   9  19  36  61  93 116 161 211 261 303 380
#     4  10  20  38  61  92 123 157 212 261 312 370
#     4  10  19  36  67  87 119 161 213 261 312 368
#     4  12  18  41  67  90 117 164 218 257 309 385
#     4  10  21  40  61  88 129 170 201 249 330 392
#
# _framework density 20.073706999999999
#
# number of rings (size 3 to 8) (size 9 to 14) (size 15 to 20)
#    0.000    1.500    5.000    0.750    3.500    1.000 
#    2.250    2.500    0.000    0.000    0.000    0.000 
#    0.000    0.000    0.000    0.000    0.000    0.000 
#
# Total GULP energy -198259.272535 kJ/mol
# GULP energy per Si atom -12391.204533 kJ/mol
# Density = 2.002802 g / cm^3
# Si number density = 20.073707 Si / 1000 Ang^3
#
#
#
# Elastic Constant Matrix: (Units=GPa)
#
#
# Indices 1 2 3 4 5 6 
#
# 1 132.5313 48.0265 57.8919 15.5176 5.4912 37.1536
# 2 48.0265 75.1668 49.5809 25.2697 2.1440 30.2759
# 3 57.8919 49.5809 118.8572 16.8504 16.7899 18.4032
# 4 15.5176 25.2697 16.8504 42.8876 3.1102 1.5660
# 5 5.4912 2.1440 16.7899 3.1102 35.8163 4.5126
# 6 37.1536 30.2759 18.4032 1.5660 4.5126 31.6895
#
#
#
# Elastic Compliance Matrix: (Units=1/GPa)
#
#
# Indices 1 2 3 4 5 6 
#
# 1 0.013507 0.001579 -0.004769 -0.003569 0.002234 -0.014717
# 2 0.001579 0.038011 -0.010101 -0.018385 0.007911 -0.032518
# 3 -0.004769 -0.010101 0.014366 0.002227 -0.006565 0.007724
# 4 -0.003569 -0.018385 0.002227 0.034205 -0.004817 0.019451
# 5 0.002234 0.007911 -0.006565 -0.004817 0.031945 -0.010676
# 6 -0.014717 -0.032518 0.007724 0.019451 -0.010676 0.075953
#
#
# Mechanical properties :
#
#
# Convention : Reuss Voigt Hill
#
# Bulk Modulus (GPa) = 25.44406 70.83933 48.14170
# Shear Modulus (GPa) = 20.18829 33.48241 26.83535
#
# Velocity S-wave (km/s) = 3.17473 4.08851 3.66025
# Velocity P-wave (km/s) = 5.11286 7.59303 6.47285
#
# Compressibility (1/GPa) = 0.03930190
#
# Stress axis : x y z
#
# Youngs Moduli (GPa) = 74.03403 26.30843 69.61065
#
# Poissons Ratio (x) = -0.04154 0.33195
# Poissons Ratio (y) = -0.11691 0.70316
# Poissons Ratio (z) = 0.35304 0.26575
#
# Static dielectric constant tensor:
#      x y z
#    x 3.984950 0.282310 0.079290 
#    y 0.282310 3.531370 0.151750 
#    z 0.079290 0.151750 3.720150 
# 
# 
# High freq. dielectric constant tensor:
#      x y z
#    x 1.782700 0.024170 0.004700 
#    y 0.024170 1.776250 0.016070 
#    z 0.004700 0.016070 1.775430 
# 
# From -- ./inp_files/345993.got.cif
#   From: 2010.06.25/outbox.cif.g09.slc.cpg/sg2_173_cif.got.tgz:345993.got - 2010.06.27 13:26:56.
