data_PCOD8043878
_publ_section_title
;
Structure prediction by ZEFSAII (Michael W. Deem and Ramdas Pophale) SiO2 
 PCOD8043878
Probable space group: P -1
;
_chemical_formula_sum "Si O2"
_cell_formula_units_Z 14
_cell_length_a 11.843377
_cell_length_b 9.529537
_cell_length_c 7.945102
_cell_angle_alpha 48.022443
_cell_angle_beta 91.750761
_cell_angle_gamma 102.385632
_cell_volume 643.177930
_symmetry_space_group_name_H-M "P -1"
_symmetry_group_IT_number 2
_symmetry_cell_setting 'triclinic'
loop_
_space_group_symop_operation_xyz
x,y,z
-x,-y,-z
loop_
_atom_site_type_symbol
_atom_site_label
_atom_site_fract_x
_atom_site_fract_y
_atom_site_fract_z
Si Si1 0.061323 0.548611 0.642500
Si Si2 0.735002 0.069012 0.724959
Si Si3 0.370327 0.668710 0.298157
Si Si4 0.116847 0.169162 0.885516
Si Si5 0.834628 0.630809 0.623029
Si Si6 0.456098 0.485813 0.756439
Si Si7 0.342012 0.260864 0.245517
O O1 0.171281 0.735857 0.487539
O O2 0.099779 0.352862 0.850169
O O3 0.000000 0.500000 0.500000
O O4 0.959725 0.596799 0.716141
O O5 0.638600 0.121974 0.801047
O O6 0.670615 0.959816 0.643122
O O7 0.786602 0.912243 0.950422
O O8 0.252387 0.577978 0.260909
O O9 0.374611 0.531442 0.569893
O O10 0.482725 0.681566 0.173833
O O11 0.155685 0.228231 0.650021
O O12 0.000000 0.000000 0.000000
O O13 0.783374 0.727571 0.698084
O O14 0.559001 0.681062 0.651374
O O15 0.376868 0.414008 0.971470
#
# Coordination Sequence:
#
# PCOD8043878 Si02
#       7
#     2   2   2   2   2   2   2
#     4  10  19  37  60  90 124 154 203 247 281 362
#     4  12  22  36  65  95 119 157 204 245 303 355
#     4  10  19  38  69  86 113 164 207 247 290 360
#     4  11  19  36  63  88 119 161 204 242 279 355
#     4  10  19  39  61  88 127 160 194 243 304 354
#     4   9  21  43  62  87 121 157 206 254 299 351
#     4  10  23  38  60  91 126 156 193 257 310 355
#
# _framework density 21.766918
#
# number of rings (size 3 to 8) (size 9 to 14) (size 15 to 20)
#    0.000    1.714    5.714    0.857    0.000    1.714 
#    0.000    6.429    0.000    0.000    0.000    0.000 
#    0.000    0.000    0.000    0.000    0.000    0.000 
#
# Total GULP energy -173542.638064 kJ/mol
# GULP energy per Si atom -12395.902719 kJ/mol
# Density = 2.171738 g / cm^3
# Si number density = 21.766918 Si / 1000 Ang^3
#
#
#
# Elastic Constant Matrix: (Units=GPa)
#
#
# Indices 1 2 3 4 5 6 
#
# 1 93.3506 44.1907 30.2295 -5.6485 7.7667 -28.7723
# 2 44.1907 142.0277 21.9806 -20.0587 -0.8244 -19.6625
# 3 30.2295 21.9806 66.6060 -11.5942 -0.1737 -18.2476
# 4 -5.6485 -20.0587 -11.5942 35.6383 -8.5539 -2.3942
# 5 7.7667 -0.8244 -0.1737 -8.5539 31.1867 -1.0090
# 6 -28.7723 -19.6625 -18.2476 -2.3942 -1.0090 39.7239
#
#
#
# Elastic Compliance Matrix: (Units=1/GPa)
#
#
# Indices 1 2 3 4 5 6 
#
# 1 0.016587 -0.003581 -0.004385 -0.001318 -0.004351 0.008037
# 2 -0.003581 0.009266 0.000225 0.005546 0.002740 0.002500
# 3 -0.004385 0.000225 0.020015 0.007206 0.003401 0.006650
# 4 -0.001318 0.005546 0.007206 0.036404 0.010745 0.007568
# 5 -0.004351 0.002740 0.003401 0.010745 0.036230 0.001335
# 6 0.008037 0.002500 0.006650 0.007568 0.001335 0.035777
#
#
# Mechanical properties :
#
#
# Convention : Reuss Voigt Hill
#
# Bulk Modulus (GPa) = 32.91089 54.97622 43.94355
# Shear Modulus (GPa) = 27.79482 35.01533 31.40507
#
# Velocity S-wave (km/s) = 3.57729 4.01515 3.80253
# Velocity P-wave (km/s) = 5.67584 6.84155 6.28578
#
# Compressibility (1/GPa) = 0.03038508
#
# Stress axis : x y z
#
# Youngs Moduli (GPa) = 60.28807 107.92719 49.96325
#
# Poissons Ratio (x) = 0.38647 0.21910
# Poissons Ratio (y) = 0.21588 -0.01124
# Poissons Ratio (z) = 0.26437 -0.02428
#
# Static dielectric constant tensor:
#      x y z
#    x 4.654990 -0.005350 1.408250 
#    y -0.005350 4.670700 2.083500 
#    z 1.408250 2.083500 16.526790 
# 
# 
# High freq. dielectric constant tensor:
#      x y z
#    x 1.871190 -0.005490 -0.009970 
#    y -0.005490 1.858510 -0.006790 
#    z -0.009970 -0.006790 1.818290 
# 
# From -- ./inp_files/221394.got.cif
#   From: 2010.06.25/outbox.cif.g09.slc.cpg/sg2_111_cif.got.tgz:221394.got - 2010.06.27 13:26:56.
