data_PCOD8043268
_publ_section_title
;
Structure prediction by ZEFSAII (Michael W. Deem and Ramdas Pophale) SiO2 
 PCOD8043268
Probable space group: P -1
;
_chemical_formula_sum "Si O2"
_cell_formula_units_Z 14
_cell_length_a 12.885972
_cell_length_b 8.657331
_cell_length_c 7.513691
_cell_angle_alpha 100.611116
_cell_angle_beta 53.973460
_cell_angle_gamma 110.793911
_cell_volume 633.407207
_symmetry_space_group_name_H-M "P -1"
_symmetry_group_IT_number 2
_symmetry_cell_setting 'triclinic'
loop_
_space_group_symop_operation_xyz
x,y,z
-x,-y,-z
loop_
_atom_site_type_symbol
_atom_site_label
_atom_site_fract_x
_atom_site_fract_y
_atom_site_fract_z
Si Si1 0.955411 0.306523 0.978572
Si Si2 0.166354 0.153272 0.882313
Si Si3 0.543702 0.689653 0.450362
Si Si4 0.867169 0.904283 0.713194
Si Si5 0.921019 0.593833 0.480359
Si Si6 0.281159 0.721737 0.550523
Si Si7 0.291777 0.039763 0.425005
O O1 0.976396 0.283983 0.740654
O O2 0.801250 0.232242 0.190305
O O3 0.000000 0.500000 0.000000
O O4 0.054107 0.242679 0.990251
O O5 0.130162 0.035337 0.070483
O O6 0.316727 0.278240 0.794050
O O7 0.167242 0.046353 0.681223
O O8 0.500000 0.500000 0.500000
O O9 0.430045 0.730889 0.460001
O O10 0.574414 0.811790 0.618398
O O11 0.857812 0.709713 0.686803
O O12 0.740523 0.931244 0.740908
O O13 0.000000 0.000000 0.500000
O O14 0.796759 0.460474 0.481094
O O15 0.000000 0.500000 0.500000
O O16 0.304747 0.857628 0.398322
#
# Coordination Sequence:
#
# PCOD8043268 Si02
#       7
#     2   2   2   2   2   2   2
#     4  10  19  36  60  90 121 161 208 257 310 367
#     4  10  23  40  65  93 126 168 210 254 322 370
#     4  10  21  42  66  90 124 169 213 255 316 376
#     4  12  23  39  64  95 130 163 210 262 314 373
#     4  11  22  37  57  94 131 159 211 264 313 370
#     4  11  22  40  65  89 125 172 206 258 318 372
#     4  10  23  41  64  89 131 160 214 254 317 370
#
# _framework density 22.102685000000001
#
# number of rings (size 3 to 8) (size 9 to 14) (size 15 to 20)
#    0.857    0.571    1.429    6.429    2.000    1.143 
#    0.000    5.000    0.000    0.000    0.000    0.000 
#    0.000    0.000    0.000    0.000    0.000    0.000 
#
# Total GULP energy -173506.824823 kJ/mol
# GULP energy per Si atom -12393.344630 kJ/mol
# Density = 2.205238 g / cm^3
# Si number density = 22.102685 Si / 1000 Ang^3
#
#
#
# Elastic Constant Matrix: (Units=GPa)
#
#
# Indices 1 2 3 4 5 6 
#
# 1 146.8659 17.3710 34.3843 -11.7285 -6.1054 -27.6082
# 2 17.3710 56.4716 -0.1198 -9.6704 -8.1274 -19.1079
# 3 34.3843 -0.1198 70.8211 -11.9233 2.9685 -10.3558
# 4 -11.7285 -9.6704 -11.9233 36.8397 0.4466 3.0092
# 5 -6.1054 -8.1274 2.9685 0.4466 43.5404 -8.7789
# 6 -27.6082 -19.1079 -10.3558 3.0092 -8.7789 46.3857
#
#
#
# Elastic Compliance Matrix: (Units=1/GPa)
#
#
# Indices 1 2 3 4 5 6 
#
# 1 0.008730 -0.000666 -0.003494 0.001079 0.002233 0.004494
# 2 -0.000666 0.023403 0.002641 0.005843 0.006177 0.010624
# 3 -0.003494 0.002641 0.017022 0.004907 -0.000734 0.002351
# 4 0.001079 0.005843 0.004907 0.030403 0.001075 0.002376
# 5 0.002233 0.006177 -0.000734 0.001075 0.026206 0.008600
# 6 0.004494 0.010624 0.002351 0.002376 0.008600 0.030608
#
#
# Mechanical properties :
#
#
# Convention : Reuss Voigt Hill
#
# Bulk Modulus (GPa) = 21.68430 41.93661 31.81046
# Shear Modulus (GPa) = 32.30369 40.18802 36.24585
#
# Velocity S-wave (km/s) = 3.82714 4.26871 4.05394
# Velocity P-wave (km/s) = 5.41861 6.58108 6.02793
#
# Compressibility (1/GPa) = 0.04611631
#
# Stress axis : x y z
#
# Youngs Moduli (GPa) = 114.55336 42.72998 58.74859
#
# Poissons Ratio (x) = 0.02845 0.20528
# Poissons Ratio (y) = 0.07628 -0.15517
# Poissons Ratio (z) = 0.40027 -0.11286
#
# Static dielectric constant tensor:
#      x y z
#    x 4.197500 -0.120970 0.194130 
#    y -0.120970 4.431890 0.253010 
#    z 0.194130 0.253010 5.174850 
# 
# 
# High freq. dielectric constant tensor:
#      x y z
#    x 1.870960 -0.009090 0.005300 
#    y -0.009090 1.892090 -0.005770 
#    z 0.005300 -0.005770 1.840730 
# 
# From -- ./inp_files/234575.got.cif
#   From: 2010.06.25/outbox.cif.g09.slc.cpg/sg2_118_cif.got.tgz:234575.got - 2010.06.27 13:26:56.
