data_PCOD8043670
_publ_section_title
;
Structure prediction by ZEFSAII (Michael W. Deem and Ramdas Pophale) SiO2 
 PCOD8043670
Probable space group: P -1
;
_chemical_formula_sum "Si O2"
_cell_formula_units_Z 16
_cell_length_a 17.242447
_cell_length_b 7.283568
_cell_length_c 18.349609
_cell_angle_alpha 145.461095
_cell_angle_beta 147.192009
_cell_angle_gamma 45.175049
_cell_volume 707.327746
_symmetry_space_group_name_H-M "P -1"
_symmetry_group_IT_number 2
_symmetry_cell_setting 'triclinic'
loop_
_space_group_symop_operation_xyz
x,y,z
-x,-y,-z
loop_
_atom_site_type_symbol
_atom_site_label
_atom_site_fract_x
_atom_site_fract_y
_atom_site_fract_z
Si Si1 0.737146 0.950222 0.399452
Si Si2 0.342482 0.688837 0.808505
Si Si3 0.527089 0.878823 0.835097
Si Si4 0.530583 0.266789 0.710961
Si Si5 0.040954 0.869006 0.644780
Si Si6 0.713337 0.957182 0.876437
Si Si7 0.695893 0.191913 0.606248
Si Si8 0.004338 0.129659 0.859369
O O1 0.709085 0.566801 0.255060
O O2 0.905038 0.028378 0.544636
O O3 0.642498 0.111324 0.312879
O O4 0.681945 0.099293 0.480735
O O5 0.418663 0.516124 0.744375
O O6 0.194366 0.885877 0.730731
O O7 0.450606 0.933233 0.010406
O O8 0.585144 0.497630 0.764226
O O9 0.611585 0.061964 0.897992
O O10 0.664327 0.147174 0.827245
O O11 0.442109 0.959716 0.512658
O O12 0.000000 0.500000 0.500000
O O13 0.056326 0.064254 0.796642
O O14 0.694249 0.575810 0.730490
O O15 0.878437 0.047981 0.052419
O O16 0.839844 0.022030 0.700919
O O17 0.000000 0.500000 0.000000
#
# Coordination Sequence:
#
# PCOD8043670 Si02
#       8
#     2   2   2   2   2   2   2   2
#     4   9  19  34  58  82 111 148 183 231 281 330
#     4  10  19  37  54  79 116 144 188 233 272 332
#     4  12  22  35  56  85 115 149 184 226 286 332
#     4  11  24  36  55  86 117 143 189 234 273 335
#     4   9  17  31  57  85 105 148 193 227 277 338
#     4  11  21  38  61  81 112 151 185 230 283 334
#     4   9  19  39  59  81 112 146 189 232 276 331
#     4   9  18  34  61  83 107 149 192 230 280 335
#
# _framework density 22.620349000000001
#
# number of rings (size 3 to 8) (size 9 to 14) (size 15 to 20)
#    0.000    2.000    3.750    1.875    0.000    0.500 
#    0.000    1.875    0.000    2.250    0.000    0.000 
#    0.000    0.000    0.000    0.000    0.000    0.000 
#
# Total GULP energy -198228.264660 kJ/mol
# GULP energy per Si atom -12389.266541 kJ/mol
# Density = 2.256886 g / cm^3
# Si number density = 22.620349 Si / 1000 Ang^3
#
#
#
# Elastic Constant Matrix: (Units=GPa)
#
#
# Indices 1 2 3 4 5 6 
#
# 1 12.8923 9.2096 2.0637 -4.4785 4.0328 0.2001
# 2 9.2096 98.9937 32.9249 -33.3059 9.3841 2.8446
# 3 2.0637 32.9249 112.2032 -20.9364 -1.8546 -1.7369
# 4 -4.4785 -33.3059 -20.9364 51.7960 -16.4267 -1.4735
# 5 4.0328 9.3841 -1.8546 -16.4267 12.9726 4.8289
# 6 0.2001 2.8446 -1.7369 -1.4735 4.8289 32.8806
#
#
#
# Elastic Compliance Matrix: (Units=1/GPa)
#
#
# Indices 1 2 3 4 5 6 
#
# 1 0.091530 -0.007730 -0.001657 -0.009190 -0.036592 0.004986
# 2 -0.007730 0.014211 -0.002445 0.008345 0.002846 -0.001355
# 3 -0.001657 -0.002445 0.011133 0.006822 0.012798 -0.000764
# 4 -0.009190 0.008345 0.006822 0.044330 0.056386 -0.006600
# 5 -0.036592 0.002846 0.012798 0.056386 0.167610 -0.021436
# 6 0.004986 -0.001355 -0.000764 -0.006600 -0.021436 0.033312
#
#
# Mechanical properties :
#
#
# Convention : Reuss Voigt Hill
#
# Bulk Modulus (GPa) = 10.72863 34.72062 22.72463
# Shear Modulus (GPa) = 11.99443 31.52257 21.75850
#
# Velocity S-wave (km/s) = 2.30521 3.73708 3.10481
# Velocity P-wave (km/s) = 3.44072 5.83126 4.78760
#
# Compressibility (1/GPa) = 0.09320853
#
# Stress axis : x y z
#
# Youngs Moduli (GPa) = 10.92541 70.36906 89.82443
#
# Poissons Ratio (x) = 0.54398 0.14888
# Poissons Ratio (y) = 0.08446 0.21958
# Poissons Ratio (z) = 0.01811 0.17202
#
# Static dielectric constant tensor:
#      x y z
#    x 3.758630 -0.366090 0.192620 
#    y -0.366090 4.304180 -0.223050 
#    z 0.192620 -0.223050 4.514720 
# 
# 
# High freq. dielectric constant tensor:
#      x y z
#    x 1.844270 -0.034250 -0.005590 
#    y -0.034250 1.886520 -0.010260 
#    z -0.005590 -0.010260 1.916190 
# 
# From -- ./inp_files/503108.got.cif
#   From: 2010.06.25/outbox.cif.g09.slc.cpg/sg2_252_cif.got.tgz:503108.got - 2010.06.27 13:26:56.
