data_PCOD8043948
_publ_section_title
;
Structure prediction by ZEFSAII (Michael W. Deem and Ramdas Pophale) SiO2 
 PCOD8043948
Probable space group: P -1
;
_chemical_formula_sum "Si O2"
_cell_formula_units_Z 14
_cell_length_a 12.139658
_cell_length_b 10.875028
_cell_length_c 20.507542
_cell_angle_alpha 139.865348
_cell_angle_beta 25.377110
_cell_angle_gamma 125.906394
_cell_volume 692.572411
_symmetry_space_group_name_H-M "P -1"
_symmetry_group_IT_number 2
_symmetry_cell_setting 'triclinic'
loop_
_space_group_symop_operation_xyz
x,y,z
-x,-y,-z
loop_
_atom_site_type_symbol
_atom_site_label
_atom_site_fract_x
_atom_site_fract_y
_atom_site_fract_z
Si Si1 0.288192 0.885957 0.057553
Si Si2 0.337215 0.880336 0.500843
Si Si3 0.666601 0.728450 0.041028
Si Si4 0.258011 0.507460 0.680362
Si Si5 0.653781 0.302313 0.912737
Si Si6 0.737312 0.457221 0.155072
Si Si7 0.739120 0.934419 0.520063
O O1 0.317750 0.742202 0.920876
O O2 0.329350 0.735962 0.035615
O O3 0.500000 0.000000 0.000000
O O4 0.980971 0.052496 0.282091
O O5 0.463742 0.644484 0.357018
O O6 0.500000 0.000000 0.500000
O O7 0.353783 0.906355 0.425317
O O8 0.599416 0.737520 0.003202
O O9 0.472014 0.951601 0.263492
O O10 0.597062 0.543024 0.034262
O O11 0.988910 0.677863 0.859539
O O12 0.500000 0.500000 0.500000
O O13 0.251366 0.575949 0.786606
O O14 0.279487 0.276012 0.579033
O O15 0.937268 0.139087 0.661597
O O16 0.000000 0.500000 0.000000
#
# Coordination Sequence:
#
# PCOD8043948 Si02
#       7
#     2   2   2   2   2   2   2
#     4  11  25  40  61  95 130 159 206 269 323 368
#     4  11  20  38  67  93 117 163 219 265 301 374
#     4  10  20  37  64  81 117 165 204 249 308 369
#     4  11  25  38  55  94 129 156 203 261 314 372
#     4   9  20  39  57  89 118 156 208 255 303 376
#     4  12  22  42  70  92 122 171 220 260 305 382
#     4  10  19  37  61  90 114 155 216 257 303 371
#
# _framework density 20.214493000000001
#
# number of rings (size 3 to 8) (size 9 to 14) (size 15 to 20)
#    0.000    1.429    2.857    3.857    0.000    3.429 
#    0.000    2.857    0.000    0.000    0.000    0.000 
#    0.000    0.000    0.000    0.000    0.000    0.000 
#
# Total GULP energy -173472.773469 kJ/mol
# GULP energy per Si atom -12390.912391 kJ/mol
# Density = 2.016848 g / cm^3
# Si number density = 20.214493 Si / 1000 Ang^3
#
#
#
# Elastic Constant Matrix: (Units=GPa)
#
#
# Indices 1 2 3 4 5 6 
#
# 1 123.9264 30.7870 70.6169 0.8761 -7.8183 13.1290
# 2 30.7870 55.6219 36.0503 -5.3837 -3.5981 19.7027
# 3 70.6169 36.0503 113.3609 -2.2759 -5.3648 9.3241
# 4 0.8761 -5.3837 -2.2759 33.2428 -0.0873 -2.7768
# 5 -7.8183 -3.5981 -5.3648 -0.0873 37.9421 2.8226
# 6 13.1290 19.7027 9.3241 -2.7768 2.8226 31.4634
#
#
#
# Elastic Compliance Matrix: (Units=1/GPa)
#
#
# Indices 1 2 3 4 5 6 
#
# 1 0.013038 -0.001559 -0.007363 -0.001309 0.001684 -0.002548
# 2 -0.001559 0.029297 -0.006874 0.003017 0.002655 -0.015630
# 3 -0.007363 -0.006874 0.015355 0.000372 -0.000211 0.002878
# 4 -0.001309 0.003017 0.000372 0.030735 0.000046 0.001255
# 5 0.001684 0.002655 -0.000211 0.000046 0.027278 -0.004746
# 6 -0.002548 -0.015630 0.002878 0.001255 -0.004746 0.042318
#
#
# Mechanical properties :
#
#
# Convention : Reuss Voigt Hill
#
# Bulk Modulus (GPa) = 38.31745 63.09084 50.70414
# Shear Modulus (GPa) = 25.21294 30.89333 28.05313
#
# Velocity S-wave (km/s) = 3.53550 3.91356 3.72932
# Velocity P-wave (km/s) = 5.97185 7.19025 6.60919
#
# Compressibility (1/GPa) = 0.02609777
#
# Stress axis : x y z
#
# Youngs Moduli (GPa) = 76.70065 34.13321 65.12728
#
# Poissons Ratio (x) = 0.05323 0.47951
# Poissons Ratio (y) = 0.11961 0.44766
# Poissons Ratio (z) = 0.56473 0.23462
#
# Static dielectric constant tensor:
#      x y z
#    x 3.905730 0.051310 -0.232600 
#    y 0.051310 3.436540 0.318040 
#    z -0.232600 0.318040 3.671830 
# 
# 
# High freq. dielectric constant tensor:
#      x y z
#    x 1.807300 0.004590 -0.013820 
#    y 0.004590 1.767360 0.022110 
#    z -0.013820 0.022110 1.794130 
# 
# From -- ./inp_files/182012.got.cif
#   From: 2010.06.25/outbox.cif.g09.slc.cpg/sg2_92_cif.got.tgz:182012.got - 2010.06.27 13:26:56.
