data_PCOD8043739
_publ_section_title
;
Structure prediction by ZEFSAII (Michael W. Deem and Ramdas Pophale) SiO2 
 PCOD8043739
Probable space group: P -1
;
_chemical_formula_sum "Si O2"
_cell_formula_units_Z 16
_cell_length_a 20.426239
_cell_length_b 11.203525
_cell_length_c 6.990527
_cell_angle_alpha 131.785649
_cell_angle_beta 57.366079
_cell_angle_gamma 137.662237
_cell_volume 799.897275
_symmetry_space_group_name_H-M "P -1"
_symmetry_group_IT_number 2
_symmetry_cell_setting 'triclinic'
loop_
_space_group_symop_operation_xyz
x,y,z
-x,-y,-z
loop_
_atom_site_type_symbol
_atom_site_label
_atom_site_fract_x
_atom_site_fract_y
_atom_site_fract_z
Si Si1 0.390719 0.419703 0.108291
Si Si2 0.882539 0.488509 0.521478
Si Si3 0.272612 0.562349 0.021636
Si Si4 0.717427 0.789644 0.314015
Si Si5 0.104044 0.771547 0.490474
Si Si6 0.631404 0.852580 0.849054
Si Si7 0.793689 0.302264 0.062567
Si Si8 0.448393 0.797855 0.246136
O O1 0.350539 0.297344 0.238141
O O2 0.391239 0.613280 0.292769
O O3 0.500000 0.500000 0.000000
O O4 0.321025 0.252957 0.884312
O O5 0.877327 0.304777 0.425380
O O6 0.846093 0.444580 0.314050
O O7 0.992912 0.691354 0.567019
O O8 0.819314 0.531522 0.793268
O O9 0.290077 0.396409 0.783536
O O10 0.256837 0.622827 0.905301
O O11 0.367749 0.763390 0.187324
O O12 0.647869 0.830461 0.577647
O O13 0.829012 0.987798 0.355978
O O14 0.126985 0.691300 0.183707
O O15 0.524462 0.789167 0.991605
O O16 0.710490 0.080535 0.036814
O O17 0.500000 0.000000 0.500000
#
# Coordination Sequence:
#
# PCOD8043739 Si02
#       8
#     2   2   2   2   2   2   2   2
#     4   9  20  36  56  79 106 142 181 220 262 316
#     4  10  19  37  58  80 109 142 178 227 275 311
#     4  10  23  36  53  82 113 143 179 224 270 324
#     4  10  21  38  54  81 112 139 184 222 263 326
#     4   9  20  36  60  82 104 142 184 223 268 324
#     4  10  21  36  58  78 106 149 178 221 270 307
#     4  10  20  36  57  83 110 140 182 222 268 328
#     4  10  21  37  56  81 110 144 184 222 268 324
#
# _framework density 20.002569999999999
#
# number of rings (size 3 to 8) (size 9 to 14) (size 15 to 20)
#    0.000    2.250    0.000    1.875    0.000   13.500 
#    0.000    1.875    0.000    0.000    0.000    0.000 
#    0.000    0.000    0.000    0.000    0.000    0.000 
#
# Total GULP energy -198363.278791 kJ/mol
# GULP energy per Si atom -12397.704924 kJ/mol
# Density = 1.995704 g / cm^3
# Si number density = 20.002570 Si / 1000 Ang^3
#
#
#
# Elastic Constant Matrix: (Units=GPa)
#
#
# Indices 1 2 3 4 5 6 
#
# 1 97.4704 35.9982 34.8794 0.2816 14.9411 9.4564
# 2 35.9982 102.7458 32.5126 3.9375 6.4104 6.2942
# 3 34.8794 32.5126 73.8935 10.0004 9.7022 4.9693
# 4 0.2816 3.9375 10.0004 31.2806 1.7130 -1.2460
# 5 14.9411 6.4104 9.7022 1.7130 31.5846 -5.6801
# 6 9.4564 6.2942 4.9693 -1.2460 -5.6801 28.9960
#
#
#
# Elastic Compliance Matrix: (Units=1/GPa)
#
#
# Indices 1 2 3 4 5 6 
#
# 1 0.014297 -0.002997 -0.004667 0.001878 -0.005583 -0.004225
# 2 -0.002997 0.012053 -0.003772 -0.000323 -0.000034 -0.001013
# 3 -0.004667 -0.003772 0.018586 -0.005339 -0.002736 -0.001610
# 4 0.001878 -0.000323 -0.005339 0.033806 -0.000713 0.001686
# 5 -0.005583 -0.000034 -0.002736 -0.000713 0.036895 0.009494
# 6 -0.004225 -0.001013 -0.001610 0.001686 0.009494 0.038294
#
#
# Mechanical properties :
#
#
# Convention : Reuss Voigt Hill
#
# Bulk Modulus (GPa) = 45.32401 53.43224 49.37812
# Shear Modulus (GPa) = 27.15087 29.75354 28.45221
#
# Velocity S-wave (km/s) = 3.68825 3.86098 3.77560
# Velocity P-wave (km/s) = 6.39107 6.82985 6.61410
#
# Compressibility (1/GPa) = 0.02206336
#
# Stress axis : x y z
#
# Youngs Moduli (GPa) = 69.94639 82.96633 53.80527
#
# Poissons Ratio (x) = 0.24866 0.25109
# Poissons Ratio (y) = 0.20964 0.20297
# Poissons Ratio (z) = 0.32641 0.31297
#
# Static dielectric constant tensor:
#      x y z
#    x 3.697670 -0.078430 0.073140 
#    y -0.078430 3.826110 -0.087970 
#    z 0.073140 -0.087970 3.399850 
# 
# 
# High freq. dielectric constant tensor:
#      x y z
#    x 1.777820 0.002370 0.006370 
#    y 0.002370 1.786750 -0.002890 
#    z 0.006370 -0.002890 1.770930 
# 
# From -- ./inp_files/39340.got.cif
#   From: 2010.06.25/outbox.cif.g09.slc.cpg/sg2_20_cif.got.tgz:39340.got - 2010.06.27 13:26:56.
