data_PCOD8043940
_publ_section_title
;
Structure prediction by ZEFSAII (Michael W. Deem and Ramdas Pophale) SiO2 
 PCOD8043940
Probable space group: P -1
;
_chemical_formula_sum "Si O2"
_cell_formula_units_Z 16
_cell_length_a 23.401858
_cell_length_b 15.149981
_cell_length_c 14.505952
_cell_angle_alpha 152.362803
_cell_angle_beta 152.315686
_cell_angle_gamma 20.340335
_cell_volume 779.769120
_symmetry_space_group_name_H-M "P -1"
_symmetry_group_IT_number 2
_symmetry_cell_setting 'triclinic'
loop_
_space_group_symop_operation_xyz
x,y,z
-x,-y,-z
loop_
_atom_site_type_symbol
_atom_site_label
_atom_site_fract_x
_atom_site_fract_y
_atom_site_fract_z
Si Si1 0.613393 0.469888 0.908842
Si Si2 0.396953 0.271441 0.698150
Si Si3 0.121256 0.634814 0.279398
Si Si4 0.832982 0.541432 0.193419
Si Si5 0.131596 0.375881 0.881929
Si Si6 0.223009 0.943853 0.727541
Si Si7 0.256589 0.308971 0.352197
Si Si8 0.774231 0.884517 0.587461
O O1 0.408915 0.724622 0.837252
O O2 0.658287 0.201164 0.710770
O O3 0.657946 0.491651 0.096479
O O4 0.720008 0.479957 0.998305
O O5 0.326191 0.384870 0.598482
O O6 0.310521 0.168983 0.512446
O O7 0.606127 0.015017 0.760569
O O8 0.145691 0.830281 0.477908
O O9 0.242772 0.434818 0.352533
O O10 0.182589 0.468129 0.119680
O O11 0.917282 0.810003 0.172598
O O12 0.795366 0.630306 0.115923
O O13 0.777686 0.786389 0.400396
O O14 0.033685 0.268334 0.246182
O O15 0.924143 0.579044 0.767254
O O16 0.228295 0.071703 0.763113
#
# Coordination Sequence:
#
# PCOD8043940 Si02
#       8
#     2   2   2   2   2   2   2   2
#     4  11  22  39  62  89 117 153 195 245 292 344
#     4  10  20  36  61  93 119 152 191 238 298 348
#     4  10  21  39  60  85 119 159 191 235 290 348
#     4  10  23  40  61  85 114 158 199 238 292 347
#     4  11  21  40  62  84 118 161 194 234 287 350
#     4  10  22  39  59  88 119 153 194 240 288 343
#     4  10  19  37  61  88 125 154 188 240 290 348
#     4  10  21  42  60  84 121 152 193 247 292 341
#
# _framework density 20.518895000000001
#
# number of rings (size 3 to 8) (size 9 to 14) (size 15 to 20)
#    0.000    1.750    1.250    4.125    0.000    2.500 
#    6.750    4.375    0.000    0.000    0.000    0.000 
#    0.000    0.000    0.000    0.000    0.000    0.000 
#
# Total GULP energy -198450.400174 kJ/mol
# GULP energy per Si atom -12403.150011 kJ/mol
# Density = 2.047219 g / cm^3
# Si number density = 20.518895 Si / 1000 Ang^3
#
#
#
# Elastic Constant Matrix: (Units=GPa)
#
#
# Indices 1 2 3 4 5 6 
#
# 1 81.5303 29.5150 36.1189 0.6432 -32.4680 14.8299
# 2 29.5150 98.8209 45.3541 -5.0905 -14.2697 6.3180
# 3 36.1189 45.3541 74.7211 3.7354 -11.2341 9.7823
# 4 0.6432 -5.0905 3.7354 26.3887 -1.2022 3.2111
# 5 -32.4680 -14.2697 -11.2341 -1.2022 29.4820 -7.8376
# 6 14.8299 6.3180 9.7823 3.2111 -7.8376 24.9738
#
#
#
# Elastic Compliance Matrix: (Units=1/GPa)
#
#
# Indices 1 2 3 4 5 6 
#
# 1 0.027109 0.000025 -0.008777 0.002351 0.025280 -0.005035
# 2 0.000025 0.014900 -0.008687 0.004247 0.004206 0.000393
# 3 -0.008777 -0.008687 0.022560 -0.004599 -0.006201 -0.002782
# 4 0.002351 0.004247 -0.004599 0.040040 0.003249 -0.004797
# 5 0.025280 0.004206 -0.006201 0.003249 0.063089 0.005735
# 6 -0.005035 0.000393 -0.002782 -0.004797 0.005735 0.046439
#
#
# Mechanical properties :
#
#
# Convention : Reuss Voigt Hill
#
# Bulk Modulus (GPa) = 33.68011 53.00536 43.34274
# Shear Modulus (GPa) = 19.31150 25.77453 22.54301
#
# Velocity S-wave (km/s) = 3.07116 3.54805 3.31818
# Velocity P-wave (km/s) = 5.38756 6.53249 5.98745
#
# Compressibility (1/GPa) = 0.02969111
#
# Stress axis : x y z
#
# Youngs Moduli (GPa) = 36.88804 67.11383 44.32533
#
# Poissons Ratio (x) = -0.00166 0.38903
# Poissons Ratio (y) = -0.00091 0.38507
# Poissons Ratio (z) = 0.32376 0.58304
#
# Static dielectric constant tensor:
#      x y z
#    x 3.721880 -0.080880 -0.045770 
#    y -0.080880 3.696810 -0.050470 
#    z -0.045770 -0.050470 3.641680 
# 
# 
# High freq. dielectric constant tensor:
#      x y z
#    x 1.798250 -0.003340 -0.002450 
#    y -0.003340 1.802840 -0.006710 
#    z -0.002450 -0.006710 1.802480 
# 
# From -- ./inp_files/390424.got.cif
#   From: 2010.06.25/outbox.cif.g09.slc.cpg/sg2_196_cif.got.tgz:390424.got - 2010.06.27 13:26:56.
