data_PCOD8043171
_publ_section_title
;
Structure prediction by ZEFSAII (Michael W. Deem and Ramdas Pophale) SiO2 
 PCOD8043171
Probable space group: P -1
;
_chemical_formula_sum "Si O2"
_cell_formula_units_Z 16
_cell_length_a 17.306419
_cell_length_b 11.790392
_cell_length_c 9.202398
_cell_angle_alpha 110.541673
_cell_angle_beta 102.433347
_cell_angle_gamma 136.086327
_cell_volume 845.442293
_symmetry_space_group_name_H-M "P -1"
_symmetry_group_IT_number 2
_symmetry_cell_setting 'triclinic'
loop_
_space_group_symop_operation_xyz
x,y,z
-x,-y,-z
loop_
_atom_site_type_symbol
_atom_site_label
_atom_site_fract_x
_atom_site_fract_y
_atom_site_fract_z
Si Si1 0.611621 0.263873 0.481369
Si Si2 0.520477 0.172098 0.718181
Si Si3 0.792321 0.483952 0.172342
Si Si4 0.109579 0.987200 0.640843
Si Si5 0.391152 0.175672 0.891390
Si Si6 0.093957 0.194522 0.252809
Si Si7 0.395624 0.969897 0.007506
Si Si8 0.716496 0.622970 0.335683
O O1 0.534661 0.216861 0.574362
O O2 0.795871 0.552743 0.660163
O O3 0.597275 0.097788 0.409727
O O4 0.499032 0.169592 0.267356
O O5 0.452790 0.205301 0.775891
O O6 0.704001 0.388986 0.940463
O O7 0.766262 0.309561 0.126405
O O8 0.706463 0.462429 0.243368
O O9 0.982992 0.757278 0.375393
O O10 0.252683 0.086064 0.771274
O O11 0.171285 0.185654 0.666678
O O12 0.033473 0.920225 0.735265
O O13 0.331600 0.983053 0.875005
O O14 0.537583 0.437684 0.156038
O O15 0.206786 0.250168 0.416448
O O16 0.000000 0.000000 0.000000
O O17 0.500000 0.000000 0.000000
#
# Coordination Sequence:
#
# PCOD8043171 Si02
#       8
#     2   2   2   2   2   2   2   2
#     4  10  19  36  59  86 111 139 201 229 271 337
#     4   9  20  34  63  84 107 150 183 236 280 342
#     4   9  18  33  60  81 107 145 192 235 275 330
#     4  11  24  37  55  89 117 149 190 237 285 335
#     4  11  21  37  61  85 113 149 190 239 287 337
#     4  11  23  37  60  85 113 152 193 237 276 331
#     4  11  16  35  61  84 108 147 196 233 277 336
#     4  10  20  39  58  78 114 156 197 226 268 351
#
# _framework density 18.925006
#
# number of rings (size 3 to 8) (size 9 to 14) (size 15 to 20)
#    0.000    1.750    5.000    2.625    5.250    0.500 
#    0.000    1.875    0.000    2.250    0.000    0.000 
#    0.000    0.000    0.000    0.000    0.000    0.000 
#
# Total GULP energy -198241.257544 kJ/mol
# GULP energy per Si atom -12390.078596 kJ/mol
# Density = 1.888193 g / cm^3
# Si number density = 18.925006 Si / 1000 Ang^3
#
#
#
# Elastic Constant Matrix: (Units=GPa)
#
#
# Indices 1 2 3 4 5 6 
#
# 1 63.7562 29.8282 51.2472 -1.7586 11.0491 8.3580
# 2 29.8282 99.9589 51.1456 0.2730 -6.1284 2.6936
# 3 51.2472 51.1456 149.7882 3.5066 2.3123 4.6992
# 4 -1.7586 0.2730 3.5066 38.8179 4.4260 -3.3080
# 5 11.0491 -6.1284 2.3123 4.4260 25.6630 2.2600
# 6 8.3580 2.6936 4.6992 -3.3080 2.2600 17.0765
#
#
#
# Elastic Compliance Matrix: (Units=1/GPa)
#
#
# Indices 1 2 3 4 5 6 
#
# 1 0.026947 -0.004879 -0.007167 0.002535 -0.011819 -0.008392
# 2 -0.004879 0.013314 -0.002955 -0.000672 0.005643 0.000224
# 3 -0.007167 -0.002955 0.010121 -0.001344 0.001637 0.000712
# 4 0.002535 -0.000672 -0.001344 0.027173 -0.006287 0.005331
# 5 -0.011819 0.005643 0.001637 -0.006287 0.046599 -0.002941
# 6 -0.008392 0.000224 0.000712 0.005331 -0.002941 0.063858
#
#
# Mechanical properties :
#
#
# Convention : Reuss Voigt Hill
#
# Bulk Modulus (GPa) = 49.07042 64.21614 56.64328
# Shear Modulus (GPa) = 22.24132 28.39697 25.31915
#
# Velocity S-wave (km/s) = 3.43189 3.87783 3.66166
# Velocity P-wave (km/s) = 6.45670 7.35226 6.91898
#
# Compressibility (1/GPa) = 0.02037888
#
# Stress axis : x y z
#
# Youngs Moduli (GPa) = 37.11047 75.10953 98.80474
#
# Poissons Ratio (x) = 0.36649 0.70811
# Poissons Ratio (y) = 0.18108 0.29198
# Poissons Ratio (z) = 0.26596 0.22196
#
# Static dielectric constant tensor:
#      x y z
#    x 2.973730 -0.178030 -0.071650 
#    y -0.178030 3.935450 0.127740 
#    z -0.071650 0.127740 3.921600 
# 
# 
# High freq. dielectric constant tensor:
#      x y z
#    x 1.677130 -0.013730 -0.002590 
#    y -0.013730 1.751040 0.006920 
#    z -0.002590 0.006920 1.751260 
# 
# From -- ./inp_files/282154.got.cif
#   From: 2010.06.25/outbox.cif.g09.slc.cpg/sg2_142_cif.got.tgz:282154.got - 2010.06.27 13:26:56.
