data_PCOD8043391
_publ_section_title
;
Structure prediction by ZEFSAII (Michael W. Deem and Ramdas Pophale) SiO2 
 PCOD8043391
Probable space group: P -1
;
_chemical_formula_sum "Si O2"
_cell_formula_units_Z 14
_cell_length_a 15.235745
_cell_length_b 9.099605
_cell_length_c 11.287731
_cell_angle_alpha 94.505320
_cell_angle_beta 132.241755
_cell_angle_gamma 121.066507
_cell_volume 735.855804
_symmetry_space_group_name_H-M "P -1"
_symmetry_group_IT_number 2
_symmetry_cell_setting 'triclinic'
loop_
_space_group_symop_operation_xyz
x,y,z
-x,-y,-z
loop_
_atom_site_type_symbol
_atom_site_label
_atom_site_fract_x
_atom_site_fract_y
_atom_site_fract_z
Si Si1 0.634394 0.791228 0.369509
Si Si2 0.424519 0.527529 0.537725
Si Si3 0.929905 0.621269 0.827393
Si Si4 0.788698 0.628483 0.079145
Si Si5 0.703561 0.761324 0.186213
Si Si6 0.768127 0.920617 0.007816
Si Si7 0.912515 0.265499 0.765759
O O1 0.652667 0.651423 0.440457
O O2 0.422515 0.634151 0.140078
O O3 0.758542 0.890533 0.368082
O O4 0.720374 0.002200 0.541011
O O5 0.500000 0.500000 0.500000
O O6 0.262733 0.477357 0.339987
O O7 0.589402 0.788490 0.756041
O O8 0.883736 0.411013 0.735143
O O9 0.057697 0.812916 0.853119
O O10 0.036741 0.731950 0.055322
O O11 0.825131 0.733821 0.251516
O O12 0.814744 0.790623 0.020625
O O13 0.927041 0.629738 0.173907
O O14 0.715640 0.893048 0.098047
O O15 0.500000 0.500000 0.000000
#
# Coordination Sequence:
#
# PCOD8043391 Si02
#       7
#     2   2   2   2   2   2   2
#     4  10  19  36  62  84 107 145 192 229 279 328
#     4  11  21  35  62  86 108 143 191 238 280 323
#     4  11  24  38  52  82 121 150 187 225 282 332
#     4   8  18  35  59  83 106 141 188 230 275 325
#     4   8  16  36  61  88 108 138 187 238 281 323
#     4   9  19  37  59  84 110 142 184 242 274 320
#     4  11  23  37  54  79 118 157 182 224 277 344
#
# _framework density 19.025466999999999
#
# number of rings (size 3 to 8) (size 9 to 14) (size 15 to 20)
#    0.857    1.429    1.429    3.429    0.000    3.429 
#    0.000    4.286    0.000    2.571    0.000    0.000 
#    0.000    0.000    0.000    0.000    0.000    0.000 
#
# Total GULP energy -173464.451473 kJ/mol
# GULP energy per Si atom -12390.317962 kJ/mol
# Density = 1.898216 g / cm^3
# Si number density = 19.025467 Si / 1000 Ang^3
#
#
#
# Elastic Constant Matrix: (Units=GPa)
#
#
# Indices 1 2 3 4 5 6 
#
# 1 88.2947 47.3175 20.3761 -4.0599 0.0278 3.0629
# 2 47.3175 66.9920 25.8080 -2.4472 8.6560 -1.4080
# 3 20.3761 25.8080 52.1638 3.2327 0.1470 -13.2131
# 4 -4.0599 -2.4472 3.2327 22.4351 2.6048 -5.9786
# 5 0.0278 8.6560 0.1470 2.6048 30.5768 1.5068
# 6 3.0629 -1.4080 -13.2131 -5.9786 1.5068 26.6288
#
#
#
# Elastic Compliance Matrix: (Units=1/GPa)
#
#
# Indices 1 2 3 4 5 6 
#
# 1 0.019049 -0.013268 -0.001921 0.000791 0.003872 -0.003888
# 2 -0.013268 0.029160 -0.009536 0.002995 -0.008427 -0.000515
# 3 -0.001921 -0.009536 0.028070 -0.002205 0.002112 0.013031
# 4 0.000791 0.002995 -0.002205 0.048723 -0.005492 0.010223
# 5 0.003872 -0.008427 0.002112 -0.005492 0.035697 -0.003096
# 6 -0.003888 -0.000515 0.013031 0.010223 -0.003096 0.046910
#
#
# Mechanical properties :
#
#
# Convention : Reuss Voigt Hill
#
# Bulk Modulus (GPa) = 37.27407 43.82820 40.55114
# Shear Modulus (GPa) = 18.79681 23.52470 21.16075
#
# Velocity S-wave (km/s) = 3.14663 3.52018 3.33863
# Velocity P-wave (km/s) = 5.73026 6.29356 6.01850
#
# Compressibility (1/GPa) = 0.02682830
#
# Stress axis : x y z
#
# Youngs Moduli (GPa) = 52.49496 34.29401 35.62468
#
# Poissons Ratio (x) = 0.45501 0.06845
# Poissons Ratio (y) = 0.69649 0.33973
# Poissons Ratio (z) = 0.10087 0.32704
#
# Static dielectric constant tensor:
#      x y z
#    x 3.650070 0.248810 -0.199880 
#    y 0.248810 3.284800 -0.038470 
#    z -0.199880 -0.038470 3.516840 
# 
# 
# High freq. dielectric constant tensor:
#      x y z
#    x 1.737560 0.022020 -0.003720 
#    y 0.022020 1.710100 0.008400 
#    z -0.003720 0.008400 1.741960 
# 
# From -- ./inp_files/352854.got.cif
#   From: 2010.06.25/outbox.cif.g09.slc.cpg/sg2_177_cif.got.tgz:352854.got - 2010.06.27 13:26:56.
