data_PCOD8043799
_publ_section_title
;
Structure prediction by ZEFSAII (Michael W. Deem and Ramdas Pophale) SiO2 
 PCOD8043799
Probable space group: P -1
;
_chemical_formula_sum "Si O2"
_cell_formula_units_Z 16
_cell_length_a 10.833532
_cell_length_b 10.187397
_cell_length_c 11.669334
_cell_angle_alpha 124.164519
_cell_angle_beta 124.425304
_cell_angle_gamma 85.306852
_cell_volume 824.949672
_symmetry_space_group_name_H-M "P -1"
_symmetry_group_IT_number 2
_symmetry_cell_setting 'triclinic'
loop_
_space_group_symop_operation_xyz
x,y,z
-x,-y,-z
loop_
_atom_site_type_symbol
_atom_site_label
_atom_site_fract_x
_atom_site_fract_y
_atom_site_fract_z
Si Si1 0.180467 0.631342 0.282945
Si Si2 0.840601 0.488138 0.545887
Si Si3 0.377960 0.576759 0.030099
Si Si4 0.206370 0.690927 0.791005
Si Si5 0.791298 0.819315 0.715568
Si Si6 0.150575 0.025771 0.940344
Si Si7 0.500304 0.184043 0.580756
Si Si8 0.121928 0.329050 0.942669
O O1 0.171027 0.638514 0.418198
O O2 0.361761 0.721098 0.388046
O O3 0.062074 0.725878 0.221621
O O4 0.127968 0.439377 0.114067
O O5 0.743493 0.380973 0.334473
O O6 0.759787 0.620816 0.608335
O O7 0.022947 0.587402 0.663089
O O8 0.475260 0.723993 0.239093
O O9 0.500000 0.500000 0.000000
O O10 0.305770 0.663344 0.936911
O O11 0.238357 0.433266 0.954291
O O12 0.232968 0.889288 0.882571
O O13 0.671310 0.836535 0.566552
O O14 0.758228 0.880772 0.852807
O O15 0.965387 0.931631 0.820281
O O16 0.167110 0.164085 0.916697
O O17 0.500000 0.000000 0.500000
#
# Coordination Sequence:
#
# PCOD8043799 Si02
#       8
#     2   2   2   2   2   2   2   2
#     4  10  20  36  63  87 118 155 198 247 285 346
#     4  10  19  37  59  86 115 156 199 237 284 354
#     4  11  23  42  62  84 120 164 193 238 300 359
#     4  10  21  37  60  84 120 156 195 236 295 352
#     4  10  20  35  61  86 119 150 197 240 294 348
#     4  10  20  37  62  90 115 153 194 248 292 341
#     4  11  23  38  59  89 120 153 196 249 297 342
#     4  10  20  38  63  90 115 152 208 238 290 351
#
# _framework density 19.395122000000001
#
# number of rings (size 3 to 8) (size 9 to 14) (size 15 to 20)
#    0.000    1.750    2.500    2.250    0.000    0.500 
#    4.500    1.250    0.000    0.000    0.000    0.000 
#    0.000    0.000    0.000    0.000    0.000    0.000 
#
# Total GULP energy -198379.595625 kJ/mol
# GULP energy per Si atom -12398.724727 kJ/mol
# Density = 1.935098 g / cm^3
# Si number density = 19.395122 Si / 1000 Ang^3
#
#
#
# Elastic Constant Matrix: (Units=GPa)
#
#
# Indices 1 2 3 4 5 6 
#
# 1 53.5500 24.5865 34.8767 2.5001 -20.6827 -6.6335
# 2 24.5865 141.9635 62.8543 -8.4425 -15.1513 -10.9596
# 3 34.8767 62.8543 130.0189 -11.0442 -23.2166 -9.5158
# 4 2.5001 -8.4425 -11.0442 32.9836 -4.1795 -4.2007
# 5 -20.6827 -15.1513 -23.2166 -4.1795 25.9038 -6.4499
# 6 -6.6335 -10.9596 -9.5158 -4.2007 -6.4499 28.5074
#
#
#
# Elastic Compliance Matrix: (Units=1/GPa)
#
#
# Indices 1 2 3 4 5 6 
#
# 1 0.032417 -0.000541 -0.002620 0.001520 0.026628 0.012709
# 2 -0.000541 0.009365 -0.003380 0.002144 0.003207 0.003388
# 3 -0.002620 -0.003380 0.012524 0.005365 0.009308 0.005168
# 4 0.001520 0.002144 0.005365 0.036103 0.016070 0.011925
# 5 0.026628 0.003207 0.009308 0.016070 0.080420 0.031099
# 6 0.012709 0.003388 0.005168 0.011925 0.031099 0.049857
#
#
# Mechanical properties :
#
#
# Convention : Reuss Voigt Hill
#
# Bulk Modulus (GPa) = 24.25700 63.35194 43.80447
# Shear Modulus (GPa) = 20.20124 31.02662 25.61393
#
# Velocity S-wave (km/s) = 3.23083 4.00398 3.63800
# Velocity P-wave (km/s) = 5.14311 7.35599 6.34674
#
# Compressibility (1/GPa) = 0.04122522
#
# Stress axis : x y z
#
# Youngs Moduli (GPa) = 30.84802 106.77612 79.84734
#
# Poissons Ratio (x) = 0.05773 0.20921
# Poissons Ratio (y) = 0.01668 0.26986
# Poissons Ratio (z) = 0.08083 0.36088
#
# Static dielectric constant tensor:
#      x y z
#    x 3.392880 -0.105030 -0.216170 
#    y -0.105030 3.543040 0.053330 
#    z -0.216170 0.053330 3.634830 
# 
# 
# High freq. dielectric constant tensor:
#      x y z
#    x 1.739880 -0.006570 -0.005910 
#    y -0.006570 1.761740 -0.009510 
#    z -0.005910 -0.009510 1.759310 
# 
# From -- ./inp_files/262405.got.cif
#   From: 2010.06.25/outbox.cif.g09.slc.cpg/sg2_132_cif.got.tgz:262405.got - 2010.06.27 13:26:56.
