data_PCOD8043997
_publ_section_title
;
Structure prediction by ZEFSAII (Michael W. Deem and Ramdas Pophale) SiO2 
 PCOD8043997
Probable space group: P -1
;
_chemical_formula_sum "Si O2"
_cell_formula_units_Z 16
_cell_length_a 22.000736
_cell_length_b 7.936472
_cell_length_c 7.045411
_cell_angle_alpha 103.554788
_cell_angle_beta 134.722855
_cell_angle_gamma 62.650478
_cell_volume 768.625007
_symmetry_space_group_name_H-M "P -1"
_symmetry_group_IT_number 2
_symmetry_cell_setting 'triclinic'
loop_
_space_group_symop_operation_xyz
x,y,z
-x,-y,-z
loop_
_atom_site_type_symbol
_atom_site_label
_atom_site_fract_x
_atom_site_fract_y
_atom_site_fract_z
Si Si1 0.280648 0.108258 0.711283
Si Si2 0.560740 0.475788 0.945166
Si Si3 0.888771 0.251519 0.929196
Si Si4 0.441329 0.898548 0.746297
Si Si5 0.816923 0.176442 0.151354
Si Si6 0.905761 0.914945 0.607752
Si Si7 0.361096 0.893083 0.196249
Si Si8 0.753852 0.484534 0.396708
O O1 0.171849 0.141930 0.480588
O O2 0.286430 0.294609 0.689058
O O3 0.351173 0.928888 0.690620
O O4 0.318295 0.064926 0.996912
O O5 0.667542 0.428163 0.229811
O O6 0.500000 0.500000 0.000000
O O7 0.509239 0.680047 0.783452
O O8 0.559331 0.301457 0.772018
O O9 0.814605 0.447095 0.716918
O O10 0.903938 0.093250 0.764788
O O11 0.853812 0.196438 0.032087
O O12 0.989494 0.260223 0.193114
O O13 0.402191 0.982693 0.474330
O O14 0.500000 0.000000 0.000000
O O15 0.811843 0.356784 0.312582
O O16 0.884452 0.979613 0.357218
O O17 0.716192 0.171103 0.902211
#
# Coordination Sequence:
#
# PCOD8043997 Si02
#       8
#     2   2   2   2   2   2   2   2
#     4  11  22  42  57  87 129 153 202 251 303 358
#     4  11  22  42  62  89 120 161 207 256 290 362
#     4  10  19  37  62  88 115 156 201 245 304 353
#     4  12  24  41  61  91 123 160 201 251 309 360
#     4   9  19  37  60  87 118 153 203 246 295 357
#     4   9  20  36  62  88 116 154 199 251 296 360
#     4  10  23  39  64  88 119 165 203 245 304 357
#     4  10  23  38  56  89 123 155 198 253 297 359
#
# _framework density 20.816395
#
# number of rings (size 3 to 8) (size 9 to 14) (size 15 to 20)
#    0.000    1.750    2.500    2.250    1.750    2.000 
#    0.000    0.625    0.000    0.000    0.000    0.000 
#    0.000    0.000    0.000    0.000    0.000    0.000 
#
# Total GULP energy -198296.559279 kJ/mol
# GULP energy per Si atom -12393.534955 kJ/mol
# Density = 2.076902 g / cm^3
# Si number density = 20.816395 Si / 1000 Ang^3
#
#
#
# Elastic Constant Matrix: (Units=GPa)
#
#
# Indices 1 2 3 4 5 6 
#
# 1 110.9139 18.3070 58.0235 -5.5055 -5.3014 -6.0561
# 2 18.3070 56.1159 38.3890 -7.2422 2.4114 4.1011
# 3 58.0235 38.3890 139.9513 -2.2389 -9.0148 -7.1258
# 4 -5.5055 -7.2422 -2.2389 26.9611 0.5969 1.7273
# 5 -5.3014 2.4114 -9.0148 0.5969 24.1356 -2.8830
# 6 -6.0561 4.1011 -7.1258 1.7273 -2.8830 22.9180
#
#
#
# Elastic Compliance Matrix: (Units=1/GPa)
#
#
# Indices 1 2 3 4 5 6 
#
# 1 0.011709 -0.000742 -0.004454 0.001677 0.001163 0.001862
# 2 -0.000742 0.024704 -0.007195 0.006553 -0.006455 -0.008160
# 3 -0.004454 -0.007195 0.011451 -0.002277 0.004602 0.004421
# 4 0.001677 0.006553 -0.002277 0.039367 -0.002677 -0.004741
# 5 0.001163 -0.006455 0.004602 -0.002677 0.045167 0.008777
# 6 0.001862 -0.008160 0.004421 -0.004741 0.008777 0.048422
#
#
# Mechanical properties :
#
#
# Convention : Reuss Voigt Hill
#
# Bulk Modulus (GPa) = 43.32670 59.60222 51.46446
# Shear Modulus (GPa) = 23.44149 27.62037 25.53093
#
# Velocity S-wave (km/s) = 3.35939 3.64656 3.50592
# Velocity P-wave (km/s) = 5.99219 6.81354 6.41602
#
# Compressibility (1/GPa) = 0.02308045
#
# Stress axis : x y z
#
# Youngs Moduli (GPa) = 85.40185 40.47935 87.32953
#
# Poissons Ratio (x) = 0.03005 0.38901
# Poissons Ratio (y) = 0.06340 0.62834
# Poissons Ratio (z) = 0.38042 0.29125
#
# Static dielectric constant tensor:
#      x y z
#    x 3.931530 -0.738140 0.422580 
#    y -0.738140 5.109340 -1.060450 
#    z 0.422580 -1.060450 4.525780 
# 
# 
# High freq. dielectric constant tensor:
#      x y z
#    x 1.816630 -0.010820 -0.001360 
#    y -0.010820 1.789080 -0.014560 
#    z -0.001360 -0.014560 1.824540 
# 
# From -- ./inp_files/49278.got.cif
#   From: 2010.06.25/outbox.cif.g09.slc.cpg/sg2_25_cif.got.tgz:49278.got - 2010.06.27 13:26:56.
