data_PCOD8043463
_publ_section_title
;
Structure prediction by ZEFSAII (Michael W. Deem and Ramdas Pophale) SiO2 
 PCOD8043463
Probable space group: P -1
;
_chemical_formula_sum "Si O2"
_cell_formula_units_Z 16
_cell_length_a 8.696376
_cell_length_b 15.601195
_cell_length_c 11.721608
_cell_angle_alpha 79.788729
_cell_angle_beta 40.807395
_cell_angle_gamma 102.951285
_cell_volume 849.413832
_symmetry_space_group_name_H-M "P -1"
_symmetry_group_IT_number 2
_symmetry_cell_setting 'triclinic'
loop_
_space_group_symop_operation_xyz
x,y,z
-x,-y,-z
loop_
_atom_site_type_symbol
_atom_site_label
_atom_site_fract_x
_atom_site_fract_y
_atom_site_fract_z
Si Si1 0.294257 0.292020 0.101872
Si Si2 0.869965 0.420552 0.876615
Si Si3 0.472435 0.704757 0.697027
Si Si4 0.189644 0.666081 0.635046
Si Si5 0.649677 0.109715 0.829748
Si Si6 0.907068 0.881688 0.569467
Si Si7 0.053589 0.322627 0.623566
Si Si8 0.570565 0.266994 0.754044
O O1 0.200539 0.179909 0.235546
O O2 0.053903 0.313296 0.251019
O O3 0.578792 0.382295 0.983593
O O4 0.364186 0.293080 0.927926
O O5 0.059185 0.544423 0.749373
O O6 0.057943 0.384836 0.717221
O O7 0.799314 0.373629 0.054523
O O8 0.367692 0.725814 0.633466
O O9 0.665386 0.817212 0.624468
O O10 0.636098 0.646530 0.595032
O O11 0.414049 0.712114 0.393797
O O12 0.448409 0.144866 0.883358
O O13 0.815631 0.112980 0.624206
O O14 0.862085 0.196295 0.784513
O O15 0.500000 0.000000 0.000000
O O16 0.000000 0.000000 0.500000
O O17 0.895132 0.341150 0.603906
#
# Coordination Sequence:
#
# PCOD8043463 Si02
#       8
#     2   2   2   2   2   2   2   2
#     4  10  20  37  56  84 112 143 196 228 264 335
#     4  10  21  36  58  77 110 156 197 222 264 326
#     4  10  22  37  54  82 117 143 188 228 277 340
#     4  12  22  35  53  83 120 151 174 234 286 322
#     4   9  16  32  59  84 103 131 182 238 272 313
#     4  10  19  36  63  83 105 143 191 233 272 328
#     4   8  19  37  54  82 107 138 200 229 259 332
#     4   9  19  35  55  80 110 140 185 232 272 322
#
# _framework density 18.83652
#
# number of rings (size 3 to 8) (size 9 to 14) (size 15 to 20)
#    0.750    1.500    1.250    2.250    1.750    4.500 
#    0.000    0.625    0.000    3.750    0.000    0.000 
#    0.000    0.000    0.000    0.000    0.000    0.000 
#
# Total GULP energy -198242.041109 kJ/mol
# GULP energy per Si atom -12390.127569 kJ/mol
# Density = 1.879365 g / cm^3
# Si number density = 18.836520 Si / 1000 Ang^3
#
#
#
# Elastic Constant Matrix: (Units=GPa)
#
#
# Indices 1 2 3 4 5 6 
#
# 1 63.3143 22.9792 32.0972 5.3915 21.2161 11.2337
# 2 22.9792 97.1233 38.8653 -1.8676 4.7996 14.7661
# 3 32.0972 38.8653 89.4591 4.5390 26.2688 13.0613
# 4 5.3915 -1.8676 4.5390 37.1407 -1.0751 1.4184
# 5 21.2161 4.7996 26.2688 -1.0751 28.3780 5.9076
# 6 11.2337 14.7661 13.0613 1.4184 5.9076 11.9576
#
#
#
# Elastic Compliance Matrix: (Units=1/GPa)
#
#
# Indices 1 2 3 4 5 6 
#
# 1 0.024646 -0.002988 -0.001654 -0.003557 -0.014419 -0.010112
# 2 -0.002988 0.015156 -0.006074 0.002699 0.008240 -0.013665
# 3 -0.001654 -0.006074 0.019650 -0.002725 -0.015062 -0.004645
# 4 -0.003557 0.002699 -0.002725 0.028237 0.006544 -0.003596
# 5 -0.014419 0.008240 -0.015062 0.006544 0.061138 -0.011158
# 6 -0.010112 -0.013665 -0.004645 -0.003596 -0.011158 0.121016
#
#
# Mechanical properties :
#
#
# Convention : Reuss Voigt Hill
#
# Bulk Modulus (GPa) = 26.30139 48.64222 37.47181
# Shear Modulus (GPa) = 16.45027 25.89225 21.17126
#
# Velocity S-wave (km/s) = 2.95840 3.71155 3.35617
# Velocity P-wave (km/s) = 5.06585 6.65183 5.91226
#
# Compressibility (1/GPa) = 0.03802080
#
# Stress axis : x y z
#
# Youngs Moduli (GPa) = 40.57477 65.98106 50.89186
#
# Poissons Ratio (x) = 0.19714 0.08416
# Poissons Ratio (y) = 0.12123 0.30910
# Poissons Ratio (z) = 0.06710 0.40075
#
# Static dielectric constant tensor:
#      x y z
#    x 3.127120 -0.043210 0.156130 
#    y -0.043210 4.767000 -1.029460 
#    z 0.156130 -1.029460 4.715270 
# 
# 
# High freq. dielectric constant tensor:
#      x y z
#    x 1.690660 0.000730 0.010970 
#    y 0.000730 1.732710 0.018680 
#    z 0.010970 0.018680 1.738250 
# 
# From -- ./inp_files/343092.got.cif
#   From: 2010.06.25/outbox.cif.g09.slc.cpg/sg2_172_cif.got.tgz:343092.got - 2010.06.27 13:26:56.
