data_PCOD8043987
_publ_section_title
;
Structure prediction by ZEFSAII (Michael W. Deem and Ramdas Pophale) SiO2 
 PCOD8043987
Probable space group: P -1
;
_chemical_formula_sum "Si O2"
_cell_formula_units_Z 16
_cell_length_a 20.318151
_cell_length_b 8.540532
_cell_length_c 10.027411
_cell_angle_alpha 102.152059
_cell_angle_beta 46.722246
_cell_angle_gamma 65.439900
_cell_volume 764.429123
_symmetry_space_group_name_H-M "P -1"
_symmetry_group_IT_number 2
_symmetry_cell_setting 'triclinic'
loop_
_space_group_symop_operation_xyz
x,y,z
-x,-y,-z
loop_
_atom_site_type_symbol
_atom_site_label
_atom_site_fract_x
_atom_site_fract_y
_atom_site_fract_z
Si Si1 0.712636 0.678342 0.249617
Si Si2 0.258267 0.887101 0.345432
Si Si3 0.029829 0.784531 0.804050
Si Si4 0.441588 0.843845 0.603444
Si Si5 0.463220 0.590723 0.756605
Si Si6 0.981118 0.093239 0.689236
Si Si7 0.148896 0.349925 0.699030
Si Si8 0.759306 0.256950 0.395509
O O1 0.556982 0.807347 0.498832
O O2 0.762882 0.661222 0.322826
O O3 0.692595 0.866535 0.219971
O O4 0.824453 0.394389 0.979161
O O5 0.300833 0.700073 0.366221
O O6 0.256552 0.060942 0.449848
O O7 0.377861 0.714067 0.034562
O O8 0.098561 0.069002 0.543688
O O9 0.107596 0.502766 0.645746
O O10 0.140271 0.725276 0.739929
O O11 0.007628 0.904407 0.716222
O O12 0.873352 0.967483 0.125980
O O13 0.379289 0.811044 0.799341
O O14 0.516853 0.623458 0.348482
O O15 0.620231 0.461186 0.528769
O O16 0.000000 0.000000 0.500000
O O17 0.000000 0.500000 0.000000
#
# Coordination Sequence:
#
# PCOD8043987 Si02
#       8
#     2   2   2   2   2   2   2   2
#     4  11  22  43  63  88 123 164 209 255 308 367
#     4  11  23  37  59  96 124 156 208 257 315 360
#     4  10  21  37  64  91 115 163 213 245 317 361
#     4  10  24  40  64  88 124 173 205 245 312 379
#     4  11  22  40  60  93 125 164 210 249 309 374
#     4  11  23  41  62  88 125 163 203 260 304 373
#     4  12  21  40  64  94 123 155 208 266 307 357
#     4  10  19  37  62  86 121 161 204 261 296 369
#
# _framework density 20.930651999999998
#
# number of rings (size 3 to 8) (size 9 to 14) (size 15 to 20)
#    0.000    1.250    2.500    4.875    0.000    2.000 
#    0.000    6.250    0.000    0.000    0.000    0.000 
#    0.000    0.000    0.000    0.000    0.000    0.000 
#
# Total GULP energy -198302.964906 kJ/mol
# GULP energy per Si atom -12393.935307 kJ/mol
# Density = 2.088301 g / cm^3
# Si number density = 20.930652 Si / 1000 Ang^3
#
#
#
# Elastic Constant Matrix: (Units=GPa)
#
#
# Indices 1 2 3 4 5 6 
#
# 1 69.7723 37.6322 36.1163 -3.5255 15.7516 -11.5220
# 2 37.6322 141.8328 31.7147 7.7379 4.8730 -10.2003
# 3 36.1163 31.7147 87.2490 -9.8070 11.9485 -2.8251
# 4 -3.5255 7.7379 -9.8070 24.5043 -1.6726 2.8453
# 5 15.7516 4.8730 11.9485 -1.6726 36.3715 2.2762
# 6 -11.5220 -10.2003 -2.8251 2.8453 2.2762 21.8653
#
#
#
# Elastic Compliance Matrix: (Units=1/GPa)
#
#
# Indices 1 2 3 4 5 6 
#
# 1 0.023454 -0.003627 -0.006949 -0.000043 -0.008055 0.010614
# 2 -0.003627 0.008915 -0.002267 -0.004478 0.000761 0.002458
# 3 -0.006949 -0.002267 0.015969 0.006397 -0.001430 -0.003340
# 4 -0.000043 -0.004478 0.006397 0.045704 0.001079 -0.007345
# 5 -0.008055 0.000761 -0.001430 0.001079 0.031871 -0.007532
# 6 0.010614 0.002458 -0.003340 -0.007345 -0.007532 0.053783
#
#
# Mechanical properties :
#
#
# Convention : Reuss Voigt Hill
#
# Bulk Modulus (GPa) = 44.14514 56.64227 50.39371
# Shear Modulus (GPa) = 23.48178 29.44093 26.46136
#
# Velocity S-wave (km/s) = 3.35309 3.75453 3.55947
# Velocity P-wave (km/s) = 6.01065 6.77613 6.40483
#
# Compressibility (1/GPa) = 0.02265255
#
# Stress axis : x y z
#
# Youngs Moduli (GPa) = 42.63602 112.17402 62.62301
#
# Poissons Ratio (x) = 0.40685 0.43514
# Poissons Ratio (y) = 0.15464 0.14197
# Poissons Ratio (z) = 0.29626 0.25431
#
# Static dielectric constant tensor:
#      x y z
#    x 3.939260 -0.044640 -0.076880 
#    y -0.044640 4.012640 0.124850 
#    z -0.076880 0.124850 3.529020 
# 
# 
# High freq. dielectric constant tensor:
#      x y z
#    x 1.825230 -0.003660 -0.009150 
#    y -0.003660 1.835810 0.000290 
#    z -0.009150 0.000290 1.793380 
# 
# From -- ./inp_files/343626.got.cif
#   From: 2010.06.25/outbox.cif.g09.slc.cpg/sg2_172_cif.got.tgz:343626.got - 2010.06.27 13:26:56.
