data_PCOD8043525
_publ_section_title
;
Structure prediction by ZEFSAII (Michael W. Deem and Ramdas Pophale) SiO2 
 PCOD8043525
Probable space group: P -1
;
_chemical_formula_sum "Si O2"
_cell_formula_units_Z 14
_cell_length_a 11.377353
_cell_length_b 8.849449
_cell_length_c 15.464184
_cell_angle_alpha 145.782553
_cell_angle_beta 125.271546
_cell_angle_gamma 53.000707
_cell_volume 688.118878
_symmetry_space_group_name_H-M "P -1"
_symmetry_group_IT_number 2
_symmetry_cell_setting 'triclinic'
loop_
_space_group_symop_operation_xyz
x,y,z
-x,-y,-z
loop_
_atom_site_type_symbol
_atom_site_label
_atom_site_fract_x
_atom_site_fract_y
_atom_site_fract_z
Si Si1 0.179953 0.049078 0.729438
Si Si2 0.661722 0.511902 0.546961
Si Si3 0.870684 0.339068 0.018097
Si Si4 0.654137 0.784992 0.487186
Si Si5 0.761298 0.204415 0.192884
Si Si6 0.202057 0.096446 0.104718
Si Si7 0.927851 0.034850 0.730674
O O1 0.207918 0.334779 0.840604
O O2 0.002969 0.112007 0.710719
O O3 0.228133 0.801829 0.562536
O O4 0.279142 0.948982 0.811104
O O5 0.500000 0.500000 0.500000
O O6 0.658274 0.682844 0.538573
O O7 0.717899 0.672087 0.723538
O O8 0.030871 0.256754 0.092504
O O9 0.875061 0.302776 0.898478
O O10 0.775728 0.143923 0.926482
O O11 0.670509 0.527779 0.306550
O O12 0.500000 0.000000 0.500000
O O13 0.790976 0.916652 0.591127
O O14 0.940488 0.188278 0.265145
O O15 0.719743 0.052486 0.019538
#
# Coordination Sequence:
#
# PCOD8043525 Si02
#       7
#     2   2   2   2   2   2   2
#     4   9  21  38  65  87 122 157 212 246 307 356
#     4  11  25  45  56  88 129 170 197 255 312 366
#     4  10  19  36  64 100 116 152 205 263 304 353
#     4  11  22  40  62  92 123 167 208 248 303 373
#     4   8  20  38  63  90 116 162 207 251 303 354
#     4  10  21  37  64  88 127 155 204 254 308 360
#     4   9  18  36  67  88 121 155 207 253 297 360
#
# _framework density 20.345320999999998
#
# number of rings (size 3 to 8) (size 9 to 14) (size 15 to 20)
#    0.857    1.429    1.429    0.857    0.000    2.857 
#    2.571    2.857    0.000    0.000    0.000    0.000 
#    0.000    0.000    0.000    0.000    0.000    0.000 
#
# Total GULP energy -173513.672256 kJ/mol
# GULP energy per Si atom -12393.833733 kJ/mol
# Density = 2.029901 g / cm^3
# Si number density = 20.345321 Si / 1000 Ang^3
#
#
#
# Elastic Constant Matrix: (Units=GPa)
#
#
# Indices 1 2 3 4 5 6 
#
# 1 63.4980 12.1907 53.6285 -2.2297 -0.2209 1.6714
# 2 12.1907 53.5901 55.8473 17.1695 -9.1092 -9.9833
# 3 53.6285 55.8473 182.6745 8.6284 -19.9663 -5.7946
# 4 -2.2297 17.1695 8.6284 35.6330 2.7913 -5.4027
# 5 -0.2209 -9.1092 -19.9663 2.7913 31.7021 5.1860
# 6 1.6714 -9.9833 -5.7946 -5.4027 5.1860 17.5304
#
#
#
# Elastic Compliance Matrix: (Units=1/GPa)
#
#
# Indices 1 2 3 4 5 6 
#
# 1 0.021915 0.000578 -0.007267 0.002870 -0.004177 -0.002042
# 2 0.000578 0.035699 -0.009711 -0.013259 0.003352 0.011987
# 3 -0.007267 -0.009711 0.010937 0.000899 0.004332 -0.002227
# 4 0.002870 -0.013259 0.000899 0.035849 -0.007310 0.005683
# 5 -0.004177 0.003352 0.004332 -0.007310 0.037418 -0.009583
# 6 -0.002042 0.011987 -0.002227 0.005683 -0.009583 0.067916
#
#
# Mechanical properties :
#
#
# Convention : Reuss Voigt Hill
#
# Bulk Modulus (GPa) = 27.97064 60.34394 44.15729
# Shear Modulus (GPa) = 19.65014 28.84615 24.24815
#
# Velocity S-wave (km/s) = 3.11115 3.76949 3.45603
# Velocity P-wave (km/s) = 5.16561 6.97636 6.13812
#
# Compressibility (1/GPa) = 0.03575178
#
# Stress axis : x y z
#
# Youngs Moduli (GPa) = 45.63000 28.01166 91.43257
#
# Poissons Ratio (x) = -0.01620 0.66449
# Poissons Ratio (y) = -0.02639 0.88789
# Poissons Ratio (z) = 0.33162 0.27202
#
# Static dielectric constant tensor:
#      x y z
#    x 3.569850 0.163980 -0.163070 
#    y 0.163980 3.463380 0.129580 
#    z -0.163070 0.129580 3.702720 
# 
# 
# High freq. dielectric constant tensor:
#      x y z
#    x 1.775950 0.009700 -0.015120 
#    y 0.009700 1.768750 0.008310 
#    z -0.015120 0.008310 1.803020 
# 
# From -- ./inp_files/402481.got.cif
#   From: 2010.06.25/outbox.cif.g09.slc.cpg/sg2_202_cif.got.tgz:402481.got - 2010.06.27 13:26:56.
