data_PCOD8043022
_publ_section_title
;
Structure prediction by ZEFSAII (Michael W. Deem and Ramdas Pophale) SiO2 
 PCOD8043022
Probable space group: P -1
;
_chemical_formula_sum "Si O2"
_cell_formula_units_Z 16
_cell_length_a 12.335538
_cell_length_b 12.068282
_cell_length_c 26.302243
_cell_angle_alpha 28.629707
_cell_angle_beta 150.488403
_cell_angle_gamma 147.466768
_cell_volume 870.566424
_symmetry_space_group_name_H-M "P -1"
_symmetry_group_IT_number 2
_symmetry_cell_setting 'triclinic'
loop_
_space_group_symop_operation_xyz
x,y,z
-x,-y,-z
loop_
_atom_site_type_symbol
_atom_site_label
_atom_site_fract_x
_atom_site_fract_y
_atom_site_fract_z
Si Si1 0.047066 0.670151 0.629664
Si Si2 0.462059 0.935381 0.070588
Si Si3 0.130526 0.167937 0.410213
Si Si4 0.766416 0.549075 0.869960
Si Si5 0.310760 0.345795 0.828849
Si Si6 0.151118 0.099882 0.687730
Si Si7 0.907062 0.117975 0.675797
Si Si8 0.645840 0.439246 0.483002
O O1 0.007138 0.716829 0.653247
O O2 0.801845 0.517340 0.565569
O O3 0.225701 0.519402 0.761104
O O4 0.163475 0.923871 0.544949
O O5 0.335404 0.641213 0.141985
O O6 0.698309 0.012517 0.168620
O O7 0.500000 0.000000 0.000000
O O8 0.309615 0.104456 0.958129
O O9 0.381196 0.363132 0.423067
O O10 0.984208 0.112631 0.320920
O O11 0.575043 0.493381 0.859351
O O12 0.820454 0.826576 0.763899
O O13 0.000000 0.500000 0.000000
O O14 0.139543 0.260582 0.744971
O O15 0.311745 0.335919 0.628472
O O16 0.967567 0.174862 0.618005
O O17 0.697837 0.215424 0.566187
#
# Coordination Sequence:
#
# PCOD8043022 Si02
#       8
#     2   2   2   2   2   2   2   2
#     4   9  20  39  62  80 108 145 188 231 273 320
#     4  10  19  37  54  76 115 146 178 222 269 331
#     4  10  21  38  58  84 108 147 188 226 274 326
#     4  11  19  31  56  83 110 145 184 218 272 332
#     4  10  19  36  56  83 112 141 185 231 266 323
#     4  11  22  36  53  81 117 150 178 222 282 330
#     4  11  20  34  54  84 115 148 178 220 281 332
#     4  10  22  36  57  83 114 146 182 230 276 327
#
# _framework density 18.37884
#
# number of rings (size 3 to 8) (size 9 to 14) (size 15 to 20)
#    0.000    1.750    3.750    2.250    1.750    0.500 
#    0.000    0.625    0.000    0.750    0.000    0.000 
#    0.000    0.000    0.000    0.000    0.000    0.000 
#
# Total GULP energy -198350.200862 kJ/mol
# GULP energy per Si atom -12396.887554 kJ/mol
# Density = 1.833701 g / cm^3
# Si number density = 18.378840 Si / 1000 Ang^3
#
#
#
# Elastic Constant Matrix: (Units=GPa)
#
#
# Indices 1 2 3 4 5 6 
#
# 1 87.6979 36.8496 29.9478 5.9753 13.9865 -14.0616
# 2 36.8496 87.4437 20.1160 -1.8887 10.5205 3.9820
# 3 29.9478 20.1160 74.9361 2.0272 17.8568 -10.2744
# 4 5.9753 -1.8887 2.0272 27.6222 -7.1269 2.9496
# 5 13.9865 10.5205 17.8568 -7.1269 26.8490 -0.7576
# 6 -14.0616 3.9820 -10.2744 2.9496 -0.7576 33.2299
#
#
#
# Elastic Compliance Matrix: (Units=1/GPa)
#
#
# Indices 1 2 3 4 5 6 
#
# 1 0.017846 -0.006665 -0.002496 -0.006686 -0.006573 0.008022
# 2 -0.006665 0.015104 -0.002163 0.003144 -0.000331 -0.005586
# 3 -0.002496 -0.002163 0.018369 -0.004351 -0.011083 0.005016
# 4 -0.006686 0.003144 -0.004351 0.043272 0.016405 -0.008018
# 5 -0.006573 -0.000331 -0.011083 0.016405 0.052343 -0.006431
# 6 0.008022 -0.005586 0.005016 -0.008018 -0.006431 0.036274
#
#
# Mechanical properties :
#
#
# Convention : Reuss Voigt Hill
#
# Bulk Modulus (GPa) = 34.87765 47.10052 40.98908
# Shear Modulus (GPa) = 23.21120 28.41783 25.81451
#
# Velocity S-wave (km/s) = 3.55763 3.93647 3.75184
# Velocity P-wave (km/s) = 5.99115 6.80767 6.41242
#
# Compressibility (1/GPa) = 0.02867166
#
# Stress axis : x y z
#
# Youngs Moduli (GPa) = 56.03562 66.20602 54.43895
#
# Poissons Ratio (x) = 0.44127 0.13586
# Poissons Ratio (y) = 0.37349 0.11776
# Poissons Ratio (z) = 0.13984 0.14321
#
# Static dielectric constant tensor:
#      x y z
#    x 3.296910 -0.100430 0.180780 
#    y -0.100430 3.626800 -0.198570 
#    z 0.180780 -0.198570 3.505720 
# 
# 
# High freq. dielectric constant tensor:
#      x y z
#    x 1.691710 0.000540 0.013330 
#    y 0.000540 1.724460 -0.005580 
#    z 0.013330 -0.005580 1.706950 
# 
# From -- ./inp_files/109756.got.cif
#   From: 2010.06.25/outbox.cif.g09.slc.cpg/sg2_55_cif.got.tgz:109756.got - 2010.06.27 13:26:56.
