data_PCOD8043532
_publ_section_title
;
Structure prediction by ZEFSAII (Michael W. Deem and Ramdas Pophale) SiO2 
 PCOD8043532
Probable space group: P -1
;
_chemical_formula_sum "Si O2"
_cell_formula_units_Z 16
_cell_length_a 11.980781
_cell_length_b 10.820698
_cell_length_c 10.165054
_cell_angle_alpha 71.932574
_cell_angle_beta 52.609184
_cell_angle_gamma 50.887093
_cell_volume 806.671404
_symmetry_space_group_name_H-M "P -1"
_symmetry_group_IT_number 2
_symmetry_cell_setting 'triclinic'
loop_
_space_group_symop_operation_xyz
x,y,z
-x,-y,-z
loop_
_atom_site_type_symbol
_atom_site_label
_atom_site_fract_x
_atom_site_fract_y
_atom_site_fract_z
Si Si1 0.794257 0.997429 0.566446
Si Si2 0.693865 0.457168 0.480176
Si Si3 0.469306 0.346535 0.712089
Si Si4 0.998548 0.872574 0.710069
Si Si5 0.103596 0.522336 0.032373
Si Si6 0.701571 0.900351 0.408537
Si Si7 0.067445 0.104879 0.961241
Si Si8 0.078569 0.465805 0.597668
O O1 0.614046 0.158933 0.686292
O O2 0.939432 0.014780 0.398814
O O3 0.754509 0.913935 0.512246
O O4 0.877152 0.886198 0.673754
O O5 0.557020 0.437398 0.656924
O O6 0.592512 0.614311 0.408770
O O7 0.826740 0.307241 0.339020
O O8 0.810045 0.462399 0.505788
O O9 0.309143 0.401285 0.902279
O O10 0.886887 0.929338 0.905299
O O11 0.057872 0.700344 0.026535
O O12 0.072377 0.458226 0.209995
O O13 0.000000 0.500000 0.000000
O O14 0.765702 0.962131 0.227111
O O15 0.786135 0.715378 0.393173
O O16 0.500000 0.000000 0.500000
O O17 0.000000 0.000000 0.000000
O O18 0.000000 0.500000 0.500000
#
# Coordination Sequence:
#
# PCOD8043532 Si02
#       8
#     2   2   2   2   2   2   2   2
#     4  10  21  36  61  88 120 153 199 247 304 355
#     4  10  19  36  64  86 115 159 208 241 297 365
#     4  10  20  36  64  89 114 152 213 253 282 354
#     4  10  19  38  61  88 114 158 201 248 294 362
#     4  11  22  40  65  91 118 163 214 249 297 372
#     4  11  24  39  59  89 124 158 197 252 312 364
#     4  11  22  39  64  90 119 161 207 252 302 365
#     4  11  23  40  61  87 124 163 193 250 318 366
#
# _framework density 19.834595
#
# number of rings (size 3 to 8) (size 9 to 14) (size 15 to 20)
#    0.000    1.500    3.750    1.500    1.750    1.000 
#    2.250    1.250    0.000    0.000    0.000    0.000 
#    0.000    0.000    0.000    0.000    0.000    0.000 
#
# Total GULP energy -198307.242213 kJ/mol
# GULP energy per Si atom -12394.202638 kJ/mol
# Density = 1.978945 g / cm^3
# Si number density = 19.834595 Si / 1000 Ang^3
#
#
#
# Elastic Constant Matrix: (Units=GPa)
#
#
# Indices 1 2 3 4 5 6 
#
# 1 134.5452 16.6385 73.9990 -0.1774 -0.1859 2.1853
# 2 16.6385 50.5407 22.1418 1.0180 -10.7431 -6.2166
# 3 73.9990 22.1418 151.2321 0.5651 -7.1613 -12.9253
# 4 -0.1774 1.0180 0.5651 21.3106 -8.7139 -0.8266
# 5 -0.1859 -10.7431 -7.1613 -8.7139 37.9265 -0.4085
# 6 2.1853 -6.2166 -12.9253 -0.8266 -0.4085 34.8177
#
#
#
# Elastic Compliance Matrix: (Units=1/GPa)
#
#
# Indices 1 2 3 4 5 6 
#
# 1 0.010590 -0.001892 -0.005234 -0.000456 -0.001609 -0.002975
# 2 -0.001892 0.023032 -0.001825 0.001781 0.006619 0.003673
# 3 -0.005234 -0.001825 0.009823 0.000528 0.001473 0.003679
# 4 -0.000456 0.001781 0.000528 0.052040 0.012580 0.001926
# 5 -0.001609 0.006619 0.001473 0.012580 0.031429 0.002497
# 6 -0.002975 0.003673 0.003679 0.001926 0.002497 0.031004
#
#
# Mechanical properties :
#
#
# Convention : Reuss Voigt Hill
#
# Bulk Modulus (GPa) = 39.15155 62.43073 50.79114
# Shear Modulus (GPa) = 27.12446 33.71354 30.41900
#
# Velocity S-wave (km/s) = 3.70203 4.12726 3.92041
# Velocity P-wave (km/s) = 6.16889 7.36589 6.79380
#
# Compressibility (1/GPa) = 0.02554177
#
# Stress axis : x y z
#
# Youngs Moduli (GPa) = 94.42451 43.41864 101.80520
#
# Poissons Ratio (x) = 0.08217 0.53282
# Poissons Ratio (y) = 0.17869 0.18583
# Poissons Ratio (z) = 0.49419 0.07925
#
# Static dielectric constant tensor:
#      x y z
#    x 3.574970 0.192930 -0.174980 
#    y 0.192930 3.650490 -0.001710 
#    z -0.174980 -0.001710 3.677970 
# 
# 
# High freq. dielectric constant tensor:
#      x y z
#    x 1.774950 0.009550 -0.005040 
#    y 0.009550 1.769560 0.000400 
#    z -0.005040 0.000400 1.768370 
# 
# From -- ./inp_files/262373.got.cif
#   From: 2010.06.25/outbox.cif.g09.slc.cpg/sg2_132_cif.got.tgz:262373.got - 2010.06.27 13:26:56.
