data_PCOD8043215
_publ_section_title
;
Structure prediction by ZEFSAII (Michael W. Deem and Ramdas Pophale) SiO2 
 PCOD8043215
Probable space group: P -1
;
_chemical_formula_sum "Si O2"
_cell_formula_units_Z 14
_cell_length_a 5.148796
_cell_length_b 18.292662
_cell_length_c 18.264499
_cell_angle_alpha 26.805031
_cell_angle_beta 62.141584
_cell_angle_gamma 63.417404
_cell_volume 683.850557
_symmetry_space_group_name_H-M "P -1"
_symmetry_group_IT_number 2
_symmetry_cell_setting 'triclinic'
loop_
_space_group_symop_operation_xyz
x,y,z
-x,-y,-z
loop_
_atom_site_type_symbol
_atom_site_label
_atom_site_fract_x
_atom_site_fract_y
_atom_site_fract_z
Si Si1 0.126512 0.458817 0.202564
Si Si2 0.173058 0.212976 0.042960
Si Si3 0.365116 0.171194 0.894105
Si Si4 0.763594 0.795050 0.698177
Si Si5 0.883319 0.382194 0.680225
Si Si6 0.484419 0.498489 0.251920
Si Si7 0.099670 0.917048 0.674413
O O1 0.799179 0.405461 0.315307
O O2 0.226610 0.385291 0.176530
O O3 0.366589 0.404986 0.280633
O O4 0.110554 0.655431 0.027547
O O5 0.106637 0.071162 0.235965
O O6 0.205829 0.145026 0.016710
O O7 0.461436 0.308826 0.940813
O O8 0.622866 0.290117 0.761321
O O9 0.132090 0.250721 0.795553
O O10 0.500000 0.000000 0.000000
O O11 0.432109 0.857926 0.704443
O O12 0.961655 0.792254 0.747440
O O13 0.907236 0.905324 0.518953
O O14 0.758865 0.505721 0.649361
O O15 0.000000 0.500000 0.500000
#
# Coordination Sequence:
#
# PCOD8043215 Si02
#       7
#     2   2   2   2   2   2   2
#     4  10  19  36  60  80 114 148 196 239 290 334
#     4   9  22  37  61  82 116 155 193 244 290 354
#     4  11  23  42  64  92 129 160 206 254 312 365
#     4  10  22  38  55  83 117 152 190 249 285 356
#     4  11  21  41  64  89 123 165 199 257 313 363
#     4   9  19  36  56  83 114 148 189 247 285 341
#     4  10  22  38  56  80 119 152 191 237 306 342
#
# _framework density 20.472307000000001
#
# number of rings (size 3 to 8) (size 9 to 14) (size 15 to 20)
#    0.857    1.143    1.429    1.714    2.000    1.143 
#    5.143    0.000    0.000    0.000    0.000    0.000 
#    0.000    0.000    0.000    0.000    0.000    0.000 
#
# Total GULP energy -173477.376261 kJ/mol
# GULP energy per Si atom -12391.241162 kJ/mol
# Density = 2.042571 g / cm^3
# Si number density = 20.472307 Si / 1000 Ang^3
#
#
#
# Elastic Constant Matrix: (Units=GPa)
#
#
# Indices 1 2 3 4 5 6 
#
# 1 99.0543 -0.7722 11.0658 9.5622 2.4537 5.2033
# 2 -0.7722 81.6311 41.7403 8.9606 1.1122 7.5921
# 3 11.0658 41.7403 76.0552 36.1503 -0.9897 -4.3555
# 4 9.5622 8.9606 36.1503 37.1308 -3.0125 -1.7928
# 5 2.4537 1.1122 -0.9897 -3.0125 19.5800 -2.4990
# 6 5.2033 7.5921 -4.3555 -1.7928 -2.4990 27.5793
#
#
#
# Elastic Compliance Matrix: (Units=1/GPa)
#
#
# Indices 1 2 3 4 5 6 
#
# 1 0.010682 0.001500 -0.001761 -0.001719 -0.002162 -0.003014
# 2 0.001500 0.020637 -0.017183 0.010841 -0.001597 -0.008118
# 3 -0.001761 -0.017183 0.039046 -0.033042 -0.000763 0.009012
# 4 -0.001719 0.010841 -0.033042 0.057264 0.006282 -0.003587
# 5 -0.002162 -0.001597 -0.000763 0.006282 0.053121 0.005949
# 6 -0.003014 -0.008118 0.009012 -0.003587 0.005949 0.040791
#
#
# Mechanical properties :
#
#
# Convention : Reuss Voigt Hill
#
# Bulk Modulus (GPa) = 28.18671 40.08981 34.13826
# Shear Modulus (GPa) = 18.63891 30.50513 24.57202
#
# Velocity S-wave (km/s) = 3.02063 3.86433 3.46823
# Velocity P-wave (km/s) = 5.09546 6.28774 5.72274
#
# Compressibility (1/GPa) = 0.03547771
#
# Stress axis : x y z
#
# Youngs Moduli (GPa) = 93.61783 48.45603 25.61058
#
# Poissons Ratio (x) = -0.07268 0.04509
# Poissons Ratio (y) = -0.14042 0.44006
# Poissons Ratio (z) = 0.16484 0.83262
#
# Static dielectric constant tensor:
#      x y z
#    x 3.787830 0.046270 -0.063560 
#    y 0.046270 3.664780 0.139360 
#    z -0.063560 0.139360 3.428270 
# 
# 
# High freq. dielectric constant tensor:
#      x y z
#    x 1.814260 0.001120 -0.007660 
#    y 0.001120 1.796370 0.012460 
#    z -0.007660 0.012460 1.764020 
# 
# From -- ./inp_files/550401.got.cif
#   From: 2010.06.25/outbox.cif.g09.slc.cpg/sg2_276_cif.got.tgz:550401.got - 2010.06.27 13:26:56.
