data_PCOD8043797
_publ_section_title
;
Structure prediction by ZEFSAII (Michael W. Deem and Ramdas Pophale) SiO2 
 PCOD8043797
Probable space group: P -1
;
_chemical_formula_sum "Si O2"
_cell_formula_units_Z 16
_cell_length_a 14.761200
_cell_length_b 12.420958
_cell_length_c 13.658686
_cell_angle_alpha 70.583037
_cell_angle_beta 31.175950
_cell_angle_gamma 49.533477
_cell_volume 813.220935
_symmetry_space_group_name_H-M "P -1"
_symmetry_group_IT_number 2
_symmetry_cell_setting 'triclinic'
loop_
_space_group_symop_operation_xyz
x,y,z
-x,-y,-z
loop_
_atom_site_type_symbol
_atom_site_label
_atom_site_fract_x
_atom_site_fract_y
_atom_site_fract_z
Si Si1 0.122273 0.790640 0.426239
Si Si2 0.051777 0.633977 0.996822
Si Si3 0.424398 0.279184 0.655446
Si Si4 0.372355 0.859984 0.284634
Si Si5 0.353267 0.430825 0.354143
Si Si6 0.469970 0.381817 0.049670
Si Si7 0.132346 0.470354 0.165515
Si Si8 0.795224 0.191199 0.172087
O O1 0.213763 0.817864 0.428241
O O2 0.202614 0.621949 0.417501
O O3 0.270571 0.782155 0.200446
O O4 0.810223 0.948588 0.645840
O O5 0.762003 0.728910 0.212375
O O6 0.124869 0.573336 0.060353
O O7 0.259569 0.471253 0.781778
O O8 0.058127 0.767295 0.935146
O O9 0.579776 0.148230 0.642060
O O10 0.634379 0.211652 0.401126
O O11 0.651295 0.728079 0.009589
O O12 0.442943 0.335034 0.194927
O O13 0.605627 0.324713 0.220019
O O14 0.154995 0.443672 0.588642
O O15 0.209782 0.483693 0.195123
O O16 0.500000 0.500000 0.000000
O O17 0.000000 0.000000 0.000000
#
# Coordination Sequence:
#
# PCOD8043797 Si02
#       8
#     2   2   2   2   2   2   2   2
#     4   9  19  36  61  85 116 154 195 248 303 356
#     4  10  21  42  66  89 121 166 205 256 308 367
#     4  10  21  41  66  92 121 163 209 249 308 372
#     4   9  19  37  59  88 116 150 197 255 298 348
#     4  11  21  37  57  86 117 159 200 238 305 369
#     4   9  18  33  55  80 109 154 193 231 287 355
#     4  10  19  37  59  85 120 151 200 247 300 361
#     4  12  26  41  62  93 127 162 206 257 309 365
#
# _framework density 19.674849999999999
#
# number of rings (size 3 to 8) (size 9 to 14) (size 15 to 20)
#    0.000    2.000    1.250    3.750    1.750    1.000 
#    0.000    1.250    0.000    0.000    0.000    0.000 
#    0.000    0.000    0.000    0.000    0.000    0.000 
#
# Total GULP energy -198365.858276 kJ/mol
# GULP energy per Si atom -12397.866142 kJ/mol
# Density = 1.963007 g / cm^3
# Si number density = 19.674850 Si / 1000 Ang^3
#
#
#
# Elastic Constant Matrix: (Units=GPa)
#
#
# Indices 1 2 3 4 5 6 
#
# 1 118.3866 32.9470 40.8469 -6.0364 -2.5911 -4.0040
# 2 32.9470 76.4291 46.2157 5.1584 -5.4940 8.3061
# 3 40.8469 46.2157 113.6816 -11.9581 1.8683 3.4347
# 4 -6.0364 5.1584 -11.9581 23.6993 -3.4617 -2.7785
# 5 -2.5911 -5.4940 1.8683 -3.4617 30.1034 -4.2484
# 6 -4.0040 8.3061 3.4347 -2.7785 -4.2484 29.3687
#
#
#
# Elastic Compliance Matrix: (Units=1/GPa)
#
#
# Indices 1 2 3 4 5 6 
#
# 1 0.010479 -0.003749 -0.002041 0.002993 0.001137 0.003175
# 2 -0.003749 0.021128 -0.008150 -0.010100 0.002003 -0.006199
# 3 -0.002041 -0.008150 0.013686 0.008063 -0.001447 0.000980
# 4 0.002993 -0.010100 0.008063 0.050854 0.004868 0.007837
# 5 0.001137 0.002003 -0.001447 0.004868 0.035079 0.005293
# 6 0.003175 -0.006199 0.000980 0.007837 0.005293 0.037628
#
#
# Mechanical properties :
#
#
# Convention : Reuss Voigt Hill
#
# Bulk Modulus (GPa) = 57.42970 60.94628 59.18799
# Shear Modulus (GPa) = 24.68667 29.20012 26.94340
#
# Velocity S-wave (km/s) = 3.54606 3.85663 3.70460
# Velocity P-wave (km/s) = 6.78372 7.13270 6.96040
#
# Compressibility (1/GPa) = 0.01741259
#
# Stress axis : x y z
#
# Youngs Moduli (GPa) = 95.42634 47.33124 73.06938
#
# Poissons Ratio (x) = 0.17742 0.14914
# Poissons Ratio (y) = 0.35771 0.59554
# Poissons Ratio (z) = 0.19478 0.38577
#
# Static dielectric constant tensor:
#      x y z
#    x 4.025610 -0.072570 0.236490 
#    y -0.072570 3.215960 0.060180 
#    z 0.236490 0.060180 3.856170 
# 
# 
# High freq. dielectric constant tensor:
#      x y z
#    x 1.782640 -0.005280 -0.001420 
#    y -0.005280 1.733970 0.001150 
#    z -0.001420 0.001150 1.770500 
# 
# From -- ./inp_files/273974.got.cif
#   From: 2010.06.25/outbox.cif.g09.slc.cpg/sg2_137_cif.got.tgz:273974.got - 2010.06.27 13:26:56.
