data_PCOD8043335
_publ_section_title
;
Structure prediction by ZEFSAII (Michael W. Deem and Ramdas Pophale) SiO2 
 PCOD8043335
Probable space group: P -1
;
_chemical_formula_sum "Si O2"
_cell_formula_units_Z 14
_cell_length_a 9.040795
_cell_length_b 21.335200
_cell_length_c 15.651547
_cell_angle_alpha 22.515797
_cell_angle_beta 35.453103
_cell_angle_gamma 44.970505
_cell_volume 656.647898
_symmetry_space_group_name_H-M "P -1"
_symmetry_group_IT_number 2
_symmetry_cell_setting 'triclinic'
loop_
_space_group_symop_operation_xyz
x,y,z
-x,-y,-z
loop_
_atom_site_type_symbol
_atom_site_label
_atom_site_fract_x
_atom_site_fract_y
_atom_site_fract_z
Si Si1 0.254621 0.135813 0.566728
Si Si2 0.851930 0.622756 0.027459
Si Si3 0.718896 0.453444 0.633731
Si Si4 0.790081 0.624950 0.861889
Si Si5 0.185302 0.760620 0.844108
Si Si6 0.756851 0.559355 0.699607
Si Si7 0.947976 0.223823 0.921392
O O1 0.210728 0.213372 0.398099
O O2 0.206668 0.253041 0.519316
O O3 0.550795 0.105687 0.468589
O O4 0.065611 0.954114 0.894091
O O5 0.868608 0.692675 0.835091
O O6 0.547320 0.573306 0.260111
O O7 0.985359 0.463044 0.170080
O O8 0.984873 0.761022 0.859751
O O9 0.783683 0.647269 0.394852
O O10 0.970203 0.447890 0.464500
O O11 0.710237 0.313953 0.888737
O O12 0.509899 0.492771 0.165404
O O13 0.270909 0.578071 0.037641
O O14 0.066033 0.804989 0.933824
#
# Coordination Sequence:
#
# PCOD8043335 Si02
#       7
#     2   2   2   2   2   2   2
#     4  11  19  38  60  89 110 150 197 238 272 335
#     4  11  20  36  63  85 119 146 188 235 290 341
#     4  10  22  40  57  85 112 159 189 229 287 341
#     4  10  20  36  62  90 110 150 189 242 281 332
#     4  10  19  36  61  88 110 151 189 236 282 338
#     4  10  19  37  63  83 114 150 200 225 273 348
#     4  10  22  38  60  81 116 154 196 233 272 342
#
# _framework density 21.320405999999998
#
# number of rings (size 3 to 8) (size 9 to 14) (size 15 to 20)
#    0.000    1.714    2.857    4.714    0.000    2.857 
#    0.000    3.571    0.000    0.000    0.000    0.000 
#    0.000    0.000    0.000    0.000    0.000    0.000 
#
# Total GULP energy -173468.536686 kJ/mol
# GULP energy per Si atom -12390.609763 kJ/mol
# Density = 2.127188 g / cm^3
# Si number density = 21.320406 Si / 1000 Ang^3
#
#
#
# Elastic Constant Matrix: (Units=GPa)
#
#
# Indices 1 2 3 4 5 6 
#
# 1 125.1946 22.9641 39.7856 1.1620 -26.1409 -6.4462
# 2 22.9641 62.0075 33.3418 3.6792 -10.7078 -8.5831
# 3 39.7856 33.3418 89.8592 -13.6225 -3.7459 -6.2354
# 4 1.1620 3.6792 -13.6225 41.1615 0.4377 -16.1604
# 5 -26.1409 -10.7078 -3.7459 0.4377 19.1320 7.1751
# 6 -6.4462 -8.5831 -6.2354 -16.1604 7.1751 26.8056
#
#
#
# Elastic Compliance Matrix: (Units=1/GPa)
#
#
# Indices 1 2 3 4 5 6 
#
# 1 0.014339 0.001943 -0.007602 -0.006220 0.022094 -0.007362
# 2 0.001943 0.023472 -0.010103 -0.006550 0.014819 -0.002283
# 3 -0.007602 -0.010103 0.020272 0.012617 -0.016767 0.011747
# 4 -0.006220 -0.006550 0.012617 0.041281 -0.021926 0.030098
# 5 0.022094 0.014819 -0.016767 -0.021926 0.100730 -0.034023
# 6 -0.007362 -0.002283 0.011747 0.030098 -0.034023 0.064789
#
#
# Mechanical properties :
#
#
# Convention : Reuss Voigt Hill
#
# Bulk Modulus (GPa) = 37.65344 52.13827 44.89586
# Shear Modulus (GPa) = 16.37944 29.48446 22.93195
#
# Velocity S-wave (km/s) = 2.77474 3.72280 3.28317
# Velocity P-wave (km/s) = 5.28817 6.55643 5.95615
#
# Compressibility (1/GPa) = 0.02655800
#
# Stress axis : x y z
#
# Youngs Moduli (GPa) = 69.73910 42.60446 49.32902
#
# Poissons Ratio (x) = -0.08277 0.37501
# Poissons Ratio (y) = -0.13549 0.49837
# Poissons Ratio (z) = 0.53018 0.43043
#
# Static dielectric constant tensor:
#      x y z
#    x 3.992100 -0.013360 -0.121990 
#    y -0.013360 3.641780 0.069720 
#    z -0.121990 0.069720 3.796840 
# 
# 
# High freq. dielectric constant tensor:
#      x y z
#    x 1.840790 0.012100 -0.008350 
#    y 0.012100 1.821180 0.011490 
#    z -0.008350 0.011490 1.814290 
# 
# From -- ./inp_files/279546.got.cif
#   From: 2010.06.25/outbox.cif.g09.slc.cpg/sg2_140_cif.got.tgz:279546.got - 2010.06.27 13:26:56.
