data_PCOD8043420
_publ_section_title
;
Structure prediction by ZEFSAII (Michael W. Deem and Ramdas Pophale) SiO2 
 PCOD8043420
Probable space group: P -1
;
_chemical_formula_sum "Si O2"
_cell_formula_units_Z 14
_cell_length_a 9.219982
_cell_length_b 11.543650
_cell_length_c 20.728040
_cell_angle_alpha 29.746312
_cell_angle_beta 139.814526
_cell_angle_gamma 120.002479
_cell_volume 607.574131
_symmetry_space_group_name_H-M "P -1"
_symmetry_group_IT_number 2
_symmetry_cell_setting 'triclinic'
loop_
_space_group_symop_operation_xyz
x,y,z
-x,-y,-z
loop_
_atom_site_type_symbol
_atom_site_label
_atom_site_fract_x
_atom_site_fract_y
_atom_site_fract_z
Si Si1 0.078776 0.673215 0.147139
Si Si2 0.833660 0.390287 0.031478
Si Si3 0.121544 0.408345 0.421510
Si Si4 0.344046 0.833446 0.709277
Si Si5 0.535333 0.792010 0.056840
Si Si6 0.038990 0.197004 0.321844
Si Si7 0.429826 0.871229 0.201823
O O1 0.119320 0.602607 0.271517
O O2 0.133702 0.416087 0.247878
O O3 0.297230 0.751434 0.166260
O O4 0.786992 0.933120 0.913065
O O5 0.649385 0.626013 0.906138
O O6 0.680231 0.304592 0.970218
O O7 0.000000 0.500000 0.000000
O O8 0.004297 0.146500 0.258840
O O9 0.313974 0.384870 0.555951
O O10 0.825625 0.527483 0.288643
O O11 0.257463 0.098325 0.594041
O O12 0.215287 0.678532 0.776678
O O13 0.247617 0.913784 0.563176
O O14 0.500000 0.000000 0.000000
O O15 0.486784 0.945784 0.898280
#
# Coordination Sequence:
#
# PCOD8043420 Si02
#       7
#     2   2   2   2   2   2   2
#     4   9  19  33  60 100 126 150 206 270 312 367
#     4  12  26  42  65  96 130 171 209 265 330 378
#     4  10  20  40  67  94 122 163 216 261 314 375
#     4  10  20  40  70  95 124 161 215 270 313 380
#     4  11  26  44  60  88 131 172 214 252 314 388
#     4  10  20  38  65  94 124 161 215 265 317 372
#     4  10  19  36  62  89 127 168 202 257 316 370
#
# _framework density 23.042453999999999
#
# number of rings (size 3 to 8) (size 9 to 14) (size 15 to 20)
#    0.000    1.714    0.000    6.000    2.000    1.143 
#    7.714    0.000    0.000    0.000    0.000    0.000 
#    0.000    0.000    0.000    0.000    0.000    0.000 
#
# Total GULP energy -173474.265686 kJ/mol
# GULP energy per Si atom -12391.018978 kJ/mol
# Density = 2.299001 g / cm^3
# Si number density = 23.042454 Si / 1000 Ang^3
#
#
#
# Elastic Constant Matrix: (Units=GPa)
#
#
# Indices 1 2 3 4 5 6 
#
# 1 59.1787 33.9192 23.3163 10.1963 -4.0905 17.2622
# 2 33.9192 122.3740 23.9167 -0.9193 8.2974 11.6925
# 3 23.3163 23.9167 78.8318 20.4094 -5.9090 0.3976
# 4 10.1963 -0.9193 20.4094 41.0621 -5.5479 1.5249
# 5 -4.0905 8.2974 -5.9090 -5.5479 25.3925 2.3848
# 6 17.2622 11.6925 0.3976 1.5249 2.3848 40.4005
#
#
#
# Elastic Compliance Matrix: (Units=1/GPa)
#
#
# Indices 1 2 3 4 5 6 
#
# 1 0.025611 -0.005666 -0.004609 -0.003156 0.005102 -0.009440
# 2 -0.005666 0.010579 -0.002453 0.002285 -0.004400 -0.000443
# 3 -0.004609 -0.002453 0.016767 -0.007049 0.002172 0.002652
# 4 -0.003156 0.002285 -0.007049 0.029190 0.003534 -0.000554
# 5 0.005102 -0.004400 0.002172 0.003534 0.043258 -0.003615
# 6 -0.009440 -0.000443 0.002652 -0.000554 -0.003615 0.029122
#
#
# Mechanical properties :
#
#
# Convention : Reuss Voigt Hill
#
# Bulk Modulus (GPa) = 36.36093 46.96543 41.66318
# Shear Modulus (GPa) = 26.43384 33.31985 29.87685
#
# Velocity S-wave (km/s) = 3.39068 3.80678 3.60474
# Velocity P-wave (km/s) = 5.58061 6.30464 5.95364
#
# Compressibility (1/GPa) = 0.02750204
#
# Stress axis : x y z
#
# Youngs Moduli (GPa) = 39.04515 94.52403 59.64012
#
# Poissons Ratio (x) = 0.53554 0.27490
# Poissons Ratio (y) = 0.22122 0.14630
# Poissons Ratio (z) = 0.17997 0.23187
#
# Static dielectric constant tensor:
#      x y z
#    x 3.829800 0.253760 -0.083050 
#    y 0.253760 4.055320 0.233460 
#    z -0.083050 0.233460 4.262630 
# 
# 
# High freq. dielectric constant tensor:
#      x y z
#    x 1.875340 0.023250 -0.015750 
#    y 0.023250 1.910100 0.010270 
#    z -0.015750 0.010270 1.915300 
# 
# From -- ./inp_files/589404.got.cif
#   From: 2010.06.25/outbox.cif.g09.slc.cpg/sg2_295_cif.got.tgz:589404.got - 2010.06.27 13:26:56.
