data_PCOD8043856
_publ_section_title
;
Structure prediction by ZEFSAII (Michael W. Deem and Ramdas Pophale) SiO2 
 PCOD8043856
Probable space group: P -1
;
_chemical_formula_sum "Si O2"
_cell_formula_units_Z 16
_cell_length_a 8.362579
_cell_length_b 9.341175
_cell_length_c 27.906635
_cell_angle_alpha 133.717485
_cell_angle_beta 41.404137
_cell_angle_gamma 103.218654
_cell_volume 828.851307
_symmetry_space_group_name_H-M "P -1"
_symmetry_group_IT_number 2
_symmetry_cell_setting 'triclinic'
loop_
_space_group_symop_operation_xyz
x,y,z
-x,-y,-z
loop_
_atom_site_type_symbol
_atom_site_label
_atom_site_fract_x
_atom_site_fract_y
_atom_site_fract_z
Si Si1 0.057542 0.319196 0.258802
Si Si2 0.945217 0.122268 0.817959
Si Si3 0.246640 0.146123 0.550086
Si Si4 0.393209 0.198590 0.694402
Si Si5 0.302421 0.878549 0.934117
Si Si6 0.486099 0.467796 0.926819
Si Si7 0.410750 0.661216 0.227998
Si Si8 0.122064 0.340448 0.137175
O O1 0.389229 0.201257 0.181188
O O2 0.061987 0.363541 0.211808
O O3 0.806039 0.602088 0.398990
O O4 0.950461 0.149762 0.253989
O O5 0.641713 0.261740 0.886085
O O6 0.212943 0.084784 0.717891
O O7 0.857620 0.303983 0.925940
O O8 0.941348 0.216527 0.659151
O O9 0.500000 0.000000 0.500000
O O10 0.333183 0.978087 0.444735
O O11 0.517173 0.204598 0.719261
O O12 0.185601 0.471438 0.780446
O O13 0.366415 0.634493 0.885169
O O14 0.257052 0.061100 0.028327
O O15 0.000000 0.000000 0.000000
O O16 0.510462 0.315186 0.838997
O O17 0.648350 0.597658 0.912033
#
# Coordination Sequence:
#
# PCOD8043856 Si02
#       8
#     2   2   2   2   2   2   2   2
#     4  11  21  37  63  88 116 157 201 250 288 343
#     4  10  22  36  59  89 120 158 195 239 299 368
#     4  11  21  40  65  88 109 158 215 246 283 345
#     4  11  23  38  57  88 123 159 194 241 301 352
#     4  11  20  31  57  93 120 141 189 255 305 337
#     4  10  19  37  60  86 119 159 196 237 296 366
#     4  11  22  38  62  88 120 157 194 255 300 343
#     4  11  18  36  61  86 116 152 200 247 287 355
#
# _framework density 19.303825
#
# number of rings (size 3 to 8) (size 9 to 14) (size 15 to 20)
#    0.000    1.250    6.250    2.250    0.000    1.000 
#    0.000    1.250    0.000    1.500    0.000    0.000 
#    0.000    0.000    0.000    0.000    0.000    0.000 
#
# Total GULP energy -198298.913766 kJ/mol
# GULP energy per Si atom -12393.682110 kJ/mol
# Density = 1.925989 g / cm^3
# Si number density = 19.303825 Si / 1000 Ang^3
#
#
#
# Elastic Constant Matrix: (Units=GPa)
#
#
# Indices 1 2 3 4 5 6 
#
# 1 95.2693 9.7212 33.0261 5.3990 4.9145 -10.4188
# 2 9.7212 75.2556 21.0676 7.5166 -2.2609 -5.3182
# 3 33.0261 21.0676 102.6474 11.6330 9.1119 -10.2002
# 4 5.3990 7.5166 11.6330 26.5711 -3.6934 6.9479
# 5 4.9145 -2.2609 9.1119 -3.6934 39.3038 -0.7374
# 6 -10.4188 -5.3182 -10.2002 6.9479 -0.7374 19.0488
#
#
#
# Elastic Compliance Matrix: (Units=1/GPa)
#
#
# Indices 1 2 3 4 5 6 
#
# 1 0.012428 -0.000074 -0.002928 -0.003006 -0.001045 0.006265
# 2 -0.000074 0.014670 -0.002156 -0.004217 0.001041 0.004479
# 3 -0.002928 -0.002156 0.012872 -0.006715 -0.003242 0.007013
# 4 -0.003006 -0.004217 -0.006715 0.049541 0.005890 -0.024259
# 5 -0.001045 0.001041 -0.003242 0.005890 0.026880 -0.003125
# 6 0.006265 0.004479 0.007013 -0.024259 -0.003125 0.069657
#
#
# Mechanical properties :
#
#
# Convention : Reuss Voigt Hill
#
# Bulk Modulus (GPa) = 33.72150 44.53356 39.12753
# Shear Modulus (GPa) = 24.24242 30.94190 27.59216
#
# Velocity S-wave (km/s) = 3.54762 4.00795 3.78479
# Velocity P-wave (km/s) = 5.85556 6.67369 6.27797
#
# Compressibility (1/GPa) = 0.02965467
#
# Stress axis : x y z
#
# Youngs Moduli (GPa) = 80.46064 68.16465 77.68621
#
# Poissons Ratio (x) = 0.00506 0.22743
# Poissons Ratio (y) = 0.00598 0.16753
# Poissons Ratio (z) = 0.23555 0.14699
#
# Static dielectric constant tensor:
#      x y z
#    x 3.647850 -0.179280 0.047140 
#    y -0.179280 3.594500 0.139820 
#    z 0.047140 0.139820 3.779540 
# 
# 
# High freq. dielectric constant tensor:
#      x y z
#    x 1.741820 -0.008730 0.006150 
#    y -0.008730 1.734940 0.009600 
#    z 0.006150 0.009600 1.756900 
# 
# From -- ./inp_files/206429.got.cif
#   From: 2010.06.25/outbox.cif.g09.slc.cpg/sg2_104_cif.got.tgz:206429.got - 2010.06.27 13:26:56.
