data_PCOD8043754
_publ_section_title
;
Structure prediction by ZEFSAII (Michael W. Deem and Ramdas Pophale) SiO2 
 PCOD8043754
Probable space group: P -1
;
_chemical_formula_sum "Si O2"
_cell_formula_units_Z 16
_cell_length_a 12.083346
_cell_length_b 8.905680
_cell_length_c 15.043029
_cell_angle_alpha 69.754985
_cell_angle_beta 129.219409
_cell_angle_gamma 70.814999
_cell_volume 774.103434
_symmetry_space_group_name_H-M "P -1"
_symmetry_group_IT_number 2
_symmetry_cell_setting 'triclinic'
loop_
_space_group_symop_operation_xyz
x,y,z
-x,-y,-z
loop_
_atom_site_type_symbol
_atom_site_label
_atom_site_fract_x
_atom_site_fract_y
_atom_site_fract_z
Si Si1 0.033430 0.237175 0.010499
Si Si2 0.401638 0.428897 0.364577
Si Si3 0.082529 0.551488 0.457612
Si Si4 0.047694 0.597549 0.694057
Si Si5 0.847639 0.250943 0.420297
Si Si6 0.164867 0.476075 0.978510
Si Si7 0.499356 0.298721 0.633788
Si Si8 0.600643 0.161057 0.349563
O O1 0.950900 0.301653 0.058088
O O2 0.253333 0.953952 0.168911
O O3 0.061648 0.392613 0.959807
O O4 0.849873 0.317690 0.836621
O O5 0.428001 0.312486 0.494631
O O6 0.535144 0.481776 0.421085
O O7 0.499527 0.224025 0.383415
O O8 0.962854 0.584553 0.300553
O O9 0.034146 0.771372 0.426535
O O10 0.343007 0.336204 0.615395
O O11 0.000000 0.500000 0.500000
O O12 0.209693 0.556104 0.717189
O O13 0.124506 0.563290 0.839344
O O14 0.809099 0.874215 0.501288
O O15 0.639162 0.320729 0.325712
O O16 0.000000 0.000000 0.500000
O O17 0.423928 0.253325 0.169144
#
# Coordination Sequence:
#
# PCOD8043754 Si02
#       8
#     2   2   2   2   2   2   2   2
#     4  10  21  36  53  84 120 150 191 236 286 338
#     4  10  21  34  58  87 117 153 191 236 282 350
#     4  10  20  36  59  86 113 152 191 237 287 338
#     4  10  20  35  60  83 114 152 194 237 282 341
#     4   9  19  36  60  82 112 151 193 237 289 339
#     4  10  21  35  56  83 116 154 191 234 283 346
#     4  11  20  35  59  84 117 153 191 235 292 338
#     4  10  19  37  58  84 118 153 190 235 289 336
#
# _framework density 20.669070999999999
#
# number of rings (size 3 to 8) (size 9 to 14) (size 15 to 20)
#    0.000    2.000    1.250    2.625    0.000    0.500 
#    0.000    5.000    2.750   33.750    0.000    0.000 
#    0.000    0.000    0.000    0.000    0.000    0.000 
#
# Total GULP energy -198219.262070 kJ/mol
# GULP energy per Si atom -12388.703879 kJ/mol
# Density = 2.062203 g / cm^3
# Si number density = 20.669071 Si / 1000 Ang^3
#
#
#
# Elastic Constant Matrix: (Units=GPa)
#
#
# Indices 1 2 3 4 5 6 
#
# 1 102.0777 26.4429 36.3750 13.7354 7.9698 -8.4278
# 2 26.4429 83.7152 20.6643 15.4049 2.9359 -0.9065
# 3 36.3750 20.6643 82.7155 16.2832 3.9998 -14.7935
# 4 13.7354 15.4049 16.2832 30.7191 1.0829 6.6110
# 5 7.9698 2.9359 3.9998 1.0829 21.9290 2.0019
# 6 -8.4278 -0.9065 -14.7935 6.6110 2.0019 27.3032
#
#
#
# Elastic Compliance Matrix: (Units=1/GPa)
#
#
# Indices 1 2 3 4 5 6 
#
# 1 0.012654 -0.002374 -0.003702 -0.002980 -0.003716 0.002816
# 2 -0.002374 0.014024 -0.001323 -0.005325 -0.000542 0.000345
# 3 -0.003702 -0.001323 0.018010 -0.009524 -0.002300 0.011046
# 4 -0.002980 -0.005325 -0.009524 0.045253 0.002889 -0.017426
# 5 -0.003716 -0.000542 -0.002300 0.002889 0.047906 -0.006624
# 6 0.002816 0.000345 0.011046 -0.017426 -0.006624 0.048196
#
#
# Mechanical properties :
#
#
# Convention : Reuss Voigt Hill
#
# Bulk Modulus (GPa) = 33.45624 48.38586 40.92105
# Shear Modulus (GPa) = 23.71853 28.32533 26.02193
#
# Velocity S-wave (km/s) = 3.39121 3.70594 3.55206
# Velocity P-wave (km/s) = 5.61743 6.46317 6.05508
#
# Compressibility (1/GPa) = 0.02988979
#
# Stress axis : x y z
#
# Youngs Moduli (GPa) = 79.02539 71.30391 55.52531
#
# Poissons Ratio (x) = 0.16928 0.20554
# Poissons Ratio (y) = 0.18761 0.07349
# Poissons Ratio (z) = 0.29253 0.09437
#
# Static dielectric constant tensor:
#      x y z
#    x 4.365190 0.029780 0.223580 
#    y 0.029780 4.138790 0.340440 
#    z 0.223580 0.340440 3.378350 
# 
# 
# High freq. dielectric constant tensor:
#      x y z
#    x 1.822260 -0.005410 0.018670 
#    y -0.005410 1.822070 0.025210 
#    z 0.018670 0.025210 1.764350 
# 
# From -- ./inp_files/78675.got.cif
#   From: 2010.06.25/outbox.cif.g09.slc.cpg/sg2_40_cif.got.tgz:78675.got - 2010.06.27 13:26:56.
