data_PCOD8043172
_publ_section_title
;
Structure prediction by ZEFSAII (Michael W. Deem and Ramdas Pophale) SiO2 
 PCOD8043172
Probable space group: P -1
;
_chemical_formula_sum "Si O2"
_cell_formula_units_Z 16
_cell_length_a 20.521721
_cell_length_b 11.264619
_cell_length_c 12.353256
_cell_angle_alpha 59.497615
_cell_angle_beta 139.894541
_cell_angle_gamma 150.241021
_cell_volume 796.390263
_symmetry_space_group_name_H-M "P -1"
_symmetry_group_IT_number 2
_symmetry_cell_setting 'triclinic'
loop_
_space_group_symop_operation_xyz
x,y,z
-x,-y,-z
loop_
_atom_site_type_symbol
_atom_site_label
_atom_site_fract_x
_atom_site_fract_y
_atom_site_fract_z
Si Si1 0.204390 0.369739 0.302035
Si Si2 0.707177 0.050188 0.367243
Si Si3 0.444942 0.416439 0.659471
Si Si4 0.122152 0.172381 0.968850
Si Si5 0.272230 0.609670 0.056555
Si Si6 0.098405 0.318858 0.420694
Si Si7 0.306857 0.306705 0.771065
Si Si8 0.961135 0.426007 0.312102
O O1 0.400617 0.503912 0.496916
O O2 0.227070 0.494344 0.170494
O O3 0.185048 0.438680 0.353749
O O4 0.015860 0.039030 0.208836
O O5 0.799879 0.178728 0.306770
O O6 0.872355 0.280953 0.558661
O O7 0.638535 0.811935 0.408095
O O8 0.509719 0.912681 0.197354
O O9 0.682754 0.693681 0.847795
O O10 0.338431 0.289338 0.698773
O O11 0.187781 0.410714 0.944207
O O12 0.000000 0.000000 0.000000
O O13 0.162580 0.627416 0.905576
O O14 0.249104 0.401670 0.647015
O O15 0.079898 0.445249 0.393417
O O16 0.880562 0.994827 0.278485
O O17 0.500000 0.500000 0.000000
#
# Coordination Sequence:
#
# PCOD8043172 Si02
#       8
#     2   2   2   2   2   2   2   2
#     4  10  21  37  59  86 119 149 185 239 289 341
#     4  10  22  39  58  83 111 158 192 240 280 330
#     4  10  19  36  59  86 114 145 191 238 288 335
#     4   9  19  34  56  87 112 149 185 232 283 336
#     4  10  22  37  58  86 116 153 194 229 280 349
#     4  10  22  38  58  86 114 150 192 232 290 339
#     4  10  20  37  59  85 113 147 187 239 287 339
#     4  11  22  40  58  82 117 154 193 237 279 332
#
# _framework density 20.090651000000001
#
# number of rings (size 3 to 8) (size 9 to 14) (size 15 to 20)
#    0.000    2.000    1.250    1.875    0.000    8.000 
#    9.000    0.625    0.000    0.000    0.000    0.000 
#    0.000    0.000    0.000    0.000    0.000    0.000 
#
# Total GULP energy -198369.859217 kJ/mol
# GULP energy per Si atom -12398.116201 kJ/mol
# Density = 2.004492 g / cm^3
# Si number density = 20.090651 Si / 1000 Ang^3
#
#
#
# Elastic Constant Matrix: (Units=GPa)
#
#
# Indices 1 2 3 4 5 6 
#
# 1 101.5295 24.9077 48.7387 -17.4621 20.4081 -2.2496
# 2 24.9077 34.7514 20.2940 -1.6804 8.0133 2.8512
# 3 48.7387 20.2940 114.3453 -10.8785 22.5845 -8.0867
# 4 -17.4621 -1.6804 -10.8785 29.9898 2.4634 7.9752
# 5 20.4081 8.0133 22.5845 2.4634 35.5963 -0.6373
# 6 -2.2496 2.8512 -8.0867 7.9752 -0.6373 17.2797
#
#
#
# Elastic Compliance Matrix: (Units=1/GPa)
#
#
# Indices 1 2 3 4 5 6 
#
# 1 0.016077 -0.007335 -0.003753 0.008794 -0.005842 -0.002727
# 2 -0.007335 0.037337 -0.003848 -0.001180 -0.001828 -0.008439
# 3 -0.003753 -0.003848 0.012472 0.001118 -0.004877 0.005287
# 4 0.008794 -0.001180 0.001118 0.044603 -0.008913 -0.019052
# 5 -0.005842 -0.001828 -0.004877 -0.008913 0.035613 0.002685
# 6 -0.002727 -0.008439 0.005287 -0.019052 0.002685 0.070275
#
#
# Mechanical properties :
#
#
# Convention : Reuss Voigt Hill
#
# Bulk Modulus (GPa) = 27.76784 48.72302 38.24543
# Shear Modulus (GPa) = 19.36077 27.01888 23.18982
#
# Velocity S-wave (km/s) = 3.10767 3.67120 3.40113
# Velocity P-wave (km/s) = 5.16992 6.50188 5.87378
#
# Compressibility (1/GPa) = 0.03601289
#
# Stress axis : x y z
#
# Youngs Moduli (GPa) = 62.20134 26.78292 80.18098
#
# Poissons Ratio (x) = 0.19645 0.30093
# Poissons Ratio (y) = 0.45625 0.30856
# Poissons Ratio (z) = 0.23345 0.10307
#
# Static dielectric constant tensor:
#      x y z
#    x 3.737560 -0.042480 0.086430 
#    y -0.042480 3.530070 0.160180 
#    z 0.086430 0.160180 3.787370 
# 
# 
# High freq. dielectric constant tensor:
#      x y z
#    x 1.787140 0.010380 0.013010 
#    y 0.010380 1.767060 0.006990 
#    z 0.013010 0.006990 1.790200 
# 
# From -- ./inp_files/426302.got.cif
#   From: 2010.06.25/outbox.cif.g09.slc.cpg/sg2_214_cif.got.tgz:426302.got - 2010.06.27 13:26:56.
