data_PCOD8043989
_publ_section_title
;
Structure prediction by ZEFSAII (Michael W. Deem and Ramdas Pophale) SiO2 
 PCOD8043989
Probable space group: P -1
;
_chemical_formula_sum "Si O2"
_cell_formula_units_Z 16
_cell_length_a 27.551444
_cell_length_b 9.404627
_cell_length_c 13.835380
_cell_angle_alpha 54.276957
_cell_angle_beta 23.078930
_cell_angle_gamma 40.670931
_cell_volume 819.787258
_symmetry_space_group_name_H-M "P -1"
_symmetry_group_IT_number 2
_symmetry_cell_setting 'triclinic'
loop_
_space_group_symop_operation_xyz
x,y,z
-x,-y,-z
loop_
_atom_site_type_symbol
_atom_site_label
_atom_site_fract_x
_atom_site_fract_y
_atom_site_fract_z
Si Si1 0.066799 0.804283 0.088994
Si Si2 0.229350 0.702904 0.639841
Si Si3 0.933807 0.564548 0.454630
Si Si4 0.539724 0.213538 0.767859
Si Si5 0.306406 0.301665 0.321407
Si Si6 0.371640 0.482310 0.783691
Si Si7 0.716448 0.805733 0.942539
Si Si8 0.561078 0.620819 0.792154
O O1 0.941664 0.765482 0.352804
O O2 0.190352 0.636561 0.836847
O O3 0.179776 0.733485 0.005928
O O4 0.951003 0.089441 0.168513
O O5 0.298132 0.823767 0.496702
O O6 0.365529 0.471322 0.413863
O O7 0.869642 0.543734 0.478989
O O8 0.789270 0.669245 0.758977
O O9 0.121430 0.303376 0.242238
O O10 0.404248 0.443133 0.854084
O O11 0.616397 0.960340 0.681592
O O12 0.451691 0.260683 0.011619
O O13 0.286093 0.441210 0.398863
O O14 0.500000 0.500000 0.500000
O O15 0.386937 0.265078 0.800365
O O16 0.601233 0.090311 0.032069
O O17 0.500000 0.500000 0.000000
#
# Coordination Sequence:
#
# PCOD8043989 Si02
#       8
#     2   2   2   2   2   2   2   2
#     4  10  22  37  61  86 117 160 204 248 297 357
#     4  11  22  39  59  87 122 159 204 244 301 364
#     4  10  19  37  62  87 116 157 203 248 294 353
#     4  11  19  36  62  91 115 158 208 247 288 361
#     4  11  20  36  62  89 118 156 208 248 294 351
#     4  11  20  35  64  93 118 151 203 255 293 351
#     4  10  21  37  60  93 121 154 199 252 301 352
#     4  12  23  38  60  90 125 158 198 254 307 352
#
# _framework density 19.517258000000002
#
# number of rings (size 3 to 8) (size 9 to 14) (size 15 to 20)
#    0.000    1.250    6.250    1.500    0.000    0.000 
#    0.000    5.000    0.000    0.000    0.000    0.000 
#    0.000    0.000    0.000    0.000    0.000    0.000 
#
# Total GULP energy -198287.488701 kJ/mol
# GULP energy per Si atom -12392.968044 kJ/mol
# Density = 1.947284 g / cm^3
# Si number density = 19.517258 Si / 1000 Ang^3
#
#
#
# Elastic Constant Matrix: (Units=GPa)
#
#
# Indices 1 2 3 4 5 6 
#
# 1 106.9802 39.2909 29.3534 7.6616 -16.9052 -14.5945
# 2 39.2909 95.2923 38.3264 -1.5224 -7.4544 -12.1895
# 3 29.3534 38.3264 75.1406 -10.8325 -10.2109 2.4739
# 4 7.6616 -1.5224 -10.8325 32.2286 -0.6457 -4.9098
# 5 -16.9052 -7.4544 -10.2109 -0.6457 31.6552 4.7252
# 6 -14.5945 -12.1895 2.4739 -4.9098 4.7252 33.5634
#
#
#
# Elastic Compliance Matrix: (Units=1/GPa)
#
#
# Indices 1 2 3 4 5 6 
#
# 1 0.012927 -0.003191 -0.003481 -0.003765 0.004423 0.003545
# 2 -0.003191 0.015036 -0.006733 -0.000099 -0.001039 0.004702
# 3 -0.003481 -0.006733 0.019712 0.006449 0.003792 -0.005002
# 4 -0.003765 -0.000099 0.006449 0.034528 0.000324 0.002857
# 5 0.004423 -0.001039 0.003792 0.000324 0.035487 -0.003682
# 6 0.003545 0.004702 -0.005002 0.002857 -0.003682 0.034348
#
#
# Mechanical properties :
#
#
# Convention : Reuss Voigt Hill
#
# Bulk Modulus (GPa) = 47.92503 54.59493 51.25998
# Shear Modulus (GPa) = 26.91014 30.85225 28.88120
#
# Velocity S-wave (km/s) = 3.71723 3.98020 3.85096
# Velocity P-wave (km/s) = 6.55990 7.01114 6.78927
#
# Compressibility (1/GPa) = 0.02086593
#
# Stress axis : x y z
#
# Youngs Moduli (GPa) = 77.35957 66.50604 50.72992
#
# Poissons Ratio (x) = 0.21219 0.17658
# Poissons Ratio (y) = 0.24682 0.34158
# Poissons Ratio (z) = 0.26927 0.44780
#
# Static dielectric constant tensor:
#      x y z
#    x 3.792540 -0.296120 -0.209950 
#    y -0.296120 3.444600 -0.249600 
#    z -0.209950 -0.249600 3.536330 
# 
# 
# High freq. dielectric constant tensor:
#      x y z
#    x 1.765970 -0.031380 -0.026910 
#    y -0.031380 1.740260 -0.029540 
#    z -0.026910 -0.029540 1.751190 
# 
# From -- ./inp_files/282251.got.cif
#   From: 2010.06.25/outbox.cif.g09.slc.cpg/sg2_142_cif.got.tgz:282251.got - 2010.06.27 13:26:56.
