data_PCOD8043429
_publ_section_title
;
Structure prediction by ZEFSAII (Michael W. Deem and Ramdas Pophale) SiO2 
 PCOD8043429
Probable space group: P -1
;
_chemical_formula_sum "Si O2"
_cell_formula_units_Z 14
_cell_length_a 16.166289
_cell_length_b 15.849162
_cell_length_c 8.909177
_cell_angle_alpha 59.801526
_cell_angle_beta 44.611451
_cell_angle_gamma 26.521424
_cell_volume 647.241504
_symmetry_space_group_name_H-M "P -1"
_symmetry_group_IT_number 2
_symmetry_cell_setting 'triclinic'
loop_
_space_group_symop_operation_xyz
x,y,z
-x,-y,-z
loop_
_atom_site_type_symbol
_atom_site_label
_atom_site_fract_x
_atom_site_fract_y
_atom_site_fract_z
Si Si1 0.750538 0.285323 0.456071
Si Si2 0.342666 0.474824 0.940701
Si Si3 0.482164 0.194120 0.497212
Si Si4 0.147944 0.580284 0.769044
Si Si5 0.582662 0.946606 0.112366
Si Si6 0.276270 0.332089 0.327300
Si Si7 0.001666 0.096473 0.004721
O O1 0.500000 0.500000 0.500000
O O2 0.647227 0.273147 0.706222
O O3 0.853828 0.305992 0.390465
O O4 0.957220 0.099002 0.234376
O O5 0.202256 0.538662 0.914603
O O6 0.314922 0.416715 0.159229
O O7 0.211212 0.672134 0.986280
O O8 0.372429 0.358480 0.597533
O O9 0.538439 0.056880 0.644188
O O10 0.293950 0.305572 0.506370
O O11 0.733426 0.044705 0.225156
O O12 0.884674 0.721932 0.941534
O O13 0.480901 0.120001 0.161654
O O14 0.500000 0.000000 0.000000
O O15 0.000000 0.500000 0.500000
O O16 0.000000 0.000000 0.000000
#
# Coordination Sequence:
#
# PCOD8043429 Si02
#       7
#     2   2   2   2   2   2   2
#     4   8  17  35  59  86 116 154 192 233 291 356
#     4  10  20  39  63  89 121 160 196 239 298 362
#     4  12  23  39  61  89 120 156 199 252 299 345
#     4  10  20  40  62  85 118 158 197 242 295 358
#     4  12  25  41  60  86 118 162 204 242 296 362
#     4  12  24  40  60  90 122 155 199 252 297 347
#     4  10  19  36  62  91 120 155 196 248 298 344
#
# _framework density 21.630258000000001
#
# number of rings (size 3 to 8) (size 9 to 14) (size 15 to 20)
#    0.000    1.714    0.000    8.571    0.000    0.000 
#    0.000    7.143    0.000    0.000    0.000    0.000 
#    0.000    0.000    0.000    0.000    0.000    0.000 
#
# Total GULP energy -173582.615573 kJ/mol
# GULP energy per Si atom -12398.758255 kJ/mol
# Density = 2.158103 g / cm^3
# Si number density = 21.630258 Si / 1000 Ang^3
#
#
#
# Elastic Constant Matrix: (Units=GPa)
#
#
# Indices 1 2 3 4 5 6 
#
# 1 103.0615 40.5175 27.8672 -8.5746 8.5277 12.9400
# 2 40.5175 87.2739 48.4347 -14.0088 14.4519 18.9946
# 3 27.8672 48.4347 128.6196 -0.4012 -17.4768 7.1190
# 4 -8.5746 -14.0088 -0.4012 38.5810 3.7054 5.8777
# 5 8.5277 14.4519 -17.4768 3.7054 40.5995 5.3766
# 6 12.9400 18.9946 7.1190 5.8777 5.3766 41.9028
#
#
#
# Elastic Compliance Matrix: (Units=1/GPa)
#
#
# Indices 1 2 3 4 5 6 
#
# 1 0.012102 -0.004069 -0.001198 0.001609 -0.001528 -0.001719
# 2 -0.004069 0.023493 -0.009034 0.009800 -0.011260 -0.007788
# 3 -0.001198 -0.009034 0.012551 -0.004561 0.009046 0.001811
# 4 0.001609 0.009800 -0.004561 0.031686 -0.007672 -0.007625
# 5 -0.001528 -0.011260 0.009046 -0.007672 0.033445 0.000824
# 6 -0.001719 -0.007788 0.001811 -0.007625 0.000824 0.028582
#
#
# Mechanical properties :
#
#
# Convention : Reuss Voigt Hill
#
# Bulk Modulus (GPa) = 51.15912 61.39932 56.27922
# Shear Modulus (GPa) = 28.25244 37.69238 32.97241
#
# Velocity S-wave (km/s) = 3.61800 4.17895 3.90855
# Velocity P-wave (km/s) = 6.41531 7.19251 6.81500
#
# Compressibility (1/GPa) = 0.01954686
#
# Stress axis : x y z
#
# Youngs Moduli (GPa) = 82.62809 42.56539 79.67523
#
# Poissons Ratio (x) = 0.17318 0.09542
# Poissons Ratio (y) = 0.33617 0.71977
# Poissons Ratio (z) = 0.09895 0.38453
#
# Static dielectric constant tensor:
#      x y z
#    x 3.970050 0.255970 -0.239320 
#    y 0.255970 3.857020 -0.188900 
#    z -0.239320 -0.188900 4.493680 
# 
# 
# High freq. dielectric constant tensor:
#      x y z
#    x 1.847640 0.016890 -0.010290 
#    y 0.016890 1.834270 0.005110 
#    z -0.010290 0.005110 1.871000 
# 
# From -- ./inp_files/296957.got.cif
#   From: 2010.06.25/outbox.cif.g09.slc.cpg/sg2_149_cif.got.tgz:296957.got - 2010.06.27 13:26:56.
