data_PCOD8043293
_publ_section_title
;
Structure prediction by ZEFSAII (Michael W. Deem and Ramdas Pophale) SiO2 
 PCOD8043293
Probable space group: P -1
;
_chemical_formula_sum "Si O2"
_cell_formula_units_Z 14
_cell_length_a 5.199520
_cell_length_b 12.636251
_cell_length_c 12.162050
_cell_angle_alpha 47.572137
_cell_angle_beta 92.997856
_cell_angle_gamma 85.672343
_cell_volume 582.327445
_symmetry_space_group_name_H-M "P -1"
_symmetry_group_IT_number 2
_symmetry_cell_setting 'triclinic'
loop_
_space_group_symop_operation_xyz
x,y,z
-x,-y,-z
loop_
_atom_site_type_symbol
_atom_site_label
_atom_site_fract_x
_atom_site_fract_y
_atom_site_fract_z
Si Si1 0.526033 0.753853 0.939531
Si Si2 0.705663 0.006848 0.091231
Si Si3 0.906769 0.718985 0.603627
Si Si4 0.081041 0.609258 0.140446
Si Si5 0.131173 0.782520 0.214385
Si Si6 0.347465 0.818304 0.416871
Si Si7 0.700274 0.907098 0.648354
O O1 0.434888 0.923761 0.851813
O O2 0.577266 0.774306 0.796848
O O3 0.297396 0.660911 0.027684
O O4 0.790888 0.688190 0.052661
O O5 0.881305 0.120338 0.965497
O O6 0.870098 0.848306 0.230491
O O7 0.500000 0.000000 0.000000
O O8 0.901683 0.559922 0.762554
O O9 0.639310 0.775535 0.494752
O O10 0.933918 0.826286 0.633488
O O11 0.158616 0.711776 0.536526
O O12 0.136787 0.627593 0.262061
O O13 0.360650 0.794360 0.300078
O O14 0.213293 0.982130 0.335803
O O15 0.500000 0.000000 0.500000
#
# Coordination Sequence:
#
# PCOD8043293 Si02
#       7
#     2   2   2   2   2   2   2
#     4  11  24  40  70  96 131 171 216 267 328 378
#     4  10  19  36  60  95 132 166 208 270 320 381
#     4  11  26  46  65  93 136 175 221 264 315 387
#     4  11  25  44  65 100 133 174 214 260 324 400
#     4  10  23  36  63  98 132 166 212 264 326 388
#     4  11  25  42  70  95 130 175 216 271 325 376
#     4  10  25  45  68  99 127 169 221 277 319 380
#
# _framework density 24.041457000000001
#
# number of rings (size 3 to 8) (size 9 to 14) (size 15 to 20)
#    0.000    1.429    1.429    2.143   10.000    4.571 
#    0.000    0.000    0.000    0.000    0.000    0.000 
#    0.000    0.000    0.000    0.000    0.000    0.000 
#
# Total GULP energy -173432.893059 kJ/mol
# GULP energy per Si atom -12388.063790 kJ/mol
# Density = 2.398674 g / cm^3
# Si number density = 24.041457 Si / 1000 Ang^3
#
#
#
# Elastic Constant Matrix: (Units=GPa)
#
#
# Indices 1 2 3 4 5 6 
#
# 1 98.2976 -0.9631 12.6679 4.3528 -4.1978 -0.7020
# 2 -0.9631 85.8503 32.5034 -2.1564 2.1445 -1.9142
# 3 12.6679 32.5034 77.5601 13.9655 -9.2072 -5.1860
# 4 4.3528 -2.1564 13.9655 26.0809 -7.4019 -3.9375
# 5 -4.1978 2.1445 -9.2072 -7.4019 33.2119 -0.4875
# 6 -0.7020 -1.9142 -5.1860 -3.9375 -0.4875 27.6547
#
#
#
# Elastic Compliance Matrix: (Units=1/GPa)
#
#
# Indices 1 2 3 4 5 6 
#
# 1 0.010473 0.000801 -0.001886 -0.000506 0.000635 -0.000093
# 2 0.000801 0.014562 -0.007238 0.004463 -0.001847 0.000274
# 3 -0.001886 -0.007238 0.018348 -0.008902 0.003356 0.001684
# 4 -0.000506 0.004463 -0.008902 0.046542 0.007632 0.005388
# 5 0.000635 -0.001847 0.003356 0.007632 0.032973 0.002186
# 6 -0.000093 0.000274 0.001684 0.005388 0.002186 0.037298
#
#
# Mechanical properties :
#
#
# Convention : Reuss Voigt Hill
#
# Bulk Modulus (GPa) = 37.40104 38.90272 38.15188
# Shear Modulus (GPa) = 26.91731 31.88947 29.40339
#
# Velocity S-wave (km/s) = 3.34970 3.64598 3.50098
# Velocity P-wave (km/s) = 5.52733 5.82588 5.67857
#
# Compressibility (1/GPa) = 0.02673723
#
# Stress axis : x y z
#
# Youngs Moduli (GPa) = 95.48423 68.67274 54.50075
#
# Poissons Ratio (x) = -0.05500 0.10279
# Poissons Ratio (y) = -0.07647 0.39447
# Poissons Ratio (z) = 0.18008 0.49704
#
# Static dielectric constant tensor:
#      x y z
#    x 4.154800 -0.278820 0.109080 
#    y -0.278820 4.740570 -0.030440 
#    z 0.109080 -0.030440 3.275900 
# 
# 
# High freq. dielectric constant tensor:
#      x y z
#    x 1.956920 -0.009140 -0.011390 
#    y -0.009140 1.952260 0.011380 
#    z -0.011390 0.011380 1.942610 
# 
# From -- ./inp_files/363715.got.cif
#   From: 2010.06.25/outbox.cif.g09.slc.cpg/sg2_182_cif.got.tgz:363715.got - 2010.06.27 13:26:56.
