data_PCOD8043554
_publ_section_title
;
Structure prediction by ZEFSAII (Michael W. Deem and Ramdas Pophale) SiO2 
 PCOD8043554
Probable space group: P -1
;
_chemical_formula_sum "Si O2"
_cell_formula_units_Z 16
_cell_length_a 21.274535
_cell_length_b 8.508802
_cell_length_c 11.946747
_cell_angle_alpha 129.832217
_cell_angle_beta 152.842431
_cell_angle_gamma 49.766661
_cell_volume 739.994885
_symmetry_space_group_name_H-M "P -1"
_symmetry_group_IT_number 2
_symmetry_cell_setting 'triclinic'
loop_
_space_group_symop_operation_xyz
x,y,z
-x,-y,-z
loop_
_atom_site_type_symbol
_atom_site_label
_atom_site_fract_x
_atom_site_fract_y
_atom_site_fract_z
Si Si1 0.440075 0.064887 0.313610
Si Si2 0.373359 0.667859 0.328675
Si Si3 0.975899 0.400762 0.586487
Si Si4 0.267071 0.737748 0.538246
Si Si5 0.199516 0.481619 0.129291
Si Si6 0.580367 0.591728 0.926397
Si Si7 0.304101 0.700950 0.839781
Si Si8 0.831147 0.786431 0.391415
O O1 0.577244 0.109841 0.483528
O O2 0.321562 0.275086 0.232641
O O3 0.500000 0.000000 0.500000
O O4 0.373297 0.896488 0.065806
O O5 0.500000 0.500000 0.500000
O O6 0.233987 0.653247 0.171497
O O7 0.359009 0.610583 0.148528
O O8 0.094332 0.266575 0.633582
O O9 0.854907 0.269309 0.350371
O O10 0.914052 0.633620 0.547370
O O11 0.051089 0.427203 0.835435
O O12 0.180673 0.585881 0.269992
O O13 0.418097 0.701719 0.697421
O O14 0.295541 0.669663 0.679950
O O15 0.175593 0.971446 0.482557
O O16 0.601592 0.508551 0.050329
O O17 0.669673 0.764381 0.117430
#
# Coordination Sequence:
#
# PCOD8043554 Si02
#       8
#     2   2   2   2   2   2   2   2
#     4  11  21  38  63  95 124 163 208 256 309 376
#     4  10  19  36  64  92 122 162 208 259 308 364
#     4  10  23  46  64  87 125 175 218 250 299 383
#     4  12  24  38  61  98 131 162 203 265 328 368
#     4  11  23  40  66  90 129 168 210 260 309 370
#     4  11  20  41  64  95 129 159 206 266 324 364
#     4  11  25  40  64  93 133 168 208 252 314 386
#     4  10  23  39  69  92 119 166 217 267 305 366
#
# _framework density 21.621772
#
# number of rings (size 3 to 8) (size 9 to 14) (size 15 to 20)
#    0.000    1.250    5.000    1.500    1.750    4.000 
#    0.000    1.250    0.000    0.000    0.000    0.000 
#    0.000    0.000    0.000    0.000    0.000    0.000 
#
# Total GULP energy -198344.862874 kJ/mol
# GULP energy per Si atom -12396.553930 kJ/mol
# Density = 2.157256 g / cm^3
# Si number density = 21.621772 Si / 1000 Ang^3
#
#
#
# Elastic Constant Matrix: (Units=GPa)
#
#
# Indices 1 2 3 4 5 6 
#
# 1 72.9612 20.5366 26.6887 6.7415 -14.8756 4.7001
# 2 20.5366 72.3829 30.7197 5.9561 1.5726 -8.2656
# 3 26.6887 30.7197 116.1732 8.6984 -14.6911 1.1572
# 4 6.7415 5.9561 8.6984 27.2218 -0.2738 0.8922
# 5 -14.8756 1.5726 -14.6911 -0.2738 36.1842 7.9681
# 6 4.7001 -8.2656 1.1572 0.8922 7.9681 27.3984
#
#
#
# Elastic Compliance Matrix: (Units=1/GPa)
#
#
# Indices 1 2 3 4 5 6 
#
# 1 0.018195 -0.005359 -0.001400 -0.002565 0.008694 -0.007124
# 2 -0.005359 0.018516 -0.004483 -0.001645 -0.006760 0.008714
# 3 -0.001400 -0.004483 0.010882 -0.002009 0.004652 -0.002859
# 4 -0.002565 -0.001645 -0.002009 0.038386 -0.001324 -0.000836
# 5 0.008694 -0.006760 0.004652 -0.001324 0.036534 -0.014309
# 6 -0.007124 0.008714 -0.002859 -0.000836 -0.014309 0.044659
#
#
# Mechanical properties :
#
#
# Convention : Reuss Voigt Hill
#
# Bulk Modulus (GPa) = 39.82936 46.37860 43.10398
# Shear Modulus (GPa) = 25.24896 30.39904 27.82400
#
# Velocity S-wave (km/s) = 3.42095 3.75366 3.59116
# Velocity P-wave (km/s) = 5.83651 6.34690 6.09705
#
# Compressibility (1/GPa) = 0.02510711
#
# Stress axis : x y z
#
# Youngs Moduli (GPa) = 54.95986 54.00711 91.89227
#
# Poissons Ratio (x) = 0.28944 0.12869
# Poissons Ratio (y) = 0.29455 0.41200
# Poissons Ratio (z) = 0.07697 0.24214
#
# Static dielectric constant tensor:
#      x y z
#    x 4.128960 0.392870 0.260090 
#    y 0.392870 3.573320 -0.036080 
#    z 0.260090 -0.036080 3.978940 
# 
# 
# High freq. dielectric constant tensor:
#      x y z
#    x 1.843730 0.017790 -0.004740 
#    y 0.017790 1.826200 0.001470 
#    z -0.004740 0.001470 1.862400 
# 
# From -- ./inp_files/203170.got.cif
#   From: 2010.06.25/outbox.cif.g09.slc.cpg/sg2_102_cif.got.tgz:203170.got - 2010.06.27 13:26:56.
