data_PCOD8043674
_publ_section_title
;
Structure prediction by ZEFSAII (Michael W. Deem and Ramdas Pophale) SiO2 
 PCOD8043674
Probable space group: P -1
;
_chemical_formula_sum "Si O2"
_cell_formula_units_Z 16
_cell_length_a 14.970153
_cell_length_b 10.447151
_cell_length_c 12.231741
_cell_angle_alpha 111.262821
_cell_angle_beta 137.808229
_cell_angle_gamma 102.280388
_cell_volume 765.236078
_symmetry_space_group_name_H-M "P -1"
_symmetry_group_IT_number 2
_symmetry_cell_setting 'triclinic'
loop_
_space_group_symop_operation_xyz
x,y,z
-x,-y,-z
loop_
_atom_site_type_symbol
_atom_site_label
_atom_site_fract_x
_atom_site_fract_y
_atom_site_fract_z
Si Si1 0.685626 0.410153 0.959985
Si Si2 0.637470 0.722959 0.531847
Si Si3 0.724250 0.239634 0.768448
Si Si4 0.431647 0.285564 0.134611
Si Si5 0.607883 0.367699 0.529324
Si Si6 0.987137 0.186436 0.933652
Si Si7 0.965248 0.860312 0.277469
Si Si8 0.563052 0.707549 0.103147
O O1 0.502045 0.283809 0.667283
O O2 0.792898 0.361228 0.986702
O O3 0.572651 0.302998 0.942402
O O4 0.849928 0.666339 0.198264
O O5 0.581442 0.531522 0.373894
O O6 0.578294 0.704362 0.597969
O O7 0.875848 0.957822 0.800484
O O8 0.725495 0.342101 0.695537
O O9 0.880356 0.240981 0.890648
O O10 0.500000 0.000000 0.500000
O O11 0.503070 0.232943 0.277326
O O12 0.186632 0.128833 0.873252
O O13 0.486089 0.278733 0.059721
O O14 0.782259 0.626748 0.745363
O O15 0.011543 0.208023 0.832399
O O16 0.188733 0.085734 0.591822
O O17 0.500000 0.500000 0.000000
#
# Coordination Sequence:
#
# PCOD8043674 Si02
#       8
#     2   2   2   2   2   2   2   2
#     4  10  20  35  57  87 114 146 202 240 282 330
#     4  10  19  37  54  91 118 151 186 238 294 347
#     4  11  20  39  63  87 116 152 199 250 285 342
#     4  11  23  39  57  86 131 154 183 245 291 360
#     4  11  23  38  54  90 127 150 189 237 306 351
#     4  12  20  36  65  89 113 156 198 239 297 340
#     4  11  21  36  59  91 113 153 198 236 292 340
#     4  12  21  39  59  84 118 157 202 233 280 350
#
# _framework density 20.908580000000001
#
# number of rings (size 3 to 8) (size 9 to 14) (size 15 to 20)
#    0.000    1.000   10.000    1.125    0.000    0.500 
#    2.250    0.000    0.000    3.750    0.000    0.000 
#    0.000    0.000    0.000    0.000    0.000    0.000 
#
# Total GULP energy -198244.607189 kJ/mol
# GULP energy per Si atom -12390.287949 kJ/mol
# Density = 2.086099 g / cm^3
# Si number density = 20.908580 Si / 1000 Ang^3
#
#
#
# Elastic Constant Matrix: (Units=GPa)
#
#
# Indices 1 2 3 4 5 6 
#
# 1 118.8117 28.9620 34.1500 -19.2708 -11.1091 28.1818
# 2 28.9620 31.0863 42.7741 3.6932 1.6393 21.9289
# 3 34.1500 42.7741 117.7590 9.9354 -6.6887 25.6089
# 4 -19.2708 3.6932 9.9354 35.5245 15.4451 -1.5742
# 5 -11.1091 1.6393 -6.6887 15.4451 29.2313 -0.4922
# 6 28.1818 21.9289 25.6089 -1.5742 -0.4922 35.1970
#
#
#
# Elastic Compliance Matrix: (Units=1/GPa)
#
#
# Indices 1 2 3 4 5 6 
#
# 1 0.013282 -0.011990 0.000737 0.007219 0.002018 -0.003350
# 2 -0.011990 0.113938 -0.029624 -0.004995 -0.015764 -0.040277
# 3 0.000737 -0.029624 0.019267 -0.005884 0.009522 0.003718
# 4 0.007219 -0.004995 -0.005884 0.043650 -0.021331 0.003267
# 5 0.002018 -0.015764 0.009522 -0.021331 0.049327 0.001013
# 6 -0.003350 -0.040277 0.003718 0.003267 0.001013 0.053643
#
#
# Mechanical properties :
#
#
# Convention : Reuss Voigt Hill
#
# Bulk Modulus (GPa) = 15.44778 53.26991 34.35884
# Shear Modulus (GPa) = 12.61230 30.77529 21.69380
#
# Velocity S-wave (km/s) = 2.45870 3.84069 3.22460
# Velocity P-wave (km/s) = 3.93250 6.72315 5.50751
#
# Compressibility (1/GPa) = 0.06473422
#
# Stress axis : x y z
#
# Youngs Moduli (GPa) = 75.29243 8.77668 51.90123
#
# Poissons Ratio (x) = 0.10523 -0.03827
# Poissons Ratio (y) = 0.90273 1.53753
# Poissons Ratio (z) = -0.05552 0.26000
#
# Static dielectric constant tensor:
#      x y z
#    x 5.086070 -0.749550 1.202170 
#    y -0.749550 5.281700 -1.005340 
#    z 1.202170 -1.005340 5.187410 
# 
# 
# High freq. dielectric constant tensor:
#      x y z
#    x 1.817810 0.024800 0.003300 
#    y 0.024800 1.794140 0.017900 
#    z 0.003300 0.017900 1.820100 
# 
# From -- ./inp_files/450455.got.cif
#   From: 2010.06.25/outbox.cif.g09.slc.cpg/sg2_226_cif.got.tgz:450455.got - 2010.06.27 13:26:56.
