data_PCOD8043714
_publ_section_title
;
Structure prediction by ZEFSAII (Michael W. Deem and Ramdas Pophale) SiO2 
 PCOD8043714
Probable space group: P -1
;
_chemical_formula_sum "Si O2"
_cell_formula_units_Z 16
_cell_length_a 17.315110
_cell_length_b 11.842281
_cell_length_c 22.268338
_cell_angle_alpha 42.913348
_cell_angle_beta 157.338860
_cell_angle_gamma 150.309890
_cell_volume 811.938964
_symmetry_space_group_name_H-M "P -1"
_symmetry_group_IT_number 2
_symmetry_cell_setting 'triclinic'
loop_
_space_group_symop_operation_xyz
x,y,z
-x,-y,-z
loop_
_atom_site_type_symbol
_atom_site_label
_atom_site_fract_x
_atom_site_fract_y
_atom_site_fract_z
Si Si1 0.080989 0.467920 0.431653
Si Si2 0.331167 0.667362 0.154584
Si Si3 0.538537 0.145628 0.091543
Si Si4 0.716850 0.764554 0.220079
Si Si5 0.646032 0.640454 0.789389
Si Si6 0.113287 0.012167 0.511109
Si Si7 0.153150 0.373263 0.737439
Si Si8 0.771473 0.852821 0.027635
O O1 0.428407 0.644151 0.599606
O O2 0.883553 0.392835 0.260233
O O3 0.055078 0.592851 0.416313
O O4 0.947627 0.216496 0.459120
O O5 0.348054 0.522122 0.180861
O O6 0.530966 0.747367 0.326346
O O7 0.478100 0.913337 0.129431
O O8 0.000000 0.500000 0.000000
O O9 0.464306 0.200776 0.956680
O O10 0.326003 0.072275 0.021899
O O11 0.481066 0.492299 0.185708
O O12 0.921641 0.782825 0.313701
O O13 0.935700 0.991027 0.337078
O O14 0.971514 0.916360 0.920088
O O15 0.000000 0.000000 0.500000
O O16 0.110356 0.239953 0.818926
O O17 0.494714 0.636965 0.871695
#
# Coordination Sequence:
#
# PCOD8043714 Si02
#       8
#     2   2   2   2   2   2   2   2
#     4   9  19  35  60  83 112 154 187 222 281 343
#     4  11  20  36  60  81 112 153 190 225 279 344
#     4   9  19  36  61  83 113 154 188 222 281 342
#     4  10  21  37  61  87 114 145 193 235 275 326
#     4  11  21  34  57  88 114 146 190 237 278 325
#     4  10  19  37  57  82 115 149 184 227 281 337
#     4   9  19  37  59  82 112 152 189 225 283 340
#     4   9  18  36  59  81 113 151 187 230 280 340
#
# _framework density 19.705914
#
# number of rings (size 3 to 8) (size 9 to 14) (size 15 to 20)
#    0.000    2.250    3.750    0.750    0.000    3.500 
#    0.000    0.625    8.250    0.000    0.000    0.000 
#    0.000    0.000    0.000    0.000    0.000    0.000 
#
# Total GULP energy -198225.104682 kJ/mol
# GULP energy per Si atom -12389.069043 kJ/mol
# Density = 1.966106 g / cm^3
# Si number density = 19.705914 Si / 1000 Ang^3
#
#
#
# Elastic Constant Matrix: (Units=GPa)
#
#
# Indices 1 2 3 4 5 6 
#
# 1 74.9305 19.6435 48.0231 -6.2600 -1.6282 -12.5755
# 2 19.6435 70.1089 26.0710 1.0118 4.4620 -1.3709
# 3 48.0231 26.0710 120.2697 -2.2910 -3.8283 5.4551
# 4 -6.2600 1.0118 -2.2910 33.6498 -5.5481 8.0491
# 5 -1.6282 4.4620 -3.8283 -5.5481 34.8838 -5.0569
# 6 -12.5755 -1.3709 5.4551 8.0491 -5.0569 26.7535
#
#
#
# Elastic Compliance Matrix: (Units=1/GPa)
#
#
# Indices 1 2 3 4 5 6 
#
# 1 0.021659 -0.002849 -0.008474 0.001082 0.002340 0.011879
# 2 -0.002849 0.016184 -0.002487 -0.001631 -0.002740 -0.000030
# 3 -0.008474 -0.002487 0.012587 0.001088 0.000475 -0.006915
# 4 0.001082 -0.001631 0.001088 0.032877 0.004321 -0.008871
# 5 0.002340 -0.002740 0.000475 0.004321 0.030642 0.005354
# 6 0.011879 -0.000030 -0.006915 -0.008871 0.005354 0.048052
#
#
# Mechanical properties :
#
#
# Convention : Reuss Voigt Hill
#
# Bulk Modulus (GPa) = 43.84472 50.30938 47.07705
# Shear Modulus (GPa) = 25.35176 30.49553 27.92364
#
# Velocity S-wave (km/s) = 3.59068 3.93814 3.76841
# Velocity P-wave (km/s) = 6.28398 6.80177 6.54800
#
# Compressibility (1/GPa) = 0.02280776
#
# Stress axis : x y z
#
# Youngs Moduli (GPa) = 46.17056 61.78874 79.44670
#
# Poissons Ratio (x) = 0.17606 0.67326
# Poissons Ratio (y) = 0.13156 0.19762
# Poissons Ratio (z) = 0.39126 0.15369
#
# Static dielectric constant tensor:
#      x y z
#    x 2.768380 -0.665550 -0.239280 
#    y -0.665550 3.270550 -0.156760 
#    z -0.239280 -0.156760 4.048840 
# 
# 
# High freq. dielectric constant tensor:
#      x y z
#    x 1.740960 -0.030290 0.008250 
#    y -0.030290 1.751560 -0.007950 
#    z 0.008250 -0.007950 1.779780 
# 
# From -- ./inp_files/295990.got.cif
#   From: 2010.06.25/outbox.cif.g09.slc.cpg/sg2_148_cif.got.tgz:295990.got - 2010.06.27 13:26:56.
