data_PCOD8043614
_publ_section_title
;
Structure prediction by ZEFSAII (Michael W. Deem and Ramdas Pophale) SiO2 
 PCOD8043614
Probable space group: P -1
;
_chemical_formula_sum "Si O2"
_cell_formula_units_Z 16
_cell_length_a 15.807601
_cell_length_b 11.207430
_cell_length_c 8.713033
_cell_angle_alpha 74.519927
_cell_angle_beta 38.988316
_cell_angle_gamma 54.224697
_cell_volume 732.860140
_symmetry_space_group_name_H-M "P -1"
_symmetry_group_IT_number 2
_symmetry_cell_setting 'triclinic'
loop_
_space_group_symop_operation_xyz
x,y,z
-x,-y,-z
loop_
_atom_site_type_symbol
_atom_site_label
_atom_site_fract_x
_atom_site_fract_y
_atom_site_fract_z
Si Si1 0.954514 0.657425 0.932224
Si Si2 0.234248 0.691429 0.422707
Si Si3 0.727180 0.092815 0.543090
Si Si4 0.813809 0.572470 0.926640
Si Si5 0.601941 0.742361 0.866237
Si Si6 0.511592 0.349373 0.506568
Si Si7 0.144284 0.224707 0.647148
Si Si8 0.451758 0.636726 0.880143
O O1 0.847482 0.688499 0.917440
O O2 0.112688 0.647085 0.649401
O O3 0.858146 0.786785 0.159221
O O4 0.000000 0.500000 0.000000
O O5 0.169324 0.857174 0.532596
O O6 0.427333 0.552249 0.262647
O O7 0.268339 0.698359 0.189941
O O8 0.642800 0.200936 0.476655
O O9 0.861107 0.910188 0.368972
O O10 0.579069 0.116830 0.850314
O O11 0.741426 0.623675 0.839425
O O12 0.986041 0.391717 0.742345
O O13 0.682354 0.584273 0.223951
O O14 0.676748 0.814084 0.639981
O O15 0.567585 0.651240 0.827948
O O16 0.500000 0.500000 0.500000
O O17 0.581273 0.276439 0.263113
#
# Coordination Sequence:
#
# PCOD8043614 Si02
#       8
#     2   2   2   2   2   2   2   2
#     4  10  21  38  59  86 123 159 205 250 303 362
#     4  10  20  36  57  88 120 159 200 254 302 362
#     4  10  23  38  61  94 126 161 202 254 314 359
#     4  10  22  39  63  93 120 160 211 253 297 367
#     4  10  21  40  63  93 121 163 210 250 298 367
#     4  11  21  40  63  93 119 154 211 255 295 368
#     4  11  21  38  63  92 127 165 196 255 318 360
#     4  10  19  36  66  86 115 161 212 250 298 352
#
# _framework density 21.832270000000001
#
# number of rings (size 3 to 8) (size 9 to 14) (size 15 to 20)
#    0.000    1.750    1.250    4.500    1.750    0.500 
#    0.000    8.125    0.000    3.750    0.000    0.000 
#    0.000    0.000    0.000    0.000    0.000    0.000 
#
# Total GULP energy -198270.344829 kJ/mol
# GULP energy per Si atom -12391.896552 kJ/mol
# Density = 2.178258 g / cm^3
# Si number density = 21.832270 Si / 1000 Ang^3
#
#
#
# Elastic Constant Matrix: (Units=GPa)
#
#
# Indices 1 2 3 4 5 6 
#
# 1 99.2285 24.6790 56.2981 -8.2720 15.8168 16.2390
# 2 24.6790 72.9494 48.3949 0.8710 2.5555 31.4785
# 3 56.2981 48.3949 150.3000 -34.1977 16.2520 15.7149
# 4 -8.2720 0.8710 -34.1977 41.8742 5.5700 0.0053
# 5 15.8168 2.5555 16.2520 5.5700 35.8710 -3.9149
# 6 16.2390 31.4785 15.7149 0.0053 -3.9149 26.7652
#
#
#
# Elastic Compliance Matrix: (Units=1/GPa)
#
#
# Indices 1 2 3 4 5 6 
#
# 1 0.014619 0.002845 -0.004811 -0.000364 -0.005526 -0.010199
# 2 0.002845 0.036782 -0.010544 -0.008538 -0.002038 -0.039091
# 3 -0.004811 -0.010544 0.014367 0.011636 -0.004769 0.006185
# 4 -0.000364 -0.008538 0.011636 0.034777 -0.009684 0.002007
# 5 -0.005526 -0.002038 -0.004769 -0.009684 0.035626 0.013762
# 6 -0.010199 -0.039091 0.006185 0.002007 0.013762 0.087906
#
#
# Mechanical properties :
#
#
# Convention : Reuss Voigt Hill
#
# Bulk Modulus (GPa) = 24.54109 64.58020 44.56064
# Shear Modulus (GPa) = 19.03451 33.77580 26.40516
#
# Velocity S-wave (km/s) = 2.95592 3.93753 3.48150
# Velocity P-wave (km/s) = 4.78697 7.09342 6.05110
#
# Compressibility (1/GPa) = 0.04074799
#
# Stress axis : x y z
#
# Youngs Moduli (GPa) = 68.40290 27.18688 69.60472
#
# Poissons Ratio (x) = -0.07734 0.33485
# Poissons Ratio (y) = -0.19458 0.73392
# Poissons Ratio (z) = 0.32907 0.28666
#
# Static dielectric constant tensor:
#      x y z
#    x 4.071000 0.273550 0.383960 
#    y 0.273550 3.641330 -0.248600 
#    z 0.383960 -0.248600 4.325190 
# 
# 
# High freq. dielectric constant tensor:
#      x y z
#    x 1.852240 0.024880 0.021310 
#    y 0.024880 1.831360 -0.020750 
#    z 0.021310 -0.020750 1.873790 
# 
# From -- ./inp_files/307473.got.cif
#   From: 2010.06.25/outbox.cif.g09.slc.cpg/sg2_154_cif.got.tgz:307473.got - 2010.06.27 13:26:56.
