data_PCOD8043643
_publ_section_title
;
Structure prediction by ZEFSAII (Michael W. Deem and Ramdas Pophale) SiO2 
 PCOD8043643
Probable space group: P -1
;
_chemical_formula_sum "Si O2"
_cell_formula_units_Z 14
_cell_length_a 12.557220
_cell_length_b 8.988201
_cell_length_c 9.162232
_cell_angle_alpha 59.184438
_cell_angle_beta 132.754723
_cell_angle_gamma 104.106619
_cell_volume 643.178443
_symmetry_space_group_name_H-M "P -1"
_symmetry_group_IT_number 2
_symmetry_cell_setting 'triclinic'
loop_
_space_group_symop_operation_xyz
x,y,z
-x,-y,-z
loop_
_atom_site_type_symbol
_atom_site_label
_atom_site_fract_x
_atom_site_fract_y
_atom_site_fract_z
Si Si1 0.447118 0.494324 0.119807
Si Si2 0.980517 0.565393 0.721349
Si Si3 0.895701 0.879361 0.274538
Si Si4 0.867259 0.054919 0.739414
Si Si5 0.775073 0.756765 0.944355
Si Si6 0.720623 0.378709 0.616600
Si Si7 0.774316 0.252778 0.040178
O O1 0.575102 0.494582 0.357229
O O2 0.326676 0.665814 0.959339
O O3 0.500000 0.500000 0.000000
O O4 0.375837 0.319470 0.165250
O O5 0.915381 0.696705 0.467372
O O6 0.840509 0.504259 0.697430
O O7 0.082810 0.394359 0.838141
O O8 0.075226 0.663521 0.871239
O O9 0.783565 0.869848 0.041509
O O10 0.058966 0.915685 0.362134
O O11 0.818610 0.044976 0.215539
O O12 0.768252 0.233757 0.609450
O O13 0.777615 0.889590 0.741093
O O14 0.000000 0.000000 0.000000
O O15 0.691375 0.291901 0.788182
#
# Coordination Sequence:
#
# PCOD8043643 Si02
#       7
#     2   2   2   2   2   2   2
#     4  11  27  44  66  93 128 172 218 261 319 381
#     4  11  22  36  69  99 127 168 209 264 320 374
#     4  11  20  39  67 102 130 160 212 272 317 366
#     4  10  19  36  67  97 126 157 212 263 317 369
#     4  10  20  41  64  95 128 170 213 253 319 388
#     4  12  22  43  68  94 130 170 212 263 315 383
#     4  11  24  43  63  93 136 165 213 265 315 381
#
# _framework density 21.766898000000001
#
# number of rings (size 3 to 8) (size 9 to 14) (size 15 to 20)
#    0.000    1.143    5.714    2.571    4.000    1.714 
#    0.000    2.857    0.000    0.000    0.000    0.000 
#    0.000    0.000    0.000    0.000    0.000    0.000 
#
# Total GULP energy -173560.154317 kJ/mol
# GULP energy per Si atom -12397.153880 kJ/mol
# Density = 2.171736 g / cm^3
# Si number density = 21.766898 Si / 1000 Ang^3
#
#
#
# Elastic Constant Matrix: (Units=GPa)
#
#
# Indices 1 2 3 4 5 6 
#
# 1 85.6671 22.6597 8.3353 -5.1639 -0.2203 -1.2303
# 2 22.6597 95.9406 6.6480 -15.4430 13.6947 -5.1623
# 3 8.3353 6.6480 58.3419 0.0806 2.5099 0.6790
# 4 -5.1639 -15.4430 0.0806 39.0949 7.5073 1.7274
# 5 -0.2203 13.6947 2.5099 7.5073 32.3398 1.6801
# 6 -1.2303 -5.1623 0.6790 1.7274 1.6801 36.8936
#
#
#
# Elastic Compliance Matrix: (Units=1/GPa)
#
#
# Indices 1 2 3 4 5 6 
#
# 1 0.012645 -0.003063 -0.001520 0.000185 0.001461 -0.000054
# 2 -0.003063 0.013302 -0.000802 0.006137 -0.007110 0.001810
# 3 -0.001520 -0.000802 0.017494 -0.000357 -0.000923 -0.000426
# 4 0.000185 0.006137 -0.000357 0.029856 -0.009496 -0.000094
# 5 0.001461 -0.007110 -0.000923 -0.009496 0.036330 -0.002139
# 6 -0.000054 0.001810 -0.000426 -0.000094 -0.002139 0.027466
#
#
# Mechanical properties :
#
#
# Convention : Reuss Voigt Hill
#
# Bulk Modulus (GPa) = 30.60726 35.02619 32.81672
# Shear Modulus (GPa) = 31.49531 35.15275 33.32403
#
# Velocity S-wave (km/s) = 3.80799 4.02302 3.91698
# Velocity P-wave (km/s) = 5.78155 6.14052 5.96374
#
# Compressibility (1/GPa) = 0.03267198
#
# Stress axis : x y z
#
# Youngs Moduli (GPa) = 79.08069 75.17492 57.16225
#
# Poissons Ratio (x) = 0.23025 0.08689
# Poissons Ratio (y) = 0.24222 0.04584
# Poissons Ratio (z) = 0.12021 0.06028
#
# Static dielectric constant tensor:
#      x y z
#    x 4.189390 0.271640 -0.032910 
#    y 0.271640 4.182340 -0.247460 
#    z -0.032910 -0.247460 3.773270 
# 
# 
# High freq. dielectric constant tensor:
#      x y z
#    x 1.840550 0.003350 -0.004310 
#    y 0.003350 1.861500 -0.012400 
#    z -0.004310 -0.012400 1.842330 
# 
# From -- ./inp_files/159663.got.cif
#   From: 2010.06.25/outbox.cif.g09.slc.cpg/sg2_80_cif.got.tgz:159663.got - 2010.06.27 13:26:56.
