data_PCOD8043256
_publ_section_title
;
Structure prediction by ZEFSAII (Michael W. Deem and Ramdas Pophale) SiO2 
 PCOD8043256
Probable space group: P -1
;
_chemical_formula_sum "Si O2"
_cell_formula_units_Z 16
_cell_length_a 10.246334
_cell_length_b 12.193370
_cell_length_c 8.924180
_cell_angle_alpha 50.457399
_cell_angle_beta 80.159896
_cell_angle_gamma 58.526859
_cell_volume 710.864928
_symmetry_space_group_name_H-M "P -1"
_symmetry_group_IT_number 2
_symmetry_cell_setting 'triclinic'
loop_
_space_group_symop_operation_xyz
x,y,z
-x,-y,-z
loop_
_atom_site_type_symbol
_atom_site_label
_atom_site_fract_x
_atom_site_fract_y
_atom_site_fract_z
Si Si1 0.295855 0.768782 0.131618
Si Si2 0.920271 0.050090 0.230608
Si Si3 0.109504 0.620911 0.951736
Si Si4 0.187363 0.543267 0.487238
Si Si5 0.190646 0.116458 0.387824
Si Si6 0.138356 0.363429 0.404128
Si Si7 0.714488 0.146962 0.626895
Si Si8 0.630175 0.495994 0.228445
O O1 0.207276 0.675953 0.276182
O O2 0.362220 0.815159 0.225327
O O3 0.448263 0.642929 0.109158
O O4 0.173324 0.939407 0.912625
O O5 0.873200 0.240915 0.088912
O O6 0.859317 0.003881 0.427925
O O7 0.106105 0.918430 0.303856
O O8 0.269356 0.499363 0.932706
O O9 0.959573 0.708795 0.794864
O O10 0.077953 0.520695 0.168477
O O11 0.224801 0.386101 0.508550
O O12 0.312497 0.463741 0.665039
O O13 0.009497 0.642424 0.501616
O O14 0.256899 0.185283 0.443999
O O15 0.302320 0.995722 0.333852
O O16 0.643596 0.316381 0.394539
#
# Coordination Sequence:
#
# PCOD8043256 Si02
#       8
#     2   2   2   2   2   2   2   2
#     4  11  23  39  63  96 125 167 207 257 307 374
#     4  11  20  38  62  95 125 154 215 267 304 350
#     4  11  20  39  62  98 121 164 210 257 308 365
#     4  10  21  39  58  93 126 161 210 251 310 359
#     4  11  20  37  61  92 127 157 201 266 317 348
#     4  11  22  37  64  94 130 159 207 262 303 375
#     4  10  19  36  60  89 123 159 203 264 304 348
#     4  11  21  40  66  89 130 162 212 254 305 376
#
# _framework density 22.507792999999999
#
# number of rings (size 3 to 8) (size 9 to 14) (size 15 to 20)
#    0.000    1.250    5.000    3.750    0.000    0.500 
#    2.250    0.000    0.000    8.250    0.000    0.000 
#    0.000    0.000    0.000    0.000    0.000    0.000 
#
# Total GULP energy -198285.053921 kJ/mol
# GULP energy per Si atom -12392.815870 kJ/mol
# Density = 2.245656 g / cm^3
# Si number density = 22.507793 Si / 1000 Ang^3
#
#
#
# Elastic Constant Matrix: (Units=GPa)
#
#
# Indices 1 2 3 4 5 6 
#
# 1 24.7611 14.3224 10.4741 -2.3230 -1.6512 1.3805
# 2 14.3224 125.8916 -13.6958 -3.3671 0.8671 17.0561
# 3 10.4741 -13.6958 29.8854 2.8485 -0.9661 -14.5720
# 4 -2.3230 -3.3671 2.8485 26.3451 -0.9456 -0.1235
# 5 -1.6512 0.8671 -0.9661 -0.9456 21.4734 -0.0474
# 6 1.3805 17.0561 -14.5720 -0.1235 -0.0474 44.8331
#
#
#
# Elastic Compliance Matrix: (Units=1/GPa)
#
#
# Indices 1 2 3 4 5 6 
#
# 1 0.059109 -0.008644 -0.029144 0.007360 0.003889 -0.007980
# 2 -0.008644 0.009846 0.006948 -0.000288 -0.000765 -0.001223
# 3 -0.029144 0.006948 0.055511 -0.007619 -0.000324 0.016275
# 4 0.007360 -0.000288 -0.007619 0.039453 0.001967 -0.002483
# 5 0.003889 -0.000765 -0.000324 0.001967 0.046971 0.000121
# 6 -0.007980 -0.001223 0.016275 -0.002483 0.000121 0.028299
#
#
# Mechanical properties :
#
#
# Convention : Reuss Voigt Hill
#
# Bulk Modulus (GPa) = 15.92723 22.52660 19.22692
# Shear Modulus (GPa) = 15.53770 29.82616 22.68193
#
# Velocity S-wave (km/s) = 2.63025 3.64421 3.17793
# Velocity P-wave (km/s) = 4.03931 5.26660 4.69324
#
# Compressibility (1/GPa) = 0.06278554
#
# Stress axis : x y z
#
# Youngs Moduli (GPa) = 16.91794 101.56527 18.01439
#
# Poissons Ratio (x) = 0.87794 0.52502
# Poissons Ratio (y) = 0.14624 -0.12517
# Poissons Ratio (z) = 0.49306 -0.70569
#
# Static dielectric constant tensor:
#      x y z
#    x 3.694440 0.203000 0.000360 
#    y 0.203000 4.469660 0.309660 
#    z 0.000360 0.309660 3.945480 
# 
# 
# High freq. dielectric constant tensor:
#      x y z
#    x 1.841240 0.015690 0.003340 
#    y 0.015690 1.906500 0.018770 
#    z 0.003340 0.018770 1.877830 
# 
# From -- ./inp_files/261601.got.cif
#   From: 2010.06.25/outbox.cif.g09.slc.cpg/sg2_131_cif.got.tgz:261601.got - 2010.06.27 13:26:56.
