data_PCOD8043204
_publ_section_title
;
Structure prediction by ZEFSAII (Michael W. Deem and Ramdas Pophale) SiO2 
 PCOD8043204
Probable space group: P -1
;
_chemical_formula_sum "Si O2"
_cell_formula_units_Z 16
_cell_length_a 10.711508
_cell_length_b 11.347283
_cell_length_c 14.197247
_cell_angle_alpha 122.312594
_cell_angle_beta 138.196305
_cell_angle_gamma 88.842801
_cell_volume 720.405065
_symmetry_space_group_name_H-M "P -1"
_symmetry_group_IT_number 2
_symmetry_cell_setting 'triclinic'
loop_
_space_group_symop_operation_xyz
x,y,z
-x,-y,-z
loop_
_atom_site_type_symbol
_atom_site_label
_atom_site_fract_x
_atom_site_fract_y
_atom_site_fract_z
Si Si1 0.874737 0.122603 0.571900
Si Si2 0.661794 0.741476 0.231048
Si Si3 0.921558 0.382804 0.029631
Si Si4 0.555890 0.664483 0.797140
Si Si5 0.854635 0.395181 0.573610
Si Si6 0.290957 0.509618 0.766570
Si Si7 0.118422 0.917307 0.227088
Si Si8 0.583412 0.353103 0.692196
O O1 0.785230 0.219887 0.515209
O O2 0.895530 0.159623 0.710728
O O3 0.135496 0.192128 0.708266
O O4 0.666068 0.900545 0.339584
O O5 0.705977 0.659314 0.310792
O O6 0.394652 0.589485 0.964695
O O7 0.975019 0.416312 0.185588
O O8 0.181955 0.568404 0.209167
O O9 0.843520 0.187543 0.871457
O O10 0.687906 0.369802 0.863950
O O11 0.403293 0.658145 0.623621
O O12 0.445259 0.659695 0.833697
O O13 0.514275 0.478425 0.690805
O O14 0.847056 0.855720 0.030663
O O15 0.008910 0.432507 0.580765
O O16 0.341688 0.139804 0.436456
#
# Coordination Sequence:
#
# PCOD8043204 Si02
#       8
#     2   2   2   2   2   2   2   2
#     4  10  19  36  59  93 119 152 204 259 299 352
#     4   9  19  33  63  92 115 151 209 255 300 354
#     4  10  23  42  63  94 120 158 209 257 304 357
#     4  11  23  42  61  91 129 165 201 244 311 372
#     4  11  24  40  59  86 132 169 198 247 303 369
#     4  10  20  38  62  89 122 162 200 252 308 356
#     4  11  22  40  69  91 123 157 206 262 304 358
#     4  10  22  41  68  92 118 158 206 262 305 358
#
# _framework density 22.209726
#
# number of rings (size 3 to 8) (size 9 to 14) (size 15 to 20)
#    0.000    1.750    1.250    3.750    5.250    2.000 
#    2.250    1.875    0.000    0.000    0.000    0.000 
#    0.000    0.000    0.000    0.000    0.000    0.000 
#
# Total GULP energy -198368.575534 kJ/mol
# GULP energy per Si atom -12398.035971 kJ/mol
# Density = 2.215918 g / cm^3
# Si number density = 22.209726 Si / 1000 Ang^3
#
#
#
# Elastic Constant Matrix: (Units=GPa)
#
#
# Indices 1 2 3 4 5 6 
#
# 1 53.1508 34.2930 35.2741 -9.1476 -0.6397 -13.6274
# 2 34.2930 83.0800 69.3892 -11.1687 1.6001 -19.1514
# 3 35.2741 69.3892 142.0998 1.7941 7.2808 -19.9925
# 4 -9.1476 -11.1687 1.7941 40.7158 -1.4981 7.0337
# 5 -0.6397 1.6001 7.2808 -1.4981 36.1651 -0.9440
# 6 -13.6274 -19.1514 -19.9925 7.0337 -0.9440 25.1930
#
#
#
# Elastic Compliance Matrix: (Units=1/GPa)
#
#
# Indices 1 2 3 4 5 6 
#
# 1 0.027419 -0.007442 -0.002386 0.003167 0.001594 0.006456
# 2 -0.007442 0.025275 -0.009736 0.004658 0.001065 0.006202
# 3 -0.002386 -0.009736 0.012937 -0.004328 -0.002325 0.002696
# 4 0.003167 0.004658 -0.004328 0.027820 0.001720 -0.005883
# 5 0.001594 0.001065 -0.002325 0.001720 0.028182 0.000403
# 6 0.006456 0.006202 0.002696 -0.005883 0.000403 0.051698
#
#
# Mechanical properties :
#
#
# Convention : Reuss Voigt Hill
#
# Bulk Modulus (GPa) = 37.72980 61.80481 49.76731
# Shear Modulus (GPa) = 22.59473 29.70640 26.15057
#
# Velocity S-wave (km/s) = 3.19303 3.66121 3.43510
# Velocity P-wave (km/s) = 5.53342 6.76467 6.17979
#
# Compressibility (1/GPa) = 0.02650425
#
# Stress axis : x y z
#
# Youngs Moduli (GPa) = 36.47140 39.56497 77.30004
#
# Poissons Ratio (x) = 0.29443 0.18441
# Poissons Ratio (y) = 0.27141 0.75256
# Poissons Ratio (z) = 0.08701 0.38519
#
# Static dielectric constant tensor:
#      x y z
#    x 4.080820 -0.041270 0.111240 
#    y -0.041270 3.696320 0.121030 
#    z 0.111240 0.121030 4.010750 
# 
# 
# High freq. dielectric constant tensor:
#      x y z
#    x 1.892360 -0.004440 0.010500 
#    y -0.004440 1.846460 0.009090 
#    z 0.010500 0.009090 1.868720 
# 
# From -- ./inp_files/519865.got.cif
#   From: 2010.06.25/outbox.cif.g09.slc.cpg/sg2_260_cif.got.tgz:519865.got - 2010.06.27 13:26:56.
