data_PCOD8043299
_publ_section_title
;
Structure prediction by ZEFSAII (Michael W. Deem and Ramdas Pophale) SiO2 
 PCOD8043299
Probable space group: P -1
;
_chemical_formula_sum "Si O2"
_cell_formula_units_Z 16
_cell_length_a 23.797868
_cell_length_b 14.470721
_cell_length_c 17.648617
_cell_angle_alpha 21.947306
_cell_angle_beta 21.088120
_cell_angle_gamma 32.266750
_cell_volume 808.373334
_symmetry_space_group_name_H-M "P -1"
_symmetry_group_IT_number 2
_symmetry_cell_setting 'triclinic'
loop_
_space_group_symop_operation_xyz
x,y,z
-x,-y,-z
loop_
_atom_site_type_symbol
_atom_site_label
_atom_site_fract_x
_atom_site_fract_y
_atom_site_fract_z
Si Si1 0.662549 0.341527 0.740755
Si Si2 0.921470 0.203664 0.242170
Si Si3 0.194900 0.892775 0.013204
Si Si4 0.616719 0.352681 0.157414
Si Si5 0.090364 0.356528 0.359015
Si Si6 0.031923 0.336131 0.842509
Si Si7 0.240643 0.529917 0.639604
Si Si8 0.405744 0.102232 0.727434
O O1 0.543478 0.543935 0.742642
O O2 0.825384 0.435654 0.506752
O O3 0.710296 0.296284 0.627998
O O4 0.580669 0.094896 0.073636
O O5 0.774184 0.287726 0.409421
O O6 0.905489 0.902386 0.494602
O O7 0.920324 0.301252 0.083432
O O8 0.081765 0.331439 0.982388
O O9 0.058751 0.667211 0.378698
O O10 0.330007 0.791429 0.872537
O O11 0.110555 0.085387 0.922337
O O12 0.266306 0.023261 0.901356
O O13 0.572020 0.156165 0.432076
O O14 0.749937 0.577718 0.843750
O O15 0.078673 0.594054 0.138969
O O16 0.376561 0.357423 0.612247
#
# Coordination Sequence:
#
# PCOD8043299 Si02
#       8
#     2   2   2   2   2   2   2   2
#     4  10  20  37  59  83 114 150 187 231 277 334
#     4   9  18  34  60  84 116 143 185 233 282 328
#     4  11  21  39  59  80 115 152 190 234 275 330
#     4  11  25  37  56  85 117 148 190 233 282 331
#     4  11  22  39  57  86 116 147 186 236 282 330
#     4  10  19  36  61  82 114 147 190 233 276 330
#     4   9  17  35  59  89 109 144 189 234 272 335
#     4  11  20  37  58  84 115 148 190 233 274 333
#
# _framework density 19.792835
#
# number of rings (size 3 to 8) (size 9 to 14) (size 15 to 20)
#    0.000    1.750    6.250    0.750    0.000    5.000 
#    0.000    6.250    0.000    4.500    0.000    0.000 
#    0.000    0.000    0.000    0.000    0.000    0.000 
#
# Total GULP energy -198323.593824 kJ/mol
# GULP energy per Si atom -12395.224614 kJ/mol
# Density = 1.974779 g / cm^3
# Si number density = 19.792835 Si / 1000 Ang^3
#
#
#
# Elastic Constant Matrix: (Units=GPa)
#
#
# Indices 1 2 3 4 5 6 
#
# 1 44.8253 47.3369 29.2134 -2.6382 17.4656 2.9791
# 2 47.3369 113.3325 25.4298 6.7555 20.9562 23.6327
# 3 29.2134 25.4298 84.6597 1.8919 19.8770 2.7686
# 4 -2.6382 6.7555 1.8919 29.3407 -3.3869 11.5899
# 5 17.4656 20.9562 19.8770 -3.3869 29.6091 -0.4357
# 6 2.9791 23.6327 2.7686 11.5899 -0.4357 27.1486
#
#
#
# Elastic Compliance Matrix: (Units=1/GPa)
#
#
# Indices 1 2 3 4 5 6 
#
# 1 0.055576 -0.021776 -0.010955 0.005035 -0.009269 0.011677
# 2 -0.021776 0.021648 0.002661 -0.001219 -0.004642 -0.016280
# 3 -0.010955 0.002661 0.016520 -0.002773 -0.006855 -0.001726
# 4 0.005035 -0.001219 -0.002773 0.042286 0.004338 -0.017191
# 5 -0.009269 -0.004642 -0.006855 0.004338 0.047692 0.004670
# 6 0.011677 -0.016280 -0.001726 -0.017191 0.004670 0.057315
#
#
# Mechanical properties :
#
#
# Convention : Reuss Voigt Hill
#
# Bulk Modulus (GPa) = 29.75731 49.64198 39.69965
# Shear Modulus (GPa) = 16.00615 26.60884 21.30749
#
# Velocity S-wave (km/s) = 2.84682 3.67054 3.28460
# Velocity P-wave (km/s) = 5.08654 6.56499 5.87247
#
# Compressibility (1/GPa) = 0.03360519
#
# Stress axis : x y z
#
# Youngs Moduli (GPa) = 17.99323 46.19386 60.53086
#
# Poissons Ratio (x) = 1.00593 0.66310
# Poissons Ratio (y) = 0.39183 -0.16109
# Poissons Ratio (z) = 0.19711 -0.12293
#
# Static dielectric constant tensor:
#      x y z
#    x 3.281830 0.130780 0.234670 
#    y 0.130780 3.602900 0.114900 
#    z 0.234670 0.114900 3.713550 
# 
# 
# High freq. dielectric constant tensor:
#      x y z
#    x 1.741000 0.004550 0.019740 
#    y 0.004550 1.767830 0.006830 
#    z 0.019740 0.006830 1.776780 
# 
# From -- ./inp_files/47945.got.cif
#   From: 2010.06.25/outbox.cif.g09.slc.cpg/sg2_24_cif.got.tgz:47945.got - 2010.06.27 13:26:56.
