data_PCOD8043876
_publ_section_title
;
Structure prediction by ZEFSAII (Michael W. Deem and Ramdas Pophale) SiO2 
 PCOD8043876
Probable space group: P -1
;
_chemical_formula_sum "Si O2"
_cell_formula_units_Z 14
_cell_length_a 22.042546
_cell_length_b 13.087415
_cell_length_c 7.128072
_cell_angle_alpha 55.253741
_cell_angle_beta 44.609970
_cell_angle_gamma 25.729029
_cell_volume 609.479234
_symmetry_space_group_name_H-M "P -1"
_symmetry_group_IT_number 2
_symmetry_cell_setting 'triclinic'
loop_
_space_group_symop_operation_xyz
x,y,z
-x,-y,-z
loop_
_atom_site_type_symbol
_atom_site_label
_atom_site_fract_x
_atom_site_fract_y
_atom_site_fract_z
Si Si1 0.733727 0.200796 0.937284
Si Si2 0.923422 0.743848 0.896112
Si Si3 0.386583 0.521797 0.434674
Si Si4 0.124381 0.956416 0.818738
Si Si5 0.382155 0.242726 0.740854
Si Si6 0.728141 0.750316 0.385050
Si Si7 0.959597 0.417301 0.761853
O O1 0.670187 0.391282 0.748410
O O2 0.582941 0.306808 0.246295
O O3 0.842857 0.112794 0.961912
O O4 0.844356 0.975731 0.792581
O O5 0.782742 0.811679 0.093260
O O6 0.984856 0.653242 0.070477
O O7 0.095666 0.516664 0.628858
O O8 0.291913 0.733256 0.560364
O O9 0.352922 0.422254 0.667162
O O10 0.053180 0.184032 0.701063
O O11 0.000000 0.000000 0.000000
O O12 0.345076 0.261843 0.583451
O O13 0.577590 0.962381 0.644862
O O14 0.243298 0.343498 0.064989
O O15 0.000000 0.500000 0.500000
#
# Coordination Sequence:
#
# PCOD8043876 Si02
#       7
#     2   2   2   2   2   2   2
#     4  10  23  41  66  97 128 174 222 260 329 398
#     4   9  18  37  61  86 126 162 212 268 318 388
#     4  11  22  41  67  95 131 177 215 271 323 398
#     4  11  23  43  67  95 136 173 214 280 326 384
#     4  10  19  37  60  89 128 161 218 270 319 383
#     4   9  18  33  60  86 118 163 200 267 324 367
#     4  10  22  41  60  87 124 175 217 265 331 389
#
# _framework density 22.97043
#
# number of rings (size 3 to 8) (size 9 to 14) (size 15 to 20)
#    0.000    2.000    2.857    0.429    0.000    4.000 
#    5.143    0.714    0.000    0.000    0.000    0.000 
#    0.000    0.000    0.000    0.000    0.000    0.000 
#
# Total GULP energy -173485.194404 kJ/mol
# GULP energy per Si atom -12391.799600 kJ/mol
# Density = 2.291815 g / cm^3
# Si number density = 22.970430 Si / 1000 Ang^3
#
#
#
# Elastic Constant Matrix: (Units=GPa)
#
#
# Indices 1 2 3 4 5 6 
#
# 1 75.1477 39.1729 9.7354 5.0684 -11.9211 21.7742
# 2 39.1729 122.0795 58.7261 30.3239 -9.9889 25.3917
# 3 9.7354 58.7261 106.4025 32.1187 -20.6176 19.1573
# 4 5.0684 30.3239 32.1187 48.4295 1.6525 1.2644
# 5 -11.9211 -9.9889 -20.6176 1.6525 28.1899 1.5736
# 6 21.7742 25.3917 19.1573 1.2644 1.5736 35.0015
#
#
#
# Elastic Compliance Matrix: (Units=1/GPa)
#
#
# Indices 1 2 3 4 5 6 
#
# 1 0.021716 -0.005552 0.007380 -0.003790 0.013618 -0.013997
# 2 -0.005552 0.014560 -0.005552 -0.004727 -0.000756 -0.003865
# 3 0.007380 -0.005552 0.020939 -0.011467 0.017833 -0.012412
# 4 -0.003790 -0.004727 -0.011467 0.031792 -0.014173 0.011552
# 5 0.013618 -0.000756 0.017833 -0.014173 0.055937 -0.019686
# 6 -0.013997 -0.003865 -0.012412 0.011552 -0.019686 0.047343
#
#
# Mechanical properties :
#
#
# Convention : Reuss Voigt Hill
#
# Bulk Modulus (GPa) = 20.09291 57.65539 38.87415
# Shear Modulus (GPa) = 23.11360 35.39053 29.25206
#
# Velocity S-wave (km/s) = 3.17556 3.92943 3.57244
# Velocity P-wave (km/s) = 4.71294 6.76325 5.82895
#
# Compressibility (1/GPa) = 0.04976880
#
# Stress axis : x y z
#
# Youngs Moduli (GPa) = 46.04796 68.68347 47.75808
#
# Poissons Ratio (x) = 0.38130 -0.35246
# Poissons Ratio (y) = 0.25564 0.26513
# Poissons Ratio (z) = -0.33983 0.38130
#
# Static dielectric constant tensor:
#      x y z
#    x 4.216690 0.245950 -0.077120 
#    y 0.245950 4.411830 0.642500 
#    z -0.077120 0.642500 4.072600 
# 
# 
# High freq. dielectric constant tensor:
#      x y z
#    x 1.906630 0.016780 -0.015710 
#    y 0.016780 1.909710 0.033150 
#    z -0.015710 0.033150 1.892560 
# 
# From -- ./inp_files/342868.got.cif
#   From: 2010.06.25/outbox.cif.g09.slc.cpg/sg2_172_cif.got.tgz:342868.got - 2010.06.27 13:26:56.
