data_PCOD8043257
_publ_section_title
;
Structure prediction by ZEFSAII (Michael W. Deem and Ramdas Pophale) SiO2 
 PCOD8043257
Probable space group: P -1
;
_chemical_formula_sum "Si O2"
_cell_formula_units_Z 16
_cell_length_a 19.049217
_cell_length_b 8.205187
_cell_length_c 8.597994
_cell_angle_alpha 120.391911
_cell_angle_beta 47.552621
_cell_angle_gamma 131.400768
_cell_volume 739.517908
_symmetry_space_group_name_H-M "P -1"
_symmetry_group_IT_number 2
_symmetry_cell_setting 'triclinic'
loop_
_space_group_symop_operation_xyz
x,y,z
-x,-y,-z
loop_
_atom_site_type_symbol
_atom_site_label
_atom_site_fract_x
_atom_site_fract_y
_atom_site_fract_z
Si Si1 0.779527 0.615463 0.253891
Si Si2 0.002541 0.783296 0.451099
Si Si3 0.211140 0.665663 0.454658
Si Si4 0.999942 0.024294 0.831885
Si Si5 0.371664 0.556099 0.314975
Si Si6 0.775063 0.946505 0.181414
Si Si7 0.789846 0.255585 0.868428
Si Si8 0.625629 0.823627 0.052887
O O1 0.887595 0.751395 0.268788
O O2 0.679645 0.473539 0.450601
O O3 0.753543 0.773448 0.265830
O O4 0.803786 0.473647 0.028140
O O5 0.111709 0.781416 0.238314
O O6 0.898158 0.559471 0.446729
O O7 0.000126 0.813559 0.655891
O O8 0.000000 0.000000 0.500000
O O9 0.316689 0.640156 0.312733
O O10 0.211820 0.734577 0.309944
O O11 0.219161 0.844518 0.648554
O O12 0.000000 0.000000 0.000000
O O13 0.889236 0.027109 0.953666
O O14 0.498184 0.738929 0.229791
O O15 0.355676 0.329480 0.167043
O O16 0.677368 0.835446 0.149995
O O17 0.676733 0.056927 0.005710
#
# Coordination Sequence:
#
# PCOD8043257 Si02
#       8
#     2   2   2   2   2   2   2   2
#     4  11  23  41  66  96 130 168 212 262 318 378
#     4  12  24  40  65  95 132 168 206 256 317 379
#     4  12  24  41  66  96 130 168 212 258 315 379
#     4  10  19  36  60  89 126 160 199 248 306 369
#     4  11  25  45  66  91 125 166 215 268 320 375
#     4  11  23  41  66  96 130 168 212 262 318 378
#     4  12  24  41  66  96 130 168 212 258 315 379
#     4  11  25  45  66  91 125 166 215 268 320 375
#
# _framework density 21.635717
#
# number of rings (size 3 to 8) (size 9 to 14) (size 15 to 20)
#    0.000    0.750    0.000   10.125    0.000    3.000 
#    0.000    3.750    0.000    0.000    0.000    0.000 
#    0.000    0.000    0.000    0.000    0.000    0.000 
#
# Total GULP energy -198401.232457 kJ/mol
# GULP energy per Si atom -12400.077029 kJ/mol
# Density = 2.158647 g / cm^3
# Si number density = 21.635717 Si / 1000 Ang^3
#
#
#
# Elastic Constant Matrix: (Units=GPa)
#
#
# Indices 1 2 3 4 5 6 
#
# 1 112.3527 47.8942 14.6729 -26.4888 -6.7747 13.4905
# 2 47.8942 102.9312 25.6984 -12.7540 -13.9111 14.0809
# 3 14.6729 25.6984 81.5686 -12.1136 -6.6987 20.1985
# 4 -26.4888 -12.7540 -12.1136 35.8156 2.5875 6.2354
# 5 -6.7747 -13.9111 -6.6987 2.5875 37.5068 -4.5177
# 6 13.4905 14.0809 20.1985 6.2354 -4.5177 40.7676
#
#
#
# Elastic Compliance Matrix: (Units=1/GPa)
#
#
# Indices 1 2 3 4 5 6 
#
# 1 0.013733 -0.004936 0.001857 0.009979 -0.000348 -0.005324
# 2 -0.004936 0.013342 -0.002691 0.000169 0.003409 -0.001289
# 3 0.001857 -0.002691 0.016066 0.007314 0.000655 -0.008691
# 4 0.009979 0.000169 0.007314 0.040233 -0.001203 -0.013271
# 5 -0.000348 0.003409 0.000655 -0.001203 0.028296 0.001933
# 6 -0.005324 -0.001289 -0.008691 -0.013271 0.001933 0.033287
#
#
# Mechanical properties :
#
#
# Convention : Reuss Voigt Hill
#
# Bulk Modulus (GPa) = 31.64579 52.59818 42.12198
# Shear Modulus (GPa) = 29.93470 36.72380 33.32925
#
# Velocity S-wave (km/s) = 3.72368 4.12438 3.92914
# Velocity P-wave (km/s) = 5.75727 6.85889 6.33208
#
# Compressibility (1/GPa) = 0.03159978
#
# Stress axis : x y z
#
# Youngs Moduli (GPa) = 72.81593 74.95227 62.24484
#
# Poissons Ratio (x) = 0.36995 -0.11556
# Poissons Ratio (y) = 0.35941 0.16751
# Poissons Ratio (z) = -0.13519 0.20171
#
# Static dielectric constant tensor:
#      x y z
#    x 4.372800 0.459240 -0.223650 
#    y 0.459240 5.504320 1.295890 
#    z -0.223650 1.295890 6.551730 
# 
# 
# High freq. dielectric constant tensor:
#      x y z
#    x 1.857010 0.002050 0.009400 
#    y 0.002050 1.856330 0.007850 
#    z 0.009400 0.007850 1.867320 
# 
# From -- ./inp_files/327797.got.cif
#   From: 2010.06.25/outbox.cif.g09.slc.cpg/sg2_164_cif.got.tgz:327797.got - 2010.06.27 13:26:56.
