data_PCOD8043694
_publ_section_title
;
Structure prediction by ZEFSAII (Michael W. Deem and Ramdas Pophale) SiO2 
 PCOD8043694
Probable space group: P -1
;
_chemical_formula_sum "Si O2"
_cell_formula_units_Z 14
_cell_length_a 11.701333
_cell_length_b 8.511005
_cell_length_c 8.673802
_cell_angle_alpha 129.899540
_cell_angle_beta 99.847964
_cell_angle_gamma 71.069644
_cell_volume 626.039602
_symmetry_space_group_name_H-M "P -1"
_symmetry_group_IT_number 2
_symmetry_cell_setting 'triclinic'
loop_
_space_group_symop_operation_xyz
x,y,z
-x,-y,-z
loop_
_atom_site_type_symbol
_atom_site_label
_atom_site_fract_x
_atom_site_fract_y
_atom_site_fract_z
Si Si1 0.129215 0.578717 0.969338
Si Si2 0.083391 0.230906 0.544125
Si Si3 0.634279 0.488429 0.189986
Si Si4 0.078355 0.020528 0.721092
Si Si5 0.297313 0.236744 0.380648
Si Si6 0.491379 0.181600 0.880237
Si Si7 0.249732 0.223690 0.016371
O O1 0.061592 0.468577 0.757722
O O2 0.245852 0.627289 0.952156
O O3 0.167632 0.419121 0.021930
O O4 0.041957 0.796351 0.144802
O O5 0.119498 0.055269 0.578708
O O6 0.193957 0.176055 0.416671
O O7 0.960363 0.200997 0.416934
O O8 0.668032 0.561535 0.410695
O O9 0.559549 0.699303 0.214269
O O10 0.556335 0.322780 0.087817
O O11 0.188319 0.026697 0.864767
O O12 0.248184 0.301750 0.239479
O O13 0.416141 0.039620 0.283046
O O14 0.385715 0.138108 0.931881
#
# Coordination Sequence:
#
# PCOD8043694 Si02
#       7
#     2   2   2   2   2   2   2
#     4   9  18  38  56  75 105 138 174 218 253 301
#     4   9  19  33  56  78  99 135 182 210 250 313
#     4   9  20  36  59  80  97 135 186 211 249 313
#     4  10  19  37  56  75 104 141 175 215 254 302
#     4  11  21  36  53  80 110 134 168 221 263 303
#     4  10  20  38  56  75 105 141 173 214 257 305
#     4  10  21  34  53  79 110 138 170 210 265 315
#
# _framework density 22.362803
#
# number of rings (size 3 to 8) (size 9 to 14) (size 15 to 20)
#    0.000    2.286    0.000    4.286    0.000    1.143 
#    0.000   16.429    0.000    0.000    0.000    0.000 
#    0.000    0.000    0.000    0.000    0.000    0.000 
#
# Total GULP energy -173585.048519 kJ/mol
# GULP energy per Si atom -12398.932037 kJ/mol
# Density = 2.231190 g / cm^3
# Si number density = 22.362803 Si / 1000 Ang^3
#
#
#
# Elastic Constant Matrix: (Units=GPa)
#
#
# Indices 1 2 3 4 5 6 
#
# 1 132.7398 27.8127 67.2282 -7.6187 18.2916 -3.9688
# 2 27.8127 19.6428 27.3506 -3.8909 -7.2211 -4.2069
# 3 67.2282 27.3506 131.0886 -24.6931 10.6208 -1.6649
# 4 -7.6187 -3.8909 -24.6931 25.2064 -3.5694 2.7175
# 5 18.2916 -7.2211 10.6208 -3.5694 46.8210 -2.0507
# 6 -3.9688 -4.2069 -1.6649 2.7175 -2.0507 10.2717
#
#
#
# Elastic Compliance Matrix: (Units=1/GPa)
#
#
# Indices 1 2 3 4 5 6 
#
# 1 0.014193 -0.020875 -0.002727 -0.002316 -0.008524 -0.004597
# 2 -0.020875 0.130344 -0.019802 -0.006161 0.034498 0.050626
# 3 -0.002727 -0.019802 0.015681 0.011921 -0.005110 -0.010796
# 4 -0.002316 -0.006161 0.011921 0.051387 0.000512 -0.014979
# 5 -0.008524 0.034498 -0.005110 0.000512 0.031918 0.016244
# 6 -0.004597 0.050626 -0.010796 -0.014979 0.016244 0.121770
#
#
# Mechanical properties :
#
#
# Convention : Reuss Voigt Hill
#
# Bulk Modulus (GPa) = 13.62236 58.69491 36.15863
# Shear Modulus (GPa) = 10.49159 27.19846 18.84503
#
# Velocity S-wave (km/s) = 2.16835 3.49124 2.90607
# Velocity P-wave (km/s) = 3.51763 6.52345 5.24066
#
# Compressibility (1/GPa) = 0.07340873
#
# Stress axis : x y z
#
# Youngs Moduli (GPa) = 70.45718 7.67200 63.77108
#
# Poissons Ratio (x) = 0.16016 0.17393
# Poissons Ratio (y) = 1.47082 1.26279
# Poissons Ratio (z) = 0.19216 0.15192
#
# Static dielectric constant tensor:
#      x y z
#    x 4.413030 0.025980 0.307050 
#    y 0.025980 3.507840 -0.144050 
#    z 0.307050 -0.144050 4.261420 
# 
# 
# High freq. dielectric constant tensor:
#      x y z
#    x 1.902130 -0.000160 0.008550 
#    y -0.000160 1.834430 -0.006560 
#    z 0.008550 -0.006560 1.892860 
# 
# From -- ./inp_files/200069.got.cif
#   From: 2010.06.25/outbox.cif.g09.slc.cpg/sg2_101_cif.got.tgz:200069.got - 2010.06.27 13:26:56.
