data_PCOD8043906
_publ_section_title
;
Structure prediction by ZEFSAII (Michael W. Deem and Ramdas Pophale) SiO2 
 PCOD8043906
Probable space group: P -1
;
_chemical_formula_sum "Si O2"
_cell_formula_units_Z 16
_cell_length_a 16.195820
_cell_length_b 9.182858
_cell_length_c 14.318970
_cell_angle_alpha 139.902469
_cell_angle_beta 37.939499
_cell_angle_gamma 134.642151
_cell_volume 816.329048
_symmetry_space_group_name_H-M "P -1"
_symmetry_group_IT_number 2
_symmetry_cell_setting 'triclinic'
loop_
_space_group_symop_operation_xyz
x,y,z
-x,-y,-z
loop_
_atom_site_type_symbol
_atom_site_label
_atom_site_fract_x
_atom_site_fract_y
_atom_site_fract_z
Si Si1 0.496431 0.264127 0.647552
Si Si2 0.483675 0.388050 0.361352
Si Si3 0.224939 0.607682 0.898182
Si Si4 0.974300 0.197896 0.242139
Si Si5 0.792787 0.529931 0.546201
Si Si6 0.193957 0.261322 0.925872
Si Si7 0.187076 0.309310 0.595890
Si Si8 0.928688 0.989971 0.747675
O O1 0.501059 0.384201 0.603007
O O2 0.632871 0.400481 0.650044
O O3 0.351438 0.284307 0.833248
O O4 0.500000 0.000000 0.500000
O O5 0.500000 0.500000 0.500000
O O6 0.610150 0.266190 0.172406
O O7 0.328446 0.218530 0.409173
O O8 0.176679 0.434922 0.943331
O O9 0.195649 0.468407 0.758535
O O10 0.141793 0.802390 0.065492
O O11 0.022871 0.096546 0.241980
O O12 0.895629 0.394844 0.436761
O O13 0.108306 0.313023 0.116457
O O14 0.865274 0.001722 0.185846
O O15 0.827307 0.540667 0.409634
O O16 0.819884 0.787318 0.691522
O O17 0.060646 0.082386 0.607521
#
# Coordination Sequence:
#
# PCOD8043906 Si02
#       8
#     2   2   2   2   2   2   2   2
#     4  10  19  37  61  84 111 152 194 238 285 340
#     4   8  18  33  56  88 114 139 193 243 281 329
#     4  10  20  38  60  88 116 150 199 239 283 343
#     4  11  23  37  58  85 120 150 195 241 288 342
#     4  11  24  40  58  88 121 153 192 238 295 350
#     4  10  21  37  62  89 110 149 200 248 279 331
#     4  10  20  37  61  87 115 155 196 235 286 344
#     4  12  24  38  58  87 124 157 187 237 296 347
#
# _framework density 19.59994
#
# number of rings (size 3 to 8) (size 9 to 14) (size 15 to 20)
#    0.000    1.750    2.500    1.875    3.500    1.000 
#    0.000    7.500    0.000    0.000    0.000    0.000 
#    0.000    0.000    0.000    0.000    0.000    0.000 
#
# Total GULP energy -198306.343685 kJ/mol
# GULP energy per Si atom -12394.146480 kJ/mol
# Density = 1.955533 g / cm^3
# Si number density = 19.599940 Si / 1000 Ang^3
#
#
#
# Elastic Constant Matrix: (Units=GPa)
#
#
# Indices 1 2 3 4 5 6 
#
# 1 81.7941 41.9047 41.8595 -10.6656 -25.9013 0.2821
# 2 41.9047 108.3962 48.9264 -18.3084 -13.4689 22.9391
# 3 41.8595 48.9264 69.7253 -16.7207 -18.3839 4.7957
# 4 -10.6656 -18.3084 -16.7207 31.8837 5.5757 -2.2940
# 5 -25.9013 -13.4689 -18.3839 5.5757 24.8676 -1.4110
# 6 0.2821 22.9391 4.7957 -2.2940 -1.4110 34.5266
#
#
#
# Elastic Compliance Matrix: (Units=1/GPa)
#
#
# Indices 1 2 3 4 5 6 
#
# 1 0.023602 -0.005245 -0.006509 -0.001240 0.017482 0.004828
# 2 -0.005245 0.017400 -0.008437 0.003721 -0.003692 -0.010249
# 3 -0.006509 -0.008437 0.027535 0.006247 0.007752 0.002566
# 4 -0.001240 0.003721 0.006247 0.036809 -0.002968 -0.001005
# 5 0.017482 -0.003692 0.007752 -0.002968 0.063023 0.003612
# 6 0.004828 -0.010249 0.002566 -0.001005 0.003612 0.035458
#
#
# Mechanical properties :
#
#
# Convention : Reuss Voigt Hill
#
# Bulk Modulus (GPa) = 35.51744 58.36629 46.94187
# Shear Modulus (GPa) = 19.71669 26.73726 23.22698
#
# Velocity S-wave (km/s) = 3.17512 3.69745 3.44620
# Velocity P-wave (km/s) = 5.62160 6.93337 6.31166
#
# Compressibility (1/GPa) = 0.02815518
#
# Stress axis : x y z
#
# Youngs Moduli (GPa) = 42.37011 57.47174 36.31715
#
# Poissons Ratio (x) = 0.30145 0.23638
# Poissons Ratio (y) = 0.22224 0.30640
# Poissons Ratio (z) = 0.27577 0.48488
#
# Static dielectric constant tensor:
#      x y z
#    x 3.132150 -0.170640 0.236260 
#    y -0.170640 3.657780 -0.162830 
#    z 0.236260 -0.162830 3.074700 
# 
# 
# High freq. dielectric constant tensor:
#      x y z
#    x 1.771880 -0.002630 -0.021760 
#    y -0.002630 1.765100 -0.026050 
#    z -0.021760 -0.026050 1.747650 
# 
# From -- ./inp_files/239158.got.cif
#   From: 2010.06.25/outbox.cif.g09.slc.cpg/sg2_120_cif.got.tgz:239158.got - 2010.06.27 13:26:56.
