data_PCOD8043722
_publ_section_title
;
Structure prediction by ZEFSAII (Michael W. Deem and Ramdas Pophale) SiO2 
 PCOD8043722
Probable space group: P -1
;
_chemical_formula_sum "Si O2"
_cell_formula_units_Z 16
_cell_length_a 11.604474
_cell_length_b 11.890746
_cell_length_c 12.592839
_cell_angle_alpha 141.774533
_cell_angle_beta 124.765701
_cell_angle_gamma 47.902662
_cell_volume 794.185582
_symmetry_space_group_name_H-M "P -1"
_symmetry_group_IT_number 2
_symmetry_cell_setting 'triclinic'
loop_
_space_group_symop_operation_xyz
x,y,z
-x,-y,-z
loop_
_atom_site_type_symbol
_atom_site_label
_atom_site_fract_x
_atom_site_fract_y
_atom_site_fract_z
Si Si1 0.586845 0.531337 0.466366
Si Si2 0.709988 0.134098 0.512321
Si Si3 0.083735 0.490860 0.329492
Si Si4 0.904923 0.911729 0.647449
Si Si5 0.239348 0.895481 0.846161
Si Si6 0.873487 0.917010 0.868585
Si Si7 0.867947 0.415346 0.801103
Si Si8 0.200537 0.181296 0.859322
O O1 0.500000 0.500000 0.500000
O O2 0.475664 0.728366 0.485349
O O3 0.735163 0.566492 0.600277
O O4 0.641161 0.336556 0.275465
O O5 0.778344 0.287303 0.617282
O O6 0.777610 0.068243 0.616600
O O7 0.750669 0.938325 0.315096
O O8 0.045337 0.313860 0.221394
O O9 0.056467 0.521205 0.212028
O O10 0.960090 0.685370 0.468828
O O11 0.814251 0.936714 0.730550
O O12 0.059406 0.946424 0.765524
O O13 0.285911 0.026590 0.884755
O O14 0.261870 0.955152 0.022903
O O15 0.000000 0.000000 0.000000
O O16 0.013446 0.268669 0.840000
O O17 0.760087 0.623442 0.963960
#
# Coordination Sequence:
#
# PCOD8043722 Si02
#       8
#     2   2   2   2   2   2   2   2
#     4  11  22  35  59  88 123 160 194 233 308 367
#     4  12  21  39  56  91 124 160 189 245 301 368
#     4  11  20  38  59  90 119 154 201 247 290 363
#     4  10  21  37  64  82 114 160 200 244 300 343
#     4  10  19  37  57  86 119 150 198 252 288 351
#     4  10  22  39  62  88 113 155 207 256 290 337
#     4  11  21  32  59  93 124 151 193 252 309 349
#     4  11  20  32  57  91 122 150 194 252 305 346
#
# _framework density 20.146425000000001
#
# number of rings (size 3 to 8) (size 9 to 14) (size 15 to 20)
#    0.000    1.250    6.250    1.500    0.000    0.000 
#    2.250    3.125    0.000    0.000    0.000    0.000 
#    0.000    0.000    0.000    0.000    0.000    0.000 
#
# Total GULP energy -198292.464046 kJ/mol
# GULP energy per Si atom -12393.279003 kJ/mol
# Density = 2.010057 g / cm^3
# Si number density = 20.146425 Si / 1000 Ang^3
#
#
#
# Elastic Constant Matrix: (Units=GPa)
#
#
# Indices 1 2 3 4 5 6 
#
# 1 37.1050 37.7747 23.4108 -4.9263 -5.9903 10.2222
# 2 37.7747 118.9832 54.0333 8.2038 -18.2862 4.6117
# 3 23.4108 54.0333 127.7671 11.0227 -25.0205 7.2017
# 4 -4.9263 8.2038 11.0227 31.9267 10.4901 -4.4201
# 5 -5.9903 -18.2862 -25.0205 10.4901 34.9849 -0.8080
# 6 10.2222 4.6117 7.2017 -4.4201 -0.8080 34.6000
#
#
#
# Elastic Compliance Matrix: (Units=1/GPa)
#
#
# Indices 1 2 3 4 5 6 
#
# 1 0.048509 -0.015003 -0.004619 0.013967 -0.007252 -0.009756
# 2 -0.015003 0.015501 -0.002039 -0.007402 0.006341 0.001993
# 3 -0.004619 -0.002039 0.012029 -0.007510 0.008961 -0.001618
# 4 0.013967 -0.007402 -0.007510 0.045157 -0.020303 0.003718
# 5 -0.007252 0.006341 0.008961 -0.020303 0.043103 -0.002155
# 6 -0.009756 0.001993 -0.001618 0.003718 -0.002155 0.032280
#
#
# Mechanical properties :
#
#
# Convention : Reuss Voigt Hill
#
# Bulk Modulus (GPa) = 30.56320 57.14363 43.85342
# Shear Modulus (GPa) = 19.93574 31.54475 25.74024
#
# Velocity S-wave (km/s) = 3.14911 3.96128 3.57831
# Velocity P-wave (km/s) = 5.33160 7.02482 6.23595
#
# Compressibility (1/GPa) = 0.03271908
#
# Stress axis : x y z
#
# Youngs Moduli (GPa) = 20.61460 64.51247 83.13131
#
# Poissons Ratio (x) = 0.96785 0.38398
# Poissons Ratio (y) = 0.30927 0.16947
# Poissons Ratio (z) = 0.09522 0.13151
#
# Static dielectric constant tensor:
#      x y z
#    x 3.417840 0.162390 -0.222610 
#    y 0.162390 3.779350 0.049110 
#    z -0.222610 0.049110 4.086470 
# 
# 
# High freq. dielectric constant tensor:
#      x y z
#    x 1.736160 0.013000 -0.006870 
#    y 0.013000 1.786380 0.010530 
#    z -0.006870 0.010530 1.807960 
# 
# From -- ./inp_files/171433.got.cif
#   From: 2010.06.25/outbox.cif.g09.slc.cpg/sg2_86_cif.got.tgz:171433.got - 2010.06.27 13:26:56.
