data_PCOD8043316
_publ_section_title
;
Structure prediction by ZEFSAII (Michael W. Deem and Ramdas Pophale) SiO2 
 PCOD8043316
Probable space group: P -1
;
_chemical_formula_sum "Si O2"
_cell_formula_units_Z 14
_cell_length_a 13.610535
_cell_length_b 7.943320
_cell_length_c 11.412900
_cell_angle_alpha 120.583381
_cell_angle_beta 143.477891
_cell_angle_gamma 72.362374
_cell_volume 618.523877
_symmetry_space_group_name_H-M "P -1"
_symmetry_group_IT_number 2
_symmetry_cell_setting 'triclinic'
loop_
_space_group_symop_operation_xyz
x,y,z
-x,-y,-z
loop_
_atom_site_type_symbol
_atom_site_label
_atom_site_fract_x
_atom_site_fract_y
_atom_site_fract_z
Si Si1 0.713982 0.160437 0.673277
Si Si2 0.090512 0.393949 0.646274
Si Si3 0.320215 0.041060 0.198348
Si Si4 0.736765 0.916682 0.396708
Si Si5 0.631771 0.279491 0.033300
Si Si6 0.693457 0.532058 0.663430
Si Si7 0.235529 0.690220 0.570287
O O1 0.513173 0.119178 0.448418
O O2 0.783653 0.394479 0.787284
O O3 0.767330 0.112500 0.838395
O O4 0.792741 0.016048 0.611147
O O5 0.113960 0.180171 0.544446
O O6 0.272553 0.539731 0.895381
O O7 0.000000 0.500000 0.500000
O O8 0.969239 0.355955 0.629941
O O9 0.228018 0.230063 0.163664
O O10 0.309404 0.923456 0.023333
O O11 0.697124 0.085928 0.331699
O O12 0.567646 0.743522 0.185938
O O13 0.676527 0.327696 0.227953
O O14 0.500000 0.500000 0.500000
O O15 0.712278 0.469210 0.524403
#
# Coordination Sequence:
#
# PCOD8043316 Si02
#       7
#     2   2   2   2   2   2   2
#     4   8  17  31  54  83 109 150 193 233 289 343
#     4  10  22  37  55  83 122 155 190 234 299 354
#     4   9  17  33  54  79 119 145 186 243 287 334
#     4  10  19  36  61  86 113 151 202 244 279 343
#     4  10  21  37  57  94 115 146 198 243 290 342
#     4   9  18  34  57  83 111 153 195 234 286 352
#     4  10  21  38  61  85 119 153 191 238 300 353
#
# _framework density 22.634533000000001
#
# number of rings (size 3 to 8) (size 9 to 14) (size 15 to 20)
#    0.000    2.571    0.000    2.143    4.000    0.000 
#    7.714    0.714    0.000    1.714    0.000    0.000 
#    0.000    0.000    0.000    0.000    0.000    0.000 
#
# Total GULP energy -173517.788569 kJ/mol
# GULP energy per Si atom -12394.127755 kJ/mol
# Density = 2.258302 g / cm^3
# Si number density = 22.634533 Si / 1000 Ang^3
#
#
#
# Elastic Constant Matrix: (Units=GPa)
#
#
# Indices 1 2 3 4 5 6 
#
# 1 142.6761 47.3287 28.8719 10.2426 -9.8170 -20.5955
# 2 47.3287 119.9251 13.8998 22.9214 -14.5958 -20.6837
# 3 28.8719 13.8998 26.0062 9.2743 1.8212 -3.1764
# 4 10.2426 22.9214 9.2743 17.8944 -2.3813 -3.9818
# 5 -9.8170 -14.5958 1.8212 -2.3813 30.8060 5.2479
# 6 -20.5955 -20.6837 -3.1764 -3.9818 5.2479 47.2152
#
#
#
# Elastic Compliance Matrix: (Units=1/GPa)
#
#
# Indices 1 2 3 4 5 6 
#
# 1 0.010577 -0.002950 -0.011708 0.004725 0.002580 0.002645
# 2 -0.002950 0.013067 0.001680 -0.014806 0.003511 0.002912
# 3 -0.011708 0.001680 0.061154 -0.028658 -0.008470 -0.001732
# 4 0.004725 -0.014806 -0.028658 0.087532 0.002829 0.000714
# 5 0.002580 0.003511 -0.008470 0.002829 0.035950 -0.001664
# 6 0.002645 0.002912 -0.001732 0.000714 -0.001664 0.023738
#
#
# Mechanical properties :
#
#
# Convention : Reuss Voigt Hill
#
# Bulk Modulus (GPa) = 16.99433 52.08981 34.54207
# Shear Modulus (GPa) = 18.01232 32.41693 25.21463
#
# Velocity S-wave (km/s) = 2.82403 3.78853 3.34127
# Velocity P-wave (km/s) = 4.26122 6.49621 5.49357
#
# Compressibility (1/GPa) = 0.05884315
#
# Stress axis : x y z
#
# Youngs Moduli (GPa) = 94.54587 76.52674 16.35215
#
# Poissons Ratio (x) = 0.22575 0.19145
# Poissons Ratio (y) = 0.27891 -0.02748
# Poissons Ratio (z) = 1.10695 -0.12860
#
# Static dielectric constant tensor:
#      x y z
#    x 4.707630 0.192680 0.389980 
#    y 0.192680 4.424870 0.481830 
#    z 0.389980 0.481830 3.724030 
# 
# 
# High freq. dielectric constant tensor:
#      x y z
#    x 1.906890 -0.005650 0.005190 
#    y -0.005650 1.898050 0.027390 
#    z 0.005190 0.027390 1.840400 
# 
# From -- ./inp_files/154251.got.cif
#   From: 2010.06.25/outbox.cif.g09.slc.cpg/sg2_78_cif.got.tgz:154251.got - 2010.06.27 13:26:56.
