data_PCOD8043836
_publ_section_title
;
Structure prediction by ZEFSAII (Michael W. Deem and Ramdas Pophale) SiO2 
 PCOD8043836
Probable space group: P -1
;
_chemical_formula_sum "Si O2"
_cell_formula_units_Z 16
_cell_length_a 8.874552
_cell_length_b 13.052242
_cell_length_c 11.023066
_cell_angle_alpha 61.075369
_cell_angle_beta 119.388901
_cell_angle_gamma 131.542083
_cell_volume 807.805773
_symmetry_space_group_name_H-M "P -1"
_symmetry_group_IT_number 2
_symmetry_cell_setting 'triclinic'
loop_
_space_group_symop_operation_xyz
x,y,z
-x,-y,-z
loop_
_atom_site_type_symbol
_atom_site_label
_atom_site_fract_x
_atom_site_fract_y
_atom_site_fract_z
Si Si1 0.688502 0.450349 0.353387
Si Si2 0.139416 0.247280 0.710198
Si Si3 0.096810 0.537860 0.329979
Si Si4 0.229440 0.836427 0.205945
Si Si5 0.760749 0.812238 0.683961
Si Si6 0.085497 0.984745 0.918173
Si Si7 0.973160 0.732664 0.615909
Si Si8 0.383384 0.000005 0.572903
O O1 0.696148 0.595331 0.263774
O O2 0.865353 0.457004 0.339158
O O3 0.466355 0.321712 0.292800
O O4 0.728660 0.423506 0.521742
O O5 0.114663 0.257839 0.552525
O O6 0.920135 0.183704 0.729554
O O7 0.215741 0.141517 0.819362
O O8 0.161336 0.684962 0.210070
O O9 0.087920 0.426871 0.295418
O O10 0.460458 0.915599 0.304140
O O11 0.227786 0.926575 0.040881
O O12 0.871370 0.765541 0.664333
O O13 0.893866 0.871462 0.824651
O O14 0.747519 0.933364 0.546821
O O15 0.000000 0.000000 0.000000
O O16 0.222734 0.842494 0.649533
O O17 0.500000 0.000000 0.500000
#
# Coordination Sequence:
#
# PCOD8043836 Si02
#       8
#     2   2   2   2   2   2   2   2
#     4   9  18  34  59  87 112 150 196 241 275 338
#     4   9  18  35  59  87 118 145 189 242 290 329
#     4   9  18  35  57  86 119 145 194 241 287 331
#     4  10  19  37  60  84 112 155 196 235 282 341
#     4  12  23  37  58  90 118 148 194 240 295 337
#     4  10  21  39  57  83 118 156 188 238 291 346
#     4  11  22  35  58  91 121 144 187 251 291 334
#     4  12  20  36  61  88 108 150 201 238 276 337
#
# _framework density 19.806742
#
# number of rings (size 3 to 8) (size 9 to 14) (size 15 to 20)
#    0.000    1.750    3.750    2.625    0.000    2.000 
#    0.000    8.125    0.000    0.000    0.000    0.000 
#    0.000    0.000    0.000    0.000    0.000    0.000 
#
# Total GULP energy -198340.584497 kJ/mol
# GULP energy per Si atom -12396.286531 kJ/mol
# Density = 1.976166 g / cm^3
# Si number density = 19.806742 Si / 1000 Ang^3
#
#
#
# Elastic Constant Matrix: (Units=GPa)
#
#
# Indices 1 2 3 4 5 6 
#
# 1 63.6092 36.7722 26.1123 5.2793 9.3668 -20.1912
# 2 36.7722 123.0888 52.8051 -6.1690 11.6483 -26.8177
# 3 26.1123 52.8051 94.4859 -4.1032 15.4855 -13.0791
# 4 5.2793 -6.1690 -4.1032 38.6943 -5.4970 7.1061
# 5 9.3668 11.6483 15.4855 -5.4970 16.3176 -1.1191
# 6 -20.1912 -26.8177 -13.0791 7.1061 -1.1191 28.8912
#
#
#
# Elastic Compliance Matrix: (Units=1/GPa)
#
#
# Indices 1 2 3 4 5 6 
#
# 1 0.025906 -0.002610 -0.001587 -0.009088 -0.013419 0.016679
# 2 -0.002610 0.013023 -0.005070 0.000111 -0.002411 0.007848
# 3 -0.001587 -0.005070 0.015692 -0.000608 -0.010496 0.001031
# 4 -0.009088 0.000111 -0.000608 0.031757 0.015471 -0.013736
# 5 -0.013419 -0.002411 -0.010496 0.015471 0.084721 -0.016891
# 6 0.016679 0.007848 0.001031 -0.013736 -0.016891 0.056745
#
#
# Mechanical properties :
#
#
# Convention : Reuss Voigt Hill
#
# Bulk Modulus (GPa) = 27.71177 56.95146 42.33162
# Shear Modulus (GPa) = 19.34917 27.81358 23.58137
#
# Velocity S-wave (km/s) = 3.12893 3.75140 3.45421
# Velocity P-wave (km/s) = 5.20337 6.89782 6.10962
#
# Compressibility (1/GPa) = 0.03608575
#
# Stress axis : x y z
#
# Youngs Moduli (GPa) = 38.60071 76.78916 63.72485
#
# Poissons Ratio (x) = 0.20042 0.10116
# Poissons Ratio (y) = 0.10075 0.32311
# Poissons Ratio (z) = 0.06128 0.38935
#
# Static dielectric constant tensor:
#      x y z
#    x 3.385840 -0.206990 0.311720 
#    y -0.206990 4.095990 -0.363890 
#    z 0.311720 -0.363890 3.794090 
# 
# 
# High freq. dielectric constant tensor:
#      x y z
#    x 1.744250 -0.013030 0.012910 
#    y -0.013030 1.796690 -0.011650 
#    z 0.012910 -0.011650 1.743290 
# 
# From -- ./inp_files/298743.got.cif
#   From: 2010.06.25/outbox.cif.g09.slc.cpg/sg2_150_cif.got.tgz:298743.got - 2010.06.27 13:26:56.
