data_PCOD8043339
_publ_section_title
;
Structure prediction by ZEFSAII (Michael W. Deem and Ramdas Pophale) SiO2 
 PCOD8043339
Probable space group: P -1
;
_chemical_formula_sum "Si O2"
_cell_formula_units_Z 16
_cell_length_a 9.826924
_cell_length_b 11.419119
_cell_length_c 12.490042
_cell_angle_alpha 130.351636
_cell_angle_beta 128.833037
_cell_angle_gamma 54.964065
_cell_volume 797.986498
_symmetry_space_group_name_H-M "P -1"
_symmetry_group_IT_number 2
_symmetry_cell_setting 'triclinic'
loop_
_space_group_symop_operation_xyz
x,y,z
-x,-y,-z
loop_
_atom_site_type_symbol
_atom_site_label
_atom_site_fract_x
_atom_site_fract_y
_atom_site_fract_z
Si Si1 0.582559 0.038162 0.173631
Si Si2 0.016518 0.753312 0.432534
Si Si3 0.400453 0.610140 0.610985
Si Si4 0.071434 0.818924 0.054050
Si Si5 0.010414 0.912624 0.311766
Si Si6 0.236515 0.468405 0.862022
Si Si7 0.284042 0.931057 0.054310
Si Si8 0.559118 0.410274 0.142392
O O1 0.546893 0.226194 0.277715
O O2 0.793256 0.943004 0.228286
O O3 0.471194 0.981736 0.181496
O O4 0.500000 0.000000 0.000000
O O5 0.183696 0.637354 0.510977
O O6 0.094636 0.796885 0.383597
O O7 0.862702 0.665560 0.288927
O O8 0.936449 0.920332 0.556145
O O9 0.500000 0.500000 0.500000
O O10 0.464137 0.529595 0.710773
O O11 0.092499 0.639523 0.917277
O O12 0.224999 0.890572 0.119357
O O13 0.870526 0.926539 0.991151
O O14 0.099791 0.818982 0.194865
O O15 0.352812 0.476262 0.817699
O O16 0.365322 0.414697 0.997111
O O17 0.311662 0.772767 0.900640
#
# Coordination Sequence:
#
# PCOD8043339 Si02
#       8
#     2   2   2   2   2   2   2   2
#     4  11  19  36  64  84 113 167 203 240 301 366
#     4  10  23  40  59  87 124 164 193 243 318 370
#     4  11  25  38  56  89 127 154 199 252 301 358
#     4  10  21  35  60  94 118 152 207 264 287 351
#     4  10  21  39  60  85 125 158 201 248 304 371
#     4  10  23  39  67  92 119 158 208 253 308 352
#     4  10  19  36  61  88 120 154 210 245 299 360
#     4  10  21  43  63  88 125 164 200 251 303 373
#
# _framework density 20.050464000000002
#
# number of rings (size 3 to 8) (size 9 to 14) (size 15 to 20)
#    0.000    1.750    2.500    1.500    3.500    1.000 
#    2.250    0.000    0.000    4.500    0.000    0.000 
#    0.000    0.000    0.000    0.000    0.000    0.000 
#
# Total GULP energy -198412.575758 kJ/mol
# GULP energy per Si atom -12400.785985 kJ/mol
# Density = 2.000483 g / cm^3
# Si number density = 20.050464 Si / 1000 Ang^3
#
#
#
# Elastic Constant Matrix: (Units=GPa)
#
#
# Indices 1 2 3 4 5 6 
#
# 1 101.8581 23.2059 59.4317 1.6023 3.1349 9.0009
# 2 23.2059 72.1832 33.2173 -5.5187 8.3151 -2.3627
# 3 59.4317 33.2173 118.8117 -2.4278 7.1668 4.7784
# 4 1.6023 -5.5187 -2.4278 30.4070 5.5240 -2.6463
# 5 3.1349 8.3151 7.1668 5.5240 41.0147 -1.1926
# 6 9.0009 -2.3627 4.7784 -2.6463 -1.1926 20.5477
#
#
#
# Elastic Compliance Matrix: (Units=1/GPa)
#
#
# Indices 1 2 3 4 5 6 
#
# 1 0.014638 -0.002084 -0.006606 -0.002254 0.000605 -0.005371
# 2 -0.002084 0.016951 -0.003597 0.003801 -0.003044 0.004011
# 3 -0.006606 -0.003597 0.012832 0.000887 -0.001141 -0.000456
# 4 -0.002254 0.003801 0.000887 0.035210 -0.005337 0.005443
# 5 0.000605 -0.003044 -0.001141 -0.005337 0.025884 0.000465
# 6 -0.005371 0.004011 -0.000456 0.005443 0.000465 0.052315
#
#
# Mechanical properties :
#
#
# Convention : Reuss Voigt Hill
#
# Bulk Modulus (GPa) = 50.38347 58.28474 54.33411
# Shear Modulus (GPa) = 26.45199 30.19375 28.32287
#
# Velocity S-wave (km/s) = 3.63612 3.88479 3.76251
# Velocity P-wave (km/s) = 6.54304 7.01814 6.78475
#
# Compressibility (1/GPa) = 0.01984778
#
# Stress axis : x y z
#
# Youngs Moduli (GPa) = 68.31332 58.99217 77.92880
#
# Poissons Ratio (x) = 0.12293 0.51483
# Poissons Ratio (y) = 0.14235 0.28030
# Poissons Ratio (z) = 0.45130 0.21219
#
# Static dielectric constant tensor:
#      x y z
#    x 5.130440 0.986730 0.315490 
#    y 0.986730 4.329090 0.143910 
#    z 0.315490 0.143910 3.734040 
# 
# 
# High freq. dielectric constant tensor:
#      x y z
#    x 1.778430 0.005610 -0.001020 
#    y 0.005610 1.789080 -0.001480 
#    z -0.001020 -0.001480 1.772780 
# 
# From -- ./inp_files/391449.got.cif
#   From: 2010.06.25/outbox.cif.g09.slc.cpg/sg2_196_cif.got.tgz:391449.got - 2010.06.27 13:26:56.
