data_PCOD8043916
_publ_section_title
;
Structure prediction by ZEFSAII (Michael W. Deem and Ramdas Pophale) SiO2 
 PCOD8043916
Probable space group: P -1
;
_chemical_formula_sum "Si O2"
_cell_formula_units_Z 16
_cell_length_a 30.860258
_cell_length_b 9.823111
_cell_length_c 16.754436
_cell_angle_alpha 43.544316
_cell_angle_beta 162.728876
_cell_angle_gamma 145.535570
_cell_volume 792.164613
_symmetry_space_group_name_H-M "P -1"
_symmetry_group_IT_number 2
_symmetry_cell_setting 'triclinic'
loop_
_space_group_symop_operation_xyz
x,y,z
-x,-y,-z
loop_
_atom_site_type_symbol
_atom_site_label
_atom_site_fract_x
_atom_site_fract_y
_atom_site_fract_z
Si Si1 0.762530 0.284411 0.362403
Si Si2 0.785549 0.698601 0.472252
Si Si3 0.313276 0.830179 0.188451
Si Si4 0.978627 0.799844 0.604721
Si Si5 0.002181 0.234980 0.908241
Si Si6 0.092333 0.779396 0.072819
Si Si7 0.463203 0.905337 0.683564
Si Si8 0.395507 0.036594 0.922557
O O1 0.921648 0.584566 0.532176
O O2 0.834549 0.147625 0.589462
O O3 0.753864 0.233783 0.273378
O O4 0.568446 0.203205 0.092906
O O5 0.643166 0.400033 0.376101
O O6 0.686170 0.818825 0.263586
O O7 0.825732 0.710454 0.443452
O O8 0.987004 0.867064 0.804182
O O9 0.500000 0.000000 0.500000
O O10 0.365635 0.938247 0.144547
O O11 0.172310 0.881452 0.950783
O O12 0.208655 0.522866 0.133816
O O13 0.000000 0.000000 0.500000
O O14 0.937227 0.244646 0.875765
O O15 0.000000 0.000000 0.000000
O O16 0.320707 0.960694 0.384124
O O17 0.000000 0.500000 0.000000
O O18 0.546457 0.018788 0.869896
#
# Coordination Sequence:
#
# PCOD8043916 Si02
#       8
#     2   2   2   2   2   2   2   2
#     4  10  22  40  60  89 126 163 202 255 311 362
#     4  11  21  36  62  93 118 164 211 251 307 372
#     4  11  23  40  64  98 127 159 207 266 311 363
#     4  11  23  42  61  91 129 164 201 255 314 371
#     4  11  22  43  63  90 125 169 203 251 321 374
#     4  10  19  37  61  85 120 161 204 252 308 365
#     4  11  20  37  63  92 123 158 209 263 301 357
#     4  11  21  37  63  90 121 160 211 252 299 371
#
# _framework density 20.197823
#
# number of rings (size 3 to 8) (size 9 to 14) (size 15 to 20)
#    0.000    1.250    2.500    6.375    1.750    0.000 
#    2.250    7.500    0.000    0.000    0.000    0.000 
#    0.000    0.000    0.000    0.000    0.000    0.000 
#
# Total GULP energy -198286.325710 kJ/mol
# GULP energy per Si atom -12392.895357 kJ/mol
# Density = 2.015185 g / cm^3
# Si number density = 20.197823 Si / 1000 Ang^3
#
#
#
# Elastic Constant Matrix: (Units=GPa)
#
#
# Indices 1 2 3 4 5 6 
#
# 1 95.8272 34.6260 28.1539 3.7041 0.7773 -17.7442
# 2 34.6260 95.3828 48.0133 -13.6321 11.4962 -2.4433
# 3 28.1539 48.0133 122.3684 -13.8479 -6.3144 -21.1312
# 4 3.7041 -13.6321 -13.8479 26.2481 -0.1141 1.2566
# 5 0.7773 11.4962 -6.3144 -0.1141 40.8593 5.3931
# 6 -17.7442 -2.4433 -21.1312 1.2566 5.3931 30.0746
#
#
#
# Elastic Compliance Matrix: (Units=1/GPa)
#
#
# Indices 1 2 3 4 5 6 
#
# 1 0.014229 -0.005610 -0.000315 -0.005465 0.000199 0.007911
# 2 -0.005610 0.016797 -0.005714 0.006738 -0.004773 -0.005385
# 3 -0.000315 -0.005714 0.012252 0.003199 0.002543 0.007369
# 4 -0.005465 0.006738 0.003199 0.044154 -0.000895 -0.002114
# 5 0.000199 -0.004773 0.002543 -0.000895 0.026629 -0.003221
# 6 0.007911 -0.005385 0.007369 -0.002114 -0.003221 0.043324
#
#
# Mechanical properties :
#
#
# Convention : Reuss Voigt Hill
#
# Bulk Modulus (GPa) = 49.99465 59.46274 54.72870
# Shear Modulus (GPa) = 26.69104 32.95543 29.82323
#
# Velocity S-wave (km/s) = 3.63916 4.04373 3.84677
# Velocity P-wave (km/s) = 6.51646 7.16285 6.84729
#
# Compressibility (1/GPa) = 0.02000214
#
# Stress axis : x y z
#
# Youngs Moduli (GPa) = 70.27683 59.53515 81.61856
#
# Poissons Ratio (x) = 0.33397 0.02570
# Poissons Ratio (y) = 0.39422 0.46634
# Poissons Ratio (z) = 0.02213 0.34016
#
# Static dielectric constant tensor:
#      x y z
#    x 3.829230 -0.078130 -0.157510 
#    y -0.078130 3.437880 -0.055710 
#    z -0.157510 -0.055710 4.274430 
# 
# 
# High freq. dielectric constant tensor:
#      x y z
#    x 1.798360 -0.006780 -0.006360 
#    y -0.006780 1.755960 -0.009340 
#    z -0.006360 -0.009340 1.811610 
# 
# From -- ./inp_files/504492.got.cif
#   From: 2010.06.25/outbox.cif.g09.slc.cpg/sg2_253_cif.got.tgz:504492.got - 2010.06.27 13:26:56.
