data_PCOD8043318
_publ_section_title
;
Structure prediction by ZEFSAII (Michael W. Deem and Ramdas Pophale) SiO2 
 PCOD8043318
Probable space group: P -1
;
_chemical_formula_sum "Si O2"
_cell_formula_units_Z 16
_cell_length_a 12.201276
_cell_length_b 14.878256
_cell_length_c 12.123578
_cell_angle_alpha 27.226876
_cell_angle_beta 114.145729
_cell_angle_gamma 96.195167
_cell_volume 726.111844
_symmetry_space_group_name_H-M "P -1"
_symmetry_group_IT_number 2
_symmetry_cell_setting 'triclinic'
loop_
_space_group_symop_operation_xyz
x,y,z
-x,-y,-z
loop_
_atom_site_type_symbol
_atom_site_label
_atom_site_fract_x
_atom_site_fract_y
_atom_site_fract_z
Si Si1 0.957940 0.577492 0.240954
Si Si2 0.969890 0.889620 0.743653
Si Si3 0.606081 0.690600 0.704881
Si Si4 0.604832 0.024811 0.168611
Si Si5 0.747288 0.246043 0.087664
Si Si6 0.721440 0.056255 0.746058
Si Si7 0.706691 0.829532 0.186583
Si Si8 0.822783 0.331119 0.367709
O O1 0.922065 0.384293 0.420467
O O2 0.135768 0.430561 0.498674
O O3 0.917433 0.736844 0.939736
O O4 0.862567 0.770279 0.089872
O O5 0.153056 0.708395 0.998534
O O6 0.876893 0.990056 0.482276
O O7 0.928763 0.113071 0.562436
O O8 0.426907 0.865877 0.468418
O O9 0.650859 0.842174 0.490960
O O10 0.640749 0.468753 0.884474
O O11 0.693040 0.583067 0.974133
O O12 0.637975 0.216121 0.004726
O O13 0.705342 0.871019 0.271085
O O14 0.427892 0.182250 0.892497
O O15 0.753378 0.250037 0.517283
O O16 0.688651 0.053850 0.865731
#
# Coordination Sequence:
#
# PCOD8043318 Si02
#       8
#     2   2   2   2   2   2   2   2
#     4  11  21  38  59  80 114 156 188 230 283 325
#     4   9  20  35  57  92 117 137 186 235 280 349
#     4  10  21  38  59  89 117 139 186 239 281 340
#     4  10  21  39  61  84 113 150 187 231 286 335
#     4  10  19  36  61  86 116 148 178 232 296 336
#     4  10  23  39  55  82 116 150 195 234 267 332
#     4  10  22  40  57  82 117 149 194 237 266 330
#     4  10  21  37  61  86 113 149 184 232 289 334
#
# _framework density 22.035174000000001
#
# number of rings (size 3 to 8) (size 9 to 14) (size 15 to 20)
#    0.000    2.000    0.000    3.000    0.000    3.000 
#    0.000   22.500    0.000    0.000    0.000    0.000 
#    0.000    0.000    0.000    0.000    0.000    0.000 
#
# Total GULP energy -198386.351011 kJ/mol
# GULP energy per Si atom -12399.146938 kJ/mol
# Density = 2.198502 g / cm^3
# Si number density = 22.035174 Si / 1000 Ang^3
#
#
#
# Elastic Constant Matrix: (Units=GPa)
#
#
# Indices 1 2 3 4 5 6 
#
# 1 123.3707 34.8152 23.7584 -0.4060 1.0031 -1.4777
# 2 34.8152 57.5121 4.9740 1.6346 3.4506 16.0205
# 3 23.7584 4.9740 63.7500 -3.8313 16.7938 -4.7950
# 4 -0.4060 1.6346 -3.8313 17.3458 -4.5643 -1.9268
# 5 1.0031 3.4506 16.7938 -4.5643 39.4276 0.6947
# 6 -1.4777 16.0205 -4.7950 -1.9268 0.6947 27.6520
#
#
#
# Elastic Compliance Matrix: (Units=1/GPa)
#
#
# Indices 1 2 3 4 5 6 
#
# 1 0.011041 -0.007779 -0.003624 0.001219 0.002005 0.004503
# 2 -0.007779 0.026955 -0.000106 -0.005202 -0.002430 -0.016352
# 3 -0.003624 -0.000106 0.019582 0.002548 -0.008008 0.003642
# 4 0.001219 -0.005202 0.002548 0.061236 0.006293 0.007629
# 5 0.002005 -0.002430 -0.008008 0.006293 0.029667 -0.000181
# 6 0.004503 -0.016352 0.003642 0.007629 -0.000181 0.047046
#
#
# Mechanical properties :
#
#
# Convention : Reuss Voigt Hill
#
# Bulk Modulus (GPa) = 28.93692 41.30313 35.12002
# Shear Modulus (GPa) = 21.73302 28.95743 25.34523
#
# Velocity S-wave (km/s) = 3.14393 3.62905 3.39516
# Velocity P-wave (km/s) = 5.13222 6.02867 5.59842
#
# Compressibility (1/GPa) = 0.03455793
#
# Stress axis : x y z
#
# Youngs Moduli (GPa) = 90.57553 37.09920 51.06763
#
# Poissons Ratio (x) = 0.28861 0.18506
# Poissons Ratio (y) = 0.70462 0.00543
# Poissons Ratio (z) = 0.32824 0.00395
#
# Static dielectric constant tensor:
#      x y z
#    x 4.196420 -0.188420 -0.061080 
#    y -0.188420 3.500350 0.099980 
#    z -0.061080 0.099980 4.037800 
# 
# 
# High freq. dielectric constant tensor:
#      x y z
#    x 1.885520 -0.010880 -0.001960 
#    y -0.010880 1.834800 0.008510 
#    z -0.001960 0.008510 1.871070 
# 
# From -- ./inp_files/83302.got.cif
#   From: 2010.06.25/outbox.cif.g09.slc.cpg/sg2_42_cif.got.tgz:83302.got - 2010.06.27 13:26:56.
