data_PCOD8043980
_publ_section_title
;
Structure prediction by ZEFSAII (Michael W. Deem and Ramdas Pophale) SiO2 
 PCOD8043980
Probable space group: P -1
;
_chemical_formula_sum "Si O2"
_cell_formula_units_Z 14
_cell_length_a 12.363197
_cell_length_b 14.083548
_cell_length_c 22.961690
_cell_angle_alpha 22.094915
_cell_angle_beta 150.205791
_cell_angle_gamma 139.399665
_cell_volume 725.430684
_symmetry_space_group_name_H-M "P -1"
_symmetry_group_IT_number 2
_symmetry_cell_setting 'triclinic'
loop_
_space_group_symop_operation_xyz
x,y,z
-x,-y,-z
loop_
_atom_site_type_symbol
_atom_site_label
_atom_site_fract_x
_atom_site_fract_y
_atom_site_fract_z
Si Si1 0.485158 0.491390 0.412121
Si Si2 0.772694 0.370460 0.024090
Si Si3 0.313375 0.369872 0.847929
Si Si4 0.125997 0.244051 0.589292
Si Si5 0.251398 0.119714 0.839720
Si Si6 0.742772 0.100041 0.839779
Si Si7 0.183329 0.580912 0.115663
O O1 0.670985 0.657817 0.399336
O O2 0.594981 0.211349 0.650743
O O3 0.287957 0.664223 0.261889
O O4 0.383583 0.435134 0.334618
O O5 0.960892 0.481600 0.081453
O O6 0.840283 0.059657 0.233836
O O7 0.540328 0.471228 0.893173
O O8 0.739242 0.479766 0.880396
O O9 0.259218 0.276305 0.812355
O O10 0.106174 0.606460 0.634068
O O11 0.345192 0.140925 0.039851
O O12 0.116508 0.299285 0.623234
O O13 0.500000 0.000000 0.000000
O O14 0.130148 0.888570 0.928893
O O15 0.000000 0.000000 0.000000
#
# Coordination Sequence:
#
# PCOD8043980 Si02
#       7
#     2   2   2   2   2   2   2
#     4  11  20  37  60  84 111 143 196 238 276 327
#     4  10  21  38  57  84 123 149 179 222 289 351
#     4  12  20  36  58  83 115 148 187 238 279 332
#     4  11  20  34  59  87 110 147 186 230 289 338
#     4  11  17  34  59  86 111 141 186 235 287 331
#     4  11  22  35  58  87 109 146 192 245 279 313
#     4  10  19  37  62  83 116 154 177 229 288 339
#
# _framework density 19.29888
#
# number of rings (size 3 to 8) (size 9 to 14) (size 15 to 20)
#    0.000    1.143    8.571    0.429    0.000    0.000 
#    0.000   10.000    0.000    1.714    0.000    0.000 
#    0.000    0.000    0.000    0.000    0.000    0.000 
#
# Total GULP energy -173592.764216 kJ/mol
# GULP energy per Si atom -12399.483158 kJ/mol
# Density = 1.925496 g / cm^3
# Si number density = 19.298880 Si / 1000 Ang^3
#
#
#
# Elastic Constant Matrix: (Units=GPa)
#
#
# Indices 1 2 3 4 5 6 
#
# 1 74.8200 37.5938 49.6517 10.8836 -3.8555 21.6386
# 2 37.5938 110.8044 39.8156 14.9116 1.6999 30.7643
# 3 49.6517 39.8156 129.6084 22.9255 -13.7874 10.2846
# 4 10.8836 14.9116 22.9255 19.5065 3.6750 2.7702
# 5 -3.8555 1.6999 -13.7874 3.6750 38.5510 4.1451
# 6 21.6386 30.7643 10.2846 2.7702 4.1451 27.7307
#
#
#
# Elastic Compliance Matrix: (Units=1/GPa)
#
#
# Indices 1 2 3 4 5 6 
#
# 1 0.022908 -0.001151 -0.006711 -0.002325 0.001683 -0.014129
# 2 -0.001151 0.014972 -0.001696 -0.006906 0.000838 -0.014519
# 3 -0.006711 -0.001696 0.013213 -0.011801 0.004969 0.002654
# 4 -0.002325 -0.006906 -0.011801 0.072780 -0.011987 0.008374
# 5 0.001683 0.000838 0.004969 -0.011987 0.029780 -0.007339
# 6 -0.014129 -0.014519 0.002654 0.008374 -0.007339 0.062469
#
#
# Mechanical properties :
#
#
# Convention : Reuss Voigt Hill
#
# Bulk Modulus (GPa) = 31.27137 63.26165 47.26651
# Shear Modulus (GPa) = 20.33366 29.70242 25.01804
#
# Velocity S-wave (km/s) = 3.24947 3.92736 3.60439
# Velocity P-wave (km/s) = 5.50615 7.30867 6.47048
#
# Compressibility (1/GPa) = 0.03197813
#
# Stress axis : x y z
#
# Youngs Moduli (GPa) = 43.65208 66.78984 75.68449
#
# Poissons Ratio (x) = 0.07687 0.50792
# Poissons Ratio (y) = 0.05024 0.12835
# Poissons Ratio (z) = 0.29295 0.11326
#
# Static dielectric constant tensor:
#      x y z
#    x 3.757610 0.231350 -0.125080 
#    y 0.231350 3.456690 0.122190 
#    z -0.125080 0.122190 3.776110 
# 
# 
# High freq. dielectric constant tensor:
#      x y z
#    x 1.747080 0.021800 -0.014990 
#    y 0.021800 1.723740 0.009330 
#    z -0.014990 0.009330 1.754260 
# 
# From -- ./inp_files/253890.got.cif
#   From: 2010.06.25/outbox.cif.g09.slc.cpg/sg2_127_cif.got.tgz:253890.got - 2010.06.27 13:26:56.
