data_PCOD8043959
_publ_section_title
;
Structure prediction by ZEFSAII (Michael W. Deem and Ramdas Pophale) SiO2 
 PCOD8043959
Probable space group: P -1
;
_chemical_formula_sum "Si O2"
_cell_formula_units_Z 16
_cell_length_a 12.903931
_cell_length_b 16.765803
_cell_length_c 9.760628
_cell_angle_alpha 112.224319
_cell_angle_beta 56.481025
_cell_angle_gamma 152.431950
_cell_volume 780.138516
_symmetry_space_group_name_H-M "P -1"
_symmetry_group_IT_number 2
_symmetry_cell_setting 'triclinic'
loop_
_space_group_symop_operation_xyz
x,y,z
-x,-y,-z
loop_
_atom_site_type_symbol
_atom_site_label
_atom_site_fract_x
_atom_site_fract_y
_atom_site_fract_z
Si Si1 0.532074 0.912702 0.165870
Si Si2 0.711582 0.316077 0.042860
Si Si3 0.332489 0.215941 0.325720
Si Si4 0.489441 0.638161 0.411295
Si Si5 0.094169 0.252512 0.519794
Si Si6 0.512425 0.913072 0.687296
Si Si7 0.002468 0.871547 0.211982
Si Si8 0.297754 0.685812 0.447924
O O1 0.482643 0.846125 0.309058
O O2 0.558614 0.030386 0.226643
O O3 0.289561 0.735516 0.133567
O O4 0.794180 0.032518 0.988354
O O5 0.577424 0.328593 0.131318
O O6 0.535150 0.153446 0.170162
O O7 0.000000 0.500000 0.000000
O O8 0.426065 0.263874 0.445784
O O9 0.263917 0.271520 0.368946
O O10 0.088899 0.005094 0.333066
O O11 0.244696 0.427649 0.473965
O O12 0.407937 0.657028 0.368636
O O13 0.738376 0.736435 0.237840
O O14 0.060904 0.240891 0.702109
O O15 0.814498 0.081564 0.538053
O O16 0.319083 0.750306 0.616208
O O17 0.000000 0.500000 0.500000
#
# Coordination Sequence:
#
# PCOD8043959 Si02
#       8
#     2   2   2   2   2   2   2   2
#     4  11  25  40  63  94 131 164 205 264 314 369
#     4  11  23  38  64  93 128 163 203 265 316 364
#     4  10  19  37  61  92 125 158 208 259 309 364
#     4  11  22  37  63  91 125 168 212 255 308 378
#     4  11  21  36  65  96 123 159 213 264 304 374
#     4  12  23  42  65  92 124 166 213 256 312 379
#     4  10  20  39  62  94 125 160 208 263 320 359
#     4  12  25  45  63  89 126 171 214 251 313 387
#
# _framework density 20.509177999999999
#
# number of rings (size 3 to 8) (size 9 to 14) (size 15 to 20)
#    0.000    1.000    3.750    6.000    1.750    1.500 
#    0.000    0.000    0.000    4.500    0.000    0.000 
#    0.000    0.000    0.000    0.000    0.000    0.000 
#
# Total GULP energy -198411.359675 kJ/mol
# GULP energy per Si atom -12400.709980 kJ/mol
# Density = 2.046250 g / cm^3
# Si number density = 20.509178 Si / 1000 Ang^3
#
#
#
# Elastic Constant Matrix: (Units=GPa)
#
#
# Indices 1 2 3 4 5 6 
#
# 1 105.3988 40.7996 28.2050 0.1315 -13.4196 2.5492
# 2 40.7996 83.1976 10.0967 -6.3881 -15.7337 13.1217
# 3 28.2050 10.0967 53.6776 0.7857 -6.5493 -9.6684
# 4 0.1315 -6.3881 0.7857 25.2969 7.7776 -0.0418
# 5 -13.4196 -15.7337 -6.5493 7.7776 20.4132 -4.1023
# 6 2.5492 13.1217 -9.6684 -0.0418 -4.1023 41.8744
#
#
#
# Elastic Compliance Matrix: (Units=1/GPa)
#
#
# Indices 1 2 3 4 5 6 
#
# 1 0.013592 -0.005433 -0.005620 -0.002459 0.003873 -0.000046
# 2 -0.005433 0.017020 -0.000178 0.001892 0.007911 -0.004267
# 3 -0.005620 -0.000178 0.023541 -0.002579 0.005994 0.006418
# 4 -0.002459 0.001892 -0.002579 0.045960 -0.019072 -0.002861
# 5 0.003873 0.007911 0.005994 -0.019072 0.067886 0.005301
# 6 -0.000046 -0.004267 0.006418 -0.002861 0.005301 0.027219
#
#
# Mechanical properties :
#
#
# Convention : Reuss Voigt Hill
#
# Bulk Modulus (GPa) = 31.55325 44.49740 38.02532
# Shear Modulus (GPa) = 21.90658 28.39507 25.15082
#
# Velocity S-wave (km/s) = 3.27178 3.72493 3.50568
# Velocity P-wave (km/s) = 5.44895 6.34378 5.91332
#
# Compressibility (1/GPa) = 0.03169246
#
# Stress axis : x y z
#
# Youngs Moduli (GPa) = 73.57382 58.75588 42.47887
#
# Poissons Ratio (x) = 0.31919 0.23872
# Poissons Ratio (y) = 0.39969 0.00755
# Poissons Ratio (z) = 0.41346 0.01044
#
# Static dielectric constant tensor:
#      x y z
#    x 3.848450 0.062980 -0.197120 
#    y 0.062980 3.750300 -0.037430 
#    z -0.197120 -0.037430 3.620480 
# 
# 
# High freq. dielectric constant tensor:
#      x y z
#    x 1.810120 0.004230 -0.020780 
#    y 0.004230 1.810830 -0.007370 
#    z -0.020780 -0.007370 1.776660 
# 
# From -- ./inp_files/273366.got.cif
#   From: 2010.06.25/outbox.cif.g09.slc.cpg/sg2_137_cif.got.tgz:273366.got - 2010.06.27 13:26:56.
