data_PCOD8043207
_publ_section_title
;
Structure prediction by ZEFSAII (Michael W. Deem and Ramdas Pophale) SiO2 
 PCOD8043207
Probable space group: P -1
;
_chemical_formula_sum "Si O2"
_cell_formula_units_Z 16
_cell_length_a 13.137122
_cell_length_b 12.103839
_cell_length_c 8.365159
_cell_angle_alpha 128.084848
_cell_angle_beta 127.892442
_cell_angle_gamma 51.176504
_cell_volume 757.461618
_symmetry_space_group_name_H-M "P -1"
_symmetry_group_IT_number 2
_symmetry_cell_setting 'triclinic'
loop_
_space_group_symop_operation_xyz
x,y,z
-x,-y,-z
loop_
_atom_site_type_symbol
_atom_site_label
_atom_site_fract_x
_atom_site_fract_y
_atom_site_fract_z
Si Si1 0.653163 0.899284 0.986845
Si Si2 0.092036 0.048578 0.257933
Si Si3 0.312697 0.436606 0.313425
Si Si4 0.373746 0.976949 0.274875
Si Si5 0.623571 0.335349 0.988412
Si Si6 0.865478 0.285662 0.425263
Si Si7 0.395175 0.638074 0.354425
Si Si8 0.195934 0.914304 0.563854
O O1 0.702045 0.717572 0.890786
O O2 0.661214 0.926984 0.833261
O O3 0.500000 0.000000 0.000000
O O4 0.772495 0.939564 0.225322
O O5 0.235968 0.038750 0.309036
O O6 0.006080 0.224392 0.396655
O O7 0.118312 0.940609 0.342384
O O8 0.000000 0.000000 0.000000
O O9 0.166440 0.562187 0.361222
O O10 0.354861 0.499196 0.247377
O O11 0.436660 0.411290 0.540400
O O12 0.500000 0.000000 0.500000
O O13 0.427391 0.796889 0.125637
O O14 0.683109 0.296535 0.830504
O O15 0.500000 0.500000 0.000000
O O16 0.738221 0.331445 0.220524
O O17 0.886438 0.137743 0.426031
O O18 0.344885 0.769519 0.558165
#
# Coordination Sequence:
#
# PCOD8043207 Si02
#       8
#     2   2   2   2   2   2   2   2
#     4  12  23  39  64  96 136 177 216 275 344 396
#     4  12  23  45  70  99 133 180 228 278 333 405
#     4  10  22  37  59  92 134 174 218 273 332 395
#     4  12  26  43  65 103 139 173 224 284 338 393
#     4  12  22  38  66  99 132 171 224 279 334 389
#     4  11  23  41  66  96 131 178 232 270 331 398
#     4  10  19  36  59  93 130 169 223 277 321 386
#     4  11  21  40  66  99 126 174 228 280 323 402
#
# _framework density 21.123180999999999
#
# number of rings (size 3 to 8) (size 9 to 14) (size 15 to 20)
#    0.000    0.750    6.250    1.875    1.750    0.000 
#    0.000    1.250    0.000    0.000    0.000    0.000 
#    0.000    0.000    0.000    0.000    0.000    0.000 
#
# Total GULP energy -198288.526307 kJ/mol
# GULP energy per Si atom -12393.032894 kJ/mol
# Density = 2.107510 g / cm^3
# Si number density = 21.123181 Si / 1000 Ang^3
#
#
#
# Elastic Constant Matrix: (Units=GPa)
#
#
# Indices 1 2 3 4 5 6 
#
# 1 110.4489 35.4244 35.6128 10.6708 -5.9815 -18.3649
# 2 35.4244 94.8414 41.3239 21.5250 1.9878 5.5832
# 3 35.6128 41.3239 97.3858 3.5640 1.4954 7.0385
# 4 10.6708 21.5250 3.5640 58.2856 4.4086 -13.2955
# 5 -5.9815 1.9878 1.4954 4.4086 27.8651 1.9818
# 6 -18.3649 5.5832 7.0385 -13.2955 1.9818 41.5631
#
#
#
# Elastic Compliance Matrix: (Units=1/GPa)
#
#
# Indices 1 2 3 4 5 6 
#
# 1 0.012612 -0.003753 -0.003572 0.000643 0.002584 0.006764
# 2 -0.003753 0.015607 -0.004682 -0.005859 -0.000398 -0.004817
# 3 -0.003572 -0.004682 0.013754 0.000961 -0.001115 -0.002918
# 4 0.000643 -0.005859 0.000961 0.021193 -0.003407 0.007850
# 5 0.002584 -0.000398 -0.001115 -0.003407 0.037174 -0.001478
# 6 0.006764 -0.004817 -0.002918 0.007850 -0.001478 0.030771
#
#
# Mechanical properties :
#
#
# Convention : Reuss Voigt Hill
#
# Bulk Modulus (GPa) = 55.67615 58.59982 57.13798
# Shear Modulus (GPa) = 31.03478 38.23043 34.63260
#
# Velocity S-wave (km/s) = 3.83721 4.25888 4.05353
# Velocity P-wave (km/s) = 6.78582 7.21015 7.00120
#
# Compressibility (1/GPa) = 0.01796101
#
# Stress axis : x y z
#
# Youngs Moduli (GPa) = 79.29173 64.07332 72.70625
#
# Poissons Ratio (x) = 0.24044 0.25968
# Poissons Ratio (y) = 0.29755 0.34038
# Poissons Ratio (z) = 0.28320 0.29997
#
# Static dielectric constant tensor:
#      x y z
#    x 4.195400 -0.129670 -0.474670 
#    y -0.129670 4.038700 0.090100 
#    z -0.474670 0.090100 3.838590 
# 
# 
# High freq. dielectric constant tensor:
#      x y z
#    x 1.820070 -0.008560 -0.032280 
#    y -0.008560 1.842310 -0.002920 
#    z -0.032280 -0.002920 1.820360 
# 
# From -- ./inp_files/308622.got.cif
#   From: 2010.06.25/outbox.cif.g09.slc.cpg/sg2_155_cif.got.tgz:308622.got - 2010.06.27 13:26:56.
