data_PCOD8043677
_publ_section_title
;
Structure prediction by ZEFSAII (Michael W. Deem and Ramdas Pophale) SiO2 
 PCOD8043677
Probable space group: P -1
;
_chemical_formula_sum "Si O2"
_cell_formula_units_Z 16
_cell_length_a 27.172491
_cell_length_b 8.747819
_cell_length_c 27.124887
_cell_angle_alpha 135.273778
_cell_angle_beta 169.299581
_cell_angle_gamma 44.683122
_cell_volume 838.351650
_symmetry_space_group_name_H-M "P -1"
_symmetry_group_IT_number 2
_symmetry_cell_setting 'triclinic'
loop_
_space_group_symop_operation_xyz
x,y,z
-x,-y,-z
loop_
_atom_site_type_symbol
_atom_site_label
_atom_site_fract_x
_atom_site_fract_y
_atom_site_fract_z
Si Si1 0.059424 0.758156 0.524073
Si Si2 0.881787 0.715340 0.713123
Si Si3 0.612301 0.506622 0.788641
Si Si4 0.483895 0.174455 0.148465
Si Si5 0.463569 0.285000 0.944264
Si Si6 0.977706 0.387858 0.649487
Si Si7 0.220455 0.786350 0.298588
Si Si8 0.724368 0.606280 0.809826
O O1 0.841691 0.706446 0.337731
O O2 0.058984 0.584040 0.438905
O O3 0.349753 0.734962 0.828673
O O4 0.000000 0.000000 0.500000
O O5 0.652969 0.613773 0.495327
O O6 0.905351 0.618290 0.658568
O O7 0.824660 0.972867 0.712291
O O8 0.150770 0.660268 0.995742
O O9 0.590419 0.734031 0.849394
O O10 0.656582 0.569399 0.790855
O O11 0.783857 0.214831 0.438926
O O12 0.462949 0.916473 0.066801
O O13 0.281691 0.296203 0.937988
O O14 0.500000 0.500000 0.000000
O O15 0.492345 0.761174 0.590885
O O16 0.232538 0.628645 0.227277
O O17 0.987407 0.731827 0.093703
#
# Coordination Sequence:
#
# PCOD8043677 Si02
#       8
#     2   2   2   2   2   2   2   2
#     4  12  21  38  63  79 104 152 191 222 269 341
#     4  10  21  37  57  85 113 141 184 240 265 312
#     4  10  21  36  59  81 110 148 188 221 275 331
#     4  10  19  37  55  79 112 145 177 231 278 325
#     4  12  24  38  55  84 116 140 182 238 281 318
#     4  10  20  35  59  82 105 142 192 226 270 323
#     4  10  21  38  58  82 118 145 180 230 272 317
#     4  10  21  38  58  83 114 153 180 215 278 340
#
# _framework density 19.085069000000001
#
# number of rings (size 3 to 8) (size 9 to 14) (size 15 to 20)
#    0.000    1.500    2.500    3.000    0.000    1.000 
#    4.500    0.000    0.000    0.000    0.000    0.000 
#    0.000    0.000    0.000    0.000    0.000    0.000 
#
# Total GULP energy -198466.453580 kJ/mol
# GULP energy per Si atom -12404.153349 kJ/mol
# Density = 1.904163 g / cm^3
# Si number density = 19.085069 Si / 1000 Ang^3
#
#
#
# Elastic Constant Matrix: (Units=GPa)
#
#
# Indices 1 2 3 4 5 6 
#
# 1 104.5600 40.7581 3.8510 3.8636 6.8154 -10.1085
# 2 40.7581 87.8943 8.6397 3.0279 4.1413 1.7631
# 3 3.8510 8.6397 60.6128 -2.7645 8.8251 -8.8462
# 4 3.8636 3.0279 -2.7645 20.2514 -1.4709 1.5062
# 5 6.8154 4.1413 8.8251 -1.4709 28.7498 1.1306
# 6 -10.1085 1.7631 -8.8462 1.5062 1.1306 19.7326
#
#
#
# Elastic Compliance Matrix: (Units=1/GPa)
#
#
# Indices 1 2 3 4 5 6 
#
# 1 0.012972 -0.006116 0.001608 -0.002182 -0.003124 0.008258
# 2 -0.006116 0.014597 -0.002589 -0.000934 0.000312 -0.005545
# 3 0.001608 -0.002589 0.019182 0.001512 -0.006208 0.009895
# 4 -0.002182 -0.000934 0.001512 0.050683 0.002954 -0.004394
# 5 -0.003124 0.000312 -0.006208 0.002954 0.037803 -0.006803
# 6 0.008258 -0.005545 0.009895 -0.004394 -0.006803 0.060564
#
#
# Mechanical properties :
#
#
# Convention : Reuss Voigt Hill
#
# Bulk Modulus (GPa) = 30.71707 39.95163 35.33435
# Shear Modulus (GPa) = 22.64006 27.06797 24.85401
#
# Velocity S-wave (km/s) = 3.44796 3.77009 3.61262
# Velocity P-wave (km/s) = 5.65518 6.31905 5.99631
#
# Compressibility (1/GPa) = 0.03255518
#
# Stress axis : x y z
#
# Youngs Moduli (GPa) = 77.09206 68.50802 52.13208
#
# Poissons Ratio (x) = 0.41903 -0.08384
# Poissons Ratio (y) = 0.47153 0.13499
# Poissons Ratio (z) = -0.12398 0.17739
#
# Static dielectric constant tensor:
#      x y z
#    x 3.625030 -0.335720 0.059940 
#    y -0.335720 3.427340 0.050510 
#    z 0.059940 0.050510 3.653910 
# 
# 
# High freq. dielectric constant tensor:
#      x y z
#    x 1.735440 -0.016760 0.002480 
#    y -0.016760 1.731870 -0.001610 
#    z 0.002480 -0.001610 1.766070 
# 
# From -- ./inp_files/53878.got.cif
#   From: 2010.06.25/outbox.cif.g09.slc.cpg/sg2_27_cif.got.tgz:53878.got - 2010.06.27 13:26:56.
