data_PCOD8043645
_publ_section_title
;
Structure prediction by ZEFSAII (Michael W. Deem and Ramdas Pophale) SiO2 
 PCOD8043645
Probable space group: P -1
;
_chemical_formula_sum "Si O2"
_cell_formula_units_Z 16
_cell_length_a 19.227721
_cell_length_b 23.898790
_cell_length_c 9.112633
_cell_angle_alpha 43.640003
_cell_angle_beta 146.127414
_cell_angle_gamma 160.080447
_cell_volume 758.588668
_symmetry_space_group_name_H-M "P -1"
_symmetry_group_IT_number 2
_symmetry_cell_setting 'triclinic'
loop_
_space_group_symop_operation_xyz
x,y,z
-x,-y,-z
loop_
_atom_site_type_symbol
_atom_site_label
_atom_site_fract_x
_atom_site_fract_y
_atom_site_fract_z
Si Si1 0.870649 0.011026 0.720787
Si Si2 0.074790 0.905719 0.672248
Si Si3 0.553156 0.890282 0.823132
Si Si4 0.966126 0.654072 0.980666
Si Si5 0.684299 0.298576 0.521149
Si Si6 0.008946 0.640397 0.409084
Si Si7 0.581609 0.620039 0.520489
Si Si8 0.942919 0.770127 0.118376
O O1 0.911967 0.053744 0.543605
O O2 0.026981 0.165951 0.798060
O O3 0.558730 0.831343 0.547304
O O4 0.000000 0.000000 0.000000
O O5 0.078599 0.809411 0.861236
O O6 0.818203 0.798609 0.505402
O O7 0.326626 0.083105 0.870899
O O8 0.417854 0.751955 0.730837
O O9 0.327616 0.822020 0.614303
O O10 0.794453 0.074656 0.816779
O O11 0.685464 0.480326 0.732928
O O12 0.180124 0.710906 0.191908
O O13 0.893157 0.596468 0.130898
O O14 0.895600 0.490526 0.554375
O O15 0.913914 0.657873 0.318223
O O16 0.500000 0.500000 0.500000
O O17 0.686919 0.654938 0.799600
#
# Coordination Sequence:
#
# PCOD8043645 Si02
#       8
#     2   2   2   2   2   2   2   2
#     4  11  27  47  59  86 131 169 208 252 311 377
#     4  10  21  39  67  89 124 169 212 254 299 374
#     4   9  18  37  64  98 116 158 211 258 303 356
#     4  10  19  36  67  99 128 152 206 265 308 358
#     4  10  24  39  63  96 132 163 196 256 322 361
#     4  11  19  37  66  97 127 152 206 265 310 363
#     4   9  17  36  64  97 119 150 211 265 300 352
#     4  10  20  39  67  89 119 171 209 250 310 372
#
# _framework density 21.091801
#
# number of rings (size 3 to 8) (size 9 to 14) (size 15 to 20)
#    0.000    2.000    3.750    1.875    5.250    0.500 
#    4.500    8.125    0.000    0.000    0.000    0.000 
#    0.000    0.000    0.000    0.000    0.000    0.000 
#
# Total GULP energy -198288.293368 kJ/mol
# GULP energy per Si atom -12393.018335 kJ/mol
# Density = 2.104380 g / cm^3
# Si number density = 21.091801 Si / 1000 Ang^3
#
#
#
# Elastic Constant Matrix: (Units=GPa)
#
#
# Indices 1 2 3 4 5 6 
#
# 1 65.8337 20.7445 41.6204 3.7038 6.3118 0.9875
# 2 20.7445 63.4478 49.9766 9.4388 7.9637 -5.0182
# 3 41.6204 49.9766 122.4141 23.1630 -0.0380 7.4655
# 4 3.7038 9.4388 23.1630 43.0061 0.1825 1.6597
# 5 6.3118 7.9637 -0.0380 0.1825 41.6215 0.0090
# 6 0.9875 -5.0182 7.4655 1.6597 0.0090 25.4272
#
#
#
# Elastic Compliance Matrix: (Units=1/GPa)
#
#
# Indices 1 2 3 4 5 6 
#
# 1 0.019974 -0.001048 -0.006828 0.002165 -0.002844 0.000882
# 2 -0.001048 0.025757 -0.010639 -0.000131 -0.004780 0.008258
# 3 -0.006828 -0.010639 0.016279 -0.005617 0.003112 -0.006249
# 4 0.002165 -0.000131 -0.005617 0.026128 -0.000423 -0.000166
# 5 -0.002844 -0.004780 0.003112 -0.000423 0.025377 -0.001728
# 6 0.000882 0.008258 -0.006249 -0.000166 -0.001728 0.042769
#
#
# Mechanical properties :
#
#
# Convention : Reuss Voigt Hill
#
# Bulk Modulus (GPa) = 40.03276 52.93097 46.48187
# Shear Modulus (GPa) = 24.79656 31.30124 28.04890
#
# Velocity S-wave (km/s) = 3.43249 3.85651 3.65066
# Velocity P-wave (km/s) = 5.89328 6.70673 6.31312
#
# Compressibility (1/GPa) = 0.02497954
#
# Stress axis : x y z
#
# Youngs Moduli (GPa) = 50.06475 38.82490 61.42946
#
# Poissons Ratio (x) = 0.04069 0.41942
# Poissons Ratio (y) = 0.05247 0.65358
# Poissons Ratio (z) = 0.34182 0.41308
#
# Static dielectric constant tensor:
#      x y z
#    x 3.714920 -0.101860 0.072130 
#    y -0.101860 3.929560 0.424810 
#    z 0.072130 0.424810 4.200550 
# 
# 
# High freq. dielectric constant tensor:
#      x y z
#    x 1.803490 -0.008700 0.011340 
#    y -0.008700 1.816860 0.024570 
#    z 0.011340 0.024570 1.832060 
# 
# From -- ./inp_files/350247.got.cif
#   From: 2010.06.25/outbox.cif.g09.slc.cpg/sg2_176_cif.got.tgz:350247.got - 2010.06.27 13:26:56.
