data_PCOD8043563
_publ_section_title
;
Structure prediction by ZEFSAII (Michael W. Deem and Ramdas Pophale) SiO2 
 PCOD8043563
Probable space group: P -1
;
_chemical_formula_sum "Si O2"
_cell_formula_units_Z 16
_cell_length_a 9.470862
_cell_length_b 13.811542
_cell_length_c 11.131808
_cell_angle_alpha 135.238107
_cell_angle_beta 60.978247
_cell_angle_gamma 90.729892
_cell_volume 755.354511
_symmetry_space_group_name_H-M "P -1"
_symmetry_group_IT_number 2
_symmetry_cell_setting 'triclinic'
loop_
_space_group_symop_operation_xyz
x,y,z
-x,-y,-z
loop_
_atom_site_type_symbol
_atom_site_label
_atom_site_fract_x
_atom_site_fract_y
_atom_site_fract_z
Si Si1 0.791449 0.303361 0.646549
Si Si2 0.453664 0.943260 0.809635
Si Si3 0.439850 0.616580 0.961723
Si Si4 0.814318 0.138934 0.262893
Si Si5 0.431530 0.241795 0.161481
Si Si6 0.136143 0.595736 0.935217
Si Si7 0.123026 0.278660 0.636064
Si Si8 0.714831 0.427710 0.390320
O O1 0.652739 0.476746 0.790943
O O2 0.851772 0.153199 0.399645
O O3 0.980958 0.294743 0.604047
O O4 0.680878 0.280774 0.782105
O O5 0.347324 0.904325 0.717785
O O6 0.442494 0.861147 0.865586
O O7 0.668613 0.877300 0.616919
O O8 0.348094 0.139097 0.047097
O O9 0.439330 0.741530 0.977122
O O10 0.333202 0.535463 0.872903
O O11 0.755757 0.309103 0.377686
O O12 0.000000 0.000000 0.000000
O O13 0.268060 0.422652 0.434873
O O14 0.129252 0.438659 0.775037
O O15 0.140214 0.664707 0.862499
O O16 0.955527 0.732635 0.209489
O O17 0.500000 0.500000 0.500000
#
# Coordination Sequence:
#
# PCOD8043563 Si02
#       8
#     2   2   2   2   2   2   2   2
#     4  10  22  37  64  89 127 164 205 255 316 374
#     4  11  24  43  63  90 129 162 207 272 313 365
#     4  10  19  41  62  91 122 165 211 254 307 380
#     4  12  26  43  65  93 129 165 207 263 322 375
#     4  11  22  38  70  91 118 168 216 256 314 368
#     4  10  19  36  64  95 117 165 215 255 303 369
#     4  10  21  37  61  94 127 158 206 261 311 368
#     4  12  19  39  70  91 119 167 219 253 301 383
#
# _framework density 21.182109000000001
#
# number of rings (size 3 to 8) (size 9 to 14) (size 15 to 20)
#    0.000    1.250    5.000    0.750    3.500    1.000 
#    4.500    3.750    0.000    0.000    0.000    0.000 
#    0.000    0.000    0.000    0.000    0.000    0.000 
#
# Total GULP energy -198330.002622 kJ/mol
# GULP energy per Si atom -12395.625164 kJ/mol
# Density = 2.113390 g / cm^3
# Si number density = 21.182109 Si / 1000 Ang^3
#
#
#
# Elastic Constant Matrix: (Units=GPa)
#
#
# Indices 1 2 3 4 5 6 
#
# 1 128.0111 38.2192 66.2200 -4.7976 21.1242 15.8796
# 2 38.2192 90.1776 54.3863 -21.7576 11.0024 9.7654
# 3 66.2200 54.3863 139.9850 -17.4137 22.1732 2.6341
# 4 -4.7976 -21.7576 -17.4137 45.1661 1.0204 7.6234
# 5 21.1242 11.0024 22.1732 1.0204 42.6863 0.1725
# 6 15.8796 9.7654 2.6341 7.6234 0.1725 18.3571
#
#
#
# Elastic Compliance Matrix: (Units=1/GPa)
#
#
# Indices 1 2 3 4 5 6 
#
# 1 0.012279 -0.000636 -0.004711 0.000942 -0.003448 -0.009966
# 2 -0.000636 0.018064 -0.005117 0.008717 -0.001844 -0.011928
# 3 -0.004711 -0.005117 0.011768 0.000820 -0.002502 0.004791
# 4 0.000942 0.008717 0.000820 0.029869 -0.003780 -0.017938
# 5 -0.003448 -0.001844 -0.002502 -0.003780 0.026975 0.005639
# 6 -0.009966 -0.011928 0.004791 -0.017938 0.005639 0.076150
#
#
# Mechanical properties :
#
#
# Convention : Reuss Voigt Hill
#
# Bulk Modulus (GPa) = 47.20336 75.09165 61.14751
# Shear Modulus (GPa) = 24.61916 34.53179 29.57547
#
# Velocity S-wave (km/s) = 3.41289 4.04200 3.74069
# Velocity P-wave (km/s) = 6.15332 7.57041 6.89835
#
# Compressibility (1/GPa) = 0.02118493
#
# Stress axis : x y z
#
# Youngs Moduli (GPa) = 81.43902 55.35761 84.97596
#
# Poissons Ratio (x) = 0.03520 0.40030
# Poissons Ratio (y) = 0.05179 0.43479
# Poissons Ratio (z) = 0.38364 0.28325
#
# Static dielectric constant tensor:
#      x y z
#    x 3.889360 0.083570 0.305790 
#    y 0.083570 3.790140 -0.438800 
#    z 0.305790 -0.438800 4.144900 
# 
# 
# High freq. dielectric constant tensor:
#      x y z
#    x 1.818260 0.011360 0.025560 
#    y 0.011360 1.818020 -0.024830 
#    z 0.025560 -0.024830 1.839890 
# 
# From -- ./inp_files/399769.got.cif
#   From: 2010.06.25/outbox.cif.g09.slc.cpg/sg2_200_cif.got.tgz:399769.got - 2010.06.27 13:26:56.
