data_PCOD8043478
_publ_section_title
;
Structure prediction by ZEFSAII (Michael W. Deem and Ramdas Pophale) SiO2 
 PCOD8043478
Probable space group: P -1
;
_chemical_formula_sum "Si O2"
_cell_formula_units_Z 14
_cell_length_a 9.624749
_cell_length_b 8.761888
_cell_length_c 15.957608
_cell_angle_alpha 105.272424
_cell_angle_beta 69.021426
_cell_angle_gamma 148.733477
_cell_volume 649.632025
_symmetry_space_group_name_H-M "P -1"
_symmetry_group_IT_number 2
_symmetry_cell_setting 'triclinic'
loop_
_space_group_symop_operation_xyz
x,y,z
-x,-y,-z
loop_
_atom_site_type_symbol
_atom_site_label
_atom_site_fract_x
_atom_site_fract_y
_atom_site_fract_z
Si Si1 0.825885 0.535734 0.880760
Si Si2 0.269416 0.472909 0.913466
Si Si3 0.280505 0.635048 0.565296
Si Si4 0.846435 0.023612 0.517381
Si Si5 0.287271 0.890678 0.092536
Si Si6 0.346924 0.039146 0.616185
Si Si7 0.354098 0.194152 0.811724
O O1 0.808926 0.328415 0.851243
O O2 0.650987 0.446380 0.828289
O O3 0.700965 0.495256 0.987675
O O4 0.141246 0.877851 0.852365
O O5 0.246103 0.274723 0.856920
O O6 0.985373 0.303118 0.926112
O O7 0.540386 0.805267 0.862340
O O8 0.989654 0.285254 0.581966
O O9 0.637655 0.270581 0.537569
O O10 0.520316 0.740647 0.573006
O O11 0.245702 0.776808 0.634904
O O12 0.873421 0.083789 0.420400
O O13 0.000000 0.000000 0.500000
O O14 0.500000 0.000000 0.000000
O O15 0.391304 0.197907 0.705699
#
# Coordination Sequence:
#
# PCOD8043478 Si02
#       7
#     2   2   2   2   2   2   2
#     4  11  22  38  59  86 116 157 200 237 287 345
#     4  11  21  39  61  85 116 158 197 240 296 335
#     4   9  20  38  63  80 113 150 192 223 289 352
#     4  10  19  36  63  87 109 144 193 234 284 340
#     4  10  20  39  63  80 111 157 203 236 287 352
#     4   9  23  37  61  83 117 153 191 227 297 335
#     4  12  24  36  59  88 124 148 195 251 282 343
#
# _framework density 21.550661999999999
#
# number of rings (size 3 to 8) (size 9 to 14) (size 15 to 20)
#    0.857    0.857    0.000    6.857    2.000    0.000 
#    0.000    4.286    0.000    0.000    0.000    0.000 
#    0.000    0.000    0.000    0.000    0.000    0.000 
#
# Total GULP energy -173509.690044 kJ/mol
# GULP energy per Si atom -12393.549289 kJ/mol
# Density = 2.150161 g / cm^3
# Si number density = 21.550662 Si / 1000 Ang^3
#
#
#
# Elastic Constant Matrix: (Units=GPa)
#
#
# Indices 1 2 3 4 5 6 
#
# 1 126.2801 27.3935 21.9363 19.8135 -7.3317 12.5983
# 2 27.3935 122.8528 18.9559 12.0006 0.6627 1.6483
# 3 21.9363 18.9559 51.1835 21.5831 -2.3603 0.5179
# 4 19.8135 12.0006 21.5831 24.1130 -5.2772 4.8034
# 5 -7.3317 0.6627 -2.3603 -5.2772 4.3249 1.2180
# 6 12.5983 1.6483 0.5179 4.8034 1.2180 43.0729
#
#
#
# Elastic Compliance Matrix: (Units=1/GPa)
#
#
# Indices 1 2 3 4 5 6 
#
# 1 0.010143 -0.001810 -0.002397 -0.001261 0.015516 -0.003167
# 2 -0.001810 0.009231 -0.001193 -0.004680 -0.011133 0.001027
# 3 -0.002397 -0.001193 0.034918 -0.036486 -0.030828 0.005268
# 4 -0.001261 -0.004680 -0.036486 0.104249 0.109739 -0.013742
# 5 0.015516 -0.011133 -0.030828 0.109739 0.383858 -0.026834
# 6 -0.003167 0.001027 0.005268 -0.013742 -0.026834 0.026331
#
#
# Mechanical properties :
#
#
# Convention : Reuss Voigt Hill
#
# Bulk Modulus (GPa) = 22.99367 48.54310 35.76839
# Shear Modulus (GPa) = 8.41712 29.77087 19.09399
#
# Velocity S-wave (km/s) = 1.97844 3.72080 2.97981
# Velocity P-wave (km/s) = 3.98895 6.40571 5.33596
#
# Compressibility (1/GPa) = 0.04349023
#
# Stress axis : x y z
#
# Youngs Moduli (GPa) = 98.59462 108.33164 28.63876
#
# Poissons Ratio (x) = 0.19605 0.06866
# Poissons Ratio (y) = 0.17842 0.03418
# Poissons Ratio (z) = 0.23636 0.12929
#
# Static dielectric constant tensor:
#      x y z
#    x 3.896240 -0.235030 -0.059040 
#    y -0.235030 4.308160 0.072840 
#    z -0.059040 0.072840 3.361960 
# 
# 
# High freq. dielectric constant tensor:
#      x y z
#    x 1.848640 0.001050 -0.013250 
#    y 0.001050 1.865100 0.009910 
#    z -0.013250 0.009910 1.795650 
# 
# From -- ./inp_files/557370.got.cif
#   From: 2010.06.25/outbox.cif.g09.slc.cpg/sg2_279_cif.got.tgz:557370.got - 2010.06.27 13:26:56.
