data_PCOD8043028
_publ_section_title
;
Structure prediction by ZEFSAII (Michael W. Deem and Ramdas Pophale) SiO2 
 PCOD8043028
Probable space group: P -1
;
_chemical_formula_sum "Si O2"
_cell_formula_units_Z 16
_cell_length_a 11.036678
_cell_length_b 10.148187
_cell_length_c 14.509951
_cell_angle_alpha 79.416909
_cell_angle_beta 39.486832
_cell_angle_gamma 54.605310
_cell_volume 725.619868
_symmetry_space_group_name_H-M "P -1"
_symmetry_group_IT_number 2
_symmetry_cell_setting 'triclinic'
loop_
_space_group_symop_operation_xyz
x,y,z
-x,-y,-z
loop_
_atom_site_type_symbol
_atom_site_label
_atom_site_fract_x
_atom_site_fract_y
_atom_site_fract_z
Si Si1 0.333082 0.922461 0.323188
Si Si2 0.789057 0.008112 0.232755
Si Si3 0.335933 0.817675 0.520375
Si Si4 0.110116 0.149025 0.249206
Si Si5 0.601790 0.562613 0.113017
Si Si6 0.578006 0.752877 0.936408
Si Si7 0.805502 0.715680 0.180731
Si Si8 0.618098 0.244599 0.134208
O O1 0.189552 0.971448 0.501218
O O2 0.373946 0.754783 0.275992
O O3 0.630794 0.839997 0.175793
O O4 0.161165 0.099531 0.334731
O O5 0.694786 0.088161 0.379706
O O6 0.588543 0.175882 0.255166
O O7 0.793074 0.846522 0.241641
O O8 0.084085 0.920805 0.057378
O O9 0.652505 0.663339 0.326712
O O10 0.194566 0.740216 0.614997
O O11 0.167794 0.277873 0.183748
O O12 0.307395 0.962877 0.095370
O O13 0.544400 0.434452 0.173739
O O14 0.607105 0.602245 0.997158
O O15 0.889085 0.462580 0.002252
O O16 0.580808 0.715094 0.831691
#
# Coordination Sequence:
#
# PCOD8043028 Si02
#       8
#     2   2   2   2   2   2   2   2
#     4   9  20  34  59  81 113 144 179 225 273 323
#     4  10  19  36  56  88 107 139 189 228 276 319
#     4  10  20  35  57  84 115 143 176 232 275 326
#     4  10  19  36  56  88 107 139 189 228 276 319
#     4  10  20  38  54  86 110 146 188 214 278 334
#     4  10  20  35  60  80 111 142 184 236 267 320
#     4   9  20  34  59  81 113 144 179 225 273 323
#     4  10  20  35  60  80 111 142 184 236 267 320
#
# _framework density 22.050111999999999
#
# number of rings (size 3 to 8) (size 9 to 14) (size 15 to 20)
#    0.750    1.500    1.250    2.250    0.000    0.000 
#    4.500    2.500    0.000    1.500    0.000    0.000 
#    0.000    0.000    0.000    0.000    0.000    0.000 
#
# Total GULP energy -198223.794851 kJ/mol
# GULP energy per Si atom -12388.987178 kJ/mol
# Density = 2.199993 g / cm^3
# Si number density = 22.050112 Si / 1000 Ang^3
#
#
#
# Elastic Constant Matrix: (Units=GPa)
#
#
# Indices 1 2 3 4 5 6 
#
# 1 89.4178 7.2281 11.7105 -8.3586 1.8369 3.1813
# 2 7.2281 53.1520 4.3057 -13.0283 -0.1596 -1.9854
# 3 11.7105 4.3057 49.5354 -18.9948 3.7744 0.1461
# 4 -8.3586 -13.0283 -18.9948 16.5103 -0.1162 -4.0994
# 5 1.8369 -0.1596 3.7744 -0.1162 46.7975 -15.2146
# 6 3.1813 -1.9854 0.1461 -4.0994 -15.2146 21.7382
#
#
#
# Elastic Compliance Matrix: (Units=1/GPa)
#
#
# Indices 1 2 3 4 5 6 
#
# 1 0.011821 -0.000737 -0.001353 0.003392 -0.000935 -0.001803
# 2 -0.000737 0.027930 0.012423 0.038998 0.003168 0.012147
# 3 -0.001353 0.012423 0.043107 0.062094 0.001190 0.013585
# 4 0.003392 0.038998 0.062094 0.174991 0.009083 0.042005
# 5 -0.000935 0.003168 0.001190 0.009083 0.028527 0.022097
# 6 -0.001803 0.012147 0.013585 0.042005 0.022097 0.070671
#
#
# Mechanical properties :
#
#
# Convention : Reuss Voigt Hill
#
# Bulk Modulus (GPa) = 9.65949 26.51042 18.08496
# Shear Modulus (GPa) = 13.48117 28.26659 20.87388
#
# Velocity S-wave (km/s) = 2.47531 3.58428 3.08012
# Velocity P-wave (km/s) = 3.54397 5.40170 4.56827
#
# Compressibility (1/GPa) = 0.10352510
#
# Stress axis : x y z
#
# Youngs Moduli (GPa) = 84.59773 35.80395 23.19786
#
# Poissons Ratio (x) = 0.02637 0.03139
# Poissons Ratio (y) = 0.06231 -0.28819
# Poissons Ratio (z) = 0.11447 -0.44480
#
# Static dielectric constant tensor:
#      x y z
#    x 4.155350 -0.000490 -0.046160 
#    y -0.000490 3.603730 -0.248900 
#    z -0.046160 -0.248900 3.723160 
# 
# 
# High freq. dielectric constant tensor:
#      x y z
#    x 1.885020 0.008700 0.004720 
#    y 0.008700 1.831270 -0.020230 
#    z 0.004720 -0.020230 1.842540 
# 
# From -- ./inp_files/514255.got.cif
#   From: 2010.06.25/outbox.cif.g09.slc.cpg/sg2_258_cif.got.tgz:514255.got - 2010.06.27 13:26:56.
