data_PCOD8043870
_publ_section_title
;
Structure prediction by ZEFSAII (Michael W. Deem and Ramdas Pophale) SiO2 
 PCOD8043870
Probable space group: P -1
;
_chemical_formula_sum "Si O2"
_cell_formula_units_Z 16
_cell_length_a 6.541720
_cell_length_b 12.225954
_cell_length_c 19.346285
_cell_angle_alpha 41.422441
_cell_angle_beta 116.805328
_cell_angle_gamma 132.286208
_cell_volume 752.775053
_symmetry_space_group_name_H-M "P -1"
_symmetry_group_IT_number 2
_symmetry_cell_setting 'triclinic'
loop_
_space_group_symop_operation_xyz
x,y,z
-x,-y,-z
loop_
_atom_site_type_symbol
_atom_site_label
_atom_site_fract_x
_atom_site_fract_y
_atom_site_fract_z
Si Si1 0.970308 0.218149 0.934298
Si Si2 0.173834 0.393135 0.497901
Si Si3 0.509170 0.238707 0.143950
Si Si4 0.064121 0.428782 0.204338
Si Si5 0.029718 0.905647 0.153148
Si Si6 0.182292 0.231390 0.438208
Si Si7 0.815763 0.552889 0.375303
Si Si8 0.612270 0.504821 0.914038
O O1 0.846825 0.341607 0.883431
O O2 0.851413 0.119158 0.888528
O O3 0.298112 0.370356 0.903909
O O4 0.904023 0.039625 0.061434
O O5 0.500000 0.500000 0.500000
O O6 0.067236 0.229504 0.498180
O O7 0.075120 0.320016 0.596166
O O8 0.055452 0.526470 0.397531
O O9 0.328372 0.308492 0.119770
O O10 0.735029 0.264814 0.220154
O O11 0.292370 0.009962 0.196098
O O12 0.670555 0.373777 0.036047
O O13 0.136330 0.362555 0.316300
O O14 0.207062 0.414322 0.165338
O O15 0.790956 0.690576 0.250536
O O16 0.517104 0.337586 0.439612
O O17 0.000000 0.000000 0.500000
#
# Coordination Sequence:
#
# PCOD8043870 Si02
#       8
#     2   2   2   2   2   2   2   2
#     4   9  20  37  58  87 124 153 192 247 286 349
#     4   9  21  42  64  88 116 149 197 249 298 351
#     4   9  20  34  55  84 118 150 192 245 282 345
#     4  11  21  37  60  82 116 162 198 237 293 350
#     4  10  19  37  60  88 121 156 193 238 302 353
#     4  11  25  41  59  88 119 153 204 255 297 347
#     4  10  21  41  66  85 118 161 193 243 305 356
#     4   9  18  37  56  81 116 155 196 236 290 346
#
# _framework density 21.254688000000002
#
# number of rings (size 3 to 8) (size 9 to 14) (size 15 to 20)
#    0.000    2.250    0.000    2.625    0.000    5.500 
#    0.000   18.750    0.000    0.000    0.000    0.000 
#    0.000    0.000    0.000    0.000    0.000    0.000 
#
# Total GULP energy -198256.364241 kJ/mol
# GULP energy per Si atom -12391.022765 kJ/mol
# Density = 2.120631 g / cm^3
# Si number density = 21.254688 Si / 1000 Ang^3
#
#
#
# Elastic Constant Matrix: (Units=GPa)
#
#
# Indices 1 2 3 4 5 6 
#
# 1 89.7327 43.5542 42.6595 -4.2756 3.2537 -15.8537
# 2 43.5542 122.2336 38.3290 -1.8689 1.9400 -21.5758
# 3 42.6595 38.3290 102.8092 -3.0343 2.5629 -5.6645
# 4 -4.2756 -1.8689 -3.0343 30.8059 2.1418 -0.8659
# 5 3.2537 1.9400 2.5629 2.1418 23.9825 5.5029
# 6 -15.8537 -21.5758 -5.6645 -0.8659 5.5029 33.2536
#
#
#
# Elastic Compliance Matrix: (Units=1/GPa)
#
#
# Indices 1 2 3 4 5 6 
#
# 1 0.016262 -0.003165 -0.005148 0.001902 -0.002794 0.005334
# 2 -0.003165 0.011085 -0.002471 0.000248 -0.001491 0.005515
# 3 -0.005148 -0.002471 0.012692 0.000337 -0.000057 -0.001877
# 4 0.001902 0.000248 0.000337 0.033117 -0.003875 0.002629
# 5 -0.002794 -0.001491 -0.000057 -0.003875 0.044803 -0.009824
# 6 0.005334 0.005515 -0.001877 0.002629 -0.009824 0.037568
#
#
# Mechanical properties :
#
#
# Convention : Reuss Voigt Hill
#
# Bulk Modulus (GPa) = 54.13988 62.65120 58.39554
# Shear Modulus (GPa) = 27.28481 30.29061 28.78771
#
# Velocity S-wave (km/s) = 3.58677 3.77918 3.68423
# Velocity P-wave (km/s) = 6.53303 6.97017 6.75514
#
# Compressibility (1/GPa) = 0.01847067
#
# Stress axis : x y z
#
# Youngs Moduli (GPa) = 61.49146 90.21485 78.78978
#
# Poissons Ratio (x) = 0.28556 0.40562
# Poissons Ratio (y) = 0.19464 0.19467
# Poissons Ratio (z) = 0.31657 0.22290
#
# Static dielectric constant tensor:
#      x y z
#    x 3.852290 -0.293010 0.029860 
#    y -0.293010 4.111230 0.258000 
#    z 0.029860 0.258000 3.726190 
# 
# 
# High freq. dielectric constant tensor:
#      x y z
#    x 1.818290 -0.015660 0.002570 
#    y -0.015660 1.847100 0.022290 
#    z 0.002570 0.022290 1.814780 
# 
# From -- ./inp_files/583272.got.cif
#   From: 2010.06.25/outbox.cif.g09.slc.cpg/sg2_292_cif.got.tgz:583272.got - 2010.06.27 13:26:56.
