data_PCOD8043182
_publ_section_title
;
Structure prediction by ZEFSAII (Michael W. Deem and Ramdas Pophale) SiO2 
 PCOD8043182
Probable space group: P -1
;
_chemical_formula_sum "Si O2"
_cell_formula_units_Z 16
_cell_length_a 6.346756
_cell_length_b 10.252663
_cell_length_c 21.001859
_cell_angle_alpha 129.470971
_cell_angle_beta 122.614138
_cell_angle_gamma 80.676728
_cell_volume 853.637908
_symmetry_space_group_name_H-M "P -1"
_symmetry_group_IT_number 2
_symmetry_cell_setting 'triclinic'
loop_
_space_group_symop_operation_xyz
x,y,z
-x,-y,-z
loop_
_atom_site_type_symbol
_atom_site_label
_atom_site_fract_x
_atom_site_fract_y
_atom_site_fract_z
Si Si1 0.746463 0.364488 0.943533
Si Si2 0.434852 0.245229 0.368229
Si Si3 0.297874 0.891063 0.882509
Si Si4 0.211408 0.405605 0.865943
Si Si5 0.859059 0.469687 0.586981
Si Si6 0.903416 0.536087 0.755099
Si Si7 0.060508 0.900790 0.176441
Si Si8 0.436060 0.667647 0.728066
O O1 0.480772 0.384439 0.873775
O O2 0.780851 0.173480 0.874949
O O3 0.727736 0.406459 0.028583
O O4 0.000000 0.500000 0.000000
O O5 0.703550 0.298702 0.468472
O O6 0.255175 0.367899 0.397997
O O7 0.486625 0.251124 0.303352
O O8 0.271649 0.046894 0.296555
O O9 0.441254 0.823495 0.826717
O O10 0.111125 0.722969 0.834590
O O11 0.138542 0.016685 0.867132
O O12 0.500000 0.000000 0.000000
O O13 0.014186 0.410238 0.778869
O O14 0.089969 0.245637 0.844097
O O15 0.826374 0.427631 0.643477
O O16 0.159997 0.521537 0.632487
O O17 0.647209 0.569522 0.755618
#
# Coordination Sequence:
#
# PCOD8043182 Si02
#       8
#     2   2   2   2   2   2   2   2
#     4   9  22  38  58  79 112 157 202 227 278 339
#     4  10  19  36  59  87 116 150 187 245 286 345
#     4  11  25  35  56  89 124 146 189 244 283 336
#     4  10  23  39  59  80 115 160 194 232 282 347
#     4   9  19  36  59  86 118 144 192 239 295 342
#     4  10  22  39  57  84 117 154 190 237 289 344
#     4  11  22  38  56  90 115 152 194 237 280 342
#     4  10  19  37  58  85 115 154 191 226 299 343
#
# _framework density 18.743310999999999
#
# number of rings (size 3 to 8) (size 9 to 14) (size 15 to 20)
#    0.000    2.000    3.750    0.375    8.750    3.500 
#    0.000    0.625    0.000    1.500    0.000    0.000 
#    0.000    0.000    0.000    0.000    0.000    0.000 
#
# Total GULP energy -198360.593236 kJ/mol
# GULP energy per Si atom -12397.537077 kJ/mol
# Density = 1.870065 g / cm^3
# Si number density = 18.743311 Si / 1000 Ang^3
#
#
#
# Elastic Constant Matrix: (Units=GPa)
#
#
# Indices 1 2 3 4 5 6 
#
# 1 121.1666 36.9107 41.7769 -0.5814 8.6604 -19.9889
# 2 36.9107 93.9530 41.4508 -7.3275 3.9566 -10.4584
# 3 41.7769 41.4508 141.8095 -4.6442 11.8970 -7.5586
# 4 -0.5814 -7.3275 -4.6442 24.6439 -2.2753 4.4911
# 5 8.6604 3.9566 11.8970 -2.2753 23.6627 -0.7526
# 6 -19.9889 -10.4584 -7.5586 4.4911 -0.7526 22.7217
#
#
#
# Elastic Compliance Matrix: (Units=1/GPa)
#
#
# Indices 1 2 3 4 5 6 
#
# 1 0.011347 -0.002749 -0.001948 -0.002719 -0.002705 0.008517
# 2 -0.002749 0.013491 -0.002966 0.003038 0.000604 0.002224
# 3 -0.001948 -0.002966 0.008754 0.000498 -0.003156 -0.000370
# 4 -0.002719 0.003038 0.000498 0.043588 0.004132 -0.009306
# 5 -0.002705 0.000604 -0.003156 0.004132 0.045055 -0.002475
# 6 0.008517 0.002224 -0.000370 -0.009306 -0.002475 0.054162
#
#
# Mechanical properties :
#
#
# Convention : Reuss Voigt Hill
#
# Bulk Modulus (GPa) = 54.74300 66.35623 60.54962
# Shear Modulus (GPa) = 25.27650 29.99172 27.63411
#
# Velocity S-wave (km/s) = 3.67626 4.00450 3.84389
# Velocity P-wave (km/s) = 6.87677 7.54061 7.21633
#
# Compressibility (1/GPa) = 0.01826717
#
# Stress axis : x y z
#
# Youngs Moduli (GPa) = 88.12669 74.12179 114.23419
#
# Poissons Ratio (x) = 0.20374 0.22248
# Poissons Ratio (y) = 0.24223 0.33886
# Poissons Ratio (z) = 0.17164 0.21987
#
# Static dielectric constant tensor:
#      x y z
#    x 3.757030 -0.205580 -0.050610 
#    y -0.205580 3.200970 -0.032350 
#    z -0.050610 -0.032350 3.736770 
# 
# 
# High freq. dielectric constant tensor:
#      x y z
#    x 1.743530 -0.009250 0.005830 
#    y -0.009250 1.697270 -0.005720 
#    z 0.005830 -0.005720 1.730380 
# 
# From -- ./inp_files/77116.got.cif
#   From: 2010.06.25/outbox.cif.g09.slc.cpg/sg2_39_cif.got.tgz:77116.got - 2010.06.27 13:26:56.
