data_PCOD8043307
_publ_section_title
;
Structure prediction by ZEFSAII (Michael W. Deem and Ramdas Pophale) SiO2 
 PCOD8043307
Probable space group: P -1
;
_chemical_formula_sum "Si O2"
_cell_formula_units_Z 14
_cell_length_a 14.139060
_cell_length_b 8.721746
_cell_length_c 13.882001
_cell_angle_alpha 102.626287
_cell_angle_beta 30.373102
_cell_angle_gamma 82.743577
_cell_volume 650.254068
_symmetry_space_group_name_H-M "P -1"
_symmetry_group_IT_number 2
_symmetry_cell_setting 'triclinic'
loop_
_space_group_symop_operation_xyz
x,y,z
-x,-y,-z
loop_
_atom_site_type_symbol
_atom_site_label
_atom_site_fract_x
_atom_site_fract_y
_atom_site_fract_z
Si Si1 0.491098 0.819523 0.783172
Si Si2 0.081472 0.024044 0.302326
Si Si3 0.243712 0.273248 0.262034
Si Si4 0.238728 0.555499 0.641079
Si Si5 0.533707 0.238548 0.498949
Si Si6 0.683290 0.884157 0.185637
Si Si7 0.629784 0.269957 0.835351
O O1 0.648171 0.774424 0.732574
O O2 0.609961 0.603650 0.600193
O O3 0.479838 0.975546 0.743263
O O4 0.207844 0.928552 0.074255
O O5 0.195946 0.121448 0.257361
O O6 0.784729 0.185250 0.586268
O O7 0.169181 0.839960 0.271516
O O8 0.000000 0.500000 0.500000
O O9 0.434049 0.235678 0.009700
O O10 0.308428 0.429583 0.661739
O O11 0.293278 0.711315 0.616981
O O12 0.953643 0.690459 0.890024
O O13 0.434947 0.207473 0.677137
O O14 0.690779 0.026626 0.272652
O O15 0.500000 0.500000 0.000000
#
# Coordination Sequence:
#
# PCOD8043307 Si02
#       7
#     2   2   2   2   2   2   2
#     4  10  23  38  57  91 122 158 204 253 300 355
#     4  10  22  40  58  82 120 156 206 255 299 361
#     4  11  22  41  64  81 119 168 208 255 309 353
#     4  10  20  38  63  90 126 154 195 245 300 361
#     4   9  20  39  63  94 116 160 198 231 306 372
#     4  10  20  38  64  89 125 155 197 247 294 362
#     4  10  19  36  61  85 103 153 207 249 303 359
#
# _framework density 21.530045000000001
#
# number of rings (size 3 to 8) (size 9 to 14) (size 15 to 20)
#    0.000    2.000    1.429    2.571    2.000    0.000 
#    0.000   17.143    0.000    0.000    0.000    0.000 
#    0.000    0.000    0.000    0.000    0.000    0.000 
#
# Total GULP energy -173517.498786 kJ/mol
# GULP energy per Si atom -12394.107056 kJ/mol
# Density = 2.148104 g / cm^3
# Si number density = 21.530045 Si / 1000 Ang^3
#
#
#
# Elastic Constant Matrix: (Units=GPa)
#
#
# Indices 1 2 3 4 5 6 
#
# 1 60.1664 32.5752 40.0834 -8.3734 5.0714 -9.3295
# 2 32.5752 127.7212 59.2383 -5.0964 6.4810 -11.7566
# 3 40.0834 59.2383 181.8040 -4.1218 8.1871 -11.8726
# 4 -8.3734 -5.0964 -4.1218 40.1602 -2.9802 -1.4888
# 5 5.0714 6.4810 8.1871 -2.9802 28.4279 1.8375
# 6 -9.3295 -11.7566 -11.8726 -1.4888 1.8375 20.4484
#
#
#
# Elastic Compliance Matrix: (Units=1/GPa)
#
#
# Indices 1 2 3 4 5 6 
#
# 1 0.022377 -0.003301 -0.003208 0.004001 -0.002345 0.006951
# 2 -0.003301 0.010099 -0.002297 0.000383 -0.001213 0.003104
# 3 -0.003208 -0.002297 0.007090 -0.000259 -0.001064 0.001409
# 4 0.004001 0.000383 -0.000259 0.026022 0.001767 0.003631
# 5 -0.002345 -0.001213 -0.001064 0.001767 0.036722 -0.005557
# 6 0.006951 0.003104 0.001409 0.003631 -0.005557 0.055441
#
#
# Mechanical properties :
#
#
# Convention : Reuss Voigt Hill
#
# Bulk Modulus (GPa) = 45.54712 70.38727 57.96719
# Shear Modulus (GPa) = 27.36985 33.66027 30.51506
#
# Velocity S-wave (km/s) = 3.56931 3.95829 3.76882
# Velocity P-wave (km/s) = 6.17962 7.32491 6.77650
#
# Compressibility (1/GPa) = 0.02195529
#
# Stress axis : x y z
#
# Youngs Moduli (GPa) = 44.68817 99.01672 141.04003
#
# Poissons Ratio (x) = 0.32685 0.45243
# Poissons Ratio (y) = 0.14751 0.32396
# Poissons Ratio (z) = 0.14335 0.22744
#
# Static dielectric constant tensor:
#      x y z
#    x 3.522450 -0.198130 0.071580 
#    y -0.198130 4.076160 0.166160 
#    z 0.071580 0.166160 4.479950 
# 
# 
# High freq. dielectric constant tensor:
#      x y z
#    x 1.805040 -0.014860 0.004830 
#    y -0.014860 1.860570 0.010170 
#    z 0.004830 0.010170 1.866680 
# 
# From -- ./inp_files/529945.got.cif
#   From: 2010.06.25/outbox.cif.g09.slc.cpg/sg2_265_cif.got.tgz:529945.got - 2010.06.27 13:26:56.
