data_PCOD8043186
_publ_section_title
;
Structure prediction by ZEFSAII (Michael W. Deem and Ramdas Pophale) SiO2 
 PCOD8043186
Probable space group: P -1
;
_chemical_formula_sum "Si O2"
_cell_formula_units_Z 16
_cell_length_a 9.459675
_cell_length_b 12.335978
_cell_length_c 14.980967
_cell_angle_alpha 80.824938
_cell_angle_beta 44.475998
_cell_angle_gamma 50.988307
_cell_volume 805.735759
_symmetry_space_group_name_H-M "P -1"
_symmetry_group_IT_number 2
_symmetry_cell_setting 'triclinic'
loop_
_space_group_symop_operation_xyz
x,y,z
-x,-y,-z
loop_
_atom_site_type_symbol
_atom_site_label
_atom_site_fract_x
_atom_site_fract_y
_atom_site_fract_z
Si Si1 0.770261 0.476636 0.693395
Si Si2 0.226123 0.182570 0.028752
Si Si3 0.154240 0.606737 0.657325
Si Si4 0.209547 0.273491 0.371428
Si Si5 0.671765 0.100296 0.958766
Si Si6 0.851245 0.523589 0.831898
Si Si7 0.886884 0.960177 0.130065
Si Si8 0.151473 0.633220 0.986677
O O1 0.736262 0.618548 0.668543
O O2 0.864805 0.425447 0.761936
O O3 0.012145 0.321923 0.540561
O O4 0.459283 0.538639 0.809783
O O5 0.004598 0.265672 0.204722
O O6 0.297562 0.028841 0.985571
O O7 0.538715 0.121898 0.918185
O O8 0.081244 0.304594 0.994858
O O9 0.500000 0.500000 0.500000
O O10 0.962067 0.705274 0.640467
O O11 0.152924 0.476558 0.698902
O O12 0.530268 0.085970 0.269396
O O13 0.992521 0.035179 0.830003
O O14 0.422735 0.279828 0.094662
O O15 0.806082 0.488995 0.953233
O O16 0.041679 0.779318 0.076226
O O17 0.000000 0.000000 0.000000
#
# Coordination Sequence:
#
# PCOD8043186 Si02
#       8
#     2   2   2   2   2   2   2   2
#     4  10  19  36  59  87 119 157 197 247 301 354
#     4  10  21  34  59  90 115 156 202 249 292 358
#     4  10  21  39  61  85 123 161 200 249 300 358
#     4  10  21  35  60  91 117 152 211 252 286 351
#     4  10  20  35  55  87 121 148 203 251 290 342
#     4  10  22  38  59  92 121 156 201 254 297 365
#     4  12  19  35  60  91 118 156 204 257 292 345
#     4  12  22  35  65  89 125 159 198 246 313 358
#
# _framework density 19.857627999999998
#
# number of rings (size 3 to 8) (size 9 to 14) (size 15 to 20)
#    0.000    1.500    3.750    2.625    1.750    4.000 
#    0.000    0.625    2.750    0.750    0.000    0.000 
#    0.000    0.000    0.000    0.000    0.000    0.000 
#
# Total GULP energy -198244.553270 kJ/mol
# GULP energy per Si atom -12390.284579 kJ/mol
# Density = 1.981243 g / cm^3
# Si number density = 19.857628 Si / 1000 Ang^3
#
#
#
# Elastic Constant Matrix: (Units=GPa)
#
#
# Indices 1 2 3 4 5 6 
#
# 1 136.1403 31.0220 51.3243 3.1278 -12.1423 -15.8827
# 2 31.0220 59.9378 41.9364 7.5436 1.8249 -7.5984
# 3 51.3243 41.9364 94.8152 10.6034 -4.9658 -17.4518
# 4 3.1278 7.5436 10.6034 19.0447 -3.9535 1.8534
# 5 -12.1423 1.8249 -4.9658 -3.9535 40.2257 3.9340
# 6 -15.8827 -7.5984 -17.4518 1.8534 3.9340 25.5421
#
#
#
# Elastic Compliance Matrix: (Units=1/GPa)
#
#
# Indices 1 2 3 4 5 6 
#
# 1 0.009805 -0.002351 -0.003937 0.001829 0.002547 0.002183
# 2 -0.002351 0.025339 -0.009439 -0.005194 -0.003589 0.000556
# 3 -0.003937 -0.009439 0.019189 -0.007091 0.000095 0.008355
# 4 0.001829 -0.005194 -0.007091 0.060695 0.006926 -0.010724
# 5 0.002547 -0.003589 0.000095 0.006926 0.026881 -0.004062
# 6 0.002183 0.000556 0.008355 -0.010724 -0.004062 0.047786
#
#
# Mechanical properties :
#
#
# Convention : Reuss Voigt Hill
#
# Bulk Modulus (GPa) = 43.71108 59.93987 51.82547
# Shear Modulus (GPa) = 21.85547 28.06985 24.96266
#
# Velocity S-wave (km/s) = 3.32114 3.76381 3.54938
# Velocity P-wave (km/s) = 6.06355 7.00990 6.55383
#
# Compressibility (1/GPa) = 0.02287750
#
# Stress axis : x y z
#
# Youngs Moduli (GPa) = 101.98710 39.46525 52.11398
#
# Poissons Ratio (x) = 0.09279 0.20518
# Poissons Ratio (y) = 0.23980 0.49191
# Poissons Ratio (z) = 0.40154 0.37252
#
# Static dielectric constant tensor:
#      x y z
#    x 4.023800 -0.005320 -0.105590 
#    y -0.005320 3.398360 0.164770 
#    z -0.105590 0.164770 3.510840 
# 
# 
# High freq. dielectric constant tensor:
#      x y z
#    x 1.799600 -0.001980 -0.004950 
#    y -0.001980 1.746200 0.013780 
#    z -0.004950 0.013780 1.743230 
# 
# From -- ./inp_files/305732.got.cif
#   From: 2010.06.25/outbox.cif.g09.slc.cpg/sg2_153_cif.got.tgz:305732.got - 2010.06.27 13:26:56.
