data_PCOD8043175
_publ_section_title
;
Structure prediction by ZEFSAII (Michael W. Deem and Ramdas Pophale) SiO2 
 PCOD8043175
Probable space group: P -1
;
_chemical_formula_sum "Si O2"
_cell_formula_units_Z 16
_cell_length_a 9.630540
_cell_length_b 15.383581
_cell_length_c 11.770791
_cell_angle_alpha 59.432060
_cell_angle_beta 101.265111
_cell_angle_gamma 140.986803
_cell_volume 878.639984
_symmetry_space_group_name_H-M "P -1"
_symmetry_group_IT_number 2
_symmetry_cell_setting 'triclinic'
loop_
_space_group_symop_operation_xyz
x,y,z
-x,-y,-z
loop_
_atom_site_type_symbol
_atom_site_label
_atom_site_fract_x
_atom_site_fract_y
_atom_site_fract_z
Si Si1 0.032593 0.986404 0.332394
Si Si2 0.835665 0.763657 0.647535
Si Si3 0.152344 0.766301 0.647661
Si Si4 0.514260 0.569933 0.070756
Si Si5 0.440373 0.052106 0.042751
Si Si6 0.805257 0.427950 0.928497
Si Si7 0.028943 0.939603 0.946444
Si Si8 0.352765 0.984868 0.327297
O O1 0.156888 0.146869 0.315185
O O2 0.899241 0.958855 0.223046
O O3 0.240088 0.030826 0.294378
O O4 0.834818 0.815453 0.489119
O O5 0.598516 0.562100 0.758483
O O6 0.066599 0.822661 0.654051
O O7 0.213606 0.820622 0.488273
O O8 0.943718 0.564094 0.757752
O O9 0.377291 0.854468 0.694063
O O10 0.376818 0.598633 0.021224
O O11 0.500000 0.500000 0.000000
O O12 0.788481 0.739943 0.027194
O O13 0.346281 0.953608 0.213468
O O14 0.660940 0.252750 0.968143
O O15 0.500000 0.000000 0.000000
O O16 0.237564 0.987085 0.981473
O O17 0.000000 0.500000 0.000000
O O18 0.000000 0.000000 0.000000
#
# Coordination Sequence:
#
# PCOD8043175 Si02
#       8
#     2   2   2   2   2   2   2   2
#     4  10  19  36  59  86 120 151 192 241 293 345
#     4   9  20  35  58  91 115 148 197 244 287 342
#     4   9  20  35  62  84 117 150 197 246 286 340
#     4  11  22  37  62  90 117 153 201 244 286 348
#     4  12  27  41  60  86 123 162 196 238 303 357
#     4  11  22  39  60  89 118 153 203 245 286 343
#     4  12  23  41  60  86 123 160 192 242 300 355
#     4  10  19  38  57  87 115 157 194 238 294 344
#
# _framework density 18.209959999999999
#
# number of rings (size 3 to 8) (size 9 to 14) (size 15 to 20)
#    0.000    1.500    5.000    0.000    3.500    0.000 
#    0.000    2.500    0.000    0.000    0.000    0.000 
#    0.000    0.000    0.000    0.000    0.000    0.000 
#
# Total GULP energy -198335.512459 kJ/mol
# GULP energy per Si atom -12395.969529 kJ/mol
# Density = 1.816851 g / cm^3
# Si number density = 18.209960 Si / 1000 Ang^3
#
#
#
# Elastic Constant Matrix: (Units=GPa)
#
#
# Indices 1 2 3 4 5 6 
#
# 1 125.8219 66.9781 55.8109 13.3746 -1.5941 -3.1672
# 2 66.9781 125.7212 67.4954 1.7882 1.5849 0.9967
# 3 55.8109 67.4954 147.6256 11.2856 4.3124 -0.4845
# 4 13.3746 1.7882 11.2856 34.8855 -0.8785 1.4923
# 5 -1.5941 1.5849 4.3124 -0.8785 24.9791 8.5836
# 6 -3.1672 0.9967 -0.4845 1.4923 8.5836 38.7862
#
#
#
# Elastic Compliance Matrix: (Units=1/GPa)
#
#
# Indices 1 2 3 4 5 6 
#
# 1 0.012085 -0.005426 -0.001823 -0.003786 0.000939 0.001041
# 2 -0.005426 0.013024 -0.004118 0.002783 -0.000046 -0.000926
# 3 -0.001823 -0.004118 0.009572 -0.002255 -0.001778 0.000557
# 4 -0.003786 0.002783 -0.002255 0.030832 0.001736 -0.001979
# 5 0.000939 -0.000046 -0.001778 0.001736 0.043799 -0.009704
# 6 0.001041 -0.000926 0.000557 -0.001979 -0.009704 0.028122
#
#
# Mechanical properties :
#
#
# Convention : Reuss Voigt Hill
#
# Bulk Modulus (GPa) = 83.69605 86.63750 85.16677
# Shear Modulus (GPa) = 30.46003 33.65579 32.05791
#
# Velocity S-wave (km/s) = 4.09432 4.30374 4.20034
# Velocity P-wave (km/s) = 8.27120 8.50744 8.39015
#
# Compressibility (1/GPa) = 0.01194800
#
# Stress axis : x y z
#
# Youngs Moduli (GPa) = 82.74516 76.78187 104.47409
#
# Poissons Ratio (x) = 0.41664 0.19041
# Poissons Ratio (y) = 0.44899 0.43019
# Poissons Ratio (z) = 0.15081 0.31616
#
# Static dielectric constant tensor:
#      x y z
#    x 3.482600 -0.045360 -0.014220 
#    y -0.045360 3.061190 -0.052420 
#    z -0.014220 -0.052420 3.858630 
# 
# 
# High freq. dielectric constant tensor:
#      x y z
#    x 1.719270 0.002040 0.000990 
#    y 0.002040 1.676450 -0.004690 
#    z 0.000990 -0.004690 1.727970 
# 
# From -- ./inp_files/239957.got.cif
#   From: 2010.06.25/outbox.cif.g09.slc.cpg/sg2_120_cif.got.tgz:239957.got - 2010.06.27 13:26:56.
