data_PCOD8043802
_publ_section_title
;
Structure prediction by ZEFSAII (Michael W. Deem and Ramdas Pophale) SiO2 
 PCOD8043802
Probable space group: P -1
;
_chemical_formula_sum "Si O2"
_cell_formula_units_Z 16
_cell_length_a 20.503874
_cell_length_b 10.212237
_cell_length_c 11.641093
_cell_angle_alpha 114.110142
_cell_angle_beta 29.573788
_cell_angle_gamma 132.456815
_cell_volume 773.481835
_symmetry_space_group_name_H-M "P -1"
_symmetry_group_IT_number 2
_symmetry_cell_setting 'triclinic'
loop_
_space_group_symop_operation_xyz
x,y,z
-x,-y,-z
loop_
_atom_site_type_symbol
_atom_site_label
_atom_site_fract_x
_atom_site_fract_y
_atom_site_fract_z
Si Si1 0.683438 0.491506 0.005871
Si Si2 0.619780 0.113094 0.602505
Si Si3 0.047202 0.302025 0.794421
Si Si4 0.099175 0.106652 0.051332
Si Si5 0.238676 0.663703 0.767144
Si Si6 0.268998 0.112077 0.578530
Si Si7 0.236787 0.710691 0.040023
Si Si8 0.166109 0.479774 0.450362
O O1 0.773950 0.709451 0.987654
O O2 0.719191 0.506857 0.821322
O O3 0.460394 0.315546 0.302023
O O4 0.787366 0.443996 0.896360
O O5 0.625739 0.172763 0.482388
O O6 0.730518 0.296312 0.587848
O O7 0.712283 0.027455 0.439610
O O8 0.402825 0.942400 0.914402
O O9 0.180087 0.453361 0.751160
O O10 0.161500 0.364168 0.522935
O O11 0.921499 0.069589 0.930818
O O12 0.935216 0.362467 0.962255
O O13 0.208234 0.182964 0.791072
O O14 0.893435 0.018805 0.317143
O O15 0.319460 0.719496 0.792462
O O16 0.043886 0.647360 0.315859
#
# Coordination Sequence:
#
# PCOD8043802 Si02
#       8
#     2   2   2   2   2   2   2   2
#     4  11  24  39  55  87 119 151 192 228 273 350
#     4  10  19  37  59  87 116 146 187 239 282 333
#     4   9  19  35  61  83 110 154 185 233 284 335
#     4  11  22  39  60  81 116 153 189 234 285 327
#     4   9  17  34  57  88 116 137 189 239 288 327
#     4  10  23  37  60  86 112 151 191 235 285 330
#     4  10  21  33  60  89 111 150 187 233 290 332
#     4  10  22  39  58  83 120 151 186 232 282 337
#
# _framework density 20.685683999999998
#
# number of rings (size 3 to 8) (size 9 to 14) (size 15 to 20)
#    0.000    2.000    1.250    2.625    3.500    3.500 
#    0.000    3.125    0.000    0.000    0.000    0.000 
#    0.000    0.000    0.000    0.000    0.000    0.000 
#
# Total GULP energy -198337.637920 kJ/mol
# GULP energy per Si atom -12396.102370 kJ/mol
# Density = 2.063860 g / cm^3
# Si number density = 20.685684 Si / 1000 Ang^3
#
#
#
# Elastic Constant Matrix: (Units=GPa)
#
#
# Indices 1 2 3 4 5 6 
#
# 1 42.7232 11.2905 31.2002 1.3732 10.0455 9.1562
# 2 11.2905 93.5542 52.4897 -18.0934 9.8239 4.9047
# 3 31.2002 52.4897 117.3161 -7.8488 7.6002 12.3847
# 4 1.3732 -18.0934 -7.8488 24.2504 7.1172 2.6280
# 5 10.0455 9.8239 7.6002 7.1172 35.8860 -4.8141
# 6 9.1562 4.9047 12.3847 2.6280 -4.8141 23.1086
#
#
#
# Elastic Compliance Matrix: (Units=1/GPa)
#
#
# Indices 1 2 3 4 5 6 
#
# 1 0.033483 0.002453 -0.007977 0.001649 -0.010270 -0.011840
# 2 0.002453 0.017831 -0.006800 0.013586 -0.007385 -0.004196
# 3 -0.007977 -0.006800 0.013915 -0.000063 0.000800 -0.002680
# 4 0.001649 0.013586 -0.000063 0.057880 -0.017489 -0.013729
# 5 -0.010270 -0.007385 0.000800 -0.017489 0.038092 0.015132
# 6 -0.011840 -0.004196 -0.002680 -0.013729 0.015132 0.055005
#
#
# Mechanical properties :
#
#
# Convention : Reuss Voigt Hill
#
# Bulk Modulus (GPa) = 24.64218 49.28383 36.96300
# Shear Modulus (GPa) = 19.65559 27.22321 23.43940
#
# Velocity S-wave (km/s) = 3.08588 3.63166 3.36984
# Velocity P-wave (km/s) = 4.96341 6.43911 5.74881
#
# Compressibility (1/GPa) = 0.04058083
#
# Stress axis : x y z
#
# Youngs Moduli (GPa) = 29.86614 56.08110 71.86661
#
# Poissons Ratio (x) = -0.13755 0.57325
# Poissons Ratio (y) = -0.07325 0.48870
# Poissons Ratio (z) = 0.23823 0.38136
#
# Static dielectric constant tensor:
#      x y z
#    x 3.727740 0.189230 0.187660 
#    y 0.189230 3.645310 -0.137930 
#    z 0.187660 -0.137930 3.702700 
# 
# 
# High freq. dielectric constant tensor:
#      x y z
#    x 1.800700 0.009360 0.012460 
#    y 0.009360 1.802340 -0.021110 
#    z 0.012460 -0.021110 1.803970 
# 
# From -- ./inp_files/474692.got.cif
#   From: 2010.06.25/outbox.cif.g09.slc.cpg/sg2_238_cif.got.tgz:474692.got - 2010.06.27 13:26:56.
