data_PCOD8043678
_publ_section_title
;
Structure prediction by ZEFSAII (Michael W. Deem and Ramdas Pophale) SiO2 
 PCOD8043678
Probable space group: P -1
;
_chemical_formula_sum "Si O2"
_cell_formula_units_Z 16
_cell_length_a 16.233941
_cell_length_b 11.188715
_cell_length_c 6.406231
_cell_angle_alpha 88.446680
_cell_angle_beta 56.719568
_cell_angle_gamma 67.332237
_cell_volume 871.615176
_symmetry_space_group_name_H-M "P -1"
_symmetry_group_IT_number 2
_symmetry_cell_setting 'triclinic'
loop_
_space_group_symop_operation_xyz
x,y,z
-x,-y,-z
loop_
_atom_site_type_symbol
_atom_site_label
_atom_site_fract_x
_atom_site_fract_y
_atom_site_fract_z
Si Si1 0.564665 0.637241 0.501010
Si Si2 0.621893 0.347154 0.544357
Si Si3 0.956751 0.947564 0.372182
Si Si4 0.345987 0.174131 0.722541
Si Si5 0.612898 0.199199 0.929312
Si Si6 0.201544 0.056887 0.110559
Si Si7 0.551593 0.033271 0.729190
Si Si8 0.157386 0.888974 0.856097
O O1 0.624026 0.488539 0.513141
O O2 0.489169 0.645879 0.406090
O O3 0.664235 0.677115 0.304574
O O4 0.492944 0.738625 0.778213
O O5 0.631844 0.317210 0.783523
O O6 0.726714 0.239767 0.277828
O O7 0.888766 0.876099 0.582046
O O8 0.871332 0.071162 0.347140
O O9 0.000000 0.000000 0.500000
O O10 0.062235 0.853656 0.089926
O O11 0.462620 0.102488 0.674611
O O12 0.351541 0.099564 0.498826
O O13 0.250459 0.162860 0.993083
O O14 0.600860 0.130678 0.734065
O O15 0.709913 0.089639 0.932233
O O16 0.153561 0.020761 0.970629
O O17 0.500000 0.000000 0.000000
#
# Coordination Sequence:
#
# PCOD8043678 Si02
#       8
#     2   2   2   2   2   2   2   2
#     4  11  23  35  47  76 115 151 185 203 243 316
#     4  11  22  35  53  73 109 153 181 215 246 309
#     4   9  20  35  56  82 104 128 168 230 283 321
#     4  11  21  32  47  77 109 142 177 214 269 310
#     4  12  19  33  51  76 107 143 183 214 262 306
#     4  11  20  30  55  82 106 133 171 225 278 317
#     4  11  19  30  49  72 107 144 175 220 257 311
#     4  10  19  37  55  80 107 132 174 223 280 311
#
# _framework density 18.356724
#
# number of rings (size 3 to 8) (size 9 to 14) (size 15 to 20)
#    0.000    1.250    6.250    1.875    0.000    0.000 
#    0.000    0.000    0.000    0.750    0.000    7.875 
#    0.000    0.000    0.000    0.000    0.000    0.000 
#
# Total GULP energy -198223.243417 kJ/mol
# GULP energy per Si atom -12388.952714 kJ/mol
# Density = 1.831494 g / cm^3
# Si number density = 18.356724 Si / 1000 Ang^3
#
#
#
# Elastic Constant Matrix: (Units=GPa)
#
#
# Indices 1 2 3 4 5 6 
#
# 1 63.2263 28.4200 23.9879 -9.5318 -0.2465 6.8695
# 2 28.4200 78.9722 30.6479 -27.4742 -8.4855 13.6496
# 3 23.9879 30.6479 97.1651 -27.9432 -13.6463 12.2335
# 4 -9.5318 -27.4742 -27.9432 28.2639 5.4624 -2.9915
# 5 -0.2465 -8.4855 -13.6463 5.4624 37.0586 -6.2119
# 6 6.8695 13.6496 12.2335 -2.9915 -6.2119 24.2030
#
#
#
# Elastic Compliance Matrix: (Units=1/GPa)
#
#
# Indices 1 2 3 4 5 6 
#
# 1 0.020046 -0.007074 -0.004045 -0.003702 -0.002559 -0.000770
# 2 -0.007074 0.023587 0.001687 0.020977 0.001339 -0.009211
# 3 -0.004045 0.001687 0.016233 0.015141 0.003215 -0.005312
# 4 -0.003702 0.020977 0.015141 0.068689 -0.001502 -0.010328
# 5 -0.002559 0.001339 0.003215 -0.001502 0.029646 0.005770
# 6 -0.000770 -0.009211 -0.005312 -0.010328 0.005770 0.049620
#
#
# Mechanical properties :
#
#
# Convention : Reuss Voigt Hill
#
# Bulk Modulus (GPa) = 24.38879 45.05282 34.72081
# Shear Modulus (GPa) = 20.80276 28.32561 24.56418
#
# Velocity S-wave (km/s) = 3.37003 3.93245 3.66205
# Velocity P-wave (km/s) = 5.33457 6.72422 6.06930
#
# Compressibility (1/GPa) = 0.04100244
#
# Stress axis : x y z
#
# Youngs Moduli (GPa) = 49.88490 42.39535 61.60397
#
# Poissons Ratio (x) = 0.29991 0.24917
# Poissons Ratio (y) = 0.35289 -0.10391
# Poissons Ratio (z) = 0.20177 -0.07151
#
# Static dielectric constant tensor:
#      x y z
#    x 3.531190 0.206020 -0.079370 
#    y 0.206020 3.389690 -0.256130 
#    z -0.079370 -0.256130 3.787940 
# 
# 
# High freq. dielectric constant tensor:
#      x y z
#    x 1.703890 0.004150 0.010860 
#    y 0.004150 1.668660 -0.029950 
#    z 0.010860 -0.029950 1.727870 
# 
# From -- ./inp_files/80198.got.cif
#   From: 2010.06.25/outbox.cif.g09.slc.cpg/sg2_41_cif.got.tgz:80198.got - 2010.06.27 13:26:56.
