data_PCOD8043782
_publ_section_title
;
Structure prediction by ZEFSAII (Michael W. Deem and Ramdas Pophale) SiO2 
 PCOD8043782
Probable space group: P -1
;
_chemical_formula_sum "Si O2"
_cell_formula_units_Z 12
_cell_length_a 11.925300
_cell_length_b 8.607435
_cell_length_c 27.255958
_cell_angle_alpha 32.922412
_cell_angle_beta 154.867715
_cell_angle_gamma 132.596850
_cell_volume 602.494982
_symmetry_space_group_name_H-M "P -1"
_symmetry_group_IT_number 2
_symmetry_cell_setting 'triclinic'
loop_
_space_group_symop_operation_xyz
x,y,z
-x,-y,-z
loop_
_atom_site_type_symbol
_atom_site_label
_atom_site_fract_x
_atom_site_fract_y
_atom_site_fract_z
Si Si1 0.848595 0.874731 0.609094
Si Si2 0.553785 0.483984 0.083206
Si Si3 0.764252 0.323024 0.375217
Si Si4 0.120983 0.102342 0.746236
Si Si5 0.553740 0.465031 0.473002
Si Si6 0.410711 0.954235 0.707468
O O1 0.622427 0.719185 0.573716
O O2 0.105831 0.625174 0.746121
O O3 0.691750 0.179088 0.434233
O O4 0.964804 0.976660 0.676644
O O5 0.454784 0.234885 0.139414
O O6 0.500000 0.500000 0.000000
O O7 0.375892 0.817738 0.946732
O O8 0.727259 0.676939 0.275289
O O9 0.558137 0.289874 0.259300
O O10 0.085531 0.146017 0.535676
O O11 0.889366 0.280493 0.647751
O O12 0.500000 0.500000 0.500000
O O13 0.445920 0.801097 0.315662
#
# Coordination Sequence:
#
# PCOD8043782 Si02
#       6
#     2   2   2   2   2   2
#     4  10  19  37  59  82 111 144 183 230 276 323
#     4   9  20  38  57  81 113 145 182 226 278 327
#     4   9  17  32  57  82 105 142 191 226 266 321
#     4  10  21  35  56  84 110 145 185 228 271 326
#     4  11  21  37  57  82 113 146 186 225 274 325
#     4   9  18  34  55  80 111 146 181 226 272 324
#
# _framework density 19.917179999999998
#
# number of rings (size 3 to 8) (size 9 to 14) (size 15 to 20)
#    0.000    2.333    1.667    1.000    2.333    2.000 
#    0.000    5.833    0.000    0.000    0.000    0.000 
#    0.000    0.000    0.000    0.000    0.000    0.000 
#
# Total GULP energy -148696.256938 kJ/mol
# GULP energy per Si atom -12391.354745 kJ/mol
# Density = 1.987185 g / cm^3
# Si number density = 19.917180 Si / 1000 Ang^3
#
#
#
# Elastic Constant Matrix: (Units=GPa)
#
#
# Indices 1 2 3 4 5 6 
#
# 1 83.1406 29.9520 51.3574 -15.6106 -21.1475 9.2782
# 2 29.9520 122.0429 31.0443 -29.6652 -16.1954 18.9558
# 3 51.3574 31.0443 109.7750 -35.6959 -14.5573 14.6246
# 4 -15.6106 -29.6652 -35.6959 26.0673 4.1642 -8.7646
# 5 -21.1475 -16.1954 -14.5573 4.1642 38.3394 -8.3063
# 6 9.2782 18.9558 14.6246 -8.7646 -8.3063 34.3877
#
#
#
# Elastic Compliance Matrix: (Units=1/GPa)
#
#
# Indices 1 2 3 4 5 6 
#
# 1 0.019349 -0.002837 -0.009022 -0.004880 0.006699 0.000555
# 2 -0.002837 0.012827 0.003962 0.016856 0.002877 -0.002999
# 3 -0.009022 0.003962 0.021781 0.028193 0.001593 -0.001442
# 4 -0.004880 0.016856 0.028193 0.094101 0.006103 0.005493
# 5 0.006699 0.002877 0.001593 0.006103 0.032068 0.005231
# 6 0.000555 -0.002999 -0.001442 0.005493 0.005231 0.033861
#
#
# Mechanical properties :
#
#
# Convention : Reuss Voigt Hill
#
# Bulk Modulus (GPa) = 26.20376 59.96285 43.08330
# Shear Modulus (GPa) = 20.61841 33.26589 26.94215
#
# Velocity S-wave (km/s) = 3.22095 4.09125 3.68191
# Velocity P-wave (km/s) = 5.19785 7.24495 6.30503
#
# Compressibility (1/GPa) = 0.03816247
#
# Stress axis : x y z
#
# Youngs Moduli (GPa) = 51.68286 77.95956 45.91177
#
# Poissons Ratio (x) = 0.22117 0.41423
# Poissons Ratio (y) = 0.14662 -0.18190
# Poissons Ratio (z) = 0.46629 -0.30888
#
# Static dielectric constant tensor:
#      x y z
#    x 3.692680 0.131420 -0.017700 
#    y 0.131420 3.727330 -0.402090 
#    z -0.017700 -0.402090 4.037620 
# 
# 
# High freq. dielectric constant tensor:
#      x y z
#    x 1.770360 0.000800 -0.017190 
#    y 0.000800 1.767350 -0.024430 
#    z -0.017190 -0.024430 1.761080 
# 
# From -- ./inp_files/144496.got.cif
#   From: 2010.06.25/outbox.cif.g09.slc.cpg/sg2_73_cif.got.tgz:144496.got - 2010.06.27 13:26:56.
