data_PCOD8043557
_publ_section_title
;
Structure prediction by ZEFSAII (Michael W. Deem and Ramdas Pophale) SiO2 
 PCOD8043557
Probable space group: P -1
;
_chemical_formula_sum "Si O2"
_cell_formula_units_Z 14
_cell_length_a 20.017502
_cell_length_b 8.765241
_cell_length_c 6.886953
_cell_angle_alpha 55.110122
_cell_angle_beta 124.420762
_cell_angle_gamma 142.157683
_cell_volume 592.389600
_symmetry_space_group_name_H-M "P -1"
_symmetry_group_IT_number 2
_symmetry_cell_setting 'triclinic'
loop_
_space_group_symop_operation_xyz
x,y,z
-x,-y,-z
loop_
_atom_site_type_symbol
_atom_site_label
_atom_site_fract_x
_atom_site_fract_y
_atom_site_fract_z
Si Si1 0.676877 0.563361 0.072596
Si Si2 0.666868 0.169538 0.514213
Si Si3 0.886918 0.101008 0.459308
Si Si4 0.121260 0.557025 0.565742
Si Si5 0.527641 0.742933 0.289786
Si Si6 0.133124 0.226400 0.047284
Si Si7 0.681872 0.927705 0.046671
O O1 0.674656 0.405269 0.354290
O O2 0.633410 0.686896 0.005243
O O3 0.585174 0.351394 0.918743
O O4 0.799405 0.769501 0.021698
O O5 0.780243 0.262528 0.554050
O O6 0.564093 0.935979 0.383264
O O7 0.660414 0.087575 0.784072
O O8 0.902435 0.269775 0.539607
O O9 0.017759 0.290948 0.474081
O O10 0.832586 0.821491 0.658049
O O11 0.810610 0.066157 0.190379
O O12 0.159423 0.488308 0.866232
O O13 0.500000 0.500000 0.500000
O O14 0.626631 0.868323 0.206797
O O15 0.000000 0.000000 0.000000
#
# Coordination Sequence:
#
# PCOD8043557 Si02
#       7
#     2   2   2   2   2   2   2
#     4  11  24  42  66  98 131 170 216 269 321 375
#     4  11  24  44  64  95 133 166 221 264 319 391
#     4  10  19  36  64  92 126 170 210 259 323 372
#     4   9  19  38  63  91 124 170 214 257 315 386
#     4  12  24  46  69  91 131 176 214 265 326 385
#     4   9  19  39  65  91 125 169 211 257 316 385
#     4  12  25  42  65 101 130 167 218 270 319 381
#
# _framework density 23.633096999999999
#
# number of rings (size 3 to 8) (size 9 to 14) (size 15 to 20)
#    0.000    1.429    2.857    2.571    0.000    2.286 
#    2.571    6.429    0.000    0.000    0.000    0.000 
#    0.000    0.000    0.000    0.000    0.000    0.000 
#
# Total GULP energy -173437.769504 kJ/mol
# GULP energy per Si atom -12388.412107 kJ/mol
# Density = 2.357931 g / cm^3
# Si number density = 23.633097 Si / 1000 Ang^3
#
#
#
# Elastic Constant Matrix: (Units=GPa)
#
#
# Indices 1 2 3 4 5 6 
#
# 1 47.0469 2.9273 8.5660 -3.7203 8.0401 15.9071
# 2 2.9273 54.9681 34.2491 -2.6183 -1.3338 19.1226
# 3 8.5660 34.2491 137.5084 -6.4133 13.0440 10.0159
# 4 -3.7203 -2.6183 -6.4133 39.6053 1.8798 5.8263
# 5 8.0401 -1.3338 13.0440 1.8798 30.0379 -0.9534
# 6 15.9071 19.1226 10.0159 5.8263 -0.9534 21.7193
#
#
#
# Elastic Compliance Matrix: (Units=1/GPa)
#
#
# Indices 1 2 3 4 5 6 
#
# 1 0.037883 0.013869 -0.001116 0.011135 -0.011098 -0.042915
# 2 0.013869 0.036263 -0.006338 0.008850 -0.001224 -0.041590
# 3 -0.001116 -0.006338 0.009214 0.000903 -0.003986 0.001731
# 4 0.011135 0.008850 0.000903 0.030963 -0.005708 -0.024920
# 5 -0.011098 -0.001224 -0.003986 -0.005708 0.038749 0.014276
# 6 -0.042915 -0.041590 0.001731 -0.024920 0.014276 0.120604
#
#
# Mechanical properties :
#
#
# Convention : Reuss Voigt Hill
#
# Bulk Modulus (GPa) = 10.39611 36.77870 23.58740
# Shear Modulus (GPa) = 17.07010 31.19125 24.13068
#
# Velocity S-wave (km/s) = 2.69047 3.63686 3.19886
# Velocity P-wave (km/s) = 3.74967 5.76471 4.86271
#
# Compressibility (1/GPa) = 0.09618986
#
# Stress axis : x y z
#
# Youngs Moduli (GPa) = 26.39708 27.57630 108.52532
#
# Poissons Ratio (x) = -0.38245 0.12113
# Poissons Ratio (y) = -0.36609 0.68781
# Poissons Ratio (z) = 0.02946 0.17477
#
# Static dielectric constant tensor:
#      x y z
#    x 4.168360 0.356250 0.371220 
#    y 0.356250 4.544380 -0.156650 
#    z 0.371220 -0.156650 4.519660 
# 
# 
# High freq. dielectric constant tensor:
#      x y z
#    x 1.924670 0.020460 0.027990 
#    y 0.020460 1.929700 -0.020050 
#    z 0.027990 -0.020050 1.939020 
# 
# From -- ./inp_files/36906.got.cif
#   From: 2010.06.25/outbox.cif.g09.slc.cpg/sg2_19_cif.got.tgz:36906.got - 2010.06.27 13:26:56.
