data_PCOD8043347
_publ_section_title
;
Structure prediction by ZEFSAII (Michael W. Deem and Ramdas Pophale) SiO2 
 PCOD8043347
Probable space group: P -1
;
_chemical_formula_sum "Si O2"
_cell_formula_units_Z 16
_cell_length_a 14.205880
_cell_length_b 11.052214
_cell_length_c 20.027062
_cell_angle_alpha 151.947674
_cell_angle_beta 38.754592
_cell_angle_gamma 148.787565
_cell_volume 762.235156
_symmetry_space_group_name_H-M "P -1"
_symmetry_group_IT_number 2
_symmetry_cell_setting 'triclinic'
loop_
_space_group_symop_operation_xyz
x,y,z
-x,-y,-z
loop_
_atom_site_type_symbol
_atom_site_label
_atom_site_fract_x
_atom_site_fract_y
_atom_site_fract_z
Si Si1 0.681323 0.437909 0.056419
Si Si2 0.410540 0.721443 0.826987
Si Si3 0.610986 0.364668 0.848798
Si Si4 0.303130 0.674110 0.718107
Si Si5 0.815737 0.825512 0.556189
Si Si6 0.101189 0.533559 0.164242
Si Si7 0.544367 0.281069 0.697089
Si Si8 0.643788 0.436685 0.575859
O O1 0.720515 0.417235 0.102660
O O2 0.618289 0.670715 0.194903
O O3 0.865482 0.576658 0.978855
O O4 0.523903 0.096223 0.949440
O O5 0.288526 0.599672 0.768576
O O6 0.530340 0.581381 0.691268
O O7 0.807011 0.541593 0.863273
O O8 0.653919 0.421363 0.773623
O O9 0.483173 0.002443 0.760406
O O10 0.500000 0.500000 0.000000
O O11 0.326683 0.438258 0.545793
O O12 0.113945 0.639519 0.787021
O O13 0.823917 0.657846 0.538160
O O14 0.779261 0.086634 0.721132
O O15 0.000000 0.000000 0.500000
O O16 0.683693 0.457881 0.643469
O O17 0.460495 0.916440 0.563081
#
# Coordination Sequence:
#
# PCOD8043347 Si02
#       8
#     2   2   2   2   2   2   2   2
#     4  10  19  38  58  88 122 154 205 247 299 370
#     4  10  20  35  63  87 116 159 203 254 299 355
#     4  12  22  39  60  87 121 162 201 243 305 372
#     4  11  23  38  60  90 120 153 206 258 300 355
#     4  10  21  37  59  89 120 153 205 259 298 355
#     4  11  23  38  61  90 119 157 203 259 304 350
#     4  10  21  34  59  90 121 159 202 243 303 374
#     4  10  19  36  61  89 116 161 203 246 307 361
#
# _framework density 20.990898999999999
#
# number of rings (size 3 to 8) (size 9 to 14) (size 15 to 20)
#    0.000    1.500    5.000    0.000    1.750    2.000 
#    0.000    0.000    0.000    3.000    0.000    0.000 
#    0.000    0.000    0.000    0.000    0.000    0.000 
#
# Total GULP energy -198257.622851 kJ/mol
# GULP energy per Si atom -12391.101428 kJ/mol
# Density = 2.094312 g / cm^3
# Si number density = 20.990899 Si / 1000 Ang^3
#
#
#
# Elastic Constant Matrix: (Units=GPa)
#
#
# Indices 1 2 3 4 5 6 
#
# 1 123.1321 36.9253 18.7428 -13.6320 22.3993 -21.5555
# 2 36.9253 71.0287 10.1083 -16.7280 8.4040 -18.8186
# 3 18.7428 10.1083 78.6546 -1.6060 11.9251 -18.4884
# 4 -13.6320 -16.7280 -1.6060 30.1352 -15.1585 8.0132
# 5 22.3993 8.4040 11.9251 -15.1585 37.6545 -10.8368
# 6 -21.5555 -18.8186 -18.4884 8.0132 -10.8368 33.0629
#
#
#
# Elastic Compliance Matrix: (Units=1/GPa)
#
#
# Indices 1 2 3 4 5 6 
#
# 1 0.010809 -0.004390 -0.000650 -0.000702 -0.004719 0.002808
# 2 -0.004390 0.020073 -0.000183 0.009178 0.004062 0.007568
# 3 -0.000650 -0.000183 0.015148 -0.003395 -0.003548 0.007602
# 4 -0.000702 0.009178 -0.003395 0.047451 0.017735 -0.002820
# 5 -0.004719 0.004062 -0.003548 0.017735 0.038306 0.005508
# 6 0.002808 0.007568 0.007602 -0.002820 0.005508 0.043123
#
#
# Mechanical properties :
#
#
# Convention : Reuss Voigt Hill
#
# Bulk Modulus (GPa) = 28.10319 44.92981 36.51650
# Shear Modulus (GPa) = 25.35274 33.97314 29.66294
#
# Velocity S-wave (km/s) = 3.47911 4.02739 3.76324
# Velocity P-wave (km/s) = 5.43657 6.56333 6.02634
#
# Compressibility (1/GPa) = 0.03558315
#
# Stress axis : x y z
#
# Youngs Moduli (GPa) = 92.51519 49.81874 66.01567
#
# Poissons Ratio (x) = 0.21869 0.04293
# Poissons Ratio (y) = 0.40611 0.01210
# Poissons Ratio (z) = 0.06017 0.00913
#
# Static dielectric constant tensor:
#      x y z
#    x 3.866300 -0.656370 -0.010980 
#    y -0.656370 3.542290 -0.344420 
#    z -0.010980 -0.344420 4.046270 
# 
# 
# High freq. dielectric constant tensor:
#      x y z
#    x 1.807540 -0.039040 0.006510 
#    y -0.039040 1.796810 -0.008840 
#    z 0.006510 -0.008840 1.852310 
# 
# From -- ./inp_files/531225.got.cif
#   From: 2010.06.25/outbox.cif.g09.slc.cpg/sg2_266_cif.got.tgz:531225.got - 2010.06.27 13:26:56.
