data_PCOD8043265
_publ_section_title
;
Structure prediction by ZEFSAII (Michael W. Deem and Ramdas Pophale) SiO2 
 PCOD8043265
Probable space group: P -1
;
_chemical_formula_sum "Si O2"
_cell_formula_units_Z 16
_cell_length_a 24.315129
_cell_length_b 24.668278
_cell_length_c 9.251929
_cell_angle_alpha 37.717553
_cell_angle_beta 29.155636
_cell_angle_gamma 16.750118
_cell_volume 737.671340
_symmetry_space_group_name_H-M "P -1"
_symmetry_group_IT_number 2
_symmetry_cell_setting 'triclinic'
loop_
_space_group_symop_operation_xyz
x,y,z
-x,-y,-z
loop_
_atom_site_type_symbol
_atom_site_label
_atom_site_fract_x
_atom_site_fract_y
_atom_site_fract_z
Si Si1 0.546104 0.492298 0.246122
Si Si2 0.880738 0.627713 0.642396
Si Si3 0.732408 0.376504 0.639313
Si Si4 0.868651 0.471141 0.182990
Si Si5 0.833392 0.458577 0.611788
Si Si6 0.557489 0.952405 0.202085
Si Si7 0.001712 0.899756 0.150506
Si Si8 0.334260 0.996902 0.403787
O O1 0.500000 0.500000 0.500000
O O2 0.285903 0.651140 0.421813
O O3 0.590980 0.567000 0.973703
O O4 0.770518 0.275114 0.118160
O O5 0.000000 0.500000 0.500000
O O6 0.105374 0.518174 0.446989
O O7 0.669417 0.846489 0.603758
O O8 0.766896 0.629775 0.001865
O O9 0.720993 0.490791 0.416760
O O10 0.977749 0.175573 0.592293
O O11 0.500000 0.500000 0.000000
O O12 0.805763 0.530994 0.370695
O O13 0.169185 0.245417 0.936081
O O14 0.055410 0.232924 0.557357
O O15 0.483975 0.906589 0.402464
O O16 0.521807 0.049585 0.951051
O O17 0.728044 0.063052 0.363445
O O18 0.000000 0.000000 0.000000
#
# Coordination Sequence:
#
# PCOD8043265 Si02
#       8
#     2   2   2   2   2   2   2   2
#     4  10  21  38  62  84 122 166 194 248 319 361
#     4  11  25  37  58  93 122 156 199 252 314 360
#     4  10  19  38  58  90 118 155 205 249 300 368
#     4  11  20  40  64  85 118 157 209 253 293 362
#     4   9  18  39  57  84 118 153 206 240 294 373
#     4   9  18  36  60  82 116 156 198 240 303 360
#     4  10  19  36  60  90 118 152 211 255 292 362
#     4   8  15  33  57  81 112 150 196 247 289 347
#
# _framework density 21.689876999999999
#
# number of rings (size 3 to 8) (size 9 to 14) (size 15 to 20)
#    0.000    2.250    5.000    1.125    1.750    2.500 
#    2.250    0.625    0.000    0.000    0.000    0.000 
#    0.000    0.000    0.000    0.000    0.000    0.000 
#
# Total GULP energy -198214.013156 kJ/mol
# GULP energy per Si atom -12388.375822 kJ/mol
# Density = 2.164051 g / cm^3
# Si number density = 21.689877 Si / 1000 Ang^3
#
#
#
# Elastic Constant Matrix: (Units=GPa)
#
#
# Indices 1 2 3 4 5 6 
#
# 1 156.0964 27.9806 61.8743 -5.7008 -17.4749 18.6265
# 2 27.9806 51.3511 16.1644 -6.6732 -8.6123 10.8332
# 3 61.8743 16.1644 78.7239 -13.5984 -16.4005 7.5835
# 4 -5.7008 -6.6732 -13.5984 25.1384 4.2845 -5.0480
# 5 -17.4749 -8.6123 -16.4005 4.2845 51.7354 -7.4149
# 6 18.6265 10.8332 7.5835 -5.0480 -7.4149 31.1578
#
#
#
# Elastic Compliance Matrix: (Units=1/GPa)
#
#
# Indices 1 2 3 4 5 6 
#
# 1 0.010320 -0.002786 -0.007689 -0.003376 0.000319 -0.003800
# 2 -0.002786 0.023161 -0.001129 0.003610 0.001517 -0.005167
# 3 -0.007689 -0.001129 0.021077 0.009207 0.003445 0.002171
# 4 -0.003376 0.003610 0.009207 0.046235 -0.000609 0.005868
# 5 0.000319 0.001517 0.003445 -0.000609 0.021322 0.003419
# 6 -0.003800 -0.005167 0.002171 0.005868 0.003419 0.037399
#
#
# Mechanical properties :
#
#
# Convention : Reuss Voigt Hill
#
# Bulk Modulus (GPa) = 31.89881 55.35666 43.62773
# Shear Modulus (GPa) = 25.88390 33.61646 29.75018
#
# Velocity S-wave (km/s) = 3.45826 3.94111 3.70755
# Velocity P-wave (km/s) = 5.53938 6.80346 6.20370
#
# Compressibility (1/GPa) = 0.03134914
#
# Stress axis : x y z
#
# Youngs Moduli (GPa) = 96.90353 43.17666 47.44541
#
# Poissons Ratio (x) = 0.12029 0.36483
# Poissons Ratio (y) = 0.26998 0.05354
# Poissons Ratio (z) = 0.74513 0.04872
#
# Static dielectric constant tensor:
#      x y z
#    x 4.604500 -0.193830 -0.417660 
#    y -0.193830 3.830270 0.036290 
#    z -0.417660 0.036290 3.952040 
# 
# 
# High freq. dielectric constant tensor:
#      x y z
#    x 1.859620 0.004550 -0.033680 
#    y 0.004550 1.831710 -0.002630 
#    z -0.033680 -0.002630 1.832160 
# 
# From -- ./inp_files/355425.got.cif
#   From: 2010.06.25/outbox.cif.g09.slc.cpg/sg2_178_cif.got.tgz:355425.got - 2010.06.27 13:26:56.
