data_PCOD8043840
_publ_section_title
;
Structure prediction by ZEFSAII (Michael W. Deem and Ramdas Pophale) SiO2 
 PCOD8043840
Probable space group: P -1
;
_chemical_formula_sum "Si O2"
_cell_formula_units_Z 10
_cell_length_a 9.497267
_cell_length_b 10.155061
_cell_length_c 16.270053
_cell_angle_alpha 141.069357
_cell_angle_beta 143.295900
_cell_angle_gamma 60.808482
_cell_volume 549.373710
_symmetry_space_group_name_H-M "P -1"
_symmetry_group_IT_number 2
_symmetry_cell_setting 'triclinic'
loop_
_space_group_symop_operation_xyz
x,y,z
-x,-y,-z
loop_
_atom_site_type_symbol
_atom_site_label
_atom_site_fract_x
_atom_site_fract_y
_atom_site_fract_z
Si Si1 0.092721 0.267486 0.677493
Si Si2 0.842475 0.640611 0.956273
Si Si3 0.343591 0.958575 0.322924
Si Si4 0.446479 0.531554 0.113279
Si Si5 0.635675 0.395839 0.576846
O O1 0.258246 0.388067 0.733799
O O2 0.852141 0.339927 0.603438
O O3 0.268519 0.349055 0.878850
O O4 0.000000 0.000000 0.500000
O O5 0.601439 0.594994 0.881659
O O6 0.751616 0.573270 0.789175
O O7 0.000000 0.500000 0.000000
O O8 0.044590 0.897163 0.173801
O O9 0.374082 0.753310 0.187019
O O10 0.500000 0.000000 0.500000
O O11 0.430456 0.173796 0.410742
O O12 0.500000 0.500000 0.500000
#
# Coordination Sequence:
#
# PCOD8043840 Si02
#       5
#     2   2   2   2   2
#     4  11  21  36  58  89 122 154 196 248 292 349
#     4  10  19  37  60  85 115 154 212 235 278 361
#     4  11  18  35  66  88 109 159 205 241 280 354
#     4  10  20  34  62  89 110 149 216 240 275 344
#     4  12  24  38  59  94 124 152 193 255 305 340
#
# _framework density 18.202544
#
# number of rings (size 3 to 8) (size 9 to 14) (size 15 to 20)
#    0.000    1.200   10.000    0.000    0.000    0.800 
#    0.000    1.000    0.000    2.400    0.000    0.000 
#    0.000    0.000    0.000    0.000    0.000    0.000 
#
# Total GULP energy -123948.248050 kJ/mol
# GULP energy per Si atom -12394.824805 kJ/mol
# Density = 1.816111 g / cm^3
# Si number density = 18.202544 Si / 1000 Ang^3
#
#
#
# Elastic Constant Matrix: (Units=GPa)
#
#
# Indices 1 2 3 4 5 6 
#
# 1 161.8464 62.8701 68.1988 0.7923 28.5187 14.9891
# 2 62.8701 93.6278 57.0466 -6.9196 11.5793 17.4844
# 3 68.1988 57.0466 147.4967 8.8759 9.3357 14.5499
# 4 0.7923 -6.9196 8.8759 25.5576 7.4908 0.3110
# 5 28.5187 11.5793 9.3357 7.4908 43.7929 5.1625
# 6 14.9891 17.4844 14.5499 0.3110 5.1625 25.0451
#
#
#
# Elastic Compliance Matrix: (Units=1/GPa)
#
#
# Indices 1 2 3 4 5 6 
#
# 1 0.009811 -0.004279 -0.002589 0.000849 -0.004804 -0.000401
# 2 -0.004279 0.018617 -0.004841 0.007382 -0.001494 -0.007407
# 3 -0.002589 -0.004841 0.010179 -0.005293 0.001855 -0.001301
# 4 0.000849 0.007382 -0.005293 0.045599 -0.009024 -0.001293
# 5 -0.004804 -0.001494 0.001855 -0.009024 0.027835 -0.002785
# 6 -0.000401 -0.007407 -0.001301 -0.001293 -0.002785 0.046685
#
#
# Mechanical properties :
#
#
# Convention : Reuss Voigt Hill
#
# Bulk Modulus (GPa) = 65.83654 86.57797 76.20726
# Shear Modulus (GPa) = 26.70852 33.20280 29.95566
#
# Velocity S-wave (km/s) = 3.83469 4.27555 4.06111
# Velocity P-wave (km/s) = 7.47354 8.48768 7.99670
#
# Compressibility (1/GPa) = 0.01518913
#
# Stress axis : x y z
#
# Youngs Moduli (GPa) = 101.92289 53.71449 98.24452
#
# Poissons Ratio (x) = 0.22984 0.25436
# Poissons Ratio (y) = 0.43612 0.47559
# Poissons Ratio (z) = 0.26389 0.26003
#
# Static dielectric constant tensor:
#      x y z
#    x 4.303780 0.326700 0.360590 
#    y 0.326700 2.969770 0.213500 
#    z 0.360590 0.213500 3.703590 
# 
# 
# High freq. dielectric constant tensor:
#      x y z
#    x 1.728540 0.019600 0.011680 
#    y 0.019600 1.639730 0.014520 
#    z 0.011680 0.014520 1.729670 
# 
# From -- ./inp_files/18133.got.cif
#   From: 2010.06.25/outbox.cif.g09.slc.cpg/sg2_10_cif.got.tgz:18133.got - 2010.06.27 13:26:56.
