data_PCOD8043665
_publ_section_title
;
Structure prediction by ZEFSAII (Michael W. Deem and Ramdas Pophale) SiO2 
 PCOD8043665
Probable space group: P -1
;
_chemical_formula_sum "Si O2"
_cell_formula_units_Z 16
_cell_length_a 11.461177
_cell_length_b 13.374521
_cell_length_c 10.970838
_cell_angle_alpha 34.538695
_cell_angle_beta 82.187652
_cell_angle_gamma 72.563676
_cell_volume 890.322967
_symmetry_space_group_name_H-M "P -1"
_symmetry_group_IT_number 2
_symmetry_cell_setting 'triclinic'
loop_
_space_group_symop_operation_xyz
x,y,z
-x,-y,-z
loop_
_atom_site_type_symbol
_atom_site_label
_atom_site_fract_x
_atom_site_fract_y
_atom_site_fract_z
Si Si1 0.455248 0.834931 0.624068
Si Si2 0.382667 0.779289 0.943830
Si Si3 0.339167 0.877067 0.358628
Si Si4 0.850744 0.201026 0.904881
Si Si5 0.397705 0.172515 0.601040
Si Si6 0.582493 0.523380 0.352358
Si Si7 0.128408 0.096838 0.995741
Si Si8 0.220868 0.407734 0.587376
O O1 0.422754 0.722796 0.853931
O O2 0.334175 0.903451 0.481183
O O3 0.571163 0.721099 0.631478
O O4 0.500000 0.000000 0.500000
O O5 0.354193 0.999522 0.744951
O O6 0.255619 0.738825 0.036434
O O7 0.496079 0.660212 0.129306
O O8 0.470005 0.901039 0.268401
O O9 0.340684 0.671994 0.525354
O O10 0.218321 0.032089 0.164165
O O11 0.852633 0.375588 0.646592
O O12 0.820365 0.051703 0.971117
O O13 0.987165 0.112779 0.035562
O O14 0.290708 0.321717 0.539786
O O15 0.500000 0.500000 0.500000
O O16 0.682045 0.615229 0.293345
O O17 0.127097 0.300119 0.747782
#
# Coordination Sequence:
#
# PCOD8043665 Si02
#       8
#     2   2   2   2   2   2   2   2
#     4   8  19  35  54  82 109 142 184 223 276 333
#     4  11  19  36  55  81 112 147 177 228 280 314
#     4  10  19  37  52  83 112 140 184 224 273 333
#     4  11  23  37  55  84 108 149 195 218 266 337
#     4   9  19  33  58  83 110 143 174 225 282 335
#     4  12  20  30  54  87 116 133 177 230 281 345
#     4  11  23  38  57  76 116 152 182 227 274 319
#     4  12  21  36  56  85 114 145 175 230 281 332
#
# _framework density 17.971007
#
# number of rings (size 3 to 8) (size 9 to 14) (size 15 to 20)
#    0.750    0.750    5.000    1.125    0.000    1.500 
#    0.000    0.625    0.000    0.000    0.000    2.625 
#    0.000    0.000    0.000    0.000    0.000    0.000 
#
# Total GULP energy -198236.054328 kJ/mol
# GULP energy per Si atom -12389.753395 kJ/mol
# Density = 1.793010 g / cm^3
# Si number density = 17.971007 Si / 1000 Ang^3
#
#
#
# Elastic Constant Matrix: (Units=GPa)
#
#
# Indices 1 2 3 4 5 6 
#
# 1 72.7999 29.6855 24.8616 12.3365 1.6936 2.2335
# 2 29.6855 66.9992 29.7717 16.3204 -0.3347 8.2650
# 3 24.8616 29.7717 83.0594 12.5849 -4.5647 2.1635
# 4 12.3365 16.3204 12.5849 30.9014 5.0393 -1.3404
# 5 1.6936 -0.3347 -4.5647 5.0393 25.6138 -2.5918
# 6 2.2335 8.2650 2.1635 -1.3404 -2.5918 23.9496
#
#
#
# Elastic Compliance Matrix: (Units=1/GPa)
#
#
# Indices 1 2 3 4 5 6 
#
# 1 0.017577 -0.005986 -0.002815 -0.002494 -0.001210 0.000410
# 2 -0.005986 0.022568 -0.004867 -0.007967 0.000666 -0.007164
# 3 -0.002815 -0.004867 0.015264 -0.003063 0.003524 0.000773
# 4 -0.002494 -0.007967 -0.003063 0.040309 -0.007945 0.004655
# 5 -0.001210 0.000666 0.003524 -0.007945 0.041689 0.003632
# 6 0.000410 -0.007164 0.000773 0.004655 0.003632 0.044772
#
#
# Mechanical properties :
#
#
# Convention : Reuss Voigt Hill
#
# Bulk Modulus (GPa) = 35.62136 43.49955 39.56046
# Shear Modulus (GPa) = 22.84426 25.32894 24.08660
#
# Velocity S-wave (km/s) = 3.56922 3.75831 3.66499
# Velocity P-wave (km/s) = 6.07045 6.56439 6.32225
#
# Compressibility (1/GPa) = 0.02807304
#
# Stress axis : x y z
#
# Youngs Moduli (GPa) = 56.89358 44.30993 65.51198
#
# Poissons Ratio (x) = 0.26524 0.18440
# Poissons Ratio (y) = 0.34057 0.31887
# Poissons Ratio (z) = 0.16014 0.21567
#
# Static dielectric constant tensor:
#      x y z
#    x 3.290450 0.186360 -0.105600 
#    y 0.186360 3.434020 0.096730 
#    z -0.105600 0.096730 3.320830 
# 
# 
# High freq. dielectric constant tensor:
#      x y z
#    x 1.687560 0.016390 -0.010650 
#    y 0.016390 1.684360 -0.006680 
#    z -0.010650 -0.006680 1.685510 
# 
# From -- ./inp_files/430751.got.cif
#   From: 2010.06.25/outbox.cif.g09.slc.cpg/sg2_216_cif.got.tgz:430751.got - 2010.06.27 13:26:56.
