data_PCOD8043804
_publ_section_title
;
Structure prediction by ZEFSAII (Michael W. Deem and Ramdas Pophale) SiO2 
 PCOD8043804
Probable space group: P -1
;
_chemical_formula_sum "Si O2"
_cell_formula_units_Z 16
_cell_length_a 17.883317
_cell_length_b 8.415030
_cell_length_c 7.156774
_cell_angle_alpha 53.598148
_cell_angle_beta 67.215786
_cell_angle_gamma 93.679957
_cell_volume 733.817711
_symmetry_space_group_name_H-M "P -1"
_symmetry_group_IT_number 2
_symmetry_cell_setting 'triclinic'
loop_
_space_group_symop_operation_xyz
x,y,z
-x,-y,-z
loop_
_atom_site_type_symbol
_atom_site_label
_atom_site_fract_x
_atom_site_fract_y
_atom_site_fract_z
Si Si1 0.692150 0.243353 0.041241
Si Si2 0.103969 0.110931 0.332963
Si Si3 0.214441 0.270865 0.463234
Si Si4 0.494323 0.934706 0.766422
Si Si5 0.772651 0.101542 0.761358
Si Si6 0.797187 0.553345 0.275833
Si Si7 0.364987 0.233705 0.135993
Si Si8 0.624522 0.357329 0.373653
O O1 0.758886 0.487200 0.796291
O O2 0.744042 0.102493 0.007169
O O3 0.609942 0.197763 0.006175
O O4 0.663440 0.209517 0.310925
O O5 0.132906 0.127644 0.509793
O O6 0.147075 0.972743 0.273197
O O7 0.139698 0.344246 0.034174
O O8 0.000000 0.000000 0.500000
O O9 0.183303 0.260772 0.714852
O O10 0.297869 0.205430 0.394611
O O11 0.546167 0.784253 0.867941
O O12 0.500000 0.000000 0.500000
O O13 0.535867 0.166749 0.678087
O O14 0.810849 0.343452 0.474422
O O15 0.686646 0.944158 0.843484
O O16 0.694126 0.486305 0.371809
O O17 0.396841 0.474999 0.851601
#
# Coordination Sequence:
#
# PCOD8043804 Si02
#       8
#     2   2   2   2   2   2   2   2
#     4   9  19  37  58  83 125 157 205 250 292 344
#     4  11  24  45  67  93 123 149 197 263 310 372
#     4   9  21  39  64  90 120 165 201 248 305 368
#     4  10  21  33  57  87 122 165 216 248 292 344
#     4  10  21  39  63  91 115 163 205 242 311 372
#     4  11  20  40  66  87 125 161 203 244 309 368
#     4  10  19  38  57  83 126 161 210 252 294 345
#     4  10  19  37  59  87 120 170 203 249 296 350
#
# _framework density 21.803782000000002
#
# number of rings (size 3 to 8) (size 9 to 14) (size 15 to 20)
#    0.000    2.000    5.000    0.000    0.000    8.000 
#    0.000    4.375    0.000    0.000    0.000    0.000 
#    0.000    0.000    0.000    0.000    0.000    0.000 
#
# Total GULP energy -198239.900618 kJ/mol
# GULP energy per Si atom -12389.993789 kJ/mol
# Density = 2.175416 g / cm^3
# Si number density = 21.803782 Si / 1000 Ang^3
#
#
#
# Elastic Constant Matrix: (Units=GPa)
#
#
# Indices 1 2 3 4 5 6 
#
# 1 109.4281 35.5398 16.8693 -0.2715 -21.1786 -2.8223
# 2 35.5398 116.9136 10.5034 5.2381 -3.4685 1.4636
# 3 16.8693 10.5034 46.7880 -13.4529 -0.8100 -1.5129
# 4 -0.2715 5.2381 -13.4529 26.3326 2.6692 4.7477
# 5 -21.1786 -3.4685 -0.8100 2.6692 29.0446 -2.2356
# 6 -2.8223 1.4636 -1.5129 4.7477 -2.2356 26.5899
#
#
#
# Elastic Compliance Matrix: (Units=1/GPa)
#
#
# Indices 1 2 3 4 5 6 
#
# 1 0.012670 -0.003076 -0.004481 -0.002942 0.009214 0.002559
# 2 -0.003076 0.009763 -0.001909 -0.002755 -0.000920 -0.000558
# 3 -0.004481 -0.001909 0.027664 0.015238 -0.004269 -0.001876
# 4 -0.002942 -0.002755 0.015238 0.048549 -0.007170 -0.008565
# 5 0.009214 -0.000920 -0.004269 -0.007170 0.042009 0.005598
# 6 0.002559 -0.000558 -0.001876 -0.008565 0.005598 0.039804
#
#
# Mechanical properties :
#
#
# Convention : Reuss Voigt Hill
#
# Bulk Modulus (GPa) = 32.08741 44.32830 38.20786
# Shear Modulus (GPa) = 23.83452 30.40791 27.12121
#
# Velocity S-wave (km/s) = 3.30985 3.73851 3.53069
# Velocity P-wave (km/s) = 5.41804 6.24579 5.84659
#
# Compressibility (1/GPa) = 0.03116487
#
# Stress axis : x y z
#
# Youngs Moduli (GPa) = 78.92568 102.42830 36.14809
#
# Poissons Ratio (x) = 0.31505 0.16200
# Poissons Ratio (y) = 0.24276 0.06900
# Poissons Ratio (z) = 0.35370 0.19552
#
# Static dielectric constant tensor:
#      x y z
#    x 3.700950 0.207600 0.019940 
#    y 0.207600 4.408570 0.073850 
#    z 0.019940 0.073850 4.076690 
# 
# 
# High freq. dielectric constant tensor:
#      x y z
#    x 1.827730 0.014000 0.009920 
#    y 0.014000 1.865210 -0.008840 
#    z 0.009920 -0.008840 1.845680 
# 
# From -- ./inp_files/327079.got.cif
#   From: 2010.06.25/outbox.cif.g09.slc.cpg/sg2_164_cif.got.tgz:327079.got - 2010.06.27 13:26:56.
