data_PCOD8043777
_publ_section_title
;
Structure prediction by ZEFSAII (Michael W. Deem and Ramdas Pophale) SiO2 
 PCOD8043777
Probable space group: P -1
;
_chemical_formula_sum "Si O2"
_cell_formula_units_Z 16
_cell_length_a 7.822686
_cell_length_b 10.601098
_cell_length_c 16.105543
_cell_angle_alpha 58.508323
_cell_angle_beta 53.721453
_cell_angle_gamma 43.734942
_cell_volume 733.496859
_symmetry_space_group_name_H-M "P -1"
_symmetry_group_IT_number 2
_symmetry_cell_setting 'triclinic'
loop_
_space_group_symop_operation_xyz
x,y,z
-x,-y,-z
loop_
_atom_site_type_symbol
_atom_site_label
_atom_site_fract_x
_atom_site_fract_y
_atom_site_fract_z
Si Si1 0.888654 0.862607 0.494838
Si Si2 0.901469 0.351917 0.995991
Si Si3 0.501184 0.269208 0.094240
Si Si4 0.792130 0.461924 0.591008
Si Si5 0.968758 0.175388 0.207441
Si Si6 0.241000 0.744222 0.590959
Si Si7 0.559328 0.738702 0.699878
Si Si8 0.544251 0.951532 0.099051
O O1 0.650711 0.848219 0.588362
O O2 0.046773 0.757599 0.399480
O O3 0.101498 0.753387 0.544599
O O4 0.773077 0.073668 0.451178
O O5 0.753472 0.270853 0.028352
O O6 0.948814 0.310073 0.095602
O O7 0.722691 0.570460 0.957529
O O8 0.183619 0.256582 0.899774
O O9 0.363886 0.297008 0.213507
O O10 0.596673 0.077472 0.092968
O O11 0.549163 0.572221 0.557643
O O12 0.682176 0.537412 0.690259
O O13 0.000000 0.500000 0.500000
O O14 0.271742 0.985198 0.195253
O O15 0.897268 0.276899 0.282547
O O16 0.761493 0.131129 0.260924
O O17 0.500000 0.000000 0.000000
#
# Coordination Sequence:
#
# PCOD8043777 Si02
#       8
#     2   2   2   2   2   2   2   2
#     4  10  20  36  58  80 109 145 181 226 274 321
#     4   9  20  37  58  82 108 146 183 220 271 321
#     4  10  19  37  59  80 112 145 180 225 270 321
#     4   9  19  35  54  79 108 140 180 223 267 320
#     4   9  19  35  53  80 112 140 181 223 264 322
#     4  10  20  36  57  82 110 145 182 222 275 324
#     4   9  19  36  57  80 109 146 183 224 271 320
#     4  10  20  35  55  81 110 142 181 225 270 321
#
# _framework density 21.813317000000001
#
# number of rings (size 3 to 8) (size 9 to 14) (size 15 to 20)
#    0.000    2.500    0.000    1.500    0.000    6.500 
#    0.000   25.000    0.000    0.000    0.000    0.000 
#    0.000    0.000    0.000    0.000    0.000    0.000 
#
# Total GULP energy -198220.360110 kJ/mol
# GULP energy per Si atom -12388.772507 kJ/mol
# Density = 2.176367 g / cm^3
# Si number density = 21.813317 Si / 1000 Ang^3
#
#
#
# Elastic Constant Matrix: (Units=GPa)
#
#
# Indices 1 2 3 4 5 6 
#
# 1 62.4459 6.0616 19.8762 14.1344 -6.3016 -2.7361
# 2 6.0616 69.4409 27.3202 19.5219 -10.6130 -5.9211
# 3 19.8762 27.3202 76.7429 17.8000 -0.5628 -7.4709
# 4 14.1344 19.5219 17.8000 27.8668 -8.5357 -1.6747
# 5 -6.3016 -10.6130 -0.5628 -8.5357 38.6987 13.6807
# 6 -2.7361 -5.9211 -7.4709 -1.6747 13.6807 39.4995
#
#
#
# Elastic Compliance Matrix: (Units=1/GPa)
#
#
# Indices 1 2 3 4 5 6 
#
# 1 0.019094 0.002504 -0.003885 -0.008375 0.001911 -0.000054
# 2 0.002504 0.019772 -0.005080 -0.010878 0.003134 0.000630
# 3 -0.003885 -0.005080 0.017795 -0.007028 -0.004601 0.003631
# 4 -0.008375 -0.010878 -0.007028 0.054794 0.009192 -0.004401
# 5 0.001911 0.003134 -0.004601 0.009192 0.032965 -0.011296
# 6 -0.000054 0.000630 0.003631 -0.004401 -0.011296 0.029820
#
#
# Mechanical properties :
#
#
# Convention : Reuss Voigt Hill
#
# Bulk Modulus (GPa) = 22.86351 35.01619 28.93985
# Shear Modulus (GPa) = 24.78425 31.57112 28.17768
#
# Velocity S-wave (km/s) = 3.37441 3.80851 3.59801
# Velocity P-wave (km/s) = 5.06817 5.95207 5.52782
#
# Compressibility (1/GPa) = 0.04373781
#
# Stress axis : x y z
#
# Youngs Moduli (GPa) = 52.37369 50.57763 56.19545
#
# Poissons Ratio (x) = -0.12663 0.21834
# Poissons Ratio (y) = -0.13113 0.28545
# Poissons Ratio (z) = 0.20349 0.25692
#
# Static dielectric constant tensor:
#      x y z
#    x 4.046630 -0.182840 0.015250 
#    y -0.182840 4.028240 0.583670 
#    z 0.015250 0.583670 4.220750 
# 
# 
# High freq. dielectric constant tensor:
#      x y z
#    x 1.877830 -0.013010 -0.000450 
#    y -0.013010 1.833640 0.028450 
#    z -0.000450 0.028450 1.846100 
# 
# From -- ./inp_files/446630.got.cif
#   From: 2010.06.25/outbox.cif.g09.slc.cpg/sg2_224_cif.got.tgz:446630.got - 2010.06.27 13:26:56.
