data_PCOD8043459
_publ_section_title
;
Structure prediction by ZEFSAII (Michael W. Deem and Ramdas Pophale) SiO2 
 PCOD8043459
Probable space group: P -1
;
_chemical_formula_sum "Si O2"
_cell_formula_units_Z 14
_cell_length_a 8.454933
_cell_length_b 12.650963
_cell_length_c 7.528843
_cell_angle_alpha 98.606346
_cell_angle_beta 52.767643
_cell_angle_gamma 112.624721
_cell_volume 588.037695
_symmetry_space_group_name_H-M "P -1"
_symmetry_group_IT_number 2
_symmetry_cell_setting 'triclinic'
loop_
_space_group_symop_operation_xyz
x,y,z
-x,-y,-z
loop_
_atom_site_type_symbol
_atom_site_label
_atom_site_fract_x
_atom_site_fract_y
_atom_site_fract_z
Si Si1 0.744512 0.565715 0.312452
Si Si2 0.111226 0.793934 0.689716
Si Si3 0.344778 0.819654 0.881871
Si Si4 0.792918 0.984002 0.522764
Si Si5 0.653070 0.409660 0.022119
Si Si6 0.082657 0.174251 0.838944
Si Si7 0.801624 0.575799 0.657629
O O1 0.500000 0.500000 0.500000
O O2 0.800734 0.505739 0.086776
O O3 0.870619 0.555771 0.404363
O O4 0.780788 0.697254 0.284580
O O5 0.291250 0.783386 0.700363
O O6 0.002964 0.674869 0.631863
O O7 0.217505 0.895524 0.501376
O O8 0.934102 0.825072 0.934124
O O9 0.579976 0.917114 0.764406
O O10 0.319396 0.709547 0.990890
O O11 0.160863 0.865103 0.087409
O O12 0.800749 0.909385 0.324606
O O13 0.000000 0.000000 0.500000
O O14 0.401355 0.385563 0.203433
O O15 0.737600 0.456508 0.779882
#
# Coordination Sequence:
#
# PCOD8043459 Si02
#       7
#     2   2   2   2   2   2   2
#     4  10  19  36  62  96 130 168 215 261 319 383
#     4  10  22  41  63  92 129 170 219 268 325 388
#     4  10  24  41  66  91 134 171 212 277 325 383
#     4  12  23  43  67  94 126 170 224 269 327 395
#     4  10  19  39  60  94 133 169 215 267 322 382
#     4  10  23  40  65  91 129 171 215 262 333 379
#     4  10  20  36  67  94 127 176 216 262 325 390
#
# _framework density 23.807997
#
# number of rings (size 3 to 8) (size 9 to 14) (size 15 to 20)
#    0.857    0.857    1.429    4.286    0.000    2.857 
#    0.000    4.286    0.000    0.000    0.000    0.000 
#    0.000    0.000    0.000    0.000    0.000    0.000 
#
# Total GULP energy -173525.589668 kJ/mol
# GULP energy per Si atom -12394.684976 kJ/mol
# Density = 2.375381 g / cm^3
# Si number density = 23.807997 Si / 1000 Ang^3
#
#
#
# Elastic Constant Matrix: (Units=GPa)
#
#
# Indices 1 2 3 4 5 6 
#
# 1 77.5654 16.9944 -1.7994 -22.4499 3.9478 -5.3494
# 2 16.9944 69.7175 32.8217 -41.3705 -2.3278 0.7645
# 3 -1.7994 32.8217 49.4937 -22.3259 18.7956 -1.6656
# 4 -22.4499 -41.3705 -22.3259 38.5799 -3.1541 2.7483
# 5 3.9478 -2.3278 18.7956 -3.1541 46.2335 -7.4758
# 6 -5.3494 0.7645 -1.6656 2.7483 -7.4758 41.9878
#
#
#
# Elastic Compliance Matrix: (Units=1/GPa)
#
#
# Indices 1 2 3 4 5 6 
#
# 1 0.017780 0.000930 0.008722 0.016019 -0.003783 0.000872
# 2 0.000930 0.048651 -0.016971 0.044021 0.011917 -0.002200
# 3 0.008722 -0.016971 0.043703 0.010695 -0.018780 -0.000890
# 4 0.016019 0.044021 0.010695 0.089068 0.001960 -0.003817
# 5 -0.003783 0.011917 -0.018780 0.001960 0.030958 0.003940
# 6 0.000872 -0.002200 -0.000890 -0.003817 0.003940 0.024884
#
#
# Mechanical properties :
#
#
# Convention : Reuss Voigt Hill
#
# Bulk Modulus (GPa) = 10.47183 32.53446 21.50315
# Shear Modulus (GPa) = 16.58299 35.27757 25.93028
#
# Velocity S-wave (km/s) = 2.64205 3.85353 3.30379
# Velocity P-wave (km/s) = 3.70341 5.78745 4.85849
#
# Compressibility (1/GPa) = 0.09549429
#
# Stress axis : x y z
#
# Youngs Moduli (GPa) = 56.24224 20.55466 22.88194
#
# Poissons Ratio (x) = -0.01911 -0.19958
# Poissons Ratio (y) = -0.05229 0.38834
# Poissons Ratio (z) = -0.49055 0.34884
#
# Static dielectric constant tensor:
#      x y z
#    x 4.453190 0.285770 0.329060 
#    y 0.285770 4.195030 0.018940 
#    z 0.329060 0.018940 4.474050 
# 
# 
# High freq. dielectric constant tensor:
#      x y z
#    x 1.937760 0.008570 0.009340 
#    y 0.008570 1.932260 -0.018910 
#    z 0.009340 -0.018910 1.946670 
# 
# From -- ./inp_files/188343.got.cif
#   From: 2010.06.25/outbox.cif.g09.slc.cpg/sg2_95_cif.got.tgz:188343.got - 2010.06.27 13:26:56.
