data_PCOD8043732
_publ_section_title
;
Structure prediction by ZEFSAII (Michael W. Deem and Ramdas Pophale) SiO2 
 PCOD8043732
Probable space group: P -1
;
_chemical_formula_sum "Si O2"
_cell_formula_units_Z 16
_cell_length_a 21.951490
_cell_length_b 9.302865
_cell_length_c 18.526986
_cell_angle_alpha 38.992483
_cell_angle_beta 18.044280
_cell_angle_gamma 39.920081
_cell_volume 729.781149
_symmetry_space_group_name_H-M "P -1"
_symmetry_group_IT_number 2
_symmetry_cell_setting 'triclinic'
loop_
_space_group_symop_operation_xyz
x,y,z
-x,-y,-z
loop_
_atom_site_type_symbol
_atom_site_label
_atom_site_fract_x
_atom_site_fract_y
_atom_site_fract_z
Si Si1 0.994993 0.517026 0.197585
Si Si2 0.480282 0.597151 0.836376
Si Si3 0.564898 0.537188 0.331801
Si Si4 0.589622 0.734914 0.512117
Si Si5 0.424911 0.950765 0.870940
Si Si6 0.256436 0.321591 0.293529
Si Si7 0.984059 0.994346 0.393193
Si Si8 0.105370 0.572635 0.506059
O O1 0.823160 0.705802 0.282909
O O2 0.017286 0.552073 0.245947
O O3 0.923021 0.264765 0.371199
O O4 0.199870 0.541743 0.916453
O O5 0.465864 0.618943 0.757916
O O6 0.676935 0.428668 0.704595
O O7 0.491426 0.857193 0.752616
O O8 0.288161 0.494528 0.124162
O O9 0.500000 0.500000 0.500000
O O10 0.431707 0.399965 0.485152
O O11 0.506695 0.808820 0.278433
O O12 0.500000 0.000000 0.500000
O O13 0.526179 0.756696 0.887450
O O14 0.191748 0.959099 0.132075
O O15 0.108966 0.449826 0.470811
O O16 0.175490 0.093758 0.445722
O O17 0.003901 0.838005 0.504819
#
# Coordination Sequence:
#
# PCOD8043732 Si02
#       8
#     2   2   2   2   2   2   2   2
#     4  10  25  42  63  95 126 162 209 257 315 376
#     4  10  20  38  61  91 127 168 207 249 301 366
#     4  11  25  45  68  90 119 165 215 263 320 367
#     4  11  25  46  66  90 122 163 214 269 314 363
#     4  10  20  39  59  90 129 164 201 253 304 365
#     4  11  20  34  61  93 130 168 206 239 300 376
#     4  11  20  34  59  91 131 166 197 244 306 366
#     4  10  19  37  57  91 133 164 198 246 302 367
#
# _framework density 21.924382999999999
#
# number of rings (size 3 to 8) (size 9 to 14) (size 15 to 20)
#    0.000    1.500    2.500    3.000    1.750    1.000 
#    0.000    3.125    0.000    0.000    0.000    0.000 
#    0.000    0.000    0.000    0.000    0.000    0.000 
#
# Total GULP energy -198318.835090 kJ/mol
# GULP energy per Si atom -12394.927193 kJ/mol
# Density = 2.187448 g / cm^3
# Si number density = 21.924383 Si / 1000 Ang^3
#
#
#
# Elastic Constant Matrix: (Units=GPa)
#
#
# Indices 1 2 3 4 5 6 
#
# 1 111.0795 18.8579 40.0793 -0.4493 29.7556 4.1319
# 2 18.8579 88.0225 17.6591 8.1315 3.4452 -7.6955
# 3 40.0793 17.6591 93.4105 8.5087 27.1851 -0.5468
# 4 -0.4493 8.1315 8.5087 29.5916 3.9451 -4.4153
# 5 29.7556 3.4452 27.1851 3.9451 34.2964 0.7631
# 6 4.1319 -7.6955 -0.5468 -4.4153 0.7631 35.5397
#
#
#
# Elastic Compliance Matrix: (Units=1/GPa)
#
#
# Indices 1 2 3 4 5 6 
#
# 1 0.012842 -0.002224 -0.002702 0.002564 -0.009039 -0.001504
# 2 -0.002224 0.012605 -0.001850 -0.002907 0.002407 0.002547
# 3 -0.002702 -0.001850 0.015119 -0.002658 -0.009149 0.000012
# 4 0.002564 -0.002907 -0.002658 0.036488 -0.004103 0.003653
# 5 -0.009039 0.002407 -0.009149 -0.004103 0.044482 -0.000034
# 6 -0.001504 0.002547 0.000012 0.003653 -0.000034 0.029319
#
#
# Mechanical properties :
#
#
# Convention : Reuss Voigt Hill
#
# Bulk Modulus (GPa) = 37.01445 49.52278 43.26862
# Shear Modulus (GPa) = 28.83321 34.27996 31.55658
#
# Velocity S-wave (km/s) = 3.63039 3.95847 3.79798
# Velocity P-wave (km/s) = 5.87303 6.59770 6.24588
#
# Compressibility (1/GPa) = 0.02701647
#
# Stress axis : x y z
#
# Youngs Moduli (GPa) = 77.86667 79.33229 66.14142
#
# Poissons Ratio (x) = 0.17643 0.17869
# Poissons Ratio (y) = 0.17317 0.12234
# Poissons Ratio (z) = 0.21037 0.14674
#
# Static dielectric constant tensor:
#      x y z
#    x 3.975210 0.196140 0.132090 
#    y 0.196140 4.415160 0.006570 
#    z 0.132090 0.006570 3.796640 
# 
# 
# High freq. dielectric constant tensor:
#      x y z
#    x 1.863170 0.004760 0.003340 
#    y 0.004760 1.862730 0.015970 
#    z 0.003340 0.015970 1.850040 
# 
# From -- ./inp_files/447877.got.cif
#   From: 2010.06.25/outbox.cif.g09.slc.cpg/sg2_224_cif.got.tgz:447877.got - 2010.06.27 13:26:56.
