data_PCOD8043068
_publ_section_title
;
Structure prediction by ZEFSAII (Michael W. Deem and Ramdas Pophale) SiO2 
 PCOD8043068
Probable space group: P -1
;
_chemical_formula_sum "Si O2"
_cell_formula_units_Z 16
_cell_length_a 12.712004
_cell_length_b 12.557337
_cell_length_c 22.039413
_cell_angle_alpha 147.427938
_cell_angle_beta 153.635662
_cell_angle_gamma 47.526812
_cell_volume 792.831054
_symmetry_space_group_name_H-M "P -1"
_symmetry_group_IT_number 2
_symmetry_cell_setting 'triclinic'
loop_
_space_group_symop_operation_xyz
x,y,z
-x,-y,-z
loop_
_atom_site_type_symbol
_atom_site_label
_atom_site_fract_x
_atom_site_fract_y
_atom_site_fract_z
Si Si1 0.746694 0.079504 0.747247
Si Si2 0.181263 0.696934 0.725147
Si Si3 0.019328 0.807678 0.816855
Si Si4 0.494873 0.819425 0.758553
Si Si5 0.818621 0.530045 0.803179
Si Si6 0.243288 0.538359 0.394752
Si Si7 0.795329 0.120698 0.651843
Si Si8 0.716099 0.944191 0.137910
O O1 0.816318 0.067770 0.707391
O O2 0.799047 0.894002 0.723217
O O3 0.451420 0.049834 0.586919
O O4 0.909056 0.302028 0.964310
O O5 0.185601 0.919934 0.807064
O O6 0.000000 0.500000 0.500000
O O7 0.072398 0.670074 0.723624
O O8 0.482210 0.728664 0.899537
O O9 0.950883 0.666393 0.773099
O O10 0.266380 0.996208 0.054327
O O11 0.593676 0.629861 0.740409
O O12 0.293709 0.740135 0.561727
O O13 0.360190 0.901221 0.781666
O O14 0.846672 0.430207 0.704028
O O15 0.766693 0.349417 0.740049
O O16 0.500000 0.500000 0.500000
O O17 0.046678 0.116194 0.744715
#
# Coordination Sequence:
#
# PCOD8043068 Si02
#       8
#     2   2   2   2   2   2   2   2
#     4  10  21  37  56  83 119 154 190 233 289 341
#     4  10  20  34  58  84 116 150 184 240 287 337
#     4  10  19  36  57  86 114 145 195 242 281 334
#     4   9  20  37  61  83 115 147 194 245 283 333
#     4  10  22  37  58  85 113 155 191 237 285 342
#     4  10  20  35  58  87 112 148 196 240 288 328
#     4  11  22  38  57  83 123 152 190 228 291 351
#     4  10  21  38  57  88 116 149 193 232 289 347
#
# _framework density 20.180842999999999
#
# number of rings (size 3 to 8) (size 9 to 14) (size 15 to 20)
#    0.000    2.000    1.250    2.625    1.750    6.500 
#    0.000    0.625    0.000    3.750    0.000    0.000 
#    0.000    0.000    0.000    0.000    0.000    0.000 
#
# Total GULP energy -198294.001696 kJ/mol
# GULP energy per Si atom -12393.375106 kJ/mol
# Density = 2.013491 g / cm^3
# Si number density = 20.180843 Si / 1000 Ang^3
#
#
#
# Elastic Constant Matrix: (Units=GPa)
#
#
# Indices 1 2 3 4 5 6 
#
# 1 60.7828 22.1027 29.8332 -7.6652 6.5411 -5.9596
# 2 22.1027 47.2477 30.4172 -8.4171 6.2458 -8.9581
# 3 29.8332 30.4172 128.0220 -18.2890 -5.5697 -16.7235
# 4 -7.6652 -8.4171 -18.2890 28.5261 1.7297 4.4864
# 5 6.5411 6.2458 -5.5697 1.7297 34.5554 -1.3600
# 6 -5.9596 -8.9581 -16.7235 4.4864 -1.3600 25.9046
#
#
#
# Elastic Compliance Matrix: (Units=1/GPa)
#
#
# Indices 1 2 3 4 5 6 
#
# 1 0.021161 -0.007144 -0.003137 0.001785 -0.003314 -0.000111
# 2 -0.007144 0.029511 -0.004419 0.003474 -0.004676 0.004862
# 3 -0.003137 -0.004419 0.010845 0.003952 0.003109 0.004230
# 4 0.001785 0.003474 0.003952 0.039688 -0.002427 -0.002838
# 5 -0.003314 -0.004676 0.003109 -0.002427 0.031100 0.001681
# 6 -0.000111 0.004862 0.004230 -0.002838 0.001681 0.043569
#
#
# Mechanical properties :
#
#
# Convention : Reuss Voigt Hill
#
# Bulk Modulus (GPa) = 31.13803 44.52873 37.83338
# Shear Modulus (GPa) = 23.15041 28.04384 25.59712
#
# Velocity S-wave (km/s) = 3.39063 3.73181 3.56531
# Velocity P-wave (km/s) = 5.54901 6.37819 5.97799
#
# Compressibility (1/GPa) = 0.03211507
#
# Stress axis : x y z
#
# Youngs Moduli (GPa) = 47.25769 33.88597 92.21227
#
# Poissons Ratio (x) = 0.24209 0.28930
# Poissons Ratio (y) = 0.33762 0.40747
# Poissons Ratio (z) = 0.14826 0.14974
#
# Static dielectric constant tensor:
#      x y z
#    x 3.913190 0.268760 -0.273430 
#    y 0.268760 3.450770 -0.256560 
#    z -0.273430 -0.256560 3.877560 
# 
# 
# High freq. dielectric constant tensor:
#      x y z
#    x 1.776690 0.010460 0.003330 
#    y 0.010460 1.750340 0.000100 
#    z 0.003330 0.000100 1.811260 
# 
# From -- ./inp_files/425548.got.cif
#   From: 2010.06.25/outbox.cif.g09.slc.cpg/sg2_213_cif.got.tgz:425548.got - 2010.06.27 13:26:56.
