data_PCOD8043120
_publ_section_title
;
Structure prediction by ZEFSAII (Michael W. Deem and Ramdas Pophale) SiO2 
 PCOD8043120
Probable space group: P -1
;
_chemical_formula_sum "Si O2"
_cell_formula_units_Z 16
_cell_length_a 11.302447
_cell_length_b 11.300737
_cell_length_c 16.414562
_cell_angle_alpha 40.303513
_cell_angle_beta 41.095439
_cell_angle_gamma 70.258386
_cell_volume 740.146988
_symmetry_space_group_name_H-M "P -1"
_symmetry_group_IT_number 2
_symmetry_cell_setting 'triclinic'
loop_
_space_group_symop_operation_xyz
x,y,z
-x,-y,-z
loop_
_atom_site_type_symbol
_atom_site_label
_atom_site_fract_x
_atom_site_fract_y
_atom_site_fract_z
Si Si1 0.057773 0.517311 0.157581
Si Si2 0.968856 0.892169 0.985985
Si Si3 0.386427 0.092620 0.592514
Si Si4 0.412650 0.620332 0.034952
Si Si5 0.617389 0.091477 0.631987
Si Si6 0.429318 0.139143 0.860641
Si Si7 0.236053 0.648585 0.835046
Si Si8 0.742533 0.345956 0.737066
O O1 0.182290 0.565948 0.151422
O O2 0.975725 0.676573 0.102211
O O3 0.861631 0.264170 0.386589
O O4 0.228334 0.555202 0.977730
O O5 0.753947 0.814787 0.087513
O O6 0.000000 0.000000 0.000000
O O7 0.174349 0.090524 0.725033
O O8 0.458520 0.027777 0.671442
O O9 0.576477 0.330930 0.331493
O O10 0.303190 0.899623 0.670277
O O11 0.347241 0.559502 0.196901
O O12 0.500000 0.500000 0.000000
O O13 0.598552 0.877042 0.790643
O O14 0.561235 0.199218 0.676705
O O15 0.597885 0.304384 0.754216
O O16 0.307875 0.884737 0.082374
O O17 0.000000 0.500000 0.000000
O O18 0.000000 0.500000 0.500000
#
# Coordination Sequence:
#
# PCOD8043120 Si02
#       8
#     2   2   2   2   2   2   2   2
#     4  11  23  40  66  92 130 172 210 269 336 391
#     4  11  20  40  63 100 133 167 212 269 334 401
#     4  10  20  36  58  89 132 165 200 260 324 387
#     4  11  24  46  66  93 128 173 228 274 330 397
#     4  11  20  41  67  93 129 172 213 272 330 396
#     4  10  22  40  68  96 132 168 220 272 324 397
#     4  10  19  36  58  86 121 172 209 248 321 391
#     4  10  22  47  68  93 129 175 224 277 328 384
#
# _framework density 21.617329000000002
#
# number of rings (size 3 to 8) (size 9 to 14) (size 15 to 20)
#    0.000    1.500    5.000    1.500    0.000    1.000 
#    9.000    0.000    0.000    0.000    0.000    0.000 
#    0.000    0.000    0.000    0.000    0.000    0.000 
#
# Total GULP energy -198226.876662 kJ/mol
# GULP energy per Si atom -12389.179791 kJ/mol
# Density = 2.156813 g / cm^3
# Si number density = 21.617329 Si / 1000 Ang^3
#
#
#
# Elastic Constant Matrix: (Units=GPa)
#
#
# Indices 1 2 3 4 5 6 
#
# 1 120.5344 45.0252 42.0061 8.3977 -19.5895 16.4200
# 2 45.0252 106.1172 59.4144 25.3864 -3.6703 14.4662
# 3 42.0061 59.4144 160.8968 27.7772 -15.8473 8.0912
# 4 8.3977 25.3864 27.7772 34.0495 5.1612 1.0718
# 5 -19.5895 -3.6703 -15.8473 5.1612 32.4842 1.1583
# 6 16.4200 14.4662 8.0912 1.0718 1.1583 34.7650
#
#
#
# Elastic Compliance Matrix: (Units=1/GPa)
#
#
# Indices 1 2 3 4 5 6 
#
# 1 0.011511 -0.003599 -0.000793 -0.000346 0.006344 -0.003956
# 2 -0.003599 0.014981 -0.003201 -0.007449 -0.000729 -0.003535
# 3 -0.000793 -0.003201 0.008992 -0.005412 0.004420 -0.000367
# 4 -0.000346 -0.007449 -0.005412 0.040874 -0.010314 0.003607
# 5 0.006344 -0.000729 0.004420 -0.010314 0.038490 -0.004686
# 6 -0.003956 -0.003535 -0.000367 0.003607 -0.004686 0.032234
#
#
# Mechanical properties :
#
#
# Convention : Reuss Voigt Hill
#
# Bulk Modulus (GPa) = 49.26016 75.60443 62.43230
# Shear Modulus (GPa) = 29.57996 36.33324 32.95660
#
# Velocity S-wave (km/s) = 3.70313 4.10414 3.90878
# Velocity P-wave (km/s) = 6.41257 7.58344 7.02245
#
# Compressibility (1/GPa) = 0.02030038
#
# Stress axis : x y z
#
# Youngs Moduli (GPa) = 86.87301 66.74992 111.20708
#
# Poissons Ratio (x) = 0.24021 0.08816
# Poissons Ratio (y) = 0.31263 0.35593
# Poissons Ratio (z) = 0.06887 0.21364
#
# Static dielectric constant tensor:
#      x y z
#    x 3.930060 0.459980 0.111400 
#    y 0.459980 4.183960 0.581340 
#    z 0.111400 0.581340 4.535030 
# 
# 
# High freq. dielectric constant tensor:
#      x y z
#    x 1.841040 0.031580 -0.008670 
#    y 0.031580 1.834640 0.017310 
#    z -0.008670 0.017310 1.867790 
# 
# From -- ./inp_files/569122.got.cif
#   From: 2010.06.25/outbox.cif.g09.slc.cpg/sg2_285_cif.got.tgz:569122.got - 2010.06.27 13:26:56.
