data_PCOD8043636
_publ_section_title
;
Structure prediction by ZEFSAII (Michael W. Deem and Ramdas Pophale) SiO2 
 PCOD8043636
Probable space group: P -1
;
_chemical_formula_sum "Si O2"
_cell_formula_units_Z 16
_cell_length_a 7.618888
_cell_length_b 8.885399
_cell_length_c 20.884782
_cell_angle_alpha 39.644026
_cell_angle_beta 117.076632
_cell_angle_gamma 113.827886
_cell_volume 799.614441
_symmetry_space_group_name_H-M "P -1"
_symmetry_group_IT_number 2
_symmetry_cell_setting 'triclinic'
loop_
_space_group_symop_operation_xyz
x,y,z
-x,-y,-z
loop_
_atom_site_type_symbol
_atom_site_label
_atom_site_fract_x
_atom_site_fract_y
_atom_site_fract_z
Si Si1 0.577414 0.701092 0.995526
Si Si2 0.255833 0.380715 0.347769
Si Si3 0.480348 0.524734 0.165538
Si Si4 0.530513 0.799257 0.211803
Si Si5 0.695637 0.928609 0.658271
Si Si6 0.857200 0.439483 0.196060
Si Si7 0.132436 0.063174 0.687313
Si Si8 0.629996 0.738284 0.461002
O O1 0.573523 0.957089 0.879225
O O2 0.500000 0.500000 0.000000
O O3 0.433643 0.663664 0.046886
O O4 0.802847 0.660639 0.069546
O O5 0.423022 0.600343 0.304732
O O6 0.321393 0.158417 0.390144
O O7 0.225458 0.297673 0.443052
O O8 0.062282 0.484971 0.252536
O O9 0.518079 0.720061 0.162708
O O10 0.306192 0.318887 0.220606
O O11 0.682463 0.394608 0.234321
O O12 0.754759 0.837331 0.262933
O O13 0.516151 0.069063 0.605190
O O14 0.899712 0.099097 0.645069
O O15 0.854495 0.216219 0.222156
O O16 0.226030 0.181793 0.599638
O O17 0.500000 0.500000 0.500000
#
# Coordination Sequence:
#
# PCOD8043636 Si02
#       8
#     2   2   2   2   2   2   2   2
#     4  10  19  36  67  87 124 165 205 247 311 368
#     4  10  23  40  62  89 126 161 206 260 301 367
#     4   9  20  39  61  88 124 159 201 255 306 361
#     4  11  20  38  60  90 128 160 203 261 303 357
#     4  10  23  42  63  88 124 162 208 250 313 361
#     4   9  20  39  62  90 114 169 198 246 312 362
#     4  11  22  41  64  91 125 163 207 251 305 373
#     4  12  23  41  63  92 126 161 210 253 310 358
#
# _framework density 20.009641999999999
#
# number of rings (size 3 to 8) (size 9 to 14) (size 15 to 20)
#    0.750    1.000    3.750    0.750    0.000    4.000 
#    4.500    0.625    0.000    0.000    0.000    0.000 
#    0.000    0.000    0.000    0.000    0.000    0.000 
#
# Total GULP energy -198244.306363 kJ/mol
# GULP energy per Si atom -12390.269148 kJ/mol
# Density = 1.996410 g / cm^3
# Si number density = 20.009642 Si / 1000 Ang^3
#
#
#
# Elastic Constant Matrix: (Units=GPa)
#
#
# Indices 1 2 3 4 5 6 
#
# 1 67.4583 30.2763 15.6418 3.6948 -0.1420 9.3983
# 2 30.2763 110.3111 43.5599 9.6959 -3.2962 11.5924
# 3 15.6418 43.5599 82.7965 14.0467 1.2439 4.7459
# 4 3.6948 9.6959 14.0467 23.1271 -2.7379 -0.3477
# 5 -0.1420 -3.2962 1.2439 -2.7379 29.0711 5.3773
# 6 9.3983 11.5924 4.7459 -0.3477 5.3773 33.9368
#
#
#
# Elastic Compliance Matrix: (Units=1/GPa)
#
#
# Indices 1 2 3 4 5 6 
#
# 1 0.017321 -0.003995 -0.000884 -0.000578 0.000235 -0.003352
# 2 -0.003995 0.012869 -0.005700 -0.001088 0.002106 -0.002837
# 3 -0.000884 -0.005700 0.016591 -0.007794 -0.002118 0.000128
# 4 -0.000578 -0.001088 -0.007794 0.049084 0.004571 0.001401
# 5 0.000235 0.002106 -0.002118 0.004571 0.036305 -0.006194
# 6 -0.003352 -0.002837 0.000128 0.001401 -0.006194 0.032342
#
#
# Mechanical properties :
#
#
# Convention : Reuss Voigt Hill
#
# Bulk Modulus (GPa) = 39.02760 48.83577 43.93168
# Shear Modulus (GPa) = 25.74513 28.63287 27.18900
#
# Velocity S-wave (km/s) = 3.59086 3.78690 3.69018
# Velocity P-wave (km/s) = 6.06128 6.60151 6.33715
#
# Compressibility (1/GPa) = 0.02562289
#
# Stress axis : x y z
#
# Youngs Moduli (GPa) = 57.73342 77.70339 60.27494
#
# Poissons Ratio (x) = 0.31042 0.05327
# Poissons Ratio (y) = 0.23064 0.34359
# Poissons Ratio (z) = 0.05103 0.44294
#
# Static dielectric constant tensor:
#      x y z
#    x 3.629170 -0.007690 0.004200 
#    y -0.007690 3.670200 0.032860 
#    z 0.004200 0.032860 3.615850 
# 
# 
# High freq. dielectric constant tensor:
#      x y z
#    x 1.765360 -0.005400 -0.005720 
#    y -0.005400 1.789770 0.000030 
#    z -0.005720 0.000030 1.773070 
# 
# From -- ./inp_files/281242.got.cif
#   From: 2010.06.25/outbox.cif.g09.slc.cpg/sg2_141_cif.got.tgz:281242.got - 2010.06.27 13:26:56.
