data_PCOD8043762
_publ_section_title
;
Structure prediction by ZEFSAII (Michael W. Deem and Ramdas Pophale) SiO2 
 PCOD8043762
Probable space group: P -1
;
_chemical_formula_sum "Si O2"
_cell_formula_units_Z 16
_cell_length_a 7.973649
_cell_length_b 17.255147
_cell_length_c 7.487039
_cell_angle_alpha 65.138123
_cell_angle_beta 125.141528
_cell_angle_gamma 93.480910
_cell_volume 741.127534
_symmetry_space_group_name_H-M "P -1"
_symmetry_group_IT_number 2
_symmetry_cell_setting 'triclinic'
loop_
_space_group_symop_operation_xyz
x,y,z
-x,-y,-z
loop_
_atom_site_type_symbol
_atom_site_label
_atom_site_fract_x
_atom_site_fract_y
_atom_site_fract_z
Si Si1 0.987427 0.343953 0.273113
Si Si2 0.259888 0.778617 0.589256
Si Si3 0.996906 0.101047 0.405957
Si Si4 0.294322 0.287550 0.935174
Si Si5 0.678983 0.814861 0.302402
Si Si6 0.234418 0.815176 0.147532
Si Si7 0.825988 0.540797 0.492574
Si Si8 0.153901 0.640703 0.214816
O O1 0.859406 0.300870 0.386494
O O2 0.206508 0.272511 0.432961
O O3 0.041930 0.432819 0.287556
O O4 0.850855 0.365742 0.993586
O O5 0.203423 0.844628 0.657865
O O6 0.187968 0.835453 0.309166
O O7 0.513401 0.742015 0.780187
O O8 0.208462 0.109800 0.631423
O O9 0.966917 0.140951 0.145404
O O10 0.000000 0.000000 0.500000
O O11 0.287425 0.208696 0.866687
O O12 0.336358 0.371730 0.767799
O O13 0.076471 0.319286 0.878216
O O14 0.433961 0.849112 0.168925
O O15 0.296673 0.708199 0.280176
O O16 0.724149 0.458867 0.556768
O O17 0.000000 0.500000 0.500000
#
# Coordination Sequence:
#
# PCOD8043762 Si02
#       8
#     2   2   2   2   2   2   2   2
#     4  10  19  37  58  86 128 168 211 263 308 359
#     4  11  22  41  64  93 126 170 210 254 316 380
#     4  11  25  46  69  95 128 157 204 267 315 381
#     4  10  20  38  64  89 132 171 210 259 308 371
#     4  10  20  42  65  92 124 164 208 251 316 377
#     4  12  23  41  69  93 127 170 209 250 321 378
#     4   9  19  33  54  88 125 169 215 260 304 354
#     4  11  19  36  60  91 124 169 215 259 308 363
#
# _framework density 21.588726000000001
#
# number of rings (size 3 to 8) (size 9 to 14) (size 15 to 20)
#    0.000    1.500    3.750    4.125    0.000    1.000 
#    0.000   13.125    0.000    0.000    0.000    0.000 
#    0.000    0.000    0.000    0.000    0.000    0.000 
#
# Total GULP energy -198223.582849 kJ/mol
# GULP energy per Si atom -12388.973928 kJ/mol
# Density = 2.153959 g / cm^3
# Si number density = 21.588726 Si / 1000 Ang^3
#
#
#
# Elastic Constant Matrix: (Units=GPa)
#
#
# Indices 1 2 3 4 5 6 
#
# 1 65.6649 12.2143 21.6517 4.2814 -6.0429 4.5331
# 2 12.2143 126.6215 26.0405 -7.1814 -5.3875 18.7966
# 3 21.6517 26.0405 83.6660 13.9580 -18.0775 1.9086
# 4 4.2814 -7.1814 13.9580 25.2371 0.0853 -3.0575
# 5 -6.0429 -5.3875 -18.0775 0.0853 35.9696 8.5940
# 6 4.5331 18.7966 1.9086 -3.0575 8.5940 22.3820
#
#
#
# Elastic Compliance Matrix: (Units=1/GPa)
#
#
# Indices 1 2 3 4 5 6 
#
# 1 0.016997 -0.000352 -0.003535 -0.001495 0.001936 -0.003793
# 2 -0.000352 0.010087 -0.003042 0.003590 0.001918 -0.008387
# 3 -0.003535 -0.003042 0.017407 -0.010266 0.008402 -0.002843
# 4 -0.001495 0.003590 -0.010266 0.047475 -0.006712 0.007226
# 5 0.001936 0.001918 0.008402 -0.006712 0.036907 -0.017808
# 6 -0.003793 -0.008387 -0.002843 0.007226 -0.017808 0.060558
#
#
# Mechanical properties :
#
#
# Convention : Reuss Voigt Hill
#
# Bulk Modulus (GPa) = 32.64305 43.97394 38.30850
# Shear Modulus (GPa) = 23.41924 31.12079 27.27002
#
# Velocity S-wave (km/s) = 3.29719 3.80087 3.55795
# Velocity P-wave (km/s) = 5.44504 6.29883 5.88744
#
# Compressibility (1/GPa) = 0.03063439
#
# Stress axis : x y z
#
# Youngs Moduli (GPa) = 58.83266 99.13497 57.44921
#
# Poissons Ratio (x) = 0.03489 0.20308
# Poissons Ratio (y) = 0.02071 0.17473
# Poissons Ratio (z) = 0.20797 0.30152
#
# Static dielectric constant tensor:
#      x y z
#    x 3.720300 0.099380 -0.300730 
#    y 0.099380 4.011130 -0.127700 
#    z -0.300730 -0.127700 4.096550 
# 
# 
# High freq. dielectric constant tensor:
#      x y z
#    x 1.830640 -0.002100 -0.013580 
#    y -0.002100 1.842080 0.021870 
#    z -0.013580 0.021870 1.838550 
# 
# From -- ./inp_files/212371.got.cif
#   From: 2010.06.25/outbox.cif.g09.slc.cpg/sg2_107_cif.got.tgz:212371.got - 2010.06.27 13:26:56.
