data_PCOD8043723
_publ_section_title
;
Structure prediction by ZEFSAII (Michael W. Deem and Ramdas Pophale) SiO2 
 PCOD8043723
Probable space group: P -1
;
_chemical_formula_sum "Si O2"
_cell_formula_units_Z 14
_cell_length_a 7.849235
_cell_length_b 13.109447
_cell_length_c 9.063495
_cell_angle_alpha 123.749413
_cell_angle_beta 54.221575
_cell_angle_gamma 105.204484
_cell_volume 626.404379
_symmetry_space_group_name_H-M "P -1"
_symmetry_group_IT_number 2
_symmetry_cell_setting 'triclinic'
loop_
_space_group_symop_operation_xyz
x,y,z
-x,-y,-z
loop_
_atom_site_type_symbol
_atom_site_label
_atom_site_fract_x
_atom_site_fract_y
_atom_site_fract_z
Si Si1 0.608071 0.383644 0.270604
Si Si2 0.805690 0.917981 0.792517
Si Si3 0.997373 0.516694 0.762952
Si Si4 0.246006 0.803745 0.507682
Si Si5 0.885320 0.671259 0.683498
Si Si6 0.560709 0.131004 0.249997
Si Si7 0.622300 0.390866 0.938042
O O1 0.500000 0.500000 0.500000
O O2 0.567189 0.265294 0.288727
O O3 0.857046 0.402808 0.147484
O O4 0.523127 0.372148 0.135507
O O5 0.745024 0.800486 0.827631
O O6 0.665556 0.919382 0.714199
O O7 0.058014 0.903052 0.619565
O O8 0.750519 0.042423 0.011523
O O9 0.844284 0.612780 0.817145
O O10 0.860223 0.432787 0.866191
O O11 0.150115 0.427225 0.506877
O O12 0.404654 0.866547 0.588464
O O13 0.376632 0.739102 0.253661
O O14 0.134358 0.698479 0.570659
O O15 0.500000 0.500000 0.000000
#
# Coordination Sequence:
#
# PCOD8043723 Si02
#       7
#     2   2   2   2   2   2   2
#     4  12  24  37  61  89 117 156 204 247 300 367
#     4   9  20  35  62  90 120 154 204 248 287 361
#     4  10  19  37  57  86 122 154 192 244 304 347
#     4   9  19  39  57  83 124 155 194 247 295 345
#     4   8  17  32  60  82 115 156 186 239 293 350
#     4  11  20  36  63  93 113 159 208 238 297 361
#     4  11  25  37  56  89 124 158 195 250 306 355
#
# _framework density 22.349779000000002
#
# number of rings (size 3 to 8) (size 9 to 14) (size 15 to 20)
#    0.857    1.143    1.429    2.571    6.000    0.000 
#    2.571    0.714    0.000    3.429    0.000    0.000 
#    0.000    0.000    0.000    0.000    0.000    0.000 
#
# Total GULP energy -173501.795805 kJ/mol
# GULP energy per Si atom -12392.985415 kJ/mol
# Density = 2.229891 g / cm^3
# Si number density = 22.349779 Si / 1000 Ang^3
#
#
#
# Elastic Constant Matrix: (Units=GPa)
#
#
# Indices 1 2 3 4 5 6 
#
# 1 102.3471 1.8874 54.4409 2.6633 20.7828 -21.5485
# 2 1.8874 28.7185 17.2257 4.0503 -6.0810 -9.2807
# 3 54.4409 17.2257 145.2093 6.9032 2.5542 -21.6731
# 4 2.6633 4.0503 6.9032 36.8248 -7.7803 -5.2888
# 5 20.7828 -6.0810 2.5542 -7.7803 37.4806 8.9496
# 6 -21.5485 -9.2807 -21.6731 -5.2888 8.9496 26.5602
#
#
#
# Elastic Compliance Matrix: (Units=1/GPa)
#
#
# Indices 1 2 3 4 5 6 
#
# 1 0.018564 0.004397 -0.004615 -0.001381 -0.013649 0.017156
# 2 0.004397 0.042214 -0.004504 -0.001906 0.000997 0.013927
# 3 -0.004615 -0.004504 0.009483 -0.000524 0.000566 0.002125
# 4 -0.001381 -0.001906 -0.000524 0.029082 0.006171 0.001498
# 5 -0.013649 0.000997 0.000566 0.006171 0.041118 -0.022889
# 6 0.017156 0.013927 0.002125 0.001498 -0.022889 0.066180
#
#
# Mechanical properties :
#
#
# Convention : Reuss Voigt Hill
#
# Bulk Modulus (GPa) = 16.44309 47.04253 31.74281
# Shear Modulus (GPa) = 21.15418 33.68783 27.42101
#
# Velocity S-wave (km/s) = 3.07987 3.88661 3.50652
# Velocity P-wave (km/s) = 4.47444 6.42145 5.53424
#
# Compressibility (1/GPa) = 0.06081581
#
# Stress axis : x y z
#
# Youngs Moduli (GPa) = 53.86770 23.68879 105.44729
#
# Poissons Ratio (x) = -0.10416 0.48666
# Poissons Ratio (y) = -0.23685 0.47499
# Poissons Ratio (z) = 0.24861 0.10671
#
# Static dielectric constant tensor:
#      x y z
#    x 4.398630 0.097490 0.159420 
#    y 0.097490 3.687680 0.175570 
#    z 0.159420 0.175570 3.868270 
# 
# 
# High freq. dielectric constant tensor:
#      x y z
#    x 1.900020 -0.001940 0.006830 
#    y -0.001940 1.843570 0.019610 
#    z 0.006830 0.019610 1.863820 
# 
# From -- ./inp_files/204688.got.cif
#   From: 2010.06.25/outbox.cif.g09.slc.cpg/sg2_103_cif.got.tgz:204688.got - 2010.06.27 13:26:56.
