data_PCOD8043910
_publ_section_title
;
Structure prediction by ZEFSAII (Michael W. Deem and Ramdas Pophale) SiO2 
 PCOD8043910
Probable space group: P -1
;
_chemical_formula_sum "Si O2"
_cell_formula_units_Z 16
_cell_length_a 11.380269
_cell_length_b 16.963708
_cell_length_c 17.092389
_cell_angle_alpha 31.023770
_cell_angle_beta 148.391310
_cell_angle_gamma 148.838289
_cell_volume 788.624733
_symmetry_space_group_name_H-M "P -1"
_symmetry_group_IT_number 2
_symmetry_cell_setting 'triclinic'
loop_
_space_group_symop_operation_xyz
x,y,z
-x,-y,-z
loop_
_atom_site_type_symbol
_atom_site_label
_atom_site_fract_x
_atom_site_fract_y
_atom_site_fract_z
Si Si1 0.918031 0.340954 0.463848
Si Si2 0.722743 0.507955 0.671450
Si Si3 0.794023 0.173421 0.377960
Si Si4 0.439653 0.792290 0.483181
Si Si5 0.988113 0.635809 0.134915
Si Si6 0.982249 0.163779 0.885923
Si Si7 0.458079 0.612185 0.003619
Si Si8 0.529695 0.527797 0.281175
O O1 0.836650 0.192510 0.478957
O O2 0.682224 0.289782 0.432382
O O3 0.984858 0.518870 0.306410
O O4 0.165771 0.353685 0.638648
O O5 0.500000 0.500000 0.500000
O O6 0.625274 0.455807 0.747878
O O7 0.951428 0.703478 0.629939
O O8 0.809270 0.367757 0.808981
O O9 0.696519 0.972243 0.478859
O O10 0.581659 0.226790 0.184265
O O11 0.525476 0.669059 0.591655
O O12 0.230328 0.817609 0.296782
O O13 0.069494 0.827278 0.056199
O O14 0.717583 0.558319 0.002358
O O15 0.249247 0.337580 0.883593
O O16 0.000000 0.000000 0.000000
O O17 0.408644 0.581112 0.094589
#
# Coordination Sequence:
#
# PCOD8043910 Si02
#       8
#     2   2   2   2   2   2   2   2
#     4  10  19  37  61  84 119 153 202 242 292 355
#     4  10  19  40  66  85 115 162 208 242 284 358
#     4  10  23  39  58  89 123 160 193 247 306 355
#     4  12  22  36  58  97 123 147 198 259 300 349
#     4  10  22  39  60  87 117 160 209 237 292 363
#     4  12  21  36  60  88 124 159 188 246 316 354
#     4  10  22  38  59  90 118 159 204 240 298 354
#     4  12  21  37  66  90 114 162 210 243 285 352
#
# _framework density 20.288484
#
# number of rings (size 3 to 8) (size 9 to 14) (size 15 to 20)
#    0.000    1.500    6.250    1.875    0.000    3.500 
#    2.250    0.000    0.000    0.750    0.000    0.000 
#    0.000    0.000    0.000    0.000    0.000    0.000 
#
# Total GULP energy -198262.755463 kJ/mol
# GULP energy per Si atom -12391.422216 kJ/mol
# Density = 2.024231 g / cm^3
# Si number density = 20.288484 Si / 1000 Ang^3
#
#
#
# Elastic Constant Matrix: (Units=GPa)
#
#
# Indices 1 2 3 4 5 6 
#
# 1 123.1747 36.6948 24.5899 -5.4119 8.3172 -18.3350
# 2 36.6948 93.6432 33.7772 8.4953 11.1289 -20.0427
# 3 24.5899 33.7772 51.7018 9.6642 -6.8025 -24.3237
# 4 -5.4119 8.4953 9.6642 28.3101 -7.0898 2.5117
# 5 8.3172 11.1289 -6.8025 -7.0898 34.0388 2.1918
# 6 -18.3350 -20.0427 -24.3237 2.5117 2.1918 38.0608
#
#
#
# Elastic Compliance Matrix: (Units=1/GPa)
#
#
# Indices 1 2 3 4 5 6 
#
# 1 0.009983 -0.002545 -0.003354 0.003292 -0.001669 0.001205
# 2 -0.002545 0.016700 -0.008432 -0.004813 -0.007715 0.002942
# 3 -0.003354 -0.008432 0.038297 -0.010900 0.007756 0.018692
# 4 0.003292 -0.004813 -0.010900 0.044261 0.008539 -0.011327
# 5 -0.001669 -0.007715 0.007756 0.008539 0.035801 -0.002536
# 6 0.001205 0.002942 0.018692 -0.011327 -0.002536 0.041242
#
#
# Mechanical properties :
#
#
# Convention : Reuss Voigt Hill
#
# Bulk Modulus (GPa) = 27.53297 50.96037 39.24667
# Shear Modulus (GPa) = 22.02150 31.64579 26.83365
#
# Velocity S-wave (km/s) = 3.29814 3.95370 3.64071
# Velocity P-wave (km/s) = 5.30131 6.78342 6.08764
#
# Compressibility (1/GPa) = 0.03632009
#
# Stress axis : x y z
#
# Youngs Moduli (GPa) = 100.17238 59.87848 26.11174
#
# Poissons Ratio (x) = 0.15236 0.08757
# Poissons Ratio (y) = 0.25489 0.22017
# Poissons Ratio (z) = 0.33596 0.50488
#
# Static dielectric constant tensor:
#      x y z
#    x 2.930760 -1.134510 0.351450 
#    y -1.134510 3.964010 -0.027970 
#    z 0.351450 -0.027970 3.815000 
# 
# 
# High freq. dielectric constant tensor:
#      x y z
#    x 1.792640 -0.020130 -0.000250 
#    y -0.020130 1.786500 0.027720 
#    z -0.000250 0.027720 1.781180 
# 
# From -- ./inp_files/225730.got.cif
#   From: 2010.06.25/outbox.cif.g09.slc.cpg/sg2_113_cif.got.tgz:225730.got - 2010.06.27 13:26:56.
