data_PCOD8043923
_publ_section_title
;
Structure prediction by ZEFSAII (Michael W. Deem and Ramdas Pophale) SiO2 
 PCOD8043923
Probable space group: P -1
;
_chemical_formula_sum "Si O2"
_cell_formula_units_Z 14
_cell_length_a 9.448724
_cell_length_b 19.962301
_cell_length_c 8.099737
_cell_angle_alpha 48.852981
_cell_angle_beta 44.798085
_cell_angle_gamma 34.702970
_cell_volume 602.162865
_symmetry_space_group_name_H-M "P -1"
_symmetry_group_IT_number 2
_symmetry_cell_setting 'triclinic'
loop_
_space_group_symop_operation_xyz
x,y,z
-x,-y,-z
loop_
_atom_site_type_symbol
_atom_site_label
_atom_site_fract_x
_atom_site_fract_y
_atom_site_fract_z
Si Si1 0.529604 0.052496 0.055118
Si Si2 0.799196 0.355234 0.584035
Si Si3 0.971297 0.218862 0.356087
Si Si4 0.275540 0.432397 0.784831
Si Si5 0.780502 0.003867 0.264768
Si Si6 0.660015 0.826878 0.381625
Si Si7 0.512754 0.237697 0.642705
O O1 0.597105 0.014826 0.254345
O O2 0.211958 0.172811 0.109751
O O3 0.595430 0.930558 0.137003
O O4 0.675854 0.097282 0.789599
O O5 0.877191 0.329881 0.364702
O O6 0.528658 0.374217 0.796814
O O7 0.745169 0.475379 0.468477
O O8 0.040646 0.247740 0.673125
O O9 0.729710 0.249037 0.397112
O O10 0.051060 0.120756 0.581930
O O11 0.327645 0.329711 0.795995
O O12 0.000000 0.500000 0.000000
O O13 0.574416 0.115313 0.380118
O O14 0.000000 0.000000 0.000000
O O15 0.658420 0.737181 0.419232
#
# Coordination Sequence:
#
# PCOD8043923 Si02
#       7
#     2   2   2   2   2   2   2
#     4  11  20  38  61  88 125 164 198 235 291 374
#     4  10  20  40  64  84 116 158 203 246 300 352
#     4  10  19  37  61  86 120 160 201 241 290 360
#     4  10  23  41  65  88 111 158 209 250 296 363
#     4  11  20  35  63  91 119 164 209 233 290 363
#     4  11  23  39  60  93 127 157 195 255 300 350
#     4  11  24  39  59  91 128 155 199 250 306 345
#
# _framework density 23.249524000000001
#
# number of rings (size 3 to 8) (size 9 to 14) (size 15 to 20)
#    0.000    1.429    4.286    2.143    0.000    2.857 
#    2.571    0.714    0.000    0.000    0.000    0.000 
#    0.000    0.000    0.000    0.000    0.000    0.000 
#
# Total GULP energy -173490.716848 kJ/mol
# GULP energy per Si atom -12392.194061 kJ/mol
# Density = 2.319661 g / cm^3
# Si number density = 23.249524 Si / 1000 Ang^3
#
#
#
# Elastic Constant Matrix: (Units=GPa)
#
#
# Indices 1 2 3 4 5 6 
#
# 1 126.8882 49.3316 24.6113 18.0976 -19.4670 11.5990
# 2 49.3316 97.6635 21.7493 7.2863 -9.3686 3.7590
# 3 24.6113 21.7493 63.5953 17.0331 -10.0804 -3.6927
# 4 18.0976 7.2863 17.0331 37.0348 -4.9469 -9.4001
# 5 -19.4670 -9.3686 -10.0804 -4.9469 23.0504 3.8555
# 6 11.5990 3.7590 -3.6927 -9.4001 3.8555 46.9963
#
#
#
# Elastic Compliance Matrix: (Units=1/GPa)
#
#
# Indices 1 2 3 4 5 6 
#
# 1 0.012086 -0.004669 -0.000873 -0.004640 0.007640 -0.004233
# 2 -0.004669 0.013203 -0.002942 0.001100 0.000364 0.000055
# 3 -0.000873 -0.002942 0.019879 -0.007423 0.005150 0.000106
# 4 -0.004640 0.001100 -0.007423 0.034259 -0.000599 0.007376
# 5 0.007640 0.000364 0.005150 -0.000599 0.053109 -0.005987
# 6 -0.004233 0.000055 0.000106 0.007376 -0.005987 0.024293
#
#
# Mechanical properties :
#
#
# Convention : Reuss Voigt Hill
#
# Bulk Modulus (GPa) = 35.45944 53.28127 44.37036
# Shear Modulus (GPa) = 27.29303 34.24660 30.76982
#
# Velocity S-wave (km/s) = 3.42997 3.84213 3.64189
# Velocity P-wave (km/s) = 5.56516 6.53066 6.06715
#
# Compressibility (1/GPa) = 0.02820123
#
# Stress axis : x y z
#
# Youngs Moduli (GPa) = 82.73908 75.73790 50.30437
#
# Poissons Ratio (x) = 0.35359 0.04390
# Poissons Ratio (y) = 0.38628 0.14802
# Poissons Ratio (z) = 0.07220 0.22285
#
# Static dielectric constant tensor:
#      x y z
#    x 4.535410 0.094600 -0.174680 
#    y 0.094600 4.297650 0.103440 
#    z -0.174680 0.103440 3.965420 
# 
# 
# High freq. dielectric constant tensor:
#      x y z
#    x 1.937700 0.013930 -0.018400 
#    y 0.013930 1.915650 0.007120 
#    z -0.018400 0.007120 1.899250 
# 
# From -- ./inp_files/187025.got.cif
#   From: 2010.06.25/outbox.cif.g09.slc.cpg/sg2_94_cif.got.tgz:187025.got - 2010.06.27 13:26:56.
