data_PCOD8043902
_publ_section_title
;
Structure prediction by ZEFSAII (Michael W. Deem and Ramdas Pophale) SiO2 
 PCOD8043902
Probable space group: P -1
;
_chemical_formula_sum "Si O2"
_cell_formula_units_Z 14
_cell_length_a 11.383844
_cell_length_b 7.533747
_cell_length_c 20.737642
_cell_angle_alpha 56.899579
_cell_angle_beta 30.235307
_cell_angle_gamma 58.052002
_cell_volume 743.278636
_symmetry_space_group_name_H-M "P -1"
_symmetry_group_IT_number 2
_symmetry_cell_setting 'triclinic'
loop_
_space_group_symop_operation_xyz
x,y,z
-x,-y,-z
loop_
_atom_site_type_symbol
_atom_site_label
_atom_site_fract_x
_atom_site_fract_y
_atom_site_fract_z
Si Si1 0.440714 0.373420 0.139606
Si Si2 0.879889 0.992002 0.300832
Si Si3 0.697897 0.844088 0.635852
Si Si4 0.571233 0.730574 0.578619
Si Si5 0.705543 0.195865 0.935855
Si Si6 0.763211 0.250689 0.600458
Si Si7 0.730280 0.966947 0.789500
O O1 0.470571 0.292574 0.215295
O O2 0.359482 0.626719 0.124826
O O3 0.239957 0.243932 0.228877
O O4 0.681792 0.311626 0.995006
O O5 0.699018 0.199749 0.327153
O O6 0.051983 0.057345 0.261043
O O7 0.742065 0.801247 0.428336
O O8 0.030997 0.916637 0.180058
O O9 0.618271 0.849915 0.598859
O O10 0.963121 0.725413 0.541879
O O11 0.679063 0.088236 0.620384
O O12 0.607841 0.476988 0.618460
O O13 0.517729 0.024519 0.055729
O O14 0.721929 0.177089 0.707719
#
# Coordination Sequence:
#
# PCOD8043902 Si02
#       7
#     2   2   2   2   2   2   2
#     4   8  18  33  60  87 102 143 199 229 279 314
#     4  11  22  38  53  83 120 147 182 231 283 339
#     4  10  19  37  61  83 111 144 193 241 266 334
#     4  11  24  38  55  86 119 150 182 229 293 333
#     4   9  18  36  57  85 110 146 188 233 275 331
#     4  10  20  36  61  86 108 145 196 232 279 324
#     4   9  18  35  59  82 108 139 194 232 264 333
#
# _framework density 18.835467000000001
#
# number of rings (size 3 to 8) (size 9 to 14) (size 15 to 20)
#    0.857    1.429    1.429    1.714    2.000    0.000 
#    2.571    2.857    0.000    0.000    0.000    0.000 
#    0.000    0.000    0.000    0.000    0.000    0.000 
#
# Total GULP energy -173516.167697 kJ/mol
# GULP energy per Si atom -12394.011978 kJ/mol
# Density = 1.879260 g / cm^3
# Si number density = 18.835467 Si / 1000 Ang^3
#
#
#
# Elastic Constant Matrix: (Units=GPa)
#
#
# Indices 1 2 3 4 5 6 
#
# 1 54.4227 45.6445 37.6643 7.6424 5.2248 -11.7211
# 2 45.6445 117.7300 61.3875 1.9789 0.9067 -18.3843
# 3 37.6643 61.3875 123.1307 6.2876 5.2887 -16.3766
# 4 7.6424 1.9789 6.2876 27.5934 -5.3824 0.9152
# 5 5.2248 0.9067 5.2887 -5.3824 21.3305 0.7652
# 6 -11.7211 -18.3843 -16.3766 0.9152 0.7652 20.3974
#
#
#
# Elastic Compliance Matrix: (Units=1/GPa)
#
#
# Indices 1 2 3 4 5 6 
#
# 1 0.032612 -0.009383 -0.003264 -0.009758 -0.009546 0.008458
# 2 -0.009383 0.014993 -0.004317 0.003012 0.003334 0.004395
# 3 -0.003264 -0.004317 0.012046 -0.002195 -0.002705 0.004105
# 4 -0.009758 0.003012 -0.002195 0.042132 0.013691 -0.007059
# 5 -0.009546 0.003334 -0.002705 0.013691 0.053464 -0.007272
# 6 0.008458 0.004395 0.004105 -0.007059 -0.007272 0.061733
#
#
# Mechanical properties :
#
#
# Convention : Reuss Voigt Hill
#
# Bulk Modulus (GPa) = 38.87718 64.96399 51.92059
# Shear Modulus (GPa) = 19.26901 23.90339 21.58620
#
# Velocity S-wave (km/s) = 3.20193 3.56626 3.38899
# Velocity P-wave (km/s) = 5.86132 7.17793 6.55278
#
# Compressibility (1/GPa) = 0.02572203
#
# Stress axis : x y z
#
# Youngs Moduli (GPa) = 30.66353 66.69758 83.01179
#
# Poissons Ratio (x) = 0.62586 0.27097
# Poissons Ratio (y) = 0.28773 0.35836
# Poissons Ratio (z) = 0.10009 0.28793
#
# Static dielectric constant tensor:
#      x y z
#    x 3.174920 0.068670 0.221530 
#    y 0.068670 3.215900 -0.052250 
#    z 0.221530 -0.052250 3.697850 
# 
# 
# High freq. dielectric constant tensor:
#      x y z
#    x 1.701300 0.010670 0.023690 
#    y 0.010670 1.718210 -0.011210 
#    z 0.023690 -0.011210 1.743180 
# 
# From -- ./inp_files/219693.got.cif
#   From: 2010.06.25/outbox.cif.g09.slc.cpg/sg2_110_cif.got.tgz:219693.got - 2010.06.27 13:26:56.
