data_PCOD8043082
_publ_section_title
;
Structure prediction by ZEFSAII (Michael W. Deem and Ramdas Pophale) SiO2 
 PCOD8043082
Probable space group: P -1
;
_chemical_formula_sum "Si O2"
_cell_formula_units_Z 14
_cell_length_a 10.574438
_cell_length_b 14.650710
_cell_length_c 14.986209
_cell_angle_alpha 27.657119
_cell_angle_beta 119.029356
_cell_angle_gamma 138.666240
_cell_volume 576.445031
_symmetry_space_group_name_H-M "P -1"
_symmetry_group_IT_number 2
_symmetry_cell_setting 'triclinic'
loop_
_space_group_symop_operation_xyz
x,y,z
-x,-y,-z
loop_
_atom_site_type_symbol
_atom_site_label
_atom_site_fract_x
_atom_site_fract_y
_atom_site_fract_z
Si Si1 0.855775 0.374339 0.250730
Si Si2 0.906441 0.695595 0.824015
Si Si3 0.665425 0.270267 0.941058
Si Si4 0.902472 0.495063 0.356236
Si Si5 0.326136 0.176495 0.426830
Si Si6 0.326397 0.246150 0.838642
Si Si7 0.262705 0.575246 0.458861
O O1 0.111089 0.542610 0.205680
O O2 0.780212 0.373594 0.322439
O O3 0.660049 0.009611 0.464192
O O4 0.884300 0.587310 0.009255
O O5 0.753312 0.399181 0.960394
O O6 0.814418 0.819576 0.686451
O O7 0.179205 0.983001 0.636101
O O8 0.537836 0.328565 0.808171
O O9 0.483156 0.893206 0.202625
O O10 0.018240 0.403049 0.487693
O O11 0.707387 0.319184 0.518553
O O12 0.097942 0.876045 0.107486
O O13 0.584298 0.536580 0.230689
O O14 0.263111 0.337369 0.661029
#
# Coordination Sequence:
#
# PCOD8043082 Si02
#       7
#     2   2   2   2   2   2   2
#     4  11  20  35  56  87 115 134 175 237 272 307
#     4   9  17  32  54  81 114 145 174 216 271 329
#     4   9  19  34  58  84 106 140 184 220 270 329
#     4  10  24  37  55  82 109 143 187 224 269 322
#     4   9  18  33  56  82 109 145 180 212 272 333
#     4  10  19  36  58  78 104 146 186 217 262 327
#     4  10  20  40  58  72 108 155 184 216 268 329
#
# _framework density 24.286791999999998
#
# number of rings (size 3 to 8) (size 9 to 14) (size 15 to 20)
#    0.000    2.286    0.000    4.714    0.000    3.429 
#    0.000    6.429    0.000   10.286    0.000    0.000 
#    0.000    0.000    0.000    0.000    0.000    0.000 
#
# Total GULP energy -173575.256018 kJ/mol
# GULP energy per Si atom -12398.232573 kJ/mol
# Density = 2.423151 g / cm^3
# Si number density = 24.286792 Si / 1000 Ang^3
#
#
#
# Elastic Constant Matrix: (Units=GPa)
#
#
# Indices 1 2 3 4 5 6 
#
# 1 40.6093 15.5999 28.4424 11.5794 5.8486 9.4564
# 2 15.5999 66.9782 24.7221 8.2115 13.0397 -17.4741
# 3 28.4424 24.7221 92.3637 4.2775 30.1531 3.3490
# 4 11.5794 8.2115 4.2775 44.8674 7.8229 0.7968
# 5 5.8486 13.0397 30.1531 7.8229 28.6845 7.7028
# 6 9.4564 -17.4741 3.3490 0.7968 7.7028 37.7715
#
#
#
# Elastic Compliance Matrix: (Units=1/GPa)
#
#
# Indices 1 2 3 4 5 6 
#
# 1 0.046261 -0.012886 -0.017018 -0.011601 0.022977 -0.020475
# 2 -0.012886 0.024806 0.001681 0.001003 -0.015437 0.017680
# 3 -0.017018 0.001681 0.023469 0.006207 -0.025831 0.008094
# 4 -0.011601 0.001003 0.006207 0.026726 -0.013234 0.004953
# 5 0.022977 -0.015437 -0.025831 -0.013234 0.074828 -0.025584
# 6 -0.020475 0.017680 0.008094 0.004953 -0.025584 0.044176
#
#
# Mechanical properties :
#
#
# Convention : Reuss Voigt Hill
#
# Bulk Modulus (GPa) = 26.25366 37.49778 31.87572
# Shear Modulus (GPa) = 16.15979 31.01048 23.58513
#
# Velocity S-wave (km/s) = 2.58228 3.57717 3.11964
# Velocity P-wave (km/s) = 4.44120 5.70392 5.11170
#
# Compressibility (1/GPa) = 0.03808993
#
# Stress axis : x y z
#
# Youngs Moduli (GPa) = 21.61655 40.31235 42.60874
#
# Poissons Ratio (x) = 0.51947 0.72510
# Poissons Ratio (y) = 0.27855 -0.07161
# Poissons Ratio (z) = 0.36786 -0.06775
#
# Static dielectric constant tensor:
#      x y z
#    x 4.245830 0.311120 0.283710 
#    y 0.311120 4.174150 0.023270 
#    z 0.283710 0.023270 4.329870 
# 
# 
# High freq. dielectric constant tensor:
#      x y z
#    x 1.949860 0.027310 0.019810 
#    y 0.027310 1.948830 0.000780 
#    z 0.019810 0.000780 1.960800 
# 
# From -- ./inp_files/331437.got.cif
#   From: 2010.06.25/outbox.cif.g09.slc.cpg/sg2_166_cif.got.tgz:331437.got - 2010.06.27 13:26:56.
