data_PCOD8043944
_publ_section_title
;
Structure prediction by ZEFSAII (Michael W. Deem and Ramdas Pophale) SiO2 
 PCOD8043944
Probable space group: P -1
;
_chemical_formula_sum "Si O2"
_cell_formula_units_Z 16
_cell_length_a 18.065412
_cell_length_b 9.860730
_cell_length_c 8.618240
_cell_angle_alpha 45.058759
_cell_angle_beta 59.674778
_cell_angle_gamma 49.945003
_cell_volume 828.184075
_symmetry_space_group_name_H-M "P -1"
_symmetry_group_IT_number 2
_symmetry_cell_setting 'triclinic'
loop_
_space_group_symop_operation_xyz
x,y,z
-x,-y,-z
loop_
_atom_site_type_symbol
_atom_site_label
_atom_site_fract_x
_atom_site_fract_y
_atom_site_fract_z
Si Si1 0.091034 0.278922 0.539581
Si Si2 0.641081 0.240746 0.515033
Si Si3 0.106755 0.937527 0.002355
Si Si4 0.203521 0.659118 0.856845
Si Si5 0.288042 0.240880 0.252931
Si Si6 0.528255 0.434105 0.783842
Si Si7 0.982838 0.000113 0.340422
Si Si8 0.451822 0.237424 0.280206
O O1 0.179545 0.314858 0.363833
O O2 0.000000 0.500000 0.500000
O O3 0.127687 0.135041 0.773876
O O4 0.061603 0.157915 0.534939
O O5 0.745382 0.226702 0.387941
O O6 0.609294 0.301377 0.677259
O O7 0.570609 0.411274 0.325824
O O8 0.649506 0.005696 0.667597
O O9 0.190519 0.724333 0.002819
O O10 0.000000 0.000000 0.000000
O O11 0.091377 0.921945 0.214711
O O12 0.095389 0.752192 0.824364
O O13 0.270066 0.398792 0.994772
O O14 0.347010 0.286066 0.288833
O O15 0.564155 0.581150 0.721972
O O16 0.514288 0.264581 0.049287
O O17 0.000000 0.000000 0.500000
O O18 0.500000 0.000000 0.500000
#
# Coordination Sequence:
#
# PCOD8043944 Si02
#       8
#     2   2   2   2   2   2   2   2
#     4  10  19  37  61  89 117 161 211 244 301 386
#     4  11  21  41  66  90 121 168 206 255 318 378
#     4   8  16  34  58  80 114 159 193 236 305 368
#     4  10  20  39  59  90 120 162 207 249 309 384
#     4  12  21  37  68  90 121 164 213 256 304 385
#     4  10  24  42  63  90 130 165 202 262 321 372
#     4  10  20  38  61  85 123 160 201 263 316 354
#     4  11  23  41  64  94 128 163 210 260 315 373
#
# _framework density 19.319375999999998
#
# number of rings (size 3 to 8) (size 9 to 14) (size 15 to 20)
#    0.000    2.000    5.000    2.250    0.000    1.500 
#    4.500    2.500    0.000    0.000    0.000    0.000 
#    0.000    0.000    0.000    0.000    0.000    0.000 
#
# Total GULP energy -198224.782692 kJ/mol
# GULP energy per Si atom -12389.048918 kJ/mol
# Density = 1.927540 g / cm^3
# Si number density = 19.319376 Si / 1000 Ang^3
#
#
#
# Elastic Constant Matrix: (Units=GPa)
#
#
# Indices 1 2 3 4 5 6 
#
# 1 82.1476 42.5336 46.3527 8.9246 -1.7118 8.8056
# 2 42.5336 109.1171 63.8203 13.5954 3.5171 1.1797
# 3 46.3527 63.8203 128.0193 1.6871 6.1943 13.6315
# 4 8.9246 13.5954 1.6871 45.1315 0.1208 5.3175
# 5 -1.7118 3.5171 6.1943 0.1208 30.0696 -0.6489
# 6 8.8056 1.1797 13.6315 5.3175 -0.6489 23.7562
#
#
#
# Elastic Compliance Matrix: (Units=1/GPa)
#
#
# Indices 1 2 3 4 5 6 
#
# 1 0.017122 -0.004323 -0.003749 -0.001528 0.002181 -0.003579
# 2 -0.004323 0.015098 -0.006463 -0.004094 -0.000546 0.005462
# 3 -0.003749 -0.006463 0.013163 0.002977 -0.002323 -0.006573
# 4 -0.001528 -0.004094 0.002977 0.024337 -0.000457 -0.006398
# 5 0.002181 -0.000546 -0.002323 -0.000457 0.033959 0.001581
# 6 -0.003579 0.005462 -0.006573 -0.006398 0.001581 0.048397
#
#
# Mechanical properties :
#
#
# Convention : Reuss Voigt Hill
#
# Bulk Modulus (GPa) = 61.29401 69.41080 65.35240
# Shear Modulus (GPa) = 26.79788 30.89661 28.84725
#
# Velocity S-wave (km/s) = 3.72842 4.00341 3.86836
# Velocity P-wave (km/s) = 7.09439 7.57468 7.33847
#
# Compressibility (1/GPa) = 0.01631481
#
# Stress axis : x y z
#
# Youngs Moduli (GPa) = 58.40533 66.23374 75.96783
#
# Poissons Ratio (x) = 0.28631 0.28478
# Poissons Ratio (y) = 0.25247 0.49096
# Poissons Ratio (z) = 0.21894 0.42805
#
# Static dielectric constant tensor:
#      x y z
#    x 3.303740 -0.044840 -0.081160 
#    y -0.044840 3.704540 0.171330 
#    z -0.081160 0.171330 4.238750 
# 
# 
# High freq. dielectric constant tensor:
#      x y z
#    x 1.726060 -0.012320 -0.010670 
#    y -0.012320 1.752560 -0.003560 
#    z -0.010670 -0.003560 1.765220 
# 
# From -- ./inp_files/327061.got.cif
#   From: 2010.06.25/outbox.cif.g09.slc.cpg/sg2_164_cif.got.tgz:327061.got - 2010.06.27 13:26:56.
