data_PCOD8043491
_publ_section_title
;
Structure prediction by ZEFSAII (Michael W. Deem and Ramdas Pophale) SiO2 
 PCOD8043491
Probable space group: P -1
;
_chemical_formula_sum "Si O2"
_cell_formula_units_Z 14
_cell_length_a 22.894063
_cell_length_b 8.288923
_cell_length_c 7.176878
_cell_angle_alpha 60.084069
_cell_angle_beta 78.299555
_cell_angle_gamma 127.337930
_cell_volume 638.220704
_symmetry_space_group_name_H-M "P -1"
_symmetry_group_IT_number 2
_symmetry_cell_setting 'triclinic'
loop_
_space_group_symop_operation_xyz
x,y,z
-x,-y,-z
loop_
_atom_site_type_symbol
_atom_site_label
_atom_site_fract_x
_atom_site_fract_y
_atom_site_fract_z
Si Si1 0.399361 0.767131 0.962233
Si Si2 0.386873 0.541899 0.464984
Si Si3 0.173968 0.135941 0.969052
Si Si4 0.815173 0.424613 0.235891
Si Si5 0.173096 0.294099 0.249872
Si Si6 0.399425 0.356039 0.214916
Si Si7 0.977277 0.258894 0.035364
O O1 0.512256 0.171496 0.622694
O O2 0.382482 0.708462 0.230991
O O3 0.301306 0.621756 0.017085
O O4 0.405325 0.573229 0.985475
O O5 0.274060 0.254152 0.813935
O O6 0.398998 0.384296 0.424934
O O7 0.204743 0.431468 0.727466
O O8 0.076748 0.820273 0.078928
O O9 0.140777 0.048084 0.260615
O O10 0.710053 0.026645 0.556325
O O11 0.844599 0.549578 0.926684
O O12 0.914246 0.570821 0.178374
O O13 0.104051 0.087865 0.598660
O O14 0.500000 0.500000 0.000000
O O15 0.000000 0.500000 0.000000
#
# Coordination Sequence:
#
# PCOD8043491 Si02
#       7
#     2   2   2   2   2   2   2
#     4   9  18  36  63  83 120 167 195 241 302 345
#     4   9  18  35  63  84 119 165 198 238 297 353
#     4  10  22  38  62  88 121 154 206 237 308 350
#     4  10  23  37  60  92 122 154 201 254 292 355
#     4  10  23  37  64  90 120 155 205 245 300 352
#     4  10  19  36  63  89 119 161 202 239 299 360
#     4  12  22  43  66  83 123 161 196 249 304 353
#
# _framework density 21.935984000000001
#
# number of rings (size 3 to 8) (size 9 to 14) (size 15 to 20)
#    1.714    0.286    1.429    3.429    0.000    1.143 
#    0.000    0.714    6.286    0.000    0.000    0.000 
#    0.000    0.000    0.000    0.000    0.000    0.000 
#
# Total GULP energy -173447.347250 kJ/mol
# GULP energy per Si atom -12389.096232 kJ/mol
# Density = 2.188606 g / cm^3
# Si number density = 21.935984 Si / 1000 Ang^3
#
#
#
# Elastic Constant Matrix: (Units=GPa)
#
#
# Indices 1 2 3 4 5 6 
#
# 1 47.9789 16.0808 21.3837 -11.3081 -27.4100 -1.4394
# 2 16.0808 102.6760 24.0278 -21.8587 -16.4293 5.0738
# 3 21.3837 24.0278 70.6118 -10.4411 -35.9722 6.0097
# 4 -11.3081 -21.8587 -10.4411 38.6504 5.0951 -6.4620
# 5 -27.4100 -16.4293 -35.9722 5.0951 31.5726 0.9150
# 6 -1.4394 5.0738 6.0097 -6.4620 0.9150 44.2341
#
#
#
# Elastic Compliance Matrix: (Units=1/GPa)
#
#
# Indices 1 2 3 4 5 6 
#
# 1 0.052665 0.000381 0.019459 0.012062 0.066161 -0.000580
# 2 0.000381 0.011905 -0.000974 0.005917 0.004474 -0.000449
# 3 0.019459 -0.000974 0.042814 0.007364 0.064133 -0.005323
# 4 0.012062 0.005917 0.007364 0.033098 0.016507 0.003207
# 5 0.066161 0.004474 0.064133 0.016507 0.162078 -0.008015
# 6 -0.000580 -0.000449 -0.005323 0.003207 -0.008015 0.023997
#
#
# Mechanical properties :
#
#
# Convention : Reuss Voigt Hill
#
# Bulk Modulus (GPa) = 6.89098 38.25015 22.57056
# Shear Modulus (GPa) = 14.82813 33.54304 24.18559
#
# Velocity S-wave (km/s) = 2.60277 3.91466 3.32407
# Velocity P-wave (km/s) = 3.49010 6.15692 5.00442
#
# Compressibility (1/GPa) = 0.14511717
#
# Stress axis : x y z
#
# Youngs Moduli (GPa) = 18.98801 83.99587 23.35681
#
# Poissons Ratio (x) = -0.03201 -0.45451
# Poissons Ratio (y) = -0.00724 0.02275
# Poissons Ratio (z) = -0.36950 0.08182
#
# Static dielectric constant tensor:
#      x y z
#    x 3.646170 0.069130 -0.175330 
#    y 0.069130 3.868150 -0.100460 
#    z -0.175330 -0.100460 3.701090 
# 
# 
# High freq. dielectric constant tensor:
#      x y z
#    x 1.841070 0.006970 -0.022470 
#    y 0.006970 1.861590 -0.012420 
#    z -0.022470 -0.012420 1.842410 
# 
# From -- ./inp_files/356222.got.cif
#   From: 2010.06.25/outbox.cif.g09.slc.cpg/sg2_179_cif.got.tgz:356222.got - 2010.06.27 13:26:56.
