data_PCOD8043441
_publ_section_title
;
Structure prediction by ZEFSAII (Michael W. Deem and Ramdas Pophale) SiO2 
 PCOD8043441
Probable space group: P -1
;
_chemical_formula_sum "Si O2"
_cell_formula_units_Z 16
_cell_length_a 14.738622
_cell_length_b 12.125427
_cell_length_c 7.600339
_cell_angle_alpha 106.112283
_cell_angle_beta 57.666904
_cell_angle_gamma 140.285414
_cell_volume 710.412899
_symmetry_space_group_name_H-M "P -1"
_symmetry_group_IT_number 2
_symmetry_cell_setting 'triclinic'
loop_
_space_group_symop_operation_xyz
x,y,z
-x,-y,-z
loop_
_atom_site_type_symbol
_atom_site_label
_atom_site_fract_x
_atom_site_fract_y
_atom_site_fract_z
Si Si1 0.967123 0.080276 0.841501
Si Si2 0.615036 0.804443 0.485676
Si Si3 0.982375 0.599122 0.675000
Si Si4 0.241408 0.269795 0.913756
Si Si5 0.635628 0.392114 0.043048
Si Si6 0.890972 0.108833 0.571771
Si Si7 0.597041 0.985321 0.000978
Si Si8 0.259736 0.910953 0.753079
O O1 0.990944 0.120920 0.625253
O O2 0.139346 0.235066 0.835926
O O3 0.839100 0.067521 0.042602
O O4 0.885418 0.887896 0.880148
O O5 0.622696 0.709946 0.290909
O O6 0.440864 0.659038 0.704453
O O7 0.778669 0.925845 0.497007
O O8 0.622663 0.937166 0.450034
O O9 0.000000 0.500000 0.500000
O O10 0.986678 0.719679 0.607280
O O11 0.132855 0.717067 0.711852
O O12 0.807222 0.459737 0.898629
O O13 0.336306 0.454660 0.987087
O O14 0.505551 0.218821 0.976093
O O15 0.772451 0.108847 0.779276
O O16 0.625982 0.054867 0.200657
O O17 0.500000 0.000000 0.000000
#
# Coordination Sequence:
#
# PCOD8043441 Si02
#       8
#     2   2   2   2   2   2   2   2
#     4   9  18  36  63  90 122 168 202 246 315 375
#     4   9  20  38  62  87 127 164 197 247 316 377
#     4  11  22  41  64  91 123 159 215 267 302 357
#     4  10  19  36  62  92 123 161 206 251 310 366
#     4  11  22  40  59  94 126 153 208 271 292 357
#     4   9  20  39  59  88 125 166 205 248 307 383
#     4  10  21  42  65  87 123 168 206 252 318 373
#     4   9  19  42  64  87 122 169 202 246 318 381
#
# _framework density 22.522113999999998
#
# number of rings (size 3 to 8) (size 9 to 14) (size 15 to 20)
#    0.000    2.250    1.250    1.125    1.750    0.500 
#    4.500   20.625    0.000    0.000    0.000    0.000 
#    0.000    0.000    0.000    0.000    0.000    0.000 
#
# Total GULP energy -198366.308601 kJ/mol
# GULP energy per Si atom -12397.894288 kJ/mol
# Density = 2.247085 g / cm^3
# Si number density = 22.522114 Si / 1000 Ang^3
#
#
#
# Elastic Constant Matrix: (Units=GPa)
#
#
# Indices 1 2 3 4 5 6 
#
# 1 97.7884 23.4160 16.5020 2.5947 23.3641 19.4679
# 2 23.4160 113.5948 24.2698 6.4045 5.4289 6.2124
# 3 16.5020 24.2698 71.9067 -16.3432 1.0670 10.4343
# 4 2.5947 6.4045 -16.3432 32.5756 4.3494 -0.8425
# 5 23.3641 5.4289 1.0670 4.3494 36.5766 9.4729
# 6 19.4679 6.2124 10.4343 -0.8425 9.4729 21.1899
#
#
#
# Elastic Compliance Matrix: (Units=1/GPa)
#
#
# Indices 1 2 3 4 5 6 
#
# 1 0.014237 -0.001772 -0.001471 -0.000911 -0.006339 -0.009039
# 2 -0.001772 0.010210 -0.003977 -0.003863 0.000088 0.000400
# 3 -0.001471 -0.003977 0.018856 0.009957 0.001635 -0.007103
# 4 -0.000911 -0.003863 0.009957 0.037005 -0.003570 0.000134
# 5 -0.006339 0.000088 0.001635 -0.003570 0.034490 -0.010568
# 6 -0.009039 0.000400 -0.007103 0.000134 -0.010568 0.063606
#
#
# Mechanical properties :
#
#
# Convention : Reuss Voigt Hill
#
# Bulk Modulus (GPa) = 34.64456 45.74060 40.19258
# Shear Modulus (GPa) = 24.69579 32.67524 28.68551
#
# Velocity S-wave (km/s) = 3.31496 3.81308 3.57271
# Velocity P-wave (km/s) = 5.48341 6.30392 5.90792
#
# Compressibility (1/GPa) = 0.02886456
#
# Stress axis : x y z
#
# Youngs Moduli (GPa) = 70.24087 97.94532 53.03327
#
# Poissons Ratio (x) = 0.17355 0.07799
# Poissons Ratio (y) = 0.12446 0.21089
# Poissons Ratio (z) = 0.10329 0.38949
#
# Static dielectric constant tensor:
#      x y z
#    x 3.985840 0.049280 0.240850 
#    y 0.049280 4.071290 0.067160 
#    z 0.240850 0.067160 4.200700 
# 
# 
# High freq. dielectric constant tensor:
#      x y z
#    x 1.861390 -0.006350 -0.002550 
#    y -0.006350 1.881560 0.005110 
#    z -0.002550 0.005110 1.894480 
# 
# From -- ./inp_files/305368.got.cif
#   From: 2010.06.25/outbox.cif.g09.slc.cpg/sg2_153_cif.got.tgz:305368.got - 2010.06.27 13:26:56.
