data_PCOD8043208
_publ_section_title
;
Structure prediction by ZEFSAII (Michael W. Deem and Ramdas Pophale) SiO2 
 PCOD8043208
Probable space group: P -1
;
_chemical_formula_sum "Si O2"
_cell_formula_units_Z 16
_cell_length_a 13.584358
_cell_length_b 9.128926
_cell_length_c 22.598575
_cell_angle_alpha 146.582823
_cell_angle_beta 29.141420
_cell_angle_gamma 131.571332
_cell_volume 728.842097
_symmetry_space_group_name_H-M "P -1"
_symmetry_group_IT_number 2
_symmetry_cell_setting 'triclinic'
loop_
_space_group_symop_operation_xyz
x,y,z
-x,-y,-z
loop_
_atom_site_type_symbol
_atom_site_label
_atom_site_fract_x
_atom_site_fract_y
_atom_site_fract_z
Si Si1 0.908483 0.706970 0.066369
Si Si2 0.163515 0.008000 0.968234
Si Si3 0.075196 0.903783 0.580957
Si Si4 0.499105 0.842232 0.387406
Si Si5 0.978787 0.568431 0.626591
Si Si6 0.552353 0.692010 0.709585
Si Si7 0.785852 0.461642 0.929014
Si Si8 0.549729 0.844893 0.983974
O O1 0.683511 0.885352 0.263480
O O2 0.892785 0.536489 0.957907
O O3 0.051035 0.926183 0.058220
O O4 0.000000 0.500000 0.000000
O O5 0.218959 0.302940 0.038369
O O6 0.389262 0.783477 0.771501
O O7 0.000000 0.000000 0.000000
O O8 0.292917 0.973985 0.503861
O O9 0.982042 0.791834 0.649973
O O10 0.106024 0.681970 0.438334
O O11 0.922537 0.184739 0.735315
O O12 0.520298 0.523811 0.282888
O O13 0.500000 0.000000 0.500000
O O14 0.215315 0.441853 0.483819
O O15 0.801607 0.721463 0.817898
O O16 0.542774 0.953565 0.845261
O O17 0.557494 0.413227 0.045400
O O18 0.500000 0.000000 0.000000
#
# Coordination Sequence:
#
# PCOD8043208 Si02
#       8
#     2   2   2   2   2   2   2   2
#     4  11  21  40  67  96 120 172 234 269 325 402
#     4  10  25  43  67  91 134 181 221 275 339 399
#     4  10  19  36  59  94 133 167 207 276 333 385
#     4  11  23  36  66  99 130 164 225 286 332 382
#     4  10  20  37  62  99 130 164 221 273 325 389
#     4  11  23  42  64  96 135 171 219 276 339 392
#     4  11  22  40  67  96 135 176 216 273 343 395
#     4  12  21  37  70 102 131 172 222 274 334 402
#
# _framework density 21.952629999999999
#
# number of rings (size 3 to 8) (size 9 to 14) (size 15 to 20)
#    0.000    1.250    3.750    3.750    1.750    2.500 
#    0.000    1.250    8.250    0.000    0.000    0.000 
#    0.000    0.000    0.000    0.000    0.000    0.000 
#
# Total GULP energy -198293.028801 kJ/mol
# GULP energy per Si atom -12393.314300 kJ/mol
# Density = 2.190266 g / cm^3
# Si number density = 21.952630 Si / 1000 Ang^3
#
#
#
# Elastic Constant Matrix: (Units=GPa)
#
#
# Indices 1 2 3 4 5 6 
#
# 1 67.8708 26.6251 21.9020 -4.1454 -23.6489 8.4299
# 2 26.6251 161.4927 57.1322 0.2388 -14.8401 8.4116
# 3 21.9020 57.1322 128.4159 -11.1294 -30.1424 6.6075
# 4 -4.1454 0.2388 -11.1294 24.6591 6.6698 -5.2963
# 5 -23.6489 -14.8401 -30.1424 6.6698 42.4485 0.6033
# 6 8.4299 8.4116 6.6075 -5.2963 0.6033 28.0297
#
#
#
# Elastic Compliance Matrix: (Units=1/GPa)
#
#
# Indices 1 2 3 4 5 6 
#
# 1 0.019879 -0.002096 0.000305 -0.000646 0.010742 -0.005775
# 2 -0.002096 0.007735 -0.003307 -0.002071 -0.000468 -0.001292
# 3 0.000305 -0.003307 0.011036 0.003066 0.006386 -0.001259
# 4 -0.000646 -0.002071 0.003066 0.045407 -0.006166 0.008805
# 5 0.010742 -0.000468 0.006386 -0.006166 0.034975 -0.006514
# 6 -0.005775 -0.001292 -0.001259 0.008805 -0.006514 0.039902
#
#
# Mechanical properties :
#
#
# Convention : Reuss Voigt Hill
#
# Bulk Modulus (GPa) = 35.14543 63.23310 49.18926
# Shear Modulus (GPa) = 27.99324 35.83548 31.91436
#
# Velocity S-wave (km/s) = 3.57482 4.04468 3.81699
# Velocity P-wave (km/s) = 5.75183 7.11895 6.47159
#
# Compressibility (1/GPa) = 0.02845320
#
# Stress axis : x y z
#
# Youngs Moduli (GPa) = 50.30544 129.28223 90.61349
#
# Poissons Ratio (x) = 0.27102 -0.02762
# Poissons Ratio (y) = 0.10546 0.29962
# Poissons Ratio (z) = -0.01533 0.42748
#
# Static dielectric constant tensor:
#      x y z
#    x 3.888340 0.386540 -0.303000 
#    y 0.386540 4.957490 -0.107060 
#    z -0.303000 -0.107060 4.095850 
# 
# 
# High freq. dielectric constant tensor:
#      x y z
#    x 1.846420 0.030900 -0.020880 
#    y 0.030900 1.863490 0.000150 
#    z -0.020880 0.000150 1.862800 
# 
# From -- ./inp_files/611782.got.cif
#   From: 2010.06.25/outbox.cif.g09.slc.cpg/sg2_306_cif.got.tgz:611782.got - 2010.06.27 13:26:56.
