data_PCOD8043056
_publ_section_title
;
Structure prediction by ZEFSAII (Michael W. Deem and Ramdas Pophale) SiO2 
 PCOD8043056
Probable space group: P -1
;
_chemical_formula_sum "Si O2"
_cell_formula_units_Z 16
_cell_length_a 9.462187
_cell_length_b 17.470155
_cell_length_c 16.952078
_cell_angle_alpha 28.295557
_cell_angle_beta 131.426446
_cell_angle_gamma 141.254134
_cell_volume 828.385453
_symmetry_space_group_name_H-M "P -1"
_symmetry_group_IT_number 2
_symmetry_cell_setting 'triclinic'
loop_
_space_group_symop_operation_xyz
x,y,z
-x,-y,-z
loop_
_atom_site_type_symbol
_atom_site_label
_atom_site_fract_x
_atom_site_fract_y
_atom_site_fract_z
Si Si1 0.520177 0.878443 0.184976
Si Si2 0.313603 0.105715 0.323210
Si Si3 0.315685 0.790121 0.521350
Si Si4 0.000787 0.212259 0.078221
Si Si5 0.138619 0.522311 0.292641
Si Si6 0.463067 0.102595 0.656317
Si Si7 0.883694 0.775830 0.560103
Si Si8 0.953652 0.291487 0.162324
O O1 0.378524 0.654979 0.306642
O O2 0.418162 0.886546 0.225540
O O3 0.791583 0.983968 0.200473
O O4 0.500000 0.000000 0.000000
O O5 0.531849 0.250775 0.327218
O O6 0.230069 0.220691 0.136089
O O7 0.381362 0.003690 0.376463
O O8 0.112805 0.953418 0.445618
O O9 0.360301 0.777728 0.456758
O O10 0.048866 0.636229 0.573577
O O11 0.046251 0.284086 0.119217
O O12 0.687180 0.121530 0.223265
O O13 0.957833 0.349464 0.886062
O O14 0.186446 0.424098 0.327654
O O15 0.319358 0.193679 0.542850
O O16 0.919772 0.753401 0.685072
O O17 0.000000 0.500000 0.000000
#
# Coordination Sequence:
#
# PCOD8043056 Si02
#       8
#     2   2   2   2   2   2   2   2
#     4   9  20  38  62  82 109 150 196 241 281 323
#     4  10  19  36  57  83 116 155 183 222 298 343
#     4  10  22  35  55  85 122 150 180 232 287 352
#     4  10  19  37  60  83 111 154 190 237 284 331
#     4  10  22  37  56  85 116 150 195 229 278 345
#     4  11  21  37  59  84 114 154 185 236 293 324
#     4  11  19  34  58  88 112 146 191 239 279 339
#     4  11  19  30  56  87 114 138 184 242 281 327
#
# _framework density 19.314679000000002
#
# number of rings (size 3 to 8) (size 9 to 14) (size 15 to 20)
#    0.000    1.750    5.000    1.125    0.000    1.500 
#    0.000    1.250    0.000    1.500    0.000    0.000 
#    0.000    0.000    0.000    0.000    0.000    0.000 
#
# Total GULP energy -198240.864949 kJ/mol
# GULP energy per Si atom -12390.054059 kJ/mol
# Density = 1.927072 g / cm^3
# Si number density = 19.314679 Si / 1000 Ang^3
#
#
#
# Elastic Constant Matrix: (Units=GPa)
#
#
# Indices 1 2 3 4 5 6 
#
# 1 75.9553 25.1928 17.4048 8.9196 -1.8085 -7.1378
# 2 25.1928 112.3411 25.5975 -5.2688 -0.5965 -16.3109
# 3 17.4048 25.5975 63.5402 4.1079 6.6829 -8.0505
# 4 8.9196 -5.2688 4.1079 33.2080 -4.2971 -5.6448
# 5 -1.8085 -0.5965 6.6829 -4.2971 29.5826 6.8029
# 6 -7.1378 -16.3109 -8.0505 -5.6448 6.8029 19.8369
#
#
#
# Elastic Compliance Matrix: (Units=1/GPa)
#
#
# Indices 1 2 3 4 5 6 
#
# 1 0.015310 -0.002902 -0.002773 -0.004029 0.000785 0.000582
# 2 -0.002902 0.011733 -0.003028 0.004438 -0.000650 0.008860
# 3 -0.002773 -0.003028 0.019244 -0.001916 -0.006215 0.005908
# 4 -0.004029 0.004438 -0.001916 0.034241 0.002912 0.010167
# 5 0.000785 -0.000650 -0.006215 0.002912 0.039205 -0.015390
# 6 0.000582 0.008860 0.005908 0.010167 -0.015390 0.068475
#
#
# Mechanical properties :
#
#
# Convention : Reuss Voigt Hill
#
# Bulk Modulus (GPa) = 34.62439 43.13631 38.88035
# Shear Modulus (GPa) = 23.22983 28.76826 25.99905
#
# Velocity S-wave (km/s) = 3.47176 3.86353 3.67287
# Velocity P-wave (km/s) = 5.83406 6.50264 6.17740
#
# Compressibility (1/GPa) = 0.02888138
#
# Stress axis : x y z
#
# Youngs Moduli (GPa) = 65.31662 85.22796 51.96549
#
# Poissons Ratio (x) = 0.24731 0.14410
# Poissons Ratio (y) = 0.18953 0.15735
# Poissons Ratio (z) = 0.18112 0.25806
#
# Static dielectric constant tensor:
#      x y z
#    x 3.726930 -0.271310 0.172330 
#    y -0.271310 4.100140 -0.009340 
#    z 0.172330 -0.009340 3.679740 
# 
# 
# High freq. dielectric constant tensor:
#      x y z
#    x 1.729080 -0.011420 -0.001160 
#    y -0.011420 1.754140 0.004930 
#    z -0.001160 0.004930 1.748100 
# 
# From -- ./inp_files/561716.got.cif
#   From: 2010.06.25/outbox.cif.g09.slc.cpg/sg2_281_cif.got.tgz:561716.got - 2010.06.27 13:26:56.
