data_PCOD8043553
_publ_section_title
;
Structure prediction by ZEFSAII (Michael W. Deem and Ramdas Pophale) SiO2 
 PCOD8043553
Probable space group: P -1
;
_chemical_formula_sum "Si O2"
_cell_formula_units_Z 16
_cell_length_a 14.455604
_cell_length_b 15.399123
_cell_length_c 10.733344
_cell_angle_alpha 65.930101
_cell_angle_beta 48.655909
_cell_angle_gamma 27.861289
_cell_volume 724.968467
_symmetry_space_group_name_H-M "P -1"
_symmetry_group_IT_number 2
_symmetry_cell_setting 'triclinic'
loop_
_space_group_symop_operation_xyz
x,y,z
-x,-y,-z
loop_
_atom_site_type_symbol
_atom_site_label
_atom_site_fract_x
_atom_site_fract_y
_atom_site_fract_z
Si Si1 0.267023 0.366852 0.289143
Si Si2 0.814832 0.216193 0.774933
Si Si3 0.498225 0.381670 0.202881
Si Si4 0.364395 0.407925 0.931744
Si Si5 0.869776 0.323353 0.228258
Si Si6 0.329116 0.743203 0.601450
Si Si7 0.472809 0.964826 0.897654
Si Si8 0.704105 0.725190 0.067973
O O1 0.385105 0.353442 0.299044
O O2 0.000000 0.500000 0.500000
O O3 0.479847 0.133110 0.208413
O O4 0.215862 0.465129 0.151916
O O5 0.761716 0.364695 0.713660
O O6 0.641656 0.272645 0.798188
O O7 0.723588 0.252913 0.974089
O O8 0.139738 0.967061 0.610598
O O9 0.655737 0.278858 0.251925
O O10 0.152893 0.627471 0.925119
O O11 0.443665 0.271694 0.838382
O O12 0.634761 0.542680 0.388210
O O13 0.826397 0.240712 0.327497
O O14 0.170633 0.143422 0.117767
O O15 0.465152 0.084078 0.802480
O O16 0.712415 0.778490 0.897334
O O17 0.000000 0.500000 0.000000
#
# Coordination Sequence:
#
# PCOD8043553 Si02
#       8
#     2   2   2   2   2   2   2   2
#     4  10  23  45  65  90 124 169 216 267 313 375
#     4  10  21  41  65  95 127 174 212 260 323 366
#     4  10  21  41  65  92 128 167 217 268 305 383
#     4  10  20  40  66  90 132 164 206 264 319 385
#     4  11  22  40  61  95 135 167 207 263 326 384
#     4  11  23  38  62  98 131 167 214 261 317 386
#     4  10  22  40  62  88 126 170 205 259 328 368
#     4  10  19  36  64  92 115 163 210 251 307 385
#
# _framework density 22.069925000000001
#
# number of rings (size 3 to 8) (size 9 to 14) (size 15 to 20)
#    0.000    1.750    2.500    2.625    0.000    3.500 
#    6.750    0.625    0.000    0.000    0.000    0.000 
#    0.000    0.000    0.000    0.000    0.000    0.000 
#
# Total GULP energy -198250.910524 kJ/mol
# GULP energy per Si atom -12390.681908 kJ/mol
# Density = 2.201969 g / cm^3
# Si number density = 22.069925 Si / 1000 Ang^3
#
#
#
# Elastic Constant Matrix: (Units=GPa)
#
#
# Indices 1 2 3 4 5 6 
#
# 1 125.9560 37.3999 33.6111 18.0499 9.0896 16.0642
# 2 37.3999 116.1573 26.0867 26.6917 12.7407 10.0001
# 3 33.6111 26.0867 68.1213 19.3983 -5.7488 6.0063
# 4 18.0499 26.6917 19.3983 33.9644 2.8821 6.0585
# 5 9.0896 12.7407 -5.7488 2.8821 17.3468 2.6022
# 6 16.0642 10.0001 6.0063 6.0585 2.6022 45.9386
#
#
#
# Elastic Compliance Matrix: (Units=1/GPa)
#
#
# Indices 1 2 3 4 5 6 
#
# 1 0.010385 -0.001273 -0.004613 -0.001004 -0.005523 -0.002306
# 2 -0.001273 0.012036 -0.002775 -0.006431 -0.007947 -0.000514
# 3 -0.004613 -0.002775 0.021653 -0.008813 0.013125 -0.000195
# 4 -0.001004 -0.006431 -0.008813 0.040814 -0.004115 -0.002246
# 5 -0.005523 -0.007947 0.013125 -0.004115 0.071648 -0.001571
# 6 -0.002306 -0.000514 -0.000195 -0.002246 -0.001571 0.023097
#
#
# Mechanical properties :
#
#
# Convention : Reuss Voigt Hill
#
# Bulk Modulus (GPa) = 37.38114 56.04777 46.71445
# Shear Modulus (GPa) = 24.28699 33.65909 28.97304
#
# Velocity S-wave (km/s) = 3.32091 3.90950 3.62717
# Velocity P-wave (km/s) = 5.62841 6.76976 6.22530
#
# Compressibility (1/GPa) = 0.02675146
#
# Stress axis : x y z
#
# Youngs Moduli (GPa) = 96.29497 83.08593 46.18258
#
# Poissons Ratio (x) = 0.10573 0.21306
# Poissons Ratio (y) = 0.12254 0.12816
# Poissons Ratio (z) = 0.44425 0.23057
#
# Static dielectric constant tensor:
#      x y z
#    x 4.450170 0.410580 0.234020 
#    y 0.410580 4.421540 0.081330 
#    z 0.234020 0.081330 3.551920 
# 
# 
# High freq. dielectric constant tensor:
#      x y z
#    x 1.885860 0.015000 0.007680 
#    y 0.015000 1.878690 0.002200 
#    z 0.007680 0.002200 1.820680 
# 
# From -- ./inp_files/455692.got.cif
#   From: 2010.06.25/outbox.cif.g09.slc.cpg/sg2_228_cif.got.tgz:455692.got - 2010.06.27 13:26:56.
