data_PCOD8043219
_publ_section_title
;
Structure prediction by ZEFSAII (Michael W. Deem and Ramdas Pophale) SiO2 
 PCOD8043219
Probable space group: P -1
;
_chemical_formula_sum "Si O2"
_cell_formula_units_Z 14
_cell_length_a 20.631911
_cell_length_b 18.238747
_cell_length_c 8.577665
_cell_angle_alpha 146.952850
_cell_angle_beta 44.487541
_cell_angle_gamma 159.391908
_cell_volume 575.366862
_symmetry_space_group_name_H-M "P -1"
_symmetry_group_IT_number 2
_symmetry_cell_setting 'triclinic'
loop_
_space_group_symop_operation_xyz
x,y,z
-x,-y,-z
loop_
_atom_site_type_symbol
_atom_site_label
_atom_site_fract_x
_atom_site_fract_y
_atom_site_fract_z
Si Si1 0.483807 0.116946 0.341939
Si Si2 0.250138 0.010423 0.365574
Si Si3 0.866040 0.124052 0.013703
Si Si4 0.946808 0.022635 0.933061
Si Si5 0.160072 0.687051 0.366582
Si Si6 0.697733 0.654352 0.986693
Si Si7 0.099481 0.462413 0.653896
O O1 0.346808 0.991006 0.207955
O O2 0.658804 0.239454 0.199861
O O3 0.341321 0.866939 0.270859
O O4 0.557249 0.347611 0.712229
O O5 0.380718 0.297684 0.741600
O O6 0.022070 0.717929 0.298976
O O7 0.266647 0.055637 0.233669
O O8 0.884229 0.995603 0.821365
O O9 0.767485 0.096975 0.262229
O O10 0.083116 0.464045 0.205022
O O11 0.055994 0.286665 0.299016
O O12 0.758287 0.730924 0.836091
O O13 0.107805 0.109961 0.812618
O O14 0.975606 0.498110 0.233855
#
# Coordination Sequence:
#
# PCOD8043219 Si02
#       7
#     2   2   2   2   2   2   2
#     4  10  19  36  60  82 105 145 185 217 262 322
#     4  10  20  33  55  84 112 140 176 227 270 312
#     4  10  20  37  54  80 114 142 177 223 277 318
#     4   8  16  33  57  77 105 147 179 215 266 322
#     4   9  20  39  58  74 108 150 181 219 266 324
#     4   9  17  34  57  80 105 141 186 218 258 324
#     4   8  17  35  56  79 104 142 187 216 258 320
#
# _framework density 24.332301000000001
#
# number of rings (size 3 to 8) (size 9 to 14) (size 15 to 20)
#    0.000    2.857    0.000    2.143    0.000    2.857 
#    0.000   21.429    0.000    0.000    0.000    0.000 
#    0.000    0.000    0.000    0.000    0.000    0.000 
#
# Total GULP energy -173543.187571 kJ/mol
# GULP energy per Si atom -12395.941969 kJ/mol
# Density = 2.427692 g / cm^3
# Si number density = 24.332301 Si / 1000 Ang^3
#
#
#
# Elastic Constant Matrix: (Units=GPa)
#
#
# Indices 1 2 3 4 5 6 
#
# 1 114.8938 47.7855 14.5230 -13.8787 2.7887 -20.3357
# 2 47.7855 121.4238 36.5289 1.0368 0.9695 11.5639
# 3 14.5230 36.5289 59.3039 -10.5526 0.5990 1.1961
# 4 -13.8787 1.0368 -10.5526 33.8958 -0.8868 -1.3585
# 5 2.7887 0.9695 0.5990 -0.8868 42.2894 -4.6578
# 6 -20.3357 11.5639 1.1961 -1.3585 -4.6578 38.9400
#
#
#
# Elastic Compliance Matrix: (Units=1/GPa)
#
#
# Indices 1 2 3 4 5 6 
#
# 1 0.013903 -0.007037 0.001962 0.006914 0.000417 0.009581
# 2 -0.007037 0.014214 -0.007955 -0.006131 -0.000754 -0.007956
# 3 0.001962 -0.007955 0.022684 0.008236 0.000235 0.003006
# 4 0.006914 -0.006131 0.008236 0.035373 0.001030 0.006536
# 5 0.000417 -0.000754 0.000235 0.001030 0.024023 0.003344
# 6 0.009581 -0.007956 0.003006 0.006536 0.003344 0.033582
#
#
# Mechanical properties :
#
#
# Convention : Reuss Voigt Hill
#
# Bulk Modulus (GPa) = 40.41598 54.81071 47.61334
# Shear Modulus (GPa) = 28.07631 36.14398 32.11014
#
# Velocity S-wave (km/s) = 3.40055 3.85831 3.63664
# Velocity P-wave (km/s) = 5.66254 6.51334 6.10278
#
# Compressibility (1/GPa) = 0.02474269
#
# Stress axis : x y z
#
# Youngs Moduli (GPa) = 71.92643 70.35302 44.08365
#
# Poissons Ratio (x) = 0.49505 -0.08651
# Poissons Ratio (y) = 0.50612 0.35068
# Poissons Ratio (z) = -0.14114 0.55966
#
# Static dielectric constant tensor:
#      x y z
#    x 4.717860 0.187080 -0.190160 
#    y 0.187080 4.231790 -0.003850 
#    z -0.190160 -0.003850 4.453830 
# 
# 
# High freq. dielectric constant tensor:
#      x y z
#    x 1.960700 0.004960 -0.015770 
#    y 0.004960 1.947300 0.004770 
#    z -0.015770 0.004770 1.985790 
# 
# From -- ./inp_files/348673.got.cif
#   From: 2010.06.25/outbox.cif.g09.slc.cpg/sg2_175_cif.got.tgz:348673.got - 2010.06.27 13:26:56.
