data_PCOD8043468
_publ_section_title
;
Structure prediction by ZEFSAII (Michael W. Deem and Ramdas Pophale) SiO2 
 PCOD8043468
Probable space group: P -1
;
_chemical_formula_sum "Si O2"
_cell_formula_units_Z 16
_cell_length_a 18.503393
_cell_length_b 23.026794
_cell_length_c 14.618745
_cell_angle_alpha 21.576750
_cell_angle_beta 30.647563
_cell_angle_gamma 19.679418
_cell_volume 765.464361
_symmetry_space_group_name_H-M "P -1"
_symmetry_group_IT_number 2
_symmetry_cell_setting 'triclinic'
loop_
_space_group_symop_operation_xyz
x,y,z
-x,-y,-z
loop_
_atom_site_type_symbol
_atom_site_label
_atom_site_fract_x
_atom_site_fract_y
_atom_site_fract_z
Si Si1 0.983325 0.697080 0.983888
Si Si2 0.177492 0.386878 0.395943
Si Si3 0.675638 0.860448 0.934800
Si Si4 0.798640 0.341588 0.916338
Si Si5 0.304723 0.948357 0.922778
Si Si6 0.569825 0.281982 0.361909
Si Si7 0.397041 0.552179 0.733137
Si Si8 0.568074 0.198914 0.795662
O O1 0.909804 0.675839 0.999838
O O2 0.156789 0.685608 0.788025
O O3 0.783031 0.946287 0.887126
O O4 0.079159 0.483509 0.259964
O O5 0.275297 0.473623 0.192936
O O6 0.000000 0.500000 0.500000
O O7 0.345884 0.099318 0.633994
O O8 0.633973 0.045177 0.644260
O O9 0.645687 0.726452 0.104214
O O10 0.500000 0.000000 0.000000
O O11 0.676341 0.492897 0.734842
O O12 0.729584 0.227645 0.193838
O O13 0.050917 0.125710 0.936062
O O14 0.431061 0.736138 0.021472
O O15 0.408775 0.816590 0.098760
O O16 0.591209 0.341067 0.350860
O O17 0.461238 0.599209 0.504890
#
# Coordination Sequence:
#
# PCOD8043468 Si02
#       8
#     2   2   2   2   2   2   2   2
#     4  11  21  38  64  93 110 159 205 250 289 345
#     4  10  19  36  63  84 113 155 204 238 288 351
#     4  10  22  35  65  91 113 150 203 258 284 339
#     4  10  22  38  63  87 115 161 203 248 288 356
#     4  11  24  38  61  87 126 162 190 247 306 357
#     4  11  21  38  62  90 118 150 209 247 294 348
#     4  12  24  38  61  92 126 154 198 247 303 358
#     4  11  21  41  63  88 118 161 206 240 296 354
#
# _framework density 20.902343999999999
#
# number of rings (size 3 to 8) (size 9 to 14) (size 15 to 20)
#    0.000    1.250    6.250    1.500    7.000    1.000 
#    0.000    0.625    2.750    0.000    0.000    0.000 
#    0.000    0.000    0.000    0.000    0.000    0.000 
#
# Total GULP energy -198381.521485 kJ/mol
# GULP energy per Si atom -12398.845093 kJ/mol
# Density = 2.085477 g / cm^3
# Si number density = 20.902344 Si / 1000 Ang^3
#
#
#
# Elastic Constant Matrix: (Units=GPa)
#
#
# Indices 1 2 3 4 5 6 
#
# 1 80.3925 30.7305 24.1187 6.9083 12.6780 -36.2618
# 2 30.7305 41.9765 11.9068 -0.4026 -9.7858 -15.2203
# 3 24.1187 11.9068 133.9860 10.3487 7.5169 -9.6857
# 4 6.9083 -0.4026 10.3487 25.8943 -1.0306 -5.7148
# 5 12.6780 -9.7858 7.5169 -1.0306 38.0011 -5.3045
# 6 -36.2618 -15.2203 -9.6857 -5.7148 -5.3045 29.7060
#
#
#
# Elastic Compliance Matrix: (Units=1/GPa)
#
#
# Indices 1 2 3 4 5 6 
#
# 1 0.035961 -0.016899 -0.001808 -0.002511 -0.011579 0.032099
# 2 -0.016899 0.043077 -0.002014 0.007928 0.018118 0.005547
# 3 -0.001808 -0.002014 0.008212 -0.003238 -0.001839 -0.001512
# 4 -0.002511 0.007928 -0.003238 0.042992 0.005981 0.009280
# 5 -0.011579 0.018118 -0.001839 0.005981 0.035658 0.002067
# 6 0.032099 0.005547 -0.001512 0.009280 0.002067 0.077350
#
#
# Mechanical properties :
#
#
# Convention : Reuss Voigt Hill
#
# Bulk Modulus (GPa) = 21.82975 43.31854 32.57414
# Shear Modulus (GPa) = 16.66889 31.36020 24.01455
#
# Velocity S-wave (km/s) = 2.82701 3.87760 3.39321
# Velocity P-wave (km/s) = 4.59590 6.38881 5.56504
#
# Compressibility (1/GPa) = 0.04580905
#
# Stress axis : x y z
#
# Youngs Moduli (GPa) = 27.80763 23.21448 121.77654
#
# Poissons Ratio (x) = 0.39229 0.22014
# Poissons Ratio (y) = 0.46991 0.24525
# Poissons Ratio (z) = 0.05027 0.04675
#
# Static dielectric constant tensor:
#      x y z
#    x 4.251560 -0.410230 -0.336140 
#    y -0.410230 3.527970 0.108820 
#    z -0.336140 0.108820 4.878910 
# 
# 
# High freq. dielectric constant tensor:
#      x y z
#    x 1.816690 -0.022830 0.006150 
#    y -0.022830 1.785610 0.013570 
#    z 0.006150 0.013570 1.837600 
# 
# From -- ./inp_files/539270.got.cif
#   From: 2010.06.25/outbox.cif.g09.slc.cpg/sg2_270_cif.got.tgz:539270.got - 2010.06.27 13:26:56.
