data_PCOD8043452
_publ_section_title
;
Structure prediction by ZEFSAII (Michael W. Deem and Ramdas Pophale) SiO2 
 PCOD8043452
Probable space group: P -1
;
_chemical_formula_sum "Si O2"
_cell_formula_units_Z 14
_cell_length_a 18.351481
_cell_length_b 10.918329
_cell_length_c 8.170027
_cell_angle_alpha 54.584518
_cell_angle_beta 83.485418
_cell_angle_gamma 39.240070
_cell_volume 640.938114
_symmetry_space_group_name_H-M "P -1"
_symmetry_group_IT_number 2
_symmetry_cell_setting 'triclinic'
loop_
_space_group_symop_operation_xyz
x,y,z
-x,-y,-z
loop_
_atom_site_type_symbol
_atom_site_label
_atom_site_fract_x
_atom_site_fract_y
_atom_site_fract_z
Si Si1 0.896966 0.820793 0.345203
Si Si2 0.291688 0.845137 0.144280
Si Si3 0.673832 0.657984 0.076924
Si Si4 0.850254 0.389613 0.920092
Si Si5 0.958895 0.510318 0.832761
Si Si6 0.882386 0.295278 0.622928
Si Si7 0.498259 0.255222 0.743531
O O1 0.000000 0.500000 0.500000
O O2 0.870895 0.811035 0.543776
O O3 0.990254 0.805857 0.324641
O O4 0.729284 0.140815 0.057050
O O5 0.367786 0.565324 0.426499
O O6 0.378001 0.844195 0.161239
O O7 0.114886 0.173864 0.975942
O O8 0.777674 0.504514 0.329311
O O9 0.574979 0.686543 0.119441
O O10 0.757196 0.475627 0.024433
O O11 0.571316 0.990517 0.822957
O O12 0.790512 0.463001 0.691742
O O13 0.841886 0.581809 0.811212
O O14 0.026355 0.023989 0.169602
O O15 0.000000 0.500000 0.000000
#
# Coordination Sequence:
#
# PCOD8043452 Si02
#       7
#     2   2   2   2   2   2   2
#     4  10  19  36  62  94 119 158 198 263 326 360
#     4  10  20  40  63  86 124 165 214 249 314 372
#     4  11  23  42  63  91 128 169 216 247 318 382
#     4  11  23  38  64 104 124 157 203 272 335 366
#     4  11  21  37  68  98 123 155 206 277 325 372
#     4  11  22  39  68  97 129 156 202 279 332 370
#     4  10  23  39  64  84 125 185 206 250 295 379
#
# _framework density 21.842981999999999
#
# number of rings (size 3 to 8) (size 9 to 14) (size 15 to 20)
#    0.000    1.429    2.857    4.714    2.000    1.143 
#    0.000    2.857    6.286    3.429    0.000    0.000 
#    0.000    0.000    0.000    0.000    0.000    0.000 
#
# Total GULP energy -173440.561457 kJ/mol
# GULP energy per Si atom -12388.611533 kJ/mol
# Density = 2.179327 g / cm^3
# Si number density = 21.842982 Si / 1000 Ang^3
#
#
#
# Elastic Constant Matrix: (Units=GPa)
#
#
# Indices 1 2 3 4 5 6 
#
# 1 69.3984 12.5603 22.0440 4.1549 -22.3952 -7.2279
# 2 12.5603 95.9302 25.7307 26.0814 -13.1671 -1.6825
# 3 22.0440 25.7307 124.3378 14.3444 -21.2266 -0.0685
# 4 4.1549 26.0814 14.3444 33.5816 -3.6609 1.8622
# 5 -22.3952 -13.1671 -21.2266 -3.6609 27.8516 3.5367
# 6 -7.2279 -1.6825 -0.0685 1.8622 3.5367 24.6938
#
#
#
# Elastic Compliance Matrix: (Units=1/GPa)
#
#
# Indices 1 2 3 4 5 6 
#
# 1 0.019887 -0.000117 -0.000927 -0.000582 0.014676 0.003752
# 2 -0.000117 0.014055 -0.000985 -0.010066 0.004343 0.001058
# 3 -0.000927 -0.000985 0.009729 -0.002569 0.005990 -0.000976
# 4 -0.000582 -0.010066 -0.002569 0.038784 -0.001636 -0.003554
# 5 0.014676 0.004343 0.005990 -0.001636 0.054500 -0.003074
# 6 0.003752 0.001058 -0.000976 -0.003554 -0.003074 0.042372
#
#
# Mechanical properties :
#
#
# Convention : Reuss Voigt Hill
#
# Bulk Modulus (GPa) = 25.24318 45.59295 35.41806
# Shear Modulus (GPa) = 25.43385 32.51414 28.97399
#
# Velocity S-wave (km/s) = 3.41602 3.86234 3.64602
# Velocity P-wave (km/s) = 5.20967 6.38816 5.82878
#
# Compressibility (1/GPa) = 0.03961467
#
# Stress axis : x y z
#
# Youngs Moduli (GPa) = 50.28453 71.14879 102.78311
#
# Poissons Ratio (x) = 0.00830 0.09527
# Poissons Ratio (y) = 0.00587 0.10120
# Poissons Ratio (z) = 0.04661 0.07005
#
# Static dielectric constant tensor:
#      x y z
#    x 3.185940 -0.638850 -0.182550 
#    y -0.638850 3.408100 0.546880 
#    z -0.182550 0.546880 5.370460 
# 
# 
# High freq. dielectric constant tensor:
#      x y z
#    x 1.868590 0.000480 -0.016100 
#    y 0.000480 1.829580 0.020550 
#    z -0.016100 0.020550 1.874470 
# 
# From -- ./inp_files/207336.got.cif
#   From: 2010.06.25/outbox.cif.g09.slc.cpg/sg2_104_cif.got.tgz:207336.got - 2010.06.27 13:26:56.
