data_PCOD8043894
_publ_section_title
;
Structure prediction by ZEFSAII (Michael W. Deem and Ramdas Pophale) SiO2 
 PCOD8043894
Probable space group: P -1
;
_chemical_formula_sum "Si O2"
_cell_formula_units_Z 16
_cell_length_a 9.795326
_cell_length_b 11.853267
_cell_length_c 14.748982
_cell_angle_alpha 106.657533
_cell_angle_beta 36.176474
_cell_angle_gamma 124.010117
_cell_volume 788.919944
_symmetry_space_group_name_H-M "P -1"
_symmetry_group_IT_number 2
_symmetry_cell_setting 'triclinic'
loop_
_space_group_symop_operation_xyz
x,y,z
-x,-y,-z
loop_
_atom_site_type_symbol
_atom_site_label
_atom_site_fract_x
_atom_site_fract_y
_atom_site_fract_z
Si Si1 0.534528 0.052260 0.161967
Si Si2 0.403982 0.792453 0.505604
Si Si3 0.646905 0.036138 0.573134
Si Si4 0.964885 0.243873 0.693551
Si Si5 0.619573 0.509046 0.708057
Si Si6 0.951579 0.472545 0.655986
Si Si7 0.243034 0.210319 0.366480
Si Si8 0.139374 0.248362 0.796298
O O1 0.528498 0.983231 0.246480
O O2 0.462801 0.168356 0.244729
O O3 0.307893 0.921651 0.187816
O O4 0.840143 0.129809 0.972904
O O5 0.457611 0.889039 0.585378
O O6 0.172411 0.627536 0.620740
O O7 0.701343 0.827334 0.321532
O O8 0.284696 0.828512 0.491427
O O9 0.948127 0.071351 0.452352
O O10 0.859097 0.343912 0.746125
O O11 0.189354 0.253783 0.504085
O O12 0.111505 0.302397 0.726000
O O13 0.887681 0.547238 0.514716
O O14 0.626002 0.653150 0.740713
O O15 0.317537 0.383100 0.799642
O O16 0.674658 0.463194 0.766045
#
# Coordination Sequence:
#
# PCOD8043894 Si02
#       8
#     2   2   2   2   2   2   2   2
#     4  11  23  36  56  83 122 152 184 224 291 339
#     4  10  20  36  62  84 116 137 197 238 280 328
#     4  10  20  36  59  89 106 152 188 239 277 329
#     4  10  21  37  60  85 109 152 194 233 275 327
#     4   9  19  34  58  84 111 151 186 234 284 326
#     4   9  18  36  60  84 111 142 193 241 276 325
#     4  10  19  37  61  80 115 146 196 230 280 328
#     4  11  23  36  55  88 118 151 184 231 282 340
#
# _framework density 20.280892000000001
#
# number of rings (size 3 to 8) (size 9 to 14) (size 15 to 20)
#    0.000    2.000    1.250    3.375    5.250    6.500 
#    0.000    0.000    0.000    1.500    0.000    0.000 
#    0.000    0.000    0.000    0.000    0.000    0.000 
#
# Total GULP energy -198375.807010 kJ/mol
# GULP energy per Si atom -12398.487938 kJ/mol
# Density = 2.023473 g / cm^3
# Si number density = 20.280892 Si / 1000 Ang^3
#
#
#
# Elastic Constant Matrix: (Units=GPa)
#
#
# Indices 1 2 3 4 5 6 
#
# 1 91.5369 27.3110 27.8711 -3.2865 -6.2498 16.5851
# 2 27.3110 92.6150 18.7003 -13.3660 -4.9961 -3.3567
# 3 27.8711 18.7003 64.5623 -9.7107 -11.5120 4.8052
# 4 -3.2865 -13.3660 -9.7107 10.6657 3.9266 -0.1736
# 5 -6.2498 -4.9961 -11.5120 3.9266 17.1927 -1.3452
# 6 16.5851 -3.3567 4.8052 -0.1736 -1.3452 18.4330
#
#
#
# Elastic Compliance Matrix: (Units=1/GPa)
#
#
# Indices 1 2 3 4 5 6 
#
# 1 0.016602 -0.005291 -0.005387 -0.007170 0.001396 -0.014462
# 2 -0.005291 0.015177 -0.000213 0.017727 -0.001104 0.007667
# 3 -0.005387 -0.000213 0.021691 0.014433 0.009205 -0.000038
# 4 -0.007170 0.017727 0.014433 0.133566 -0.017837 0.005873
# 5 0.001396 -0.001104 0.009205 -0.017837 0.068665 0.000986
# 6 -0.014462 0.007667 -0.000038 0.005873 0.000986 0.068797
#
#
# Mechanical properties :
#
#
# Convention : Reuss Voigt Hill
#
# Bulk Modulus (GPa) = 31.55902 44.05324 37.80613
# Shear Modulus (GPa) = 14.01169 20.91373 17.46271
#
# Velocity S-wave (km/s) = 2.63131 3.21472 2.93754
# Velocity P-wave (km/s) = 4.98262 5.96221 5.49429
#
# Compressibility (1/GPa) = 0.03168666
#
# Stress axis : x y z
#
# Youngs Moduli (GPa) = 60.23394 65.88757 46.10158
#
# Poissons Ratio (x) = 0.34864 0.24836
# Poissons Ratio (y) = 0.31873 0.00982
# Poissons Ratio (z) = 0.32450 0.01404
#
# Static dielectric constant tensor:
#      x y z
#    x 3.941630 -0.166250 -0.022020 
#    y -0.166250 3.776170 -0.105300 
#    z -0.022020 -0.105300 3.191610 
# 
# 
# High freq. dielectric constant tensor:
#      x y z
#    x 1.806110 -0.003980 -0.005690 
#    y -0.003980 1.801350 -0.013550 
#    z -0.005690 -0.013550 1.738890 
# 
# From -- ./inp_files/348910.got.cif
#   From: 2010.06.25/outbox.cif.g09.slc.cpg/sg2_175_cif.got.tgz:348910.got - 2010.06.27 13:26:56.
