data_PCOD8043746
_publ_section_title
;
Structure prediction by ZEFSAII (Michael W. Deem and Ramdas Pophale) SiO2 
 PCOD8043746
Probable space group: P -1
;
_chemical_formula_sum "Si O2"
_cell_formula_units_Z 16
_cell_length_a 6.528519
_cell_length_b 8.688588
_cell_length_c 23.062952
_cell_angle_alpha 128.592229
_cell_angle_beta 69.578249
_cell_angle_gamma 79.531196
_cell_volume 803.296766
_symmetry_space_group_name_H-M "P -1"
_symmetry_group_IT_number 2
_symmetry_cell_setting 'triclinic'
loop_
_space_group_symop_operation_xyz
x,y,z
-x,-y,-z
loop_
_atom_site_type_symbol
_atom_site_label
_atom_site_fract_x
_atom_site_fract_y
_atom_site_fract_z
Si Si1 0.684427 0.690747 0.772178
Si Si2 0.199344 0.761170 0.893895
Si Si3 0.033491 0.507824 0.188534
Si Si4 0.529760 0.424489 0.064153
Si Si5 0.773022 0.580882 0.610275
Si Si6 0.200692 0.670751 0.555925
Si Si7 0.767233 0.006069 0.289401
Si Si8 0.230599 0.889337 0.137447
O O1 0.388058 0.802764 0.846625
O O2 0.880284 0.500190 0.755253
O O3 0.721285 0.556967 0.676618
O O4 0.730147 0.899278 0.807856
O O5 0.349466 0.571915 0.885673
O O6 0.060657 0.670311 0.845781
O O7 0.000000 0.000000 0.000000
O O8 0.273738 0.417257 0.099118
O O9 0.800605 0.767290 0.253024
O O10 0.459410 0.663665 0.096342
O O11 0.736156 0.192231 0.952171
O O12 0.831517 0.347125 0.514797
O O13 0.028124 0.591195 0.586127
O O14 0.530711 0.811471 0.656956
O O15 0.500000 0.500000 0.500000
O O16 0.126162 0.918578 0.648274
O O17 0.946831 0.965033 0.206260
#
# Coordination Sequence:
#
# PCOD8043746 Si02
#       8
#     2   2   2   2   2   2   2   2
#     4  11  23  36  58  87 117 151 197 242 283 346
#     4  11  23  37  56  78 121 165 198 234 293 340
#     4  10  23  39  54  82 122 160 192 236 294 340
#     4   9  21  38  53  81 117 157 197 245 287 337
#     4  10  21  35  64  94 111 147 195 237 291 353
#     4   9  19  39  62  90 120 143 184 242 301 345
#     4  10  21  37  62  86 116 151 192 242 290 345
#     4  10  19  37  58  83 117 148 200 251 284 329
#
# _framework density 19.917919999999999
#
# number of rings (size 3 to 8) (size 9 to 14) (size 15 to 20)
#    0.000    2.000    1.250    1.500    5.250    3.000 
#    0.000    3.125    0.000    7.500    0.000    0.000 
#    0.000    0.000    0.000    0.000    0.000    0.000 
#
# Total GULP energy -198335.936699 kJ/mol
# GULP energy per Si atom -12395.996044 kJ/mol
# Density = 1.987259 g / cm^3
# Si number density = 19.917920 Si / 1000 Ang^3
#
#
#
# Elastic Constant Matrix: (Units=GPa)
#
#
# Indices 1 2 3 4 5 6 
#
# 1 93.1593 28.0146 34.3028 -8.8629 -0.7537 1.3265
# 2 28.0146 75.7542 24.3771 -12.1918 2.1506 1.7960
# 3 34.3028 24.3771 95.3766 -19.9195 5.9351 -9.0375
# 4 -8.8629 -12.1918 -19.9195 27.5763 -3.3176 5.5282
# 5 -0.7537 2.1506 5.9351 -3.3176 36.2045 -4.7189
# 6 1.3265 1.7960 -9.0375 5.5282 -4.7189 23.6498
#
#
#
# Elastic Compliance Matrix: (Units=1/GPa)
#
#
# Indices 1 2 3 4 5 6 
#
# 1 0.013370 -0.003570 -0.004080 0.000268 0.000934 -0.001914
# 2 -0.003570 0.016076 -0.002026 0.005041 -0.000639 -0.003101
# 3 -0.004080 -0.002026 0.014440 0.007290 -0.001147 0.003968
# 4 0.000268 0.005041 0.007290 0.045637 0.001657 -0.007949
# 5 0.000934 -0.000639 -0.001147 0.001657 0.028655 0.004888
# 6 -0.001914 -0.003101 0.003968 -0.007949 0.004888 0.046976
#
#
# Mechanical properties :
#
#
# Convention : Reuss Voigt Hill
#
# Bulk Modulus (GPa) = 40.75879 48.63101 44.69490
# Shear Modulus (GPa) = 25.94927 29.32582 27.63755
#
# Velocity S-wave (km/s) = 3.61336 3.84126 3.72905
# Velocity P-wave (km/s) = 6.15762 6.64398 6.40542
#
# Compressibility (1/GPa) = 0.02453458
#
# Stress axis : x y z
#
# Youngs Moduli (GPa) = 74.79232 62.20598 69.25283
#
# Poissons Ratio (x) = 0.22205 0.28255
# Poissons Ratio (y) = 0.26698 0.14031
# Poissons Ratio (z) = 0.30515 0.12603
#
# Static dielectric constant tensor:
#      x y z
#    x 4.053240 0.118370 0.298280 
#    y 0.118370 3.722340 -0.027130 
#    z 0.298280 -0.027130 4.062170 
# 
# 
# High freq. dielectric constant tensor:
#      x y z
#    x 1.782340 -0.003110 0.001810 
#    y -0.003110 1.756330 -0.012400 
#    z 0.001810 -0.012400 1.784770 
# 
# From -- ./inp_files/44579.got.cif
#   From: 2010.06.25/outbox.cif.g09.slc.cpg/sg2_23_cif.got.tgz:44579.got - 2010.06.27 13:26:56.
