data_PCOD8043654
_publ_section_title
;
Structure prediction by ZEFSAII (Michael W. Deem and Ramdas Pophale) SiO2 
 PCOD8043654
Probable space group: P -1
;
_chemical_formula_sum "Si O2"
_cell_formula_units_Z 14
_cell_length_a 11.355404
_cell_length_b 9.039346
_cell_length_c 12.836576
_cell_angle_alpha 146.642537
_cell_angle_beta 77.322708
_cell_angle_gamma 116.563389
_cell_volume 615.414102
_symmetry_space_group_name_H-M "P -1"
_symmetry_group_IT_number 2
_symmetry_cell_setting 'triclinic'
loop_
_space_group_symop_operation_xyz
x,y,z
-x,-y,-z
loop_
_atom_site_type_symbol
_atom_site_label
_atom_site_fract_x
_atom_site_fract_y
_atom_site_fract_z
Si Si1 0.334865 0.374178 0.206558
Si Si2 0.640199 0.725664 0.395805
Si Si3 0.085964 0.836641 0.857678
Si Si4 0.314706 0.134286 0.768674
Si Si5 0.129972 0.435886 0.432363
Si Si6 0.105923 0.297492 0.590853
Si Si7 0.615049 0.273135 0.789711
O O1 0.483673 0.428800 0.250012
O O2 0.231791 0.338039 0.297984
O O3 0.372567 0.675895 0.307859
O O4 0.252153 0.081181 0.971568
O O5 0.697486 0.868291 0.355097
O O6 0.737134 0.598369 0.346780
O O7 0.648089 0.991983 0.630504
O O8 0.068712 0.568608 0.784060
O O9 0.015449 0.672212 0.664703
O O10 0.000000 0.000000 0.000000
O O11 0.462188 0.179450 0.803752
O O12 0.206040 0.808439 0.648324
O O13 0.285849 0.408940 0.979337
O O14 0.095384 0.257831 0.444604
O O15 0.000000 0.000000 0.500000
#
# Coordination Sequence:
#
# PCOD8043654 Si02
#       7
#     2   2   2   2   2   2   2
#     4  10  20  41  72 104 131 179 233 279 346 405
#     4  11  22  43  68 105 153 166 218 302 345 407
#     4  10  24  45  72  95 130 186 239 277 328 424
#     4  10  19  38  72 103 135 187 227 266 346 420
#     4  11  21  44  71  94 135 186 236 281 329 420
#     4  12  28  44  65  99 141 185 227 290 359 394
#     4  10  19  36  69 107 138 177 227 278 336 419
#
# _framework density 22.748909000000001
#
# number of rings (size 3 to 8) (size 9 to 14) (size 15 to 20)
#    0.000    1.429    2.857    3.000    2.000    2.286 
#    5.143    2.857    0.000    0.000    0.000    0.000 
#    0.000    0.000    0.000    0.000    0.000    0.000 
#
# Total GULP energy -173442.321988 kJ/mol
# GULP energy per Si atom -12388.737285 kJ/mol
# Density = 2.269713 g / cm^3
# Si number density = 22.748909 Si / 1000 Ang^3
#
#
#
# Elastic Constant Matrix: (Units=GPa)
#
#
# Indices 1 2 3 4 5 6 
#
# 1 166.4336 65.8283 67.1865 9.7299 7.4783 -10.2384
# 2 65.8283 130.9162 46.4468 9.7242 10.5200 11.1089
# 3 67.1865 46.4468 163.2836 10.8633 4.9819 -6.0839
# 4 9.7299 9.7242 10.8633 29.5049 4.6685 -3.4595
# 5 7.4783 10.5200 4.9819 4.6685 42.2232 3.1416
# 6 -10.2384 11.1089 -6.0839 -3.4595 3.1416 37.4088
#
#
#
# Elastic Compliance Matrix: (Units=1/GPa)
#
#
# Indices 1 2 3 4 5 6 
#
# 1 0.008663 -0.003719 -0.002354 -0.000317 -0.000526 0.003107
# 2 -0.003719 0.010679 -0.001500 -0.002072 -0.001260 -0.004519
# 3 -0.002354 -0.001500 0.007650 -0.001435 -0.000021 0.000914
# 4 -0.000317 -0.002072 -0.001435 0.036234 -0.003558 0.003945
# 5 -0.000526 -0.001260 -0.000021 -0.003558 0.024648 -0.002172
# 6 0.003107 -0.004519 0.000914 0.003945 -0.002172 0.029620
#
#
# Mechanical properties :
#
#
# Convention : Reuss Voigt Hill
#
# Bulk Modulus (GPa) = 84.40858 91.06185 87.73521
# Shear Modulus (GPa) = 36.60687 40.57218 38.58952
#
# Velocity S-wave (km/s) = 4.01580 4.22771 4.12311
# Velocity P-wave (km/s) = 7.66076 7.99671 7.83053
#
# Compressibility (1/GPa) = 0.01184714
#
# Stress axis : x y z
#
# Youngs Moduli (GPa) = 115.43758 93.64279 130.72541
#
# Poissons Ratio (x) = 0.34822 0.30770
# Poissons Ratio (y) = 0.42927 0.19604
# Poissons Ratio (z) = 0.27171 0.14043
#
# Static dielectric constant tensor:
#      x y z
#    x 4.223780 0.198660 0.103770 
#    y 0.198660 3.826210 0.017400 
#    z 0.103770 0.017400 4.736330 
# 
# 
# High freq. dielectric constant tensor:
#      x y z
#    x 1.903090 0.032480 -0.003700 
#    y 0.032480 1.879670 0.000480 
#    z -0.003700 0.000480 1.915820 
# 
# From -- ./inp_files/418626.got.cif
#   From: 2010.06.25/outbox.cif.g09.slc.cpg/sg2_210_cif.got.tgz:418626.got - 2010.06.27 13:26:56.
