data_PCOD8043534
_publ_section_title
;
Structure prediction by ZEFSAII (Michael W. Deem and Ramdas Pophale) SiO2 
 PCOD8043534
Probable space group: P -1
;
_chemical_formula_sum "Si O2"
_cell_formula_units_Z 16
_cell_length_a 12.162799
_cell_length_b 9.403838
_cell_length_c 16.255563
_cell_angle_alpha 63.305653
_cell_angle_beta 49.258257
_cell_angle_gamma 104.085973
_cell_volume 767.256388
_symmetry_space_group_name_H-M "P -1"
_symmetry_group_IT_number 2
_symmetry_cell_setting 'triclinic'
loop_
_space_group_symop_operation_xyz
x,y,z
-x,-y,-z
loop_
_atom_site_type_symbol
_atom_site_label
_atom_site_fract_x
_atom_site_fract_y
_atom_site_fract_z
Si Si1 0.957663 0.642550 0.381049
Si Si2 0.731316 0.128234 0.685403
Si Si3 0.851968 0.321412 0.282712
Si Si4 0.554596 0.696288 0.308441
Si Si5 0.290159 0.499623 0.774250
Si Si6 0.739822 0.124685 0.988358
Si Si7 0.543045 0.890636 0.674569
Si Si8 0.788825 0.114297 0.199118
O O1 0.882175 0.394301 0.495165
O O2 0.727835 0.553877 0.505338
O O3 0.104346 0.826299 0.342965
O O4 0.125270 0.807342 0.177677
O O5 0.625689 0.922314 0.718850
O O6 0.514412 0.017309 0.871568
O O7 0.666941 0.302474 0.352640
O O8 0.856422 0.192077 0.241788
O O9 0.110016 0.619401 0.097299
O O10 0.762396 0.164695 0.450429
O O11 0.655858 0.606959 0.278578
O O12 0.601953 0.809687 0.347654
O O13 0.693453 0.924650 0.114871
O O14 0.467088 0.662200 0.724630
O O15 0.020562 0.267043 0.995566
O O16 0.314027 0.809356 0.806582
#
# Coordination Sequence:
#
# PCOD8043534 Si02
#       8
#     2   2   2   2   2   2   2   2
#     4  10  21  37  59  88 116 142 190 244 285 335
#     4  10  19  36  64  87 110 147 187 243 294 321
#     4  11  21  35  59  87 115 150 194 236 275 335
#     4  11  23  39  56  85 122 155 186 230 284 345
#     4  11  22  36  57  82 118 161 186 225 288 339
#     4  11  19  37  60  88 118 143 192 235 285 340
#     4  11  20  39  57  88 112 148 198 239 275 339
#     4  11  19  35  55  81 115 151 189 230 275 330
#
# _framework density 20.853525999999999
#
# number of rings (size 3 to 8) (size 9 to 14) (size 15 to 20)
#    0.000    1.250    5.000    4.500    0.000    0.000 
#    4.500    3.750    0.000    0.750    0.000    0.000 
#    0.000    0.000    0.000    0.000    0.000    0.000 
#
# Total GULP energy -198341.676193 kJ/mol
# GULP energy per Si atom -12396.354762 kJ/mol
# Density = 2.080606 g / cm^3
# Si number density = 20.853526 Si / 1000 Ang^3
#
#
#
# Elastic Constant Matrix: (Units=GPa)
#
#
# Indices 1 2 3 4 5 6 
#
# 1 57.3901 46.4985 31.5555 3.9858 -10.7658 18.6792
# 2 46.4985 116.4868 15.5593 5.5696 -5.9757 13.9054
# 3 31.5555 15.5593 97.3957 11.6303 -1.3297 7.5604
# 4 3.9858 5.5696 11.6303 27.4602 8.6525 -3.4918
# 5 -10.7658 -5.9757 -1.3297 8.6525 19.0730 -0.8264
# 6 18.6792 13.9054 7.5604 -3.4918 -0.8264 38.7736
#
#
#
# Elastic Compliance Matrix: (Units=1/GPa)
#
#
# Indices 1 2 3 4 5 6 
#
# 1 0.041772 -0.012190 -0.009148 -0.008588 0.022399 -0.014264
# 2 -0.012190 0.013043 0.001886 -0.000883 -0.002232 0.000700
# 3 -0.009148 0.001886 0.013333 -0.004050 -0.001774 0.000728
# 4 -0.008588 -0.000883 -0.004050 0.049348 -0.027399 0.009104
# 5 0.022399 -0.002232 -0.001774 -0.027399 0.076226 -0.010487
# 6 -0.014264 0.000700 0.000728 0.009104 -0.010487 0.032866
#
#
# Mechanical properties :
#
#
# Convention : Reuss Voigt Hill
#
# Bulk Modulus (GPa) = 34.19419 50.94436 42.56927
# Shear Modulus (GPa) = 18.16610 28.90532 23.53571
#
# Velocity S-wave (km/s) = 2.95469 3.72709 3.36314
# Velocity P-wave (km/s) = 5.29841 6.55776 5.96144
#
# Compressibility (1/GPa) = 0.02924474
#
# Stress axis : x y z
#
# Youngs Moduli (GPa) = 23.93951 76.67111 75.00330
#
# Poissons Ratio (x) = 0.93461 0.68612
# Poissons Ratio (y) = 0.29182 -0.14149
# Poissons Ratio (z) = 0.21899 -0.14463
#
# Static dielectric constant tensor:
#      x y z
#    x 3.508610 0.438630 -0.134240 
#    y 0.438630 3.894820 -0.101240 
#    z -0.134240 -0.101240 3.868520 
# 
# 
# High freq. dielectric constant tensor:
#      x y z
#    x 1.766040 0.038780 -0.008870 
#    y 0.038780 1.812040 0.001910 
#    z -0.008870 0.001910 1.836450 
# 
# From -- ./inp_files/515349.got.cif
#   From: 2010.06.25/outbox.cif.g09.slc.cpg/sg2_258_cif.got.tgz:515349.got - 2010.06.27 13:26:56.
