data_PCOD8043351
_publ_section_title
;
Structure prediction by ZEFSAII (Michael W. Deem and Ramdas Pophale) SiO2 
 PCOD8043351
Probable space group: P -1
;
_chemical_formula_sum "Si O2"
_cell_formula_units_Z 14
_cell_length_a 8.385963
_cell_length_b 8.706109
_cell_length_c 13.784094
_cell_angle_alpha 118.138455
_cell_angle_beta 55.829632
_cell_angle_gamma 129.373142
_cell_volume 633.107484
_symmetry_space_group_name_H-M "P -1"
_symmetry_group_IT_number 2
_symmetry_cell_setting 'triclinic'
loop_
_space_group_symop_operation_xyz
x,y,z
-x,-y,-z
loop_
_atom_site_type_symbol
_atom_site_label
_atom_site_fract_x
_atom_site_fract_y
_atom_site_fract_z
Si Si1 0.120763 0.394140 0.315981
Si Si2 0.082386 0.767014 0.464772
Si Si3 0.403540 0.775388 0.002671
Si Si4 0.038059 0.824140 0.211727
Si Si5 0.275909 0.133385 0.391793
Si Si6 0.126322 0.099505 0.084132
Si Si7 0.581969 0.450633 0.249320
O O1 0.111572 0.593777 0.351497
O O2 0.063176 0.258828 0.198666
O O3 0.364725 0.461439 0.295788
O O4 0.932854 0.264645 0.423442
O O5 0.860901 0.758836 0.492561
O O6 0.289167 0.989053 0.427202
O O7 0.606461 0.775935 0.991686
O O8 0.329042 0.624789 0.892172
O O9 0.189124 0.715702 0.126495
O O10 0.500000 0.000000 0.000000
O O11 0.781459 0.667318 0.278511
O O12 0.133960 0.003842 0.308751
O O13 0.053507 0.916303 0.128255
O O14 0.519697 0.300602 0.319231
O O15 0.000000 0.000000 0.000000
#
# Coordination Sequence:
#
# PCOD8043351 Si02
#       7
#     2   2   2   2   2   2   2
#     4   9  18  40  63  88 129 163 200 258 318 358
#     4   9  18  37  68  85 119 171 201 257 313 355
#     4   9  17  37  59  82 124 168 196 251 307 358
#     4  11  20  38  62  90 127 162 202 258 309 362
#     4  10  19  38  63  90 122 160 211 255 302 366
#     4  10  20  39  63  94 128 160 207 253 309 377
#     4  10  19  36  61  89 124 163 204 251 308 371
#
# _framework density 22.113150000000001
#
# number of rings (size 3 to 8) (size 9 to 14) (size 15 to 20)
#    0.000    2.286    5.714    0.429    0.000    0.000 
#   10.286    8.571    0.000    0.000    0.000    1.000 
#    0.000    0.000    0.000    0.000    0.000    0.000 
#
# Total GULP energy -173502.819352 kJ/mol
# GULP energy per Si atom -12393.058525 kJ/mol
# Density = 2.206282 g / cm^3
# Si number density = 22.113150 Si / 1000 Ang^3
#
#
#
# Elastic Constant Matrix: (Units=GPa)
#
#
# Indices 1 2 3 4 5 6 
#
# 1 53.4788 41.4853 47.5785 2.6153 -1.3798 -3.3328
# 2 41.4853 123.9321 46.0775 -6.6758 -14.3239 -4.1315
# 3 47.5785 46.0775 102.4743 14.4307 -14.8917 -1.8832
# 4 2.6153 -6.6758 14.4307 41.6467 -4.3779 -9.2813
# 5 -1.3798 -14.3239 -14.8917 -4.3779 23.4580 1.4851
# 6 -3.3328 -4.1315 -1.8832 -9.2813 1.4851 34.7706
#
#
#
# Elastic Compliance Matrix: (Units=1/GPa)
#
#
# Indices 1 2 3 4 5 6 
#
# 1 0.040098 -0.008570 -0.016840 0.001144 -0.013528 0.002796
# 2 -0.008570 0.012424 -0.001119 0.003957 0.007025 0.001350
# 3 -0.016840 -0.001119 0.020332 -0.005659 0.010342 -0.002598
# 4 0.001144 0.003957 -0.005659 0.028659 0.003748 0.007763
# 5 -0.013528 0.007025 0.010342 0.003748 0.053463 -0.001185
# 6 0.002796 0.001350 -0.002598 0.007763 -0.001185 0.031171
#
#
# Mechanical properties :
#
#
# Convention : Reuss Voigt Hill
#
# Bulk Modulus (GPa) = 50.51254 61.12975 55.82114
# Shear Modulus (GPa) = 20.34150 29.62465 24.98308
#
# Velocity S-wave (km/s) = 3.03625 3.66414 3.36487
# Velocity P-wave (km/s) = 5.93162 6.75317 6.35568
#
# Compressibility (1/GPa) = 0.01979707
#
# Stress axis : x y z
#
# Youngs Moduli (GPa) = 24.93873 80.49063 49.18317
#
# Poissons Ratio (x) = 0.68984 0.82822
# Poissons Ratio (y) = 0.21374 0.05502
# Poissons Ratio (z) = 0.41996 0.09004
#
# Static dielectric constant tensor:
#      x y z
#    x 3.773420 -0.252220 -0.460960 
#    y -0.252220 4.123180 -0.024950 
#    z -0.460960 -0.024950 4.552630 
# 
# 
# High freq. dielectric constant tensor:
#      x y z
#    x 1.825600 -0.011930 -0.011310 
#    y -0.011930 1.865560 0.003260 
#    z -0.011310 0.003260 1.886860 
# 
# From -- ./inp_files/297468.got.cif
#   From: 2010.06.25/outbox.cif.g09.slc.cpg/sg2_149_cif.got.tgz:297468.got - 2010.06.27 13:26:56.
