data_PCOD8043765
_publ_section_title
;
Structure prediction by ZEFSAII (Michael W. Deem and Ramdas Pophale) SiO2 
 PCOD8043765
Probable space group: P -1
;
_chemical_formula_sum "Si O2"
_cell_formula_units_Z 14
_cell_length_a 13.771205
_cell_length_b 8.349056
_cell_length_c 13.916034
_cell_angle_alpha 53.667732
_cell_angle_beta 29.443862
_cell_angle_gamma 70.851202
_cell_volume 557.732622
_symmetry_space_group_name_H-M "P -1"
_symmetry_group_IT_number 2
_symmetry_cell_setting 'triclinic'
loop_
_space_group_symop_operation_xyz
x,y,z
-x,-y,-z
loop_
_atom_site_type_symbol
_atom_site_label
_atom_site_fract_x
_atom_site_fract_y
_atom_site_fract_z
Si Si1 0.330049 0.758638 0.387132
Si Si2 0.829086 0.547764 0.530932
Si Si3 0.967171 0.111963 0.617133
Si Si4 0.060430 0.771475 0.781834
Si Si5 0.373331 0.185105 0.122467
Si Si6 0.564541 0.490113 0.340393
Si Si7 0.182715 0.089409 0.726952
O O1 0.159962 0.643561 0.480320
O O2 0.200286 0.683321 0.627742
O O3 0.510941 0.666558 0.262882
O O4 0.439873 0.030786 0.189438
O O5 0.866378 0.747817 0.356477
O O6 0.015526 0.673383 0.411130
O O7 0.582912 0.429819 0.835980
O O8 0.164141 0.215184 0.330041
O O9 0.715463 0.964483 0.845951
O O10 0.026163 0.955225 0.687806
O O11 0.179474 0.885155 0.739824
O O12 0.823712 0.554118 0.085839
O O13 0.500000 0.500000 0.500000
O O14 0.427892 0.235081 0.510015
O O15 0.000000 0.000000 0.000000
#
# Coordination Sequence:
#
# PCOD8043765 Si02
#       7
#     2   2   2   2   2   2   2
#     4  10  23  39  61  94 123 157 202 254 297 363
#     4  10  20  35  58  86 122 158 199 243 300 356
#     4   9  19  34  61  88 119 165 194 240 301 358
#     4  10  21  41  62  89 127 154 201 253 299 359
#     4  10  19  37  58  88 125 156 201 244 296 359
#     4  11  22  41  66  85 117 165 200 247 314 352
#     4  10  20  39  62  90 117 159 205 250 298 357
#
# _framework density 25.101634000000001
#
# number of rings (size 3 to 8) (size 9 to 14) (size 15 to 20)
#    0.000    2.000    1.429    2.571    0.000    1.143 
#    0.000    9.286    0.000    0.000    0.000    0.000 
#    0.000    0.000    0.000    0.000    0.000    0.000 
#
# Total GULP energy -173487.126475 kJ/mol
# GULP energy per Si atom -12391.937605 kJ/mol
# Density = 2.504450 g / cm^3
# Si number density = 25.101634 Si / 1000 Ang^3
#
#
#
# Elastic Constant Matrix: (Units=GPa)
#
#
# Indices 1 2 3 4 5 6 
#
# 1 51.5784 21.0286 27.3236 -14.1419 -6.5594 37.8350
# 2 21.0286 63.2573 21.3779 -14.1212 -7.1309 31.5992
# 3 27.3236 21.3779 134.7198 -10.0908 3.9419 19.9554
# 4 -14.1419 -14.1212 -10.0908 33.5806 8.6233 1.5874
# 5 -6.5594 -7.1309 3.9419 8.6233 45.1176 -6.9951
# 6 37.8350 31.5992 19.9554 1.5874 -6.9951 56.2590
#
#
#
# Elastic Compliance Matrix: (Units=1/GPa)
#
#
# Indices 1 2 3 4 5 6 
#
# 1 0.058527 0.011292 -0.004601 0.030711 -0.002183 -0.045209
# 2 0.011292 0.028119 -0.001999 0.017242 -0.000639 -0.023244
# 3 -0.004601 -0.001999 0.008591 0.000173 -0.001619 0.000964
# 4 0.030711 0.017242 0.000173 0.053675 -0.008190 -0.032932
# 5 -0.002183 -0.000639 -0.001619 -0.008190 0.024330 0.005658
# 6 -0.045209 -0.023244 0.000964 -0.032932 0.005658 0.062525
#
#
# Mechanical properties :
#
#
# Convention : Reuss Voigt Hill
#
# Bulk Modulus (GPa) = 9.55846 43.22398 26.39122
# Shear Modulus (GPa) = 19.13826 38.97980 29.05903
#
# Velocity S-wave (km/s) = 2.76421 3.94493 3.40612
# Velocity P-wave (km/s) = 3.74219 6.16498 5.09956
#
# Compressibility (1/GPa) = 0.10461941
#
# Stress axis : x y z
#
# Youngs Moduli (GPa) = 17.08609 35.56371 116.40276
#
# Poissons Ratio (x) = -0.40158 0.53562
# Poissons Ratio (y) = -0.19293 0.23268
# Poissons Ratio (z) = 0.07862 0.07109
#
# Static dielectric constant tensor:
#      x y z
#    x 4.946860 0.482790 0.203830 
#    y 0.482790 4.914050 -0.224880 
#    z 0.203830 -0.224880 4.679650 
# 
# 
# High freq. dielectric constant tensor:
#      x y z
#    x 2.011240 0.015590 0.022490 
#    y 0.015590 1.996520 -0.015610 
#    z 0.022490 -0.015610 1.998050 
# 
# From -- ./inp_files/327171.got.cif
#   From: 2010.06.25/outbox.cif.g09.slc.cpg/sg2_164_cif.got.tgz:327171.got - 2010.06.27 13:26:56.
