data_PCOD8043029
_publ_section_title
;
Structure prediction by ZEFSAII (Michael W. Deem and Ramdas Pophale) SiO2 
 PCOD8043029
Probable space group: P -1
;
_chemical_formula_sum "Si O2"
_cell_formula_units_Z 16
_cell_length_a 11.597697
_cell_length_b 20.475649
_cell_length_c 6.168234
_cell_angle_alpha 57.514439
_cell_angle_beta 121.624909
_cell_angle_gamma 139.870146
_cell_volume 778.743551
_symmetry_space_group_name_H-M "P -1"
_symmetry_group_IT_number 2
_symmetry_cell_setting 'triclinic'
loop_
_space_group_symop_operation_xyz
x,y,z
-x,-y,-z
loop_
_atom_site_type_symbol
_atom_site_label
_atom_site_fract_x
_atom_site_fract_y
_atom_site_fract_z
Si Si1 0.535273 0.398652 0.382503
Si Si2 0.049967 0.846493 0.441975
Si Si3 0.722883 0.564234 0.921124
Si Si4 0.902321 0.028389 0.105834
Si Si5 0.713254 0.091080 0.058937
Si Si6 0.891501 0.534161 0.759776
Si Si7 0.794746 0.831619 0.521258
Si Si8 0.979089 0.286629 0.713166
O O1 0.421500 0.427182 0.322776
O O2 0.698542 0.437190 0.635439
O O3 0.411715 0.274838 0.447466
O O4 0.612467 0.452434 0.127886
O O5 0.227947 0.881054 0.679895
O O6 0.978139 0.759401 0.348124
O O7 0.895726 0.799314 0.556508
O O8 0.097048 0.945622 0.191211
O O9 0.850883 0.577012 0.840147
O O10 0.853367 0.657607 0.055230
O O11 0.791166 0.043590 0.118807
O O12 0.108529 0.106272 0.268580
O O13 0.800274 0.907068 0.231000
O O14 0.787911 0.194273 0.812171
O O15 0.500000 0.000000 0.000000
O O16 0.021775 0.628343 0.546053
O O17 0.000000 0.500000 0.000000
#
# Coordination Sequence:
#
# PCOD8043029 Si02
#       8
#     2   2   2   2   2   2   2   2
#     4  10  21  36  62  91 116 155 204 249 296 355
#     4  10  19  36  61  84 115 153 199 240 297 355
#     4  10  21  41  63  88 117 153 205 255 293 357
#     4   9  20  35  56  84 122 155 192 241 305 349
#     4  10  21  38  55  87 115 155 202 248 282 350
#     4  11  24  42  58  89 125 160 198 245 307 369
#     4  10  19  36  56  89 121 152 190 246 302 355
#     4  10  21  38  63  86 110 161 197 248 304 349
#
# _framework density 20.545916999999999
#
# number of rings (size 3 to 8) (size 9 to 14) (size 15 to 20)
#    0.000    2.000    0.000    4.500    0.000    7.000 
#    9.000    0.000    0.000    0.000    0.000    0.000 
#    0.000    0.000    0.000    0.000    0.000    0.000 
#
# Total GULP energy -198378.086038 kJ/mol
# GULP energy per Si atom -12398.630377 kJ/mol
# Density = 2.049915 g / cm^3
# Si number density = 20.545917 Si / 1000 Ang^3
#
#
#
# Elastic Constant Matrix: (Units=GPa)
#
#
# Indices 1 2 3 4 5 6 
#
# 1 54.8840 30.9113 38.1024 1.6661 5.3153 12.5362
# 2 30.9113 163.7762 70.1335 -14.9088 0.3702 25.2556
# 3 38.1024 70.1335 135.4155 -10.7415 9.1796 13.5048
# 4 1.6661 -14.9088 -10.7415 32.4981 -0.7393 -3.2197
# 5 5.3153 0.3702 9.1796 -0.7393 34.4410 1.3127
# 6 12.5362 25.2556 13.5048 -3.2197 1.3127 25.8249
#
#
#
# Elastic Compliance Matrix: (Units=1/GPa)
#
#
# Indices 1 2 3 4 5 6 
#
# 1 0.025292 -0.001446 -0.005769 -0.004740 -0.002135 -0.008330
# 2 -0.001446 0.009069 -0.003582 0.002482 0.001364 -0.006054
# 3 -0.005769 -0.003582 0.011097 0.002364 -0.002013 0.000897
# 4 -0.004740 0.002482 0.002364 0.033221 0.000683 0.002745
# 5 -0.002135 0.001364 -0.002013 0.000683 0.029927 -0.000682
# 6 -0.008330 -0.006054 0.000897 0.002745 -0.000682 0.048594
#
#
# Mechanical properties :
#
#
# Convention : Reuss Voigt Hill
#
# Bulk Modulus (GPa) = 41.89976 70.26334 56.08155
# Shear Modulus (GPa) = 26.77380 32.88137 29.82759
#
# Velocity S-wave (km/s) = 3.61379 4.00482 3.81432
# Velocity P-wave (km/s) = 6.15225 7.46038 6.83767
#
# Compressibility (1/GPa) = 0.02386649
#
# Stress axis : x y z
#
# Youngs Moduli (GPa) = 39.53753 110.26381 90.11072
#
# Poissons Ratio (x) = 0.15940 0.51980
# Poissons Ratio (y) = 0.05716 0.32279
# Poissons Ratio (z) = 0.22807 0.39498
#
# Static dielectric constant tensor:
#      x y z
#    x 3.375310 0.080860 -0.070480 
#    y 0.080860 3.850230 -0.073740 
#    z -0.070480 -0.073740 4.132300 
# 
# 
# High freq. dielectric constant tensor:
#      x y z
#    x 1.767400 -0.001850 -0.011620 
#    y -0.001850 1.809390 -0.011370 
#    z -0.011620 -0.011370 1.815700 
# 
# From -- ./inp_files/80658.got.cif
#   From: 2010.06.25/outbox.cif.g09.slc.cpg/sg2_41_cif.got.tgz:80658.got - 2010.06.27 13:26:56.
