data_PCOD8043730
_publ_section_title
;
Structure prediction by ZEFSAII (Michael W. Deem and Ramdas Pophale) SiO2 
 PCOD8043730
Probable space group: P -1
;
_chemical_formula_sum "Si O2"
_cell_formula_units_Z 14
_cell_length_a 8.957457
_cell_length_b 11.795341
_cell_length_c 9.196522
_cell_angle_alpha 75.066665
_cell_angle_beta 47.706184
_cell_angle_gamma 82.254050
_cell_volume 693.458091
_symmetry_space_group_name_H-M "P -1"
_symmetry_group_IT_number 2
_symmetry_cell_setting 'triclinic'
loop_
_space_group_symop_operation_xyz
x,y,z
-x,-y,-z
loop_
_atom_site_type_symbol
_atom_site_label
_atom_site_fract_x
_atom_site_fract_y
_atom_site_fract_z
Si Si1 0.890433 0.262648 0.694781
Si Si2 0.237416 0.170569 0.968412
Si Si3 0.850765 0.886352 0.630318
Si Si4 0.587585 0.361145 0.653375
Si Si5 0.007559 0.349108 0.888948
Si Si6 0.416793 0.941031 0.928195
Si Si7 0.307484 0.553938 0.742940
O O1 0.786304 0.350405 0.623551
O O2 0.064520 0.202030 0.512687
O O3 0.996825 0.341276 0.725046
O O4 0.729688 0.172223 0.908307
O O5 0.145826 0.165215 0.192323
O O6 0.441737 0.250152 0.824272
O O7 0.076854 0.226573 0.949117
O O8 0.287903 0.043762 0.907201
O O9 0.621203 0.909964 0.718505
O O10 0.000000 0.000000 0.500000
O O11 0.494977 0.486706 0.708571
O O12 0.628976 0.354125 0.455618
O O13 0.159529 0.455802 0.797376
O O14 0.788115 0.374320 0.088481
O O15 0.500000 0.000000 0.000000
#
# Coordination Sequence:
#
# PCOD8043730 Si02
#       7
#     2   2   2   2   2   2   2
#     4  12  22  37  62  95 121 150 204 247 291 347
#     4  10  19  39  62  84 125 162 194 233 303 361
#     4  11  19  36  63  85 119 164 195 234 288 356
#     4  10  19  38  66  85 113 163 199 246 294 362
#     4  10  23  39  60  89 118 157 200 253 294 353
#     4  10  19  37  57  89 122 153 196 236 284 369
#     4   9  21  43  60  82 120 158 203 242 310 349
#
# _framework density 20.188673999999999
#
# number of rings (size 3 to 8) (size 9 to 14) (size 15 to 20)
#    0.000    1.714    5.714    0.857    0.000    1.714 
#    7.714    0.714    0.000    0.000    0.000    0.000 
#    0.000    0.000    0.000    0.000    0.000    0.000 
#
# Total GULP energy -173552.520027 kJ/mol
# GULP energy per Si atom -12396.608573 kJ/mol
# Density = 2.014272 g / cm^3
# Si number density = 20.188674 Si / 1000 Ang^3
#
#
#
# Elastic Constant Matrix: (Units=GPa)
#
#
# Indices 1 2 3 4 5 6 
#
# 1 63.6976 59.9943 33.1718 25.3154 10.4169 -17.6155
# 2 59.9943 94.4161 46.5750 23.1920 6.5688 -30.0041
# 3 33.1718 46.5750 122.4995 18.1281 -3.2097 -13.2998
# 4 25.3154 23.1920 18.1281 47.7872 -4.7631 -6.7030
# 5 10.4169 6.5688 -3.2097 -4.7631 27.1561 3.3550
# 6 -17.6155 -30.0041 -13.2998 -6.7030 3.3550 31.7750
#
#
#
# Elastic Compliance Matrix: (Units=1/GPa)
#
#
# Indices 1 2 3 4 5 6 
#
# 1 0.049060 -0.025274 -0.001823 -0.014422 -0.015596 0.001174
# 2 -0.025274 0.033912 -0.004410 0.000818 -0.000916 0.016434
# 3 -0.001823 -0.004410 0.010377 -0.000711 0.003028 -0.001301
# 4 -0.014422 0.000818 -0.000711 0.029153 0.010672 -0.002498
# 5 -0.015596 -0.000916 0.003028 0.010672 0.046606 -0.010913
# 6 0.001174 0.016434 -0.001301 -0.002498 -0.010913 0.047721
#
#
# Mechanical properties :
#
#
# Convention : Reuss Voigt Hill
#
# Bulk Modulus (GPa) = 32.96528 62.23281 47.59905
# Shear Modulus (GPa) = 17.24406 30.73513 23.98960
#
# Velocity S-wave (km/s) = 2.92575 3.90602 3.45087
# Velocity P-wave (km/s) = 5.27042 7.15788 6.28540
#
# Compressibility (1/GPa) = 0.03033494
#
# Stress axis : x y z
#
# Youngs Moduli (GPa) = 20.38315 29.48788 96.36696
#
# Poissons Ratio (x) = 0.74529 0.17563
# Poissons Ratio (y) = 0.51517 0.42501
# Poissons Ratio (z) = 0.03715 0.13005
#
# Static dielectric constant tensor:
#      x y z
#    x 3.938790 -0.958170 -0.861310 
#    y -0.958170 4.613160 1.074230 
#    z -0.861310 1.074230 5.357680 
# 
# 
# High freq. dielectric constant tensor:
#      x y z
#    x 1.768370 -0.027490 -0.013250 
#    y -0.027490 1.788600 -0.002010 
#    z -0.013250 -0.002010 1.796130 
# 
# From -- ./inp_files/175783.got.cif
#   From: 2010.06.25/outbox.cif.g09.slc.cpg/sg2_88_cif.got.tgz:175783.got - 2010.06.27 13:26:56.
