data_PCOD8043302
_publ_section_title
;
Structure prediction by ZEFSAII (Michael W. Deem and Ramdas Pophale) SiO2 
 PCOD8043302
Probable space group: P -1
;
_chemical_formula_sum "Si O2"
_cell_formula_units_Z 16
_cell_length_a 14.275166
_cell_length_b 12.860535
_cell_length_c 9.425794
_cell_angle_alpha 144.795390
_cell_angle_beta 107.016630
_cell_angle_gamma 54.932477
_cell_volume 757.020440
_symmetry_space_group_name_H-M "P -1"
_symmetry_group_IT_number 2
_symmetry_cell_setting 'triclinic'
loop_
_space_group_symop_operation_xyz
x,y,z
-x,-y,-z
loop_
_atom_site_type_symbol
_atom_site_label
_atom_site_fract_x
_atom_site_fract_y
_atom_site_fract_z
Si Si1 0.393303 0.585726 0.440130
Si Si2 0.519806 0.648647 0.078831
Si Si3 0.959277 0.754631 0.613919
Si Si4 0.800080 0.480451 0.722035
Si Si5 0.011341 0.697846 0.883017
Si Si6 0.251666 0.050838 0.457504
Si Si7 0.772098 0.932909 0.217332
Si Si8 0.779284 0.505328 0.057999
O O1 0.500000 0.500000 0.500000
O O2 0.298465 0.545854 0.420950
O O3 0.331896 0.848213 0.674344
O O4 0.456463 0.428643 0.156963
O O5 0.637376 0.623349 0.166527
O O6 0.394661 0.905176 0.313995
O O7 0.500000 0.500000 0.000000
O O8 0.072130 0.686653 0.488855
O O9 0.953853 0.547321 0.403251
O O10 0.973923 0.828082 0.859324
O O11 0.831808 0.960998 0.710106
O O12 0.749003 0.743132 0.986443
O O13 0.816136 0.389801 0.789886
O O14 0.129428 0.670346 0.973475
O O15 0.903515 0.837641 0.105502
O O16 0.236077 0.980576 0.528707
O O17 0.195648 0.311074 0.735617
#
# Coordination Sequence:
#
# PCOD8043302 Si02
#       8
#     2   2   2   2   2   2   2   2
#     4  11  25  41  58  85 120 155 196 242 287 345
#     4  11  22  39  55  82 117 152 195 239 284 342
#     4   9  18  34  59  89 118 146 190 242 290 343
#     4   9  20  40  61  86 115 152 196 236 289 349
#     4   9  18  34  59  90 116 146 190 243 292 340
#     4  10  19  36  61  84 113 156 193 235 288 344
#     4  10  20  39  62  85 116 154 193 237 293 342
#     4   9  19  36  60  85 113 150 196 238 284 349
#
# _framework density 21.135494000000001
#
# number of rings (size 3 to 8) (size 9 to 14) (size 15 to 20)
#    0.000    2.250    1.250    1.125    1.750    4.500 
#    2.250    2.500    0.000    0.000    0.000    0.000 
#    0.000    0.000    0.000    0.000    0.000    0.000 
#
# Total GULP energy -198338.122807 kJ/mol
# GULP energy per Si atom -12396.132675 kJ/mol
# Density = 2.108739 g / cm^3
# Si number density = 21.135494 Si / 1000 Ang^3
#
#
#
# Elastic Constant Matrix: (Units=GPa)
#
#
# Indices 1 2 3 4 5 6 
#
# 1 133.1624 81.8524 31.0623 -17.5447 -13.9278 -22.3858
# 2 81.8524 161.1242 33.7052 -16.4884 1.0747 -37.4941
# 3 31.0623 33.7052 43.3254 -7.2611 -12.3526 -12.0546
# 4 -17.5447 -16.4884 -7.2611 23.2176 -0.8276 4.9899
# 5 -13.9278 1.0747 -12.3526 -0.8276 25.9121 0.9761
# 6 -22.3858 -37.4941 -12.0546 4.9899 0.9761 40.0313
#
#
#
# Elastic Compliance Matrix: (Units=1/GPa)
#
#
# Indices 1 2 3 4 5 6 
#
# 1 0.012774 -0.005401 -0.002128 0.005236 0.006218 0.000639
# 2 -0.005401 0.011608 -0.004893 0.001047 -0.005924 0.006392
# 3 -0.002128 -0.004893 0.034842 0.005591 0.015710 0.003639
# 4 0.005236 0.001047 0.005591 0.049944 0.007062 -0.000806
# 5 0.006218 -0.005924 0.015710 0.007062 0.049874 0.000563
# 6 0.000639 0.006392 0.003639 -0.000806 0.000563 0.032508
#
#
# Mechanical properties :
#
#
# Convention : Reuss Voigt Hill
#
# Bulk Modulus (GPa) = 29.08724 70.09464 49.59094
# Shear Modulus (GPa) = 21.94389 30.56500 26.25444
#
# Velocity S-wave (km/s) = 3.22568 3.80695 3.52830
# Velocity P-wave (km/s) = 5.25980 7.24984 6.33347
#
# Compressibility (1/GPa) = 0.03437934
#
# Stress axis : x y z
#
# Youngs Moduli (GPa) = 78.28694 86.14866 28.70065
#
# Poissons Ratio (x) = 0.46527 0.06108
# Poissons Ratio (y) = 0.42281 0.14044
# Poissons Ratio (z) = 0.16660 0.42156
#
# Static dielectric constant tensor:
#      x y z
#    x 3.982470 -0.216180 -0.072130 
#    y -0.216180 4.124600 -0.086130 
#    z -0.072130 -0.086130 3.747060 
# 
# 
# High freq. dielectric constant tensor:
#      x y z
#    x 1.830270 -0.003220 -0.006940 
#    y -0.003220 1.830020 -0.004630 
#    z -0.006940 -0.004630 1.814300 
# 
# From -- ./inp_files/185080.got.cif
#   From: 2010.06.25/outbox.cif.g09.slc.cpg/sg2_93_cif.got.tgz:185080.got - 2010.06.27 13:26:56.
