data_PCOD8043334
_publ_section_title
;
Structure prediction by ZEFSAII (Michael W. Deem and Ramdas Pophale) SiO2 
 PCOD8043334
Probable space group: P -1
;
_chemical_formula_sum "Si O2"
_cell_formula_units_Z 16
_cell_length_a 9.493839
_cell_length_b 15.852411
_cell_length_c 13.624699
_cell_angle_alpha 144.712574
_cell_angle_beta 53.451943
_cell_angle_gamma 105.032702
_cell_volume 830.331545
_symmetry_space_group_name_H-M "P -1"
_symmetry_group_IT_number 2
_symmetry_cell_setting 'triclinic'
loop_
_space_group_symop_operation_xyz
x,y,z
-x,-y,-z
loop_
_atom_site_type_symbol
_atom_site_label
_atom_site_fract_x
_atom_site_fract_y
_atom_site_fract_z
Si Si1 0.648147 0.317893 0.228932
Si Si2 0.401228 0.055750 0.814819
Si Si3 0.994705 0.113518 0.406936
Si Si4 0.890939 0.846889 0.143730
Si Si5 0.860317 0.365865 0.859758
Si Si6 0.679090 0.183170 0.888760
Si Si7 0.254113 0.270588 0.721447
Si Si8 0.322739 0.000862 0.013039
O O1 0.500000 0.500000 0.500000
O O2 0.651347 0.184993 0.179542
O O3 0.564115 0.290053 0.134195
O O4 0.872980 0.288434 0.090814
O O5 0.535591 0.866435 0.541725
O O6 0.314450 0.062739 0.965457
O O7 0.213041 0.155710 0.916909
O O8 0.529770 0.152621 0.852960
O O9 0.867454 0.297720 0.681229
O O10 0.142717 0.996061 0.320129
O O11 0.856172 0.033627 0.355946
O O12 0.115568 0.123712 0.271926
O O13 0.791515 0.797997 0.225940
O O14 0.764732 0.284996 0.892462
O O15 0.084051 0.315315 0.753061
O O16 0.725024 0.566361 0.106536
O O17 0.500000 0.000000 0.000000
#
# Coordination Sequence:
#
# PCOD8043334 Si02
#       8
#     2   2   2   2   2   2   2   2
#     4  10  22  38  63  84 120 153 192 251 293 346
#     4  12  22  38  62  86 122 159 197 240 292 361
#     4  10  19  37  59  84 116 156 195 243 283 351
#     4  10  23  41  57  88 120 157 198 239 302 350
#     4  11  20  35  63  89 117 148 208 249 285 339
#     4  10  19  37  59  86 113 158 196 236 292 349
#     4  11  22  35  60  94 117 152 198 253 290 337
#     4  10  19  36  61  88 109 152 208 231 283 349
#
# _framework density 19.269411999999999
#
# number of rings (size 3 to 8) (size 9 to 14) (size 15 to 20)
#    0.000    1.750    6.250    1.500    1.750    3.000 
#    0.000    3.125    0.000    0.000    0.000    0.000 
#    0.000    0.000    0.000    0.000    0.000    0.000 
#
# Total GULP energy -198393.473789 kJ/mol
# GULP energy per Si atom -12399.592112 kJ/mol
# Density = 1.922555 g / cm^3
# Si number density = 19.269412 Si / 1000 Ang^3
#
#
#
# Elastic Constant Matrix: (Units=GPa)
#
#
# Indices 1 2 3 4 5 6 
#
# 1 92.0164 16.0391 24.8812 -0.0916 16.8026 -4.1419
# 2 16.0391 78.9653 31.5504 -18.8544 1.2336 10.6674
# 3 24.8812 31.5504 118.0079 6.8187 17.5355 5.3066
# 4 -0.0916 -18.8544 6.8187 22.5481 3.4227 7.0184
# 5 16.8026 1.2336 17.5355 3.4227 19.8932 0.1437
# 6 -4.1419 10.6674 5.3066 7.0184 0.1437 27.5429
#
#
#
# Elastic Compliance Matrix: (Units=1/GPa)
#
#
# Indices 1 2 3 4 5 6 
#
# 1 0.013742 -0.003685 -0.000374 -0.002636 -0.010627 0.004293
# 2 -0.003685 0.024969 -0.007274 0.027485 0.003361 -0.015845
# 3 -0.000374 -0.007274 0.012152 -0.009379 -0.008352 0.002853
# 4 -0.002636 0.027485 -0.009379 0.080103 -0.004779 -0.029621
# 5 -0.010627 0.003361 -0.008352 -0.004779 0.067223 -0.000424
# 6 0.004293 -0.015845 0.002853 -0.029621 -0.000424 0.050090
#
#
# Mechanical properties :
#
#
# Convention : Reuss Voigt Hill
#
# Bulk Modulus (GPa) = 35.46376 48.21456 41.83916
# Shear Modulus (GPa) = 17.83521 28.43143 23.13332
#
# Velocity S-wave (km/s) = 3.04562 3.84535 3.46861
# Velocity P-wave (km/s) = 5.55084 6.69263 6.14830
#
# Compressibility (1/GPa) = 0.02819780
#
# Stress axis : x y z
#
# Youngs Moduli (GPa) = 72.76895 40.04959 82.28905
#
# Poissons Ratio (x) = 0.14759 0.03077
# Poissons Ratio (y) = 0.26816 0.59856
# Poissons Ratio (z) = 0.02721 0.29131
#
# Static dielectric constant tensor:
#      x y z
#    x 3.513410 0.162500 0.261200 
#    y 0.162500 3.647590 -0.124230 
#    z 0.261200 -0.124230 3.594550 
# 
# 
# High freq. dielectric constant tensor:
#      x y z
#    x 1.736640 0.018300 0.021600 
#    y 0.018300 1.748160 -0.015280 
#    z 0.021600 -0.015280 1.742850 
# 
# From -- ./inp_files/387759.got.cif
#   From: 2010.06.25/outbox.cif.g09.slc.cpg/sg2_194_cif.got.tgz:387759.got - 2010.06.27 13:26:56.
