data_PCOD8043099
_publ_section_title
;
Structure prediction by ZEFSAII (Michael W. Deem and Ramdas Pophale) SiO2 
 PCOD8043099
Probable space group: P -1
;
_chemical_formula_sum "Si O2"
_cell_formula_units_Z 12
_cell_length_a 12.014996
_cell_length_b 9.064525
_cell_length_c 11.706393
_cell_angle_alpha 102.564291
_cell_angle_beta 123.616006
_cell_angle_gamma 121.879523
_cell_volume 624.649330
_symmetry_space_group_name_H-M "P -1"
_symmetry_group_IT_number 2
_symmetry_cell_setting 'triclinic'
loop_
_space_group_symop_operation_xyz
x,y,z
-x,-y,-z
loop_
_atom_site_type_symbol
_atom_site_label
_atom_site_fract_x
_atom_site_fract_y
_atom_site_fract_z
Si Si1 0.299488 0.235344 0.284101
Si Si2 0.158522 0.226448 0.964369
Si Si3 0.701714 0.351225 0.005075
Si Si4 0.645699 0.880471 0.048519
Si Si5 0.996760 0.548015 0.635863
Si Si6 0.497061 0.127504 0.266405
O O1 0.500000 0.500000 0.500000
O O2 0.354547 0.114353 0.258031
O O3 0.237005 0.280497 0.147816
O O4 0.102236 0.048588 0.233005
O O5 0.197669 0.432523 0.983613
O O6 0.293089 0.238549 0.957509
O O7 0.891037 0.475317 0.223297
O O8 0.486255 0.221553 0.926025
O O9 0.624837 0.144240 0.845654
O O10 0.490310 0.805749 0.846840
O O11 0.875549 0.178975 0.233309
O O12 0.742546 0.340098 0.494751
O O13 0.000000 0.500000 0.500000
#
# Coordination Sequence:
#
# PCOD8043099 Si02
#       6
#     2   2   2   2   2   2
#     4  10  22  43  60  76 108 152 196 228 272 327
#     4  10  23  39  58  82 113 148 185 232 279 325
#     4  11  21  35  57  90 116 140 181 231 282 331
#     4  10  19  36  58  83 117 148 176 224 284 335
#     4  11  18  34  57  83 116 147 179 217 274 337
#     4  10  20  36  60  83 110 151 185 224 275 332
#
# _framework density 19.210778999999999
#
# number of rings (size 3 to 8) (size 9 to 14) (size 15 to 20)
#    0.000    1.667    3.333    2.500    0.000    3.333 
#    0.000    2.500    0.000    0.000    0.000    0.000 
#    0.000    0.000    0.000    0.000    0.000    0.000 
#
# Total GULP energy -148842.047615 kJ/mol
# GULP energy per Si atom -12403.503968 kJ/mol
# Density = 1.916705 g / cm^3
# Si number density = 19.210779 Si / 1000 Ang^3
#
#
#
# Elastic Constant Matrix: (Units=GPa)
#
#
# Indices 1 2 3 4 5 6 
#
# 1 69.3708 48.6457 39.8027 3.3899 2.7012 -1.5334
# 2 48.6457 127.8780 52.4591 16.6574 5.2834 -13.4859
# 3 39.8027 52.4591 128.1792 16.2684 14.3813 -6.9305
# 4 3.3899 16.6574 16.2684 17.1304 -2.9571 -0.6491
# 5 2.7012 5.2834 14.3813 -2.9571 33.3690 3.5892
# 6 -1.5334 -13.4859 -6.9305 -0.6491 3.5892 19.7194
#
#
#
# Elastic Compliance Matrix: (Units=1/GPa)
#
#
# Indices 1 2 3 4 5 6 
#
# 1 0.022739 -0.008384 -0.005513 0.009231 0.003348 -0.006209
# 2 -0.008384 0.013860 -0.000823 -0.011240 -0.003096 0.008731
# 3 -0.005513 -0.000823 0.012062 -0.010445 -0.005977 0.003992
# 4 0.009231 -0.011240 -0.010445 0.079364 0.013699 -0.010521
# 5 0.003348 -0.003096 -0.005977 0.013699 0.035040 -0.009885
# 6 -0.006209 0.008731 0.003992 -0.010521 -0.009885 0.059056
#
#
# Mechanical properties :
#
#
# Convention : Reuss Voigt Hill
#
# Bulk Modulus (GPa) = 52.02411 67.47147 59.74779
# Shear Modulus (GPa) = 19.38235 26.34513 22.86374
#
# Velocity S-wave (km/s) = 3.17981 3.70722 3.45360
# Velocity P-wave (km/s) = 6.37347 7.31591 6.86089
#
# Compressibility (1/GPa) = 0.01922186
#
# Stress axis : x y z
#
# Youngs Moduli (GPa) = 43.97773 72.15182 82.90392
#
# Poissons Ratio (x) = 0.60493 0.45701
# Poissons Ratio (y) = 0.36871 0.06821
# Poissons Ratio (z) = 0.24243 0.05936
#
# Static dielectric constant tensor:
#      x y z
#    x 3.702080 -0.118530 0.022020 
#    y -0.118530 3.251440 0.021620 
#    z 0.022020 0.021620 3.826330 
# 
# 
# High freq. dielectric constant tensor:
#      x y z
#    x 1.757820 -0.009180 0.005590 
#    y -0.009180 1.726990 0.008610 
#    z 0.005590 0.008610 1.753740 
# 
# From -- ./inp_files/18376.got.cif
#   From: 2010.06.25/outbox.cif.g09.slc.cpg/sg2_10_cif.got.tgz:18376.got - 2010.06.27 13:26:56.
