data_PCOD8043380
_publ_section_title
;
Structure prediction by ZEFSAII (Michael W. Deem and Ramdas Pophale) SiO2 
 PCOD8043380
Probable space group: P -1
;
_chemical_formula_sum "Si O2"
_cell_formula_units_Z 16
_cell_length_a 11.934777
_cell_length_b 10.497369
_cell_length_c 8.868983
_cell_angle_alpha 43.719250
_cell_angle_beta 60.923322
_cell_angle_gamma 67.185461
_cell_volume 669.926129
_symmetry_space_group_name_H-M "P -1"
_symmetry_group_IT_number 2
_symmetry_cell_setting 'triclinic'
loop_
_space_group_symop_operation_xyz
x,y,z
-x,-y,-z
loop_
_atom_site_type_symbol
_atom_site_label
_atom_site_fract_x
_atom_site_fract_y
_atom_site_fract_z
Si Si1 0.353655 0.480232 0.151794
Si Si2 0.988966 0.714067 0.868822
Si Si3 0.755215 0.294044 0.439813
Si Si4 0.074120 0.250013 0.775872
Si Si5 0.732121 0.663405 0.970991
Si Si6 0.587386 0.004600 0.668741
Si Si7 0.165009 0.658551 0.322997
Si Si8 0.327083 0.097582 0.624492
O O1 0.264527 0.450055 0.090239
O O2 0.285488 0.658935 0.126565
O O3 0.357257 0.310093 0.407964
O O4 0.500000 0.500000 0.000000
O O5 0.858748 0.782101 0.806992
O O6 0.119845 0.795269 0.654820
O O7 0.973189 0.763460 0.011167
O O8 0.000000 0.500000 0.000000
O O9 0.631119 0.184350 0.573107
O O10 0.787586 0.261229 0.620911
O O11 0.722043 0.513053 0.240410
O O12 0.123702 0.450831 0.544146
O O13 0.186040 0.090949 0.798666
O O14 0.955293 0.215419 0.771326
O O15 0.615281 0.818694 0.908638
O O16 0.434561 0.009763 0.742265
O O17 0.662848 0.997820 0.464846
#
# Coordination Sequence:
#
# PCOD8043380 Si02
#       8
#     2   2   2   2   2   2   2   2
#     4  10  20  37  64  93 125 171 213 258 320 387
#     4  10  19  36  61  95 128 164 208 263 324 376
#     4  11  22  38  68  98 128 163 213 268 321 383
#     4  10  19  37  63  92 128 168 219 260 318 383
#     4  10  21  39  65  92 125 171 209 261 324 377
#     4  10  22  42  64  92 129 169 220 259 326 380
#     4  10  20  34  64  97 125 166 214 262 319 385
#     4   9  21  40  64  88 125 177 214 267 316 382
#
# _framework density 23.883230000000001
#
# number of rings (size 3 to 8) (size 9 to 14) (size 15 to 20)
#    0.000    2.000    2.500    2.250    5.250    0.500 
#    2.250    3.125    8.250    0.000    0.000    0.000 
#    0.000    0.000    0.000    0.000    0.000    0.000 
#
# Total GULP energy -198330.441318 kJ/mol
# GULP energy per Si atom -12395.652582 kJ/mol
# Density = 2.382887 g / cm^3
# Si number density = 23.883230 Si / 1000 Ang^3
#
#
#
# Elastic Constant Matrix: (Units=GPa)
#
#
# Indices 1 2 3 4 5 6 
#
# 1 186.6662 67.8779 52.9469 13.2438 24.7525 -9.5959
# 2 67.8779 85.3821 30.7920 23.1460 3.7411 -10.1637
# 3 52.9469 30.7920 61.7800 26.1305 3.4995 -0.1236
# 4 13.2438 23.1460 26.1305 34.5732 1.0452 -3.3848
# 5 24.7525 3.7411 3.4995 1.0452 32.7293 2.5094
# 6 -9.5959 -10.1637 -0.1236 -3.3848 2.5094 40.8516
#
#
#
# Elastic Compliance Matrix: (Units=1/GPa)
#
#
# Indices 1 2 3 4 5 6 
#
# 1 0.010774 -0.006989 -0.008460 0.007327 -0.006816 0.001792
# 2 -0.006989 0.020259 0.000397 -0.011055 0.003105 0.002293
# 3 -0.008460 0.000397 0.032281 -0.021917 0.003896 -0.003846
# 4 0.007327 -0.011055 -0.021917 0.050524 -0.003803 0.003324
# 5 -0.006816 0.003105 0.003896 -0.003803 0.035312 -0.003301
# 6 0.001792 0.002293 -0.003846 0.003324 -0.003301 0.025937
#
#
# Mechanical properties :
#
#
# Convention : Reuss Voigt Hill
#
# Bulk Modulus (GPa) = 30.11134 70.78462 50.44798
# Shear Modulus (GPa) = 23.12032 33.77825 28.44929
#
# Velocity S-wave (km/s) = 3.11474 3.76481 3.45510
# Velocity P-wave (km/s) = 5.05673 6.97141 6.08979
#
# Compressibility (1/GPa) = 0.03321008
#
# Stress axis : x y z
#
# Youngs Moduli (GPa) = 92.81399 49.36143 30.97825
#
# Poissons Ratio (x) = 0.34497 0.26207
# Poissons Ratio (y) = 0.64865 -0.01229
# Poissons Ratio (z) = 0.78519 -0.01959
#
# Static dielectric constant tensor:
#      x y z
#    x 5.010090 -0.413860 -0.076060 
#    y -0.413860 4.346710 0.226440 
#    z -0.076060 0.226440 4.097300 
# 
# 
# High freq. dielectric constant tensor:
#      x y z
#    x 1.967170 -0.005760 0.006460 
#    y -0.005760 1.935110 0.001610 
#    z 0.006460 0.001610 1.919250 
# 
# From -- ./inp_files/261500.got.cif
#   From: 2010.06.25/outbox.cif.g09.slc.cpg/sg2_131_cif.got.tgz:261500.got - 2010.06.27 13:26:56.
