data_PCOD8043093
_publ_section_title
;
Structure prediction by ZEFSAII (Michael W. Deem and Ramdas Pophale) SiO2 
 PCOD8043093
Probable space group: P -1
;
_chemical_formula_sum "Si O2"
_cell_formula_units_Z 16
_cell_length_a 10.804136
_cell_length_b 16.546827
_cell_length_c 21.569231
_cell_angle_alpha 21.452800
_cell_angle_beta 145.157206
_cell_angle_gamma 134.053356
_cell_volume 761.159403
_symmetry_space_group_name_H-M "P -1"
_symmetry_group_IT_number 2
_symmetry_cell_setting 'triclinic'
loop_
_space_group_symop_operation_xyz
x,y,z
-x,-y,-z
loop_
_atom_site_type_symbol
_atom_site_label
_atom_site_fract_x
_atom_site_fract_y
_atom_site_fract_z
Si Si1 0.616280 0.355017 0.209180
Si Si2 0.075234 0.969712 0.643365
Si Si3 0.443843 0.172073 0.103514
Si Si4 0.286602 0.795513 0.986290
Si Si5 0.854634 0.608699 0.802803
Si Si6 0.227395 0.303539 0.796840
Si Si7 0.986353 0.829535 0.308568
Si Si8 0.398424 0.000393 0.342372
O O1 0.469525 0.182452 0.286384
O O2 0.500000 0.500000 0.000000
O O3 0.592891 0.547394 0.115525
O O4 0.878898 0.217084 0.396786
O O5 0.288416 0.987011 0.678294
O O6 0.165351 0.875956 0.814158
O O7 0.974354 0.787513 0.694890
O O8 0.358401 0.089158 0.190767
O O9 0.301916 0.146379 0.002181
O O10 0.179849 0.595532 0.109728
O O11 0.559061 0.692264 0.161260
O O12 0.235370 0.011787 0.858110
O O13 0.594556 0.755651 0.608082
O O14 0.000000 0.500000 0.000000
O O15 0.075983 0.570407 0.559729
O O16 0.075601 0.183563 0.779805
O O17 0.167221 0.966311 0.294945
#
# Coordination Sequence:
#
# PCOD8043093 Si02
#       8
#     2   2   2   2   2   2   2   2
#     4   9  19  34  52  83 114 145 182 218 278 339
#     4   9  19  34  54  81 112 151 181 221 277 338
#     4  10  21  38  59  79 118 150 184 230 279 338
#     4  10  19  36  58  81 110 145 189 230 282 328
#     4   9  18  34  54  84 115 144 186 225 274 336
#     4  10  22  40  59  83 108 150 193 234 283 327
#     4  11  22  37  61  83 112 145 192 241 275 330
#     4  10  21  37  55  88 116 146 187 229 282 335
#
# _framework density 21.020565000000001
#
# number of rings (size 3 to 8) (size 9 to 14) (size 15 to 20)
#    0.000    2.250    1.250    1.125    1.750    5.000 
#    2.250    2.500    0.000    0.750    0.000    0.000 
#    0.000    0.000    0.000    0.000    0.000    0.000 
#
# Total GULP energy -198228.055943 kJ/mol
# GULP energy per Si atom -12389.253496 kJ/mol
# Density = 2.097272 g / cm^3
# Si number density = 21.020565 Si / 1000 Ang^3
#
#
#
# Elastic Constant Matrix: (Units=GPa)
#
#
# Indices 1 2 3 4 5 6 
#
# 1 19.4382 -5.7594 -0.7952 -2.6200 4.6599 -7.5204
# 2 -5.7594 58.4674 23.6942 -4.3961 8.8153 -7.7353
# 3 -0.7952 23.6942 92.1108 1.7264 18.7529 -3.8472
# 4 -2.6200 -4.3961 1.7264 32.9043 -8.3694 2.2394
# 5 4.6599 8.8153 18.7529 -8.3694 25.2669 -1.0826
# 6 -7.5204 -7.7353 -3.8472 2.2394 -1.0826 18.8535
#
#
#
# Elastic Compliance Matrix: (Units=1/GPa)
#
#
# Indices 1 2 3 4 5 6 
#
# 1 0.073243 0.013612 0.002272 0.000554 -0.018297 0.034148
# 2 0.013612 0.022925 -0.003948 0.001810 -0.006403 0.013447
# 3 0.002272 -0.003948 0.014264 -0.003998 -0.010865 0.002048
# 4 0.000554 0.001810 -0.003998 0.034547 0.013541 -0.003178
# 5 -0.018297 -0.006403 -0.010865 0.013541 0.057286 -0.010461
# 6 0.034148 0.013447 0.002048 -0.003178 -0.010461 0.072374
#
#
# Mechanical properties :
#
#
# Convention : Reuss Voigt Hill
#
# Bulk Modulus (GPa) = 7.44580 22.69950 15.07265
# Shear Modulus (GPa) = 16.91835 25.59671 21.25753
#
# Velocity S-wave (km/s) = 2.84006 3.49334 3.18350
# Velocity P-wave (km/s) = 3.78212 5.20513 4.54961
#
# Compressibility (1/GPa) = 0.13430394
#
# Stress axis : x y z
#
# Youngs Moduli (GPa) = 13.65311 43.62031 70.10563
#
# Poissons Ratio (x) = -0.59378 -0.15926
# Poissons Ratio (y) = -0.18585 0.27681
# Poissons Ratio (z) = -0.03102 0.17223
#
# Static dielectric constant tensor:
#      x y z
#    x 3.399010 -0.093030 0.147180 
#    y -0.093030 4.968270 -0.428350 
#    z 0.147180 -0.428350 4.035130 
# 
# 
# High freq. dielectric constant tensor:
#      x y z
#    x 1.787210 -0.006320 0.012340 
#    y -0.006320 1.818710 0.007020 
#    z 0.012340 0.007020 1.841060 
# 
# From -- ./inp_files/272048.got.cif
#   From: 2010.06.25/outbox.cif.g09.slc.cpg/sg2_137_cif.got.tgz:272048.got - 2010.06.27 13:26:56.
