data_PCOD8043848
_publ_section_title
;
Structure prediction by ZEFSAII (Michael W. Deem and Ramdas Pophale) SiO2 
 PCOD8043848
Probable space group: P -1
;
_chemical_formula_sum "Si O2"
_cell_formula_units_Z 14
_cell_length_a 11.582228
_cell_length_b 21.936623
_cell_length_c 9.827846
_cell_angle_alpha 37.555865
_cell_angle_beta 62.384407
_cell_angle_gamma 34.509713
_cell_volume 720.501054
_symmetry_space_group_name_H-M "P -1"
_symmetry_group_IT_number 2
_symmetry_cell_setting 'triclinic'
loop_
_space_group_symop_operation_xyz
x,y,z
-x,-y,-z
loop_
_atom_site_type_symbol
_atom_site_label
_atom_site_fract_x
_atom_site_fract_y
_atom_site_fract_z
Si Si1 0.339224 0.172906 0.380986
Si Si2 0.734823 0.676218 0.270224
Si Si3 0.394283 0.335897 0.910919
Si Si4 0.219783 0.998079 0.103635
Si Si5 0.050015 0.721624 0.499018
Si Si6 0.033700 0.024511 0.791786
Si Si7 0.381569 0.037189 0.139110
O O1 0.087813 0.277991 0.350942
O O2 0.500000 0.000000 0.500000
O O3 0.443005 0.127779 0.555319
O O4 0.289523 0.314976 0.097558
O O5 0.708429 0.616490 0.267378
O O6 0.511900 0.794553 0.284623
O O7 0.000000 0.500000 0.500000
O O8 0.721912 0.800291 0.009845
O O9 0.305360 0.505592 0.697944
O O10 0.684942 0.145661 0.098331
O O11 0.098203 0.968269 0.249758
O O12 0.181480 0.086000 0.109212
O O13 0.105915 0.132494 0.800079
O O14 0.093475 0.783350 0.474861
O O15 0.000000 0.000000 0.000000
O O16 0.500000 0.000000 0.000000
#
# Coordination Sequence:
#
# PCOD8043848 Si02
#       7
#     2   2   2   2   2   2   2
#     4  12  20  40  65  87 128 161 197 261 311 358
#     4  11  20  34  57  91 125 148 202 254 302 357
#     4  12  23  37  63  96 118 164 209 249 310 361
#     4  10  20  39  60  86 124 163 196 254 304 352
#     4  11  21  38  62  89 125 155 209 252 300 369
#     4  10  20  40  60  86 127 164 203 256 295 363
#     4  10  19  37  60  85 119 158 197 247 309 356
#
# _framework density 19.430921999999999
#
# number of rings (size 3 to 8) (size 9 to 14) (size 15 to 20)
#    0.000    1.143    8.571    1.286    2.000    2.286 
#    2.571    0.714    0.000    0.857    0.000    0.000 
#    0.000    0.000    0.000    0.000    0.000    0.000 
#
# Total GULP energy -173433.225243 kJ/mol
# GULP energy per Si atom -12388.087517 kJ/mol
# Density = 1.938670 g / cm^3
# Si number density = 19.430922 Si / 1000 Ang^3
#
#
#
# Elastic Constant Matrix: (Units=GPa)
#
#
# Indices 1 2 3 4 5 6 
#
# 1 164.4758 32.7384 33.0511 -12.9367 -23.0599 0.5737
# 2 32.7384 55.9804 25.4711 -10.6206 -11.3693 3.0767
# 3 33.0511 25.4711 63.8344 -16.8217 -15.4975 -0.9153
# 4 -12.9367 -10.6206 -16.8217 33.1282 8.9200 -6.6378
# 5 -23.0599 -11.3693 -15.4975 8.9200 32.2602 1.0271
# 6 0.5737 3.0767 -0.9153 -6.6378 1.0271 27.3874
#
#
#
# Elastic Compliance Matrix: (Units=1/GPa)
#
#
# Indices 1 2 3 4 5 6 
#
# 1 0.007512 -0.002805 -0.001899 0.000147 0.003428 0.000001
# 2 -0.002805 0.023655 -0.006925 0.001773 0.002594 -0.002498
# 3 -0.001899 -0.006925 0.022723 0.007945 0.004815 0.003322
# 4 0.000147 0.001773 0.007945 0.038501 -0.006406 0.009635
# 5 0.003428 0.002594 0.004815 -0.006406 0.038549 -0.003201
# 6 0.000001 -0.002498 0.003322 0.009635 -0.003201 0.039360
#
#
# Mechanical properties :
#
#
# Convention : Reuss Voigt Hill
#
# Bulk Modulus (GPa) = 32.64701 51.86799 42.25750
# Shear Modulus (GPa) = 24.53756 31.42384 27.98070
#
# Velocity S-wave (km/s) = 3.55746 4.02582 3.79886
# Velocity P-wave (km/s) = 5.80621 6.95421 6.40598
#
# Compressibility (1/GPa) = 0.03063068
#
# Stress axis : x y z
#
# Youngs Moduli (GPa) = 133.11887 42.27378 44.00917
#
# Poissons Ratio (x) = 0.11858 0.08358
# Poissons Ratio (y) = 0.37340 0.30478
# Poissons Ratio (z) = 0.25282 0.29276
#
# Static dielectric constant tensor:
#      x y z
#    x 4.499620 0.279540 -0.397440 
#    y 0.279540 3.520250 -0.091840 
#    z -0.397440 -0.091840 3.482270 
# 
# 
# High freq. dielectric constant tensor:
#      x y z
#    x 1.772670 0.008850 -0.018470 
#    y 0.008850 1.736050 -0.011990 
#    z -0.018470 -0.011990 1.731760 
# 
# From -- ./inp_files/282705.got.cif
#   From: 2010.06.25/outbox.cif.g09.slc.cpg/sg2_142_cif.got.tgz:282705.got - 2010.06.27 13:26:56.
