data_PCOD8043109
_publ_section_title
;
Structure prediction by ZEFSAII (Michael W. Deem and Ramdas Pophale) SiO2 
 PCOD8043109
Probable space group: P -1
;
_chemical_formula_sum "Si O2"
_cell_formula_units_Z 16
_cell_length_a 9.683756
_cell_length_b 14.619531
_cell_length_c 11.672133
_cell_angle_alpha 103.513728
_cell_angle_beta 48.443313
_cell_angle_gamma 133.612443
_cell_volume 815.250606
_symmetry_space_group_name_H-M "P -1"
_symmetry_group_IT_number 2
_symmetry_cell_setting 'triclinic'
loop_
_space_group_symop_operation_xyz
x,y,z
-x,-y,-z
loop_
_atom_site_type_symbol
_atom_site_label
_atom_site_fract_x
_atom_site_fract_y
_atom_site_fract_z
Si Si1 0.828567 0.364180 0.394076
Si Si2 0.353955 0.318850 0.357320
Si Si3 0.622736 0.956918 0.487708
Si Si4 0.691029 0.221235 0.832984
Si Si5 0.784378 0.050965 0.681845
Si Si6 0.231576 0.128765 0.191600
Si Si7 0.895170 0.582524 0.525876
Si Si8 0.065600 0.492044 0.835697
O O1 0.560217 0.202660 0.477920
O O2 0.750082 0.432500 0.521011
O O3 0.981368 0.442643 0.212608
O O4 0.044122 0.391908 0.364727
O O5 0.388173 0.276036 0.205700
O O6 0.311539 0.412114 0.383694
O O7 0.615824 0.412226 0.320742
O O8 0.105692 0.180090 0.522235
O O9 0.500000 0.000000 0.500000
O O10 0.628752 0.981363 0.626465
O O11 0.925509 0.044193 0.301796
O O12 0.666706 0.099588 0.822936
O O13 0.814241 0.294354 0.662836
O O14 0.893053 0.334754 0.854365
O O15 0.394570 0.158281 0.996139
O O16 0.744637 0.946551 0.752445
O O17 0.000000 0.500000 0.000000
#
# Coordination Sequence:
#
# PCOD8043109 Si02
#       8
#     2   2   2   2   2   2   2   2
#     4  10  20  39  62  82 114 151 197 232 285 342
#     4  10  19  36  58  85 114 148 201 232 289 339
#     4  11  22  37  62  84 114 156 200 233 275 351
#     4  10  21  36  58  85 124 148 189 242 297 333
#     4  10  21  36  56  87 112 159 195 233 282 350
#     4  11  20  35  58  83 120 155 187 240 292 338
#     4   9  21  39  62  83 111 155 190 239 284 346
#     4  11  21  35  60  88 115 147 187 249 287 330
#
# _framework density 19.625868000000001
#
# number of rings (size 3 to 8) (size 9 to 14) (size 15 to 20)
#    0.000    1.750    1.250    5.625    0.000    5.500 
#    0.000    3.125    5.500    0.000    0.000    0.000 
#    0.000    0.000    0.000    0.000    0.000    0.000 
#
# Total GULP energy -198372.858150 kJ/mol
# GULP energy per Si atom -12398.303634 kJ/mol
# Density = 1.958120 g / cm^3
# Si number density = 19.625868 Si / 1000 Ang^3
#
#
#
# Elastic Constant Matrix: (Units=GPa)
#
#
# Indices 1 2 3 4 5 6 
#
# 1 112.1323 37.6294 50.4286 -3.2433 10.1907 2.0365
# 2 37.6294 123.3852 30.5059 0.3909 -6.3085 4.7145
# 3 50.4286 30.5059 93.5459 13.3864 -4.3951 2.1785
# 4 -3.2433 0.3909 13.3864 22.6407 2.2589 -1.4337
# 5 10.1907 -6.3085 -4.3951 2.2589 27.6821 3.5552
# 6 2.0365 4.7145 2.1785 -1.4337 3.5552 30.0825
#
#
#
# Elastic Compliance Matrix: (Units=1/GPa)
#
#
# Indices 1 2 3 4 5 6 
#
# 1 0.014698 -0.002866 -0.008577 0.008143 -0.008275 0.001441
# 2 -0.002866 0.009539 -0.001347 -0.000202 0.003236 -0.001595
# 3 -0.008577 -0.001347 0.017932 -0.012626 0.006976 -0.001933
# 4 0.008143 -0.000202 -0.012626 0.054064 -0.009993 0.004153
# 5 -0.008275 0.003236 0.006976 -0.009993 0.042597 -0.005963
# 6 0.001441 -0.001595 -0.001933 0.004153 -0.005963 0.034437
#
#
# Mechanical properties :
#
#
# Convention : Reuss Voigt Hill
#
# Bulk Modulus (GPa) = 60.27908 62.91013 61.59461
# Shear Modulus (GPa) = 24.46451 30.11436 27.28944
#
# Velocity S-wave (km/s) = 3.53447 3.92142 3.73296
# Velocity P-wave (km/s) = 6.88748 7.25449 7.07337
#
# Compressibility (1/GPa) = 0.01658950
#
# Stress axis : x y z
#
# Youngs Moduli (GPa) = 68.03486 104.83244 55.76500
#
# Poissons Ratio (x) = 0.30046 0.47827
# Poissons Ratio (y) = 0.19500 0.07514
# Poissons Ratio (z) = 0.58350 0.14126
#
# Static dielectric constant tensor:
#      x y z
#    x 3.602020 -0.026960 -0.017170 
#    y -0.026960 3.839520 0.109740 
#    z -0.017170 0.109740 3.621810 
# 
# 
# High freq. dielectric constant tensor:
#      x y z
#    x 1.757730 -0.004070 0.001060 
#    y -0.004070 1.783110 0.005610 
#    z 0.001060 0.005610 1.747290 
# 
# From -- ./inp_files/206902.got.cif
#   From: 2010.06.25/outbox.cif.g09.slc.cpg/sg2_104_cif.got.tgz:206902.got - 2010.06.27 13:26:56.
