data_PCOD8043690
_publ_section_title
;
Structure prediction by ZEFSAII (Michael W. Deem and Ramdas Pophale) SiO2 
 PCOD8043690
Probable space group: P -1
;
_chemical_formula_sum "Si O2"
_cell_formula_units_Z 16
_cell_length_a 9.475566
_cell_length_b 8.738315
_cell_length_c 14.672503
_cell_angle_alpha 104.149369
_cell_angle_beta 135.518467
_cell_angle_gamma 92.072190
_cell_volume 784.780716
_symmetry_space_group_name_H-M "P -1"
_symmetry_group_IT_number 2
_symmetry_cell_setting 'triclinic'
loop_
_space_group_symop_operation_xyz
x,y,z
-x,-y,-z
loop_
_atom_site_type_symbol
_atom_site_label
_atom_site_fract_x
_atom_site_fract_y
_atom_site_fract_z
Si Si1 0.256037 0.930765 0.852680
Si Si2 0.105311 0.609767 0.854042
Si Si3 0.535815 0.311783 0.821328
Si Si4 0.253182 0.739940 0.653076
Si Si5 0.066781 0.076148 0.923375
Si Si6 0.168900 0.429418 0.113016
Si Si7 0.653332 0.990275 0.811902
Si Si8 0.141879 0.417055 0.674401
O O1 0.136362 0.765013 0.826426
O O2 0.232098 0.892355 0.728472
O O3 0.140418 0.066317 0.850876
O O4 0.500000 0.000000 0.000000
O O5 0.075284 0.452900 0.750477
O O6 0.889481 0.589992 0.809500
O O7 0.306865 0.621580 0.011962
O O8 0.604474 0.434772 0.783050
O O9 0.535600 0.128367 0.766964
O O10 0.301557 0.308686 0.740911
O O11 0.254890 0.585242 0.694309
O O12 0.066837 0.693945 0.488171
O O13 0.478400 0.808835 0.713574
O O14 0.811061 0.999320 0.800101
O O15 0.155292 0.258676 0.032100
O O16 0.186667 0.966377 0.020803
O O17 0.000000 0.500000 0.000000
#
# Coordination Sequence:
#
# PCOD8043690 Si02
#       8
#     2   2   2   2   2   2   2   2
#     4  11  20  34  60  90 113 143 197 242 282 343
#     4  10  19  37  55  90 115 148 194 237 281 349
#     4  11  20  37  58  91 116 150 191 245 286 334
#     4  10  22  42  56  86 116 157 197 234 280 352
#     4  11  19  35  58  87 114 153 178 245 296 329
#     4  10  20  35  55  86 121 143 185 239 287 342
#     4  11  20  35  59  85 119 144 194 233 293 339
#     4  10  23  38  62  79 121 161 189 234 292 333
#
# _framework density 20.38786
#
# number of rings (size 3 to 8) (size 9 to 14) (size 15 to 20)
#    0.000    1.500    5.000    1.875    1.750    0.500 
#    4.500    1.250    0.000    6.750    0.000    0.000 
#    0.000    0.000    0.000    0.000    0.000    0.000 
#
# Total GULP energy -198306.650895 kJ/mol
# GULP energy per Si atom -12394.165681 kJ/mol
# Density = 2.034146 g / cm^3
# Si number density = 20.387860 Si / 1000 Ang^3
#
#
#
# Elastic Constant Matrix: (Units=GPa)
#
#
# Indices 1 2 3 4 5 6 
#
# 1 124.0361 39.2204 41.0998 18.4628 3.3825 -17.0539
# 2 39.2204 62.9043 12.6196 8.8342 6.6669 -8.6880
# 3 41.0998 12.6196 87.9522 11.1819 1.8567 -7.7334
# 4 18.4628 8.8342 11.1819 22.3879 3.6241 4.3075
# 5 3.3825 6.6669 1.8567 3.6241 20.6846 4.8678
# 6 -17.0539 -8.6880 -7.7334 4.3075 4.8678 40.9026
#
#
#
# Elastic Compliance Matrix: (Units=1/GPa)
#
#
# Indices 1 2 3 4 5 6 
#
# 1 0.012758 -0.005636 -0.003884 -0.007207 0.000377 0.004102
# 2 -0.005636 0.020891 0.000495 -0.003498 -0.006012 0.003265
# 3 -0.003884 0.000495 0.013784 -0.004113 -0.000411 0.001574
# 4 -0.007207 -0.003498 -0.004113 0.056752 -0.004935 -0.009915
# 5 0.000377 -0.006012 -0.000411 -0.004935 0.052760 -0.006957
# 6 0.004102 0.003265 0.001574 -0.009915 -0.006957 0.029022
#
#
# Mechanical properties :
#
#
# Convention : Reuss Voigt Hill
#
# Bulk Modulus (GPa) = 34.03418 51.19693 42.61556
# Shear Modulus (GPa) = 23.38508 28.92519 26.15514
#
# Velocity S-wave (km/s) = 3.39043 3.77071 3.58561
# Velocity P-wave (km/s) = 5.66183 6.64257 6.17171
#
# Compressibility (1/GPa) = 0.02938222
#
# Stress axis : x y z
#
# Youngs Moduli (GPa) = 78.38272 47.86649 72.54920
#
# Poissons Ratio (x) = 0.26980 0.28178
# Poissons Ratio (y) = 0.44180 -0.03591
# Poissons Ratio (z) = 0.30444 -0.02369
#
# Static dielectric constant tensor:
#      x y z
#    x 4.744080 0.111580 -0.080530 
#    y 0.111580 3.508010 0.214070 
#    z -0.080530 0.214070 3.284790 
# 
# 
# High freq. dielectric constant tensor:
#      x y z
#    x 1.817920 -0.003540 0.005130 
#    y -0.003540 1.796860 0.016970 
#    z 0.005130 0.016970 1.742150 
# 
# From -- ./inp_files/395437.got.cif
#   From: 2010.06.25/outbox.cif.g09.slc.cpg/sg2_198_cif.got.tgz:395437.got - 2010.06.27 13:26:56.
