data_PCOD8043671
_publ_section_title
;
Structure prediction by ZEFSAII (Michael W. Deem and Ramdas Pophale) SiO2 
 PCOD8043671
Probable space group: P -1
;
_chemical_formula_sum "Si O2"
_cell_formula_units_Z 14
_cell_length_a 12.118332
_cell_length_b 14.288759
_cell_length_c 8.597577
_cell_angle_alpha 115.589787
_cell_angle_beta 75.005573
_cell_angle_gamma 51.460701
_cell_volume 696.774869
_symmetry_space_group_name_H-M "P -1"
_symmetry_group_IT_number 2
_symmetry_cell_setting 'triclinic'
loop_
_space_group_symop_operation_xyz
x,y,z
-x,-y,-z
loop_
_atom_site_type_symbol
_atom_site_label
_atom_site_fract_x
_atom_site_fract_y
_atom_site_fract_z
Si Si1 0.392612 0.917035 0.391553
Si Si2 0.442548 0.815194 0.958473
Si Si3 0.700999 0.274932 0.229646
Si Si4 0.739014 0.910438 0.008396
Si Si5 0.854994 0.009742 0.228118
Si Si6 0.117918 0.475425 0.566871
Si Si7 0.660410 0.819581 0.475092
O O1 0.593546 0.793733 0.339606
O O2 0.233272 0.949413 0.538400
O O3 0.261157 0.126852 0.572416
O O4 0.477892 0.799367 0.117887
O O5 0.341239 0.783069 0.923221
O O6 0.663443 0.649529 0.667668
O O7 0.297272 0.027126 0.113350
O O8 0.500000 0.500000 0.500000
O O9 0.782431 0.175398 0.299709
O O10 0.889764 0.197406 0.025071
O O11 0.963335 0.689166 0.811128
O O12 0.724624 0.029539 0.186511
O O13 0.540449 0.996304 0.207161
O O14 0.153652 0.380186 0.640635
O O15 0.000000 0.500000 0.500000
#
# Coordination Sequence:
#
# PCOD8043671 Si02
#       7
#     2   2   2   2   2   2   2
#     4  10  19  37  54  80 118 144 173 219 276 323
#     4  10  21  35  56  82 112 142 177 229 271 312
#     4  10  20  39  60  77 100 139 186 227 269 322
#     4   9  18  36  56  79 108 145 187 217 256 319
#     4   9  20  36  58  78 102 141 179 221 273 325
#     4  11  20  33  56  83 108 147 190 218 254 317
#     4   9  20  36  55  77 115 153 176 216 264 316
#
# _framework density 20.092571
#
# number of rings (size 3 to 8) (size 9 to 14) (size 15 to 20)
#    0.000    2.286    0.000    3.429    0.000    2.857 
#    0.000   19.286    0.000    0.000    0.000    0.000 
#    0.000    0.000    0.000    0.000    0.000    0.000 
#
# Total GULP energy -173457.137215 kJ/mol
# GULP energy per Si atom -12389.795515 kJ/mol
# Density = 2.004684 g / cm^3
# Si number density = 20.092571 Si / 1000 Ang^3
#
#
#
# Elastic Constant Matrix: (Units=GPa)
#
#
# Indices 1 2 3 4 5 6 
#
# 1 66.4049 26.1448 11.1443 -6.6794 -4.3099 0.7038
# 2 26.1448 132.1162 51.4575 7.5549 4.0658 -3.1184
# 3 11.1443 51.4575 65.6322 14.9119 3.8997 3.8420
# 4 -6.6794 7.5549 14.9119 39.3797 -6.1631 0.9807
# 5 -4.3099 4.0658 3.8997 -6.1631 26.0364 -5.4515
# 6 0.7038 -3.1184 3.8420 0.9807 -5.4515 29.3059
#
#
#
# Elastic Compliance Matrix: (Units=1/GPa)
#
#
# Indices 1 2 3 4 5 6 
#
# 1 0.017445 -0.003118 -0.001977 0.005070 0.004924 0.000255
# 2 -0.003118 0.011672 -0.008841 0.000457 -0.000407 0.002385
# 3 -0.001977 -0.008841 0.025185 -0.008973 -0.005888 -0.004990
# 4 0.005070 0.000457 -0.008973 0.031060 0.009862 0.001898
# 5 0.004924 -0.000407 -0.005888 0.009862 0.044286 0.008518
# 6 0.000255 0.002385 -0.004990 0.001898 0.008518 0.036546
#
#
# Mechanical properties :
#
#
# Convention : Reuss Voigt Hill
#
# Bulk Modulus (GPa) = 37.83616 49.07186 43.45401
# Shear Modulus (GPa) = 24.64554 30.63819 27.64187
#
# Velocity S-wave (km/s) = 3.50608 3.90917 3.71310
# Velocity P-wave (km/s) = 5.93818 6.69712 6.32903
#
# Compressibility (1/GPa) = 0.02642975
#
# Stress axis : x y z
#
# Youngs Moduli (GPa) = 57.32192 85.67299 39.70684
#
# Poissons Ratio (x) = 0.26709 0.07852
# Poissons Ratio (y) = 0.17871 0.35106
# Poissons Ratio (z) = 0.11335 0.75745
#
# Static dielectric constant tensor:
#      x y z
#    x 3.665850 0.216310 -0.090640 
#    y 0.216310 3.897360 -0.395790 
#    z -0.090640 -0.395790 3.121890 
# 
# 
# High freq. dielectric constant tensor:
#      x y z
#    x 1.784190 0.001360 -0.007760 
#    y 0.001360 1.790110 -0.005000 
#    z -0.007760 -0.005000 1.759550 
# 
# From -- ./inp_files/90286.got.cif
#   From: 2010.06.25/outbox.cif.g09.slc.cpg/sg2_46_cif.got.tgz:90286.got - 2010.06.27 13:26:56.
