data_PCOD8043038
_publ_section_title
;
Structure prediction by ZEFSAII (Michael W. Deem and Ramdas Pophale) SiO2 
 PCOD8043038
Probable space group: P -1
;
_chemical_formula_sum "Si O2"
_cell_formula_units_Z 16
_cell_length_a 10.223686
_cell_length_b 7.424394
_cell_length_c 17.791932
_cell_angle_alpha 72.416139
_cell_angle_beta 143.401650
_cell_angle_gamma 109.860334
_cell_volume 756.238186
_symmetry_space_group_name_H-M "P -1"
_symmetry_group_IT_number 2
_symmetry_cell_setting 'triclinic'
loop_
_space_group_symop_operation_xyz
x,y,z
-x,-y,-z
loop_
_atom_site_type_symbol
_atom_site_label
_atom_site_fract_x
_atom_site_fract_y
_atom_site_fract_z
Si Si1 0.904158 0.322202 0.528123
Si Si2 0.993929 0.724082 0.878529
Si Si3 0.091649 0.983460 0.626572
Si Si4 0.908727 0.106610 0.850092
Si Si5 0.765369 0.821709 0.616542
Si Si6 0.779926 0.595126 0.943486
Si Si7 0.271432 0.761193 0.392464
Si Si8 0.462383 0.846540 0.735544
O O1 0.839660 0.384319 0.574482
O O2 0.688249 0.200984 0.402304
O O3 0.000000 0.500000 0.500000
O O4 0.096956 0.190497 0.642000
O O5 0.210268 0.614186 0.988689
O O6 0.870487 0.706602 0.744122
O O7 0.048253 0.946329 0.902294
O O8 0.832632 0.592390 0.879188
O O9 0.335919 0.929073 0.736399
O O10 0.927698 0.825158 0.619241
O O11 0.000000 0.000000 0.500000
O O12 0.867409 0.255555 0.746710
O O13 0.046723 0.229992 0.962278
O O14 0.673626 0.000136 0.787640
O O15 0.517387 0.714524 0.495057
O O16 0.733137 0.029641 0.602593
O O17 0.535355 0.653215 0.828126
#
# Coordination Sequence:
#
# PCOD8043038 Si02
#       8
#     2   2   2   2   2   2   2   2
#     4  10  20  36  55  85 114 144 182 232 285 341
#     4   9  18  34  56  81 115 141 185 241 272 323
#     4   9  18  34  55  77 112 147 181 223 286 341
#     4  10  19  36  60  85 114 146 190 240 275 329
#     4   9  16  32  59  82 107 146 187 233 283 330
#     4  10  20  36  57  87 112 146 194 233 278 329
#     4   9  16  31  58  82 108 144 183 231 290 330
#     4  10  19  36  57  78 111 155 183 224 290 335
#
# _framework density 21.157356
#
# number of rings (size 3 to 8) (size 9 to 14) (size 15 to 20)
#    0.000    2.500    0.000    6.000    0.000    0.000 
#   15.750    1.250    0.000    4.500    0.000    0.000 
#    0.000    0.000    0.000    0.000    0.000    0.000 
#
# Total GULP energy -198223.430822 kJ/mol
# GULP energy per Si atom -12388.964426 kJ/mol
# Density = 2.110920 g / cm^3
# Si number density = 21.157356 Si / 1000 Ang^3
#
#
#
# Elastic Constant Matrix: (Units=GPa)
#
#
# Indices 1 2 3 4 5 6 
#
# 1 116.8218 37.3527 60.1144 -23.5900 8.6194 15.1010
# 2 37.3527 63.3039 28.3805 -21.1500 5.1115 3.3773
# 3 60.1144 28.3805 106.5667 -35.9963 -2.6621 1.9602
# 4 -23.5900 -21.1500 -35.9963 31.5606 -1.3183 -3.7420
# 5 8.6194 5.1115 -2.6621 -1.3183 35.3723 -12.8517
# 6 15.1010 3.3773 1.9602 -3.7420 -12.8517 26.6391
#
#
#
# Elastic Compliance Matrix: (Units=1/GPa)
#
#
# Indices 1 2 3 4 5 6 
#
# 1 0.016534 -0.005500 -0.009020 -0.003479 -0.008646 -0.012671
# 2 -0.005500 0.022693 0.001317 0.012748 -0.000803 0.001547
# 3 -0.009020 0.001317 0.020601 0.019142 0.007875 0.009919
# 4 -0.003479 0.012748 0.019142 0.061006 0.006609 0.010705
# 5 -0.008646 -0.000803 0.007875 0.006609 0.040350 0.024819
# 6 -0.012671 0.001547 0.009919 0.010705 0.024819 0.057273
#
#
# Mechanical properties :
#
#
# Convention : Reuss Voigt Hill
#
# Bulk Modulus (GPa) = 29.92067 59.82086 44.87077
# Shear Modulus (GPa) = 19.53090 29.43737 24.48414
#
# Velocity S-wave (km/s) = 3.04159 3.73413 3.40551
# Velocity P-wave (km/s) = 5.14857 6.85035 6.05950
#
# Compressibility (1/GPa) = 0.03342171
#
# Stress axis : x y z
#
# Youngs Moduli (GPa) = 60.48311 44.06571 48.54019
#
# Poissons Ratio (x) = 0.24236 0.43783
# Poissons Ratio (y) = 0.33266 -0.06390
# Poissons Ratio (z) = 0.54555 -0.05801
#
# Static dielectric constant tensor:
#      x y z
#    x 4.342280 -0.262540 0.116130 
#    y -0.262540 3.673810 -0.504220 
#    z 0.116130 -0.504220 4.222060 
# 
# 
# High freq. dielectric constant tensor:
#      x y z
#    x 1.825210 -0.011090 -0.007120 
#    y -0.011090 1.797600 -0.036280 
#    z -0.007120 -0.036280 1.825790 
# 
# From -- ./inp_files/593162.got.cif
#   From: 2010.06.25/outbox.cif.g09.slc.cpg/sg2_297_cif.got.tgz:593162.got - 2010.06.27 13:26:56.
