data_PCOD8043684
_publ_section_title
;
Structure prediction by ZEFSAII (Michael W. Deem and Ramdas Pophale) SiO2 
 PCOD8043684
Probable space group: P -1
;
_chemical_formula_sum "Si O2"
_cell_formula_units_Z 16
_cell_length_a 18.457172
_cell_length_b 11.417468
_cell_length_c 10.627320
_cell_angle_alpha 47.224439
_cell_angle_beta 47.193998
_cell_angle_gamma 84.590406
_cell_volume 882.174299
_symmetry_space_group_name_H-M "P -1"
_symmetry_group_IT_number 2
_symmetry_cell_setting 'triclinic'
loop_
_space_group_symop_operation_xyz
x,y,z
-x,-y,-z
loop_
_atom_site_type_symbol
_atom_site_label
_atom_site_fract_x
_atom_site_fract_y
_atom_site_fract_z
Si Si1 0.013169 0.268366 0.238878
Si Si2 0.138511 0.164283 0.787991
Si Si3 0.007328 0.938207 0.343616
Si Si4 0.210870 0.745919 0.570213
Si Si5 0.719779 0.673974 0.746589
Si Si6 0.442995 0.795530 0.797725
Si Si7 0.573478 0.826834 0.852152
Si Si8 0.291409 0.628033 0.335107
O O1 0.986242 0.203764 0.465411
O O2 0.884163 0.206016 0.371299
O O3 0.139192 0.526822 0.892864
O O4 0.049085 0.145015 0.215954
O O5 0.255663 0.250439 0.485817
O O6 0.162640 0.370298 0.660634
O O7 0.000000 0.000000 0.000000
O O8 0.118794 0.031655 0.032588
O O9 0.857727 0.791057 0.570894
O O10 0.340132 0.939742 0.355066
O O11 0.254818 0.733452 0.390605
O O12 0.639636 0.727665 0.870376
O O13 0.626171 0.414484 0.055054
O O14 0.500000 0.000000 0.500000
O O15 0.565457 0.852280 0.692694
O O16 0.331278 0.741778 0.067324
O O17 0.421014 0.668377 0.205055
#
# Coordination Sequence:
#
# PCOD8043684 Si02
#       8
#     2   2   2   2   2   2   2   2
#     4  10  22  33  59  80 110 146 185 234 273 330
#     4   9  18  33  58  78 108 145 180 226 271 328
#     4  10  19  37  55  85 108 141 187 233 280 312
#     4  11  20  39  56  80 113 148 188 227 279 330
#     4  10  19  37  61  80 113 145 186 221 278 341
#     4   9  21  36  55  83 111 142 182 229 270 328
#     4  10  21  35  58  82 106 154 185 219 279 333
#     4   9  20  35  57  78 114 145 186 220 280 326
#
# _framework density 18.137004999999998
#
# number of rings (size 3 to 8) (size 9 to 14) (size 15 to 20)
#    0.750    1.500    2.500    0.750    1.750    0.000 
#    2.250    0.000    0.000    5.250    0.000    0.000 
#    0.000    0.000    0.000    0.000    0.000    0.000 
#
# Total GULP energy -198251.269290 kJ/mol
# GULP energy per Si atom -12390.704331 kJ/mol
# Density = 1.809572 g / cm^3
# Si number density = 18.137005 Si / 1000 Ang^3
#
#
#
# Elastic Constant Matrix: (Units=GPa)
#
#
# Indices 1 2 3 4 5 6 
#
# 1 61.3761 9.3253 35.4986 -18.4520 12.5562 5.5207
# 2 9.3253 67.8671 33.7063 -15.8103 0.0802 4.7999
# 3 35.4986 33.7063 101.0122 -20.9853 13.2208 4.0659
# 4 -18.4520 -15.8103 -20.9853 29.6166 5.7301 -5.7750
# 5 12.5562 0.0802 13.2208 5.7301 37.1945 -3.4576
# 6 5.5207 4.7999 4.0659 -5.7750 -3.4576 25.1094
#
#
#
# Elastic Compliance Matrix: (Units=1/GPa)
#
#
# Indices 1 2 3 4 5 6 
#
# 1 0.025717 0.002930 -0.005601 0.014791 -0.009272 -0.003182
# 2 0.002930 0.019068 -0.005673 0.007734 -0.000358 -0.001641
# 3 -0.005601 -0.005673 0.015423 0.005342 -0.004361 0.000446
# 4 0.014791 0.007734 0.005342 0.054737 -0.014882 0.004944
# 5 -0.009272 -0.000358 -0.004361 -0.014882 0.034241 0.004105
# 6 -0.003182 -0.001641 0.000446 0.004944 0.004105 0.042469
#
#
# Mechanical properties :
#
#
# Convention : Reuss Voigt Hill
#
# Bulk Modulus (GPa) = 22.97743 43.03510 33.00627
# Shear Modulus (GPa) = 22.43664 28.49910 25.46787
#
# Velocity S-wave (km/s) = 3.52101 3.96829 3.75132
# Velocity P-wave (km/s) = 5.40614 6.69147 6.08285
#
# Compressibility (1/GPa) = 0.04352097
#
# Stress axis : x y z
#
# Youngs Moduli (GPa) = 38.88457 52.44495 64.83634
#
# Poissons Ratio (x) = -0.15365 0.36314
# Poissons Ratio (y) = -0.11392 0.36779
# Poissons Ratio (z) = 0.21779 0.29750
#
# Static dielectric constant tensor:
#      x y z
#    x 3.215360 0.265330 0.044530 
#    y 0.265330 3.240760 0.001900 
#    z 0.044530 0.001900 3.502690 
# 
# 
# High freq. dielectric constant tensor:
#      x y z
#    x 1.681250 0.023680 -0.006060 
#    y 0.023680 1.696350 -0.010510 
#    z -0.006060 -0.010510 1.707160 
# 
# From -- ./inp_files/284218.got.cif
#   From: 2010.06.25/outbox.cif.g09.slc.cpg/sg2_143_cif.got.tgz:284218.got - 2010.06.27 13:26:56.
