data_PCOD8043321
_publ_section_title
;
Structure prediction by ZEFSAII (Michael W. Deem and Ramdas Pophale) SiO2 
 PCOD8043321
Probable space group: P -1
;
_chemical_formula_sum "Si O2"
_cell_formula_units_Z 16
_cell_length_a 19.049517
_cell_length_b 13.566435
_cell_length_c 14.056392
_cell_angle_alpha 45.782920
_cell_angle_beta 133.962002
_cell_angle_gamma 161.948651
_cell_volume 798.790005
_symmetry_space_group_name_H-M "P -1"
_symmetry_group_IT_number 2
_symmetry_cell_setting 'triclinic'
loop_
_space_group_symop_operation_xyz
x,y,z
-x,-y,-z
loop_
_atom_site_type_symbol
_atom_site_label
_atom_site_fract_x
_atom_site_fract_y
_atom_site_fract_z
Si Si1 0.129355 0.508679 0.838054
Si Si2 0.569982 0.935983 0.139488
Si Si3 0.108816 0.288283 0.684063
Si Si4 0.185917 0.854206 0.948724
Si Si5 0.503121 0.130540 0.203344
Si Si6 0.598132 0.226930 0.517381
Si Si7 0.849204 0.187021 0.612208
Si Si8 0.077921 0.252585 0.142451
O O1 0.336558 0.709724 0.839030
O O2 0.909053 0.250695 0.737744
O O3 0.219096 0.771956 0.785312
O O4 0.063171 0.318146 0.986353
O O5 0.340836 0.574054 0.210512
O O6 0.500000 0.000000 0.000000
O O7 0.644835 0.934516 0.123775
O O8 0.345142 0.600726 0.754915
O O9 0.165940 0.408010 0.548160
O O10 0.908151 0.123790 0.652549
O O11 0.027554 0.029737 0.783040
O O12 0.317280 0.998246 0.075468
O O13 0.000000 0.500000 0.000000
O O14 0.067405 0.852101 0.843800
O O15 0.368944 0.824095 0.323129
O O16 0.500000 0.000000 0.500000
O O17 0.418158 0.120077 0.442372
O O18 0.000000 0.500000 0.500000
#
# Coordination Sequence:
#
# PCOD8043321 Si02
#       8
#     2   2   2   2   2   2   2   2
#     4  10  19  36  61  87 112 148 194 237 286 334
#     4  10  19  37  56  83 114 149 193 237 274 337
#     4  10  24  38  55  88 124 152 182 241 294 341
#     4  12  21  36  61  90 110 154 196 234 288 338
#     4  10  20  36  59  88 115 147 197 235 281 342
#     4  10  20  37  57  84 115 149 196 235 270 338
#     4  11  20  37  62  89 111 152 195 232 287 340
#     4  11  23  37  57  87 125 149 185 238 298 345
#
# _framework density 20.030296
#
# number of rings (size 3 to 8) (size 9 to 14) (size 15 to 20)
#    0.000    1.500    8.750    0.000    3.500    3.500 
#    0.000    0.000    0.000    3.750    0.000    0.000 
#    0.000    0.000    0.000    0.000    0.000    0.000 
#
# Total GULP energy -198323.880006 kJ/mol
# GULP energy per Si atom -12395.242500 kJ/mol
# Density = 1.998471 g / cm^3
# Si number density = 20.030296 Si / 1000 Ang^3
#
#
#
# Elastic Constant Matrix: (Units=GPa)
#
#
# Indices 1 2 3 4 5 6 
#
# 1 136.2322 44.6085 37.9532 -10.1396 17.2132 5.0560
# 2 44.6085 80.9017 32.8992 -18.7225 10.7061 -3.3711
# 3 37.9532 32.8992 44.4062 -18.1405 9.9596 -3.0010
# 4 -10.1396 -18.7225 -18.1405 22.8261 2.2297 7.2646
# 5 17.2132 10.7061 9.9596 2.2297 24.4885 -5.8569
# 6 5.0560 -3.3711 -3.0010 7.2646 -5.8569 28.2176
#
#
#
# Elastic Compliance Matrix: (Units=1/GPa)
#
#
# Indices 1 2 3 4 5 6 
#
# 1 0.010822 -0.003164 -0.006996 -0.001868 -0.004025 -0.003416
# 2 -0.003164 0.019873 -0.006650 0.010602 -0.005097 -0.001554
# 3 -0.006996 -0.006650 0.052270 0.037151 -0.018587 -0.007404
# 4 -0.001868 0.010602 0.037151 0.092379 -0.032833 -0.025045
# 5 -0.004025 -0.005097 -0.018587 -0.032833 0.061048 0.019260
# 6 -0.003416 -0.001554 -0.007404 -0.025045 0.019260 0.045524
#
#
# Mechanical properties :
#
#
# Convention : Reuss Voigt Hill
#
# Bulk Modulus (GPa) = 20.26544 54.71798 37.49171
# Shear Modulus (GPa) = 15.06099 24.84504 19.95302
#
# Velocity S-wave (km/s) = 2.74507 3.52571 3.15960
# Velocity P-wave (km/s) = 4.49295 6.62956 5.66294
#
# Compressibility (1/GPa) = 0.04934508
#
# Stress axis : x y z
#
# Youngs Moduli (GPa) = 92.40565 50.32030 19.13127
#
# Poissons Ratio (x) = 0.15921 0.13385
# Poissons Ratio (y) = 0.29237 0.12722
# Poissons Ratio (z) = 0.64650 0.33461
#
# Static dielectric constant tensor:
#      x y z
#    x 4.944090 0.842680 -0.362290 
#    y 0.842680 4.223560 0.116120 
#    z -0.362290 0.116120 3.913600 
# 
# 
# High freq. dielectric constant tensor:
#      x y z
#    x 1.796960 0.019340 -0.008690 
#    y 0.019340 1.759000 0.005790 
#    z -0.008690 0.005790 1.754350 
# 
# From -- ./inp_files/471632.got.cif
#   From: 2010.06.25/outbox.cif.g09.slc.cpg/sg2_236_cif.got.tgz:471632.got - 2010.06.27 13:26:56.
