data_PCOD8043648
_publ_section_title
;
Structure prediction by ZEFSAII (Michael W. Deem and Ramdas Pophale) SiO2 
 PCOD8043648
Probable space group: P -1
;
_chemical_formula_sum "Si O2"
_cell_formula_units_Z 16
_cell_length_a 18.485901
_cell_length_b 19.404219
_cell_length_c 5.772963
_cell_angle_alpha 75.901175
_cell_angle_beta 69.905079
_cell_angle_gamma 20.100744
_cell_volume 647.989520
_symmetry_space_group_name_H-M "P -1"
_symmetry_group_IT_number 2
_symmetry_cell_setting 'triclinic'
loop_
_space_group_symop_operation_xyz
x,y,z
-x,-y,-z
loop_
_atom_site_type_symbol
_atom_site_label
_atom_site_fract_x
_atom_site_fract_y
_atom_site_fract_z
Si Si1 0.892075 0.403402 0.812643
Si Si2 0.631554 0.332302 0.150087
Si Si3 0.740935 0.746325 0.095051
Si Si4 0.095943 0.135360 0.167052
Si Si5 0.985244 0.954419 0.748161
Si Si6 0.546604 0.770271 0.209367
Si Si7 0.349146 0.446459 0.437187
Si Si8 0.828217 0.713630 0.524216
O O1 0.681765 0.546007 0.804337
O O2 0.041922 0.324307 0.550235
O O3 0.780257 0.551673 0.002730
O O4 0.048960 0.204872 0.903788
O O5 0.459322 0.427362 0.383450
O O6 0.500000 0.500000 0.000000
O O7 0.802818 0.133788 0.989962
O O8 0.764819 0.265556 0.240106
O O9 0.679858 0.834608 0.830429
O O10 0.582316 0.815192 0.254882
O O11 0.701641 0.825569 0.315201
O O12 0.000000 0.500000 0.000000
O O13 0.905114 0.333616 0.375340
O O14 0.087617 0.057746 0.260740
O O15 0.335494 0.957909 0.119663
O O16 0.000000 0.000000 0.500000
O O17 0.501051 0.745847 0.460033
O O18 0.000000 0.500000 0.500000
#
# Coordination Sequence:
#
# PCOD8043648 Si02
#       8
#     2   2   2   2   2   2   2   2
#     4  11  23  41  67  92 135 177 222 288 342 413
#     4  11  24  42  70 100 130 175 222 274 336 408
#     4  10  19  37  66  99 128 182 237 289 350 422
#     4  11  26  42  61 101 133 172 226 279 341 413
#     4  11  24  44  68  97 137 171 221 276 336 409
#     4  11  23  41  67  92 133 178 225 281 350 409
#     4  11  24  41  65  95 132 176 224 275 343 410
#     4  10  19  36  68  95 133 179 238 287 354 418
#
# _framework density 24.691758
#
# number of rings (size 3 to 8) (size 9 to 14) (size 15 to 20)
#    0.000    1.250    2.500    4.500    1.750    8.000 
#    0.000    1.250    0.000    0.000    0.000    0.000 
#    0.000    0.000    0.000    0.000    0.000    0.000 
#
# Total GULP energy -198342.880165 kJ/mol
# GULP energy per Si atom -12396.430010 kJ/mol
# Density = 2.463556 g / cm^3
# Si number density = 24.691758 Si / 1000 Ang^3
#
#
#
# Elastic Constant Matrix: (Units=GPa)
#
#
# Indices 1 2 3 4 5 6 
#
# 1 105.0050 28.5400 19.2933 0.8036 -16.0222 -28.6995
# 2 28.5400 81.9326 37.0838 -17.0148 -3.9574 -21.1990
# 3 19.2933 37.0838 122.9615 -17.2488 -10.4914 -9.3586
# 4 0.8036 -17.0148 -17.2488 41.6187 -3.2005 2.6251
# 5 -16.0222 -3.9574 -10.4914 -3.2005 50.9799 -3.3964
# 6 -28.6995 -21.1990 -9.3586 2.6251 -3.3964 36.9250
#
#
#
# Elastic Compliance Matrix: (Units=1/GPa)
#
#
# Indices 1 2 3 4 5 6 
#
# 1 0.013555 -0.002043 -0.000610 -0.001616 0.004523 0.009739
# 2 -0.002043 0.017582 -0.003611 0.005333 0.000800 0.007286
# 3 -0.000610 -0.003611 0.009844 0.002753 0.001720 -0.000090
# 4 -0.001616 0.005333 0.002753 0.027506 0.002250 0.000755
# 5 0.004523 0.000800 0.001720 0.002250 0.022013 0.006276
# 6 0.009739 0.007286 -0.000090 0.000755 0.006276 0.039335
#
#
# Mechanical properties :
#
#
# Convention : Reuss Voigt Hill
#
# Bulk Modulus (GPa) = 35.14654 53.30369 44.22511
# Shear Modulus (GPa) = 32.92784 40.90352 36.91568
#
# Velocity S-wave (km/s) = 3.65575 4.07451 3.87080
# Velocity P-wave (km/s) = 5.66431 6.61589 6.15851
#
# Compressibility (1/GPa) = 0.02845231
#
# Stress axis : x y z
#
# Youngs Moduli (GPa) = 73.77292 56.87500 101.58849
#
# Poissons Ratio (x) = 0.11618 0.06200
# Poissons Ratio (y) = 0.15070 0.36687
# Poissons Ratio (z) = 0.04503 0.20539
#
# Static dielectric constant tensor:
#      x y z
#    x 4.406390 -0.101940 0.165160 
#    y -0.101940 4.437420 -0.192990 
#    z 0.165160 -0.192990 4.945040 
# 
# 
# High freq. dielectric constant tensor:
#      x y z
#    x 1.987900 -0.007590 -0.004130 
#    y -0.007590 1.988930 -0.007470 
#    z -0.004130 -0.007470 1.984060 
# 
# From -- ./inp_files/112348.got.cif
#   From: 2010.06.25/outbox.cif.g09.slc.cpg/sg2_57_cif.got.tgz:112348.got - 2010.06.27 13:26:56.
