data_PCOD8043382
_publ_section_title
;
Structure prediction by ZEFSAII (Michael W. Deem and Ramdas Pophale) SiO2 
 PCOD8043382
Probable space group: P -1
;
_chemical_formula_sum "Si O2"
_cell_formula_units_Z 16
_cell_length_a 8.014508
_cell_length_b 12.323688
_cell_length_c 13.590285
_cell_angle_alpha 56.077906
_cell_angle_beta 43.953697
_cell_angle_gamma 82.051298
_cell_volume 687.451857
_symmetry_space_group_name_H-M "P -1"
_symmetry_group_IT_number 2
_symmetry_cell_setting 'triclinic'
loop_
_space_group_symop_operation_xyz
x,y,z
-x,-y,-z
loop_
_atom_site_type_symbol
_atom_site_label
_atom_site_fract_x
_atom_site_fract_y
_atom_site_fract_z
Si Si1 0.743243 0.845011 0.678085
Si Si2 0.989315 0.519660 0.247237
Si Si3 0.397280 0.741078 0.334331
Si Si4 0.651341 0.153100 0.304408
Si Si5 0.878132 0.655545 0.857052
Si Si6 0.468445 0.945170 0.898873
Si Si7 0.986042 0.805769 0.054970
Si Si8 0.584286 0.319561 0.850448
O O1 0.585521 0.808751 0.658064
O O2 0.840300 0.728638 0.734652
O O3 0.519324 0.845242 0.846292
O O4 0.000000 0.000000 0.500000
O O5 0.745577 0.359097 0.460034
O O6 0.878203 0.630416 0.203487
O O7 0.154656 0.499772 0.093446
O O8 0.172609 0.582449 0.232633
O O9 0.720242 0.826956 0.159653
O O10 0.317841 0.635405 0.325686
O O11 0.326435 0.880192 0.283509
O O12 0.827335 0.267296 0.256380
O O13 0.500000 0.000000 0.500000
O O14 0.847119 0.139728 0.145105
O O15 0.664697 0.646367 0.035261
O O16 0.498362 0.859280 0.026010
O O17 0.157791 0.902123 0.026757
#
# Coordination Sequence:
#
# PCOD8043382 Si02
#       8
#     2   2   2   2   2   2   2   2
#     4  10  19  36  61  96 134 160 204 269 325 378
#     4  11  25  42  65  91 131 176 219 259 329 392
#     4  12  21  40  67  94 125 172 218 264 322 392
#     4  11  22  39  67  98 132 166 217 269 329 383
#     4  11  22  43  68  92 132 177 212 266 330 384
#     4   9  21  37  64  90 124 166 212 263 328 384
#     4  10  23  43  61  92 132 168 211 275 322 382
#     4  10  22  42  63  92 131 167 212 276 324 378
#
# _framework density 23.274357999999999
#
# number of rings (size 3 to 8) (size 9 to 14) (size 15 to 20)
#    0.000    1.500    2.500    3.375    1.750    0.500 
#    2.250    0.000    2.750    0.000    0.000    0.000 
#    0.000    0.000    0.000    0.000    0.000    0.000 
#
# Total GULP energy -198220.550732 kJ/mol
# GULP energy per Si atom -12388.784421 kJ/mol
# Density = 2.322138 g / cm^3
# Si number density = 23.274358 Si / 1000 Ang^3
#
#
#
# Elastic Constant Matrix: (Units=GPa)
#
#
# Indices 1 2 3 4 5 6 
#
# 1 125.4180 7.6608 5.8089 2.9838 -9.0939 6.0107
# 2 7.6608 81.7536 11.2318 -7.0903 9.7358 -5.2661
# 3 5.8089 11.2318 82.4114 -5.3119 8.3122 -4.1135
# 4 2.9838 -7.0903 -5.3119 20.9073 1.3654 2.4428
# 5 -9.0939 9.7358 8.3122 1.3654 32.9712 1.1072
# 6 6.0107 -5.2661 -4.1135 2.4428 1.1072 17.0287
#
#
#
# Elastic Compliance Matrix: (Units=1/GPa)
#
#
# Indices 1 2 3 4 5 6 
#
# 1 0.008562 -0.001435 -0.001031 -0.001753 0.003241 -0.003674
# 2 -0.001435 0.013676 -0.000807 0.004445 -0.004556 0.004199
# 3 -0.001031 -0.000807 0.013025 0.003058 -0.003559 0.003053
# 4 -0.001753 0.004445 0.003058 0.051165 -0.004541 -0.004312
# 5 0.003241 -0.004556 -0.003559 -0.004541 0.033821 -0.004960
# 6 -0.003674 0.004199 0.003053 -0.004312 -0.004960 0.062999
#
#
# Mechanical properties :
#
#
# Convention : Reuss Voigt Hill
#
# Bulk Modulus (GPa) = 34.82417 37.66509 36.24463
# Shear Modulus (GPa) = 25.07947 31.84020 28.45984
#
# Velocity S-wave (km/s) = 3.28618 3.70271 3.50065
# Velocity P-wave (km/s) = 5.42158 5.87353 5.65207
#
# Compressibility (1/GPa) = 0.02871568
#
# Stress axis : x y z
#
# Youngs Moduli (GPa) = 116.80096 73.12210 76.77279
#
# Poissons Ratio (x) = 0.10495 0.07916
# Poissons Ratio (y) = 0.16764 0.06196
# Poissons Ratio (z) = 0.12044 0.05902
#
# Static dielectric constant tensor:
#      x y z
#    x 4.643280 0.046590 0.247050 
#    y 0.046590 4.242920 0.324860 
#    z 0.247050 0.324860 4.590580 
# 
# 
# High freq. dielectric constant tensor:
#      x y z
#    x 1.926580 -0.000950 0.000560 
#    y -0.000950 1.912550 -0.006250 
#    z 0.000560 -0.006250 1.911400 
# 
# From -- ./inp_files/349995.got.cif
#   From: 2010.06.25/outbox.cif.g09.slc.cpg/sg2_175_cif.got.tgz:349995.got - 2010.06.27 13:26:56.
