data_PCOD8043073
_publ_section_title
;
Structure prediction by ZEFSAII (Michael W. Deem and Ramdas Pophale) SiO2 
 PCOD8043073
Probable space group: P -1
;
_chemical_formula_sum "Si O2"
_cell_formula_units_Z 16
_cell_length_a 14.506109
_cell_length_b 6.534407
_cell_length_c 13.500388
_cell_angle_alpha 67.058350
_cell_angle_beta 141.080252
_cell_angle_gamma 125.277281
_cell_volume 651.870519
_symmetry_space_group_name_H-M "P -1"
_symmetry_group_IT_number 2
_symmetry_cell_setting 'triclinic'
loop_
_space_group_symop_operation_xyz
x,y,z
-x,-y,-z
loop_
_atom_site_type_symbol
_atom_site_label
_atom_site_fract_x
_atom_site_fract_y
_atom_site_fract_z
Si Si1 0.336155 0.678630 0.817291
Si Si2 0.420098 0.113051 0.292507
Si Si3 0.763311 0.442956 0.757387
Si Si4 0.219000 0.076508 0.319122
Si Si5 0.315107 0.185067 0.987116
Si Si6 0.125949 0.739340 0.782415
Si Si7 0.783741 0.371089 0.486883
Si Si8 0.049780 0.330811 0.936736
O O1 0.325086 0.444153 0.913814
O O2 0.266631 0.834515 0.795293
O O3 0.219564 0.589654 0.640173
O O4 0.526329 0.849209 0.909874
O O5 0.368732 0.129484 0.358175
O O6 0.611124 0.326325 0.401596
O O7 0.398744 0.828871 0.310907
O O8 0.305833 0.157478 0.105049
O O9 0.736940 0.658944 0.637424
O O10 0.901112 0.395712 0.828102
O O11 0.821244 0.599224 0.879761
O O12 0.194625 0.872908 0.421463
O O13 0.043437 0.956241 0.129874
O O14 0.154992 0.959379 0.843393
O O15 0.937950 0.629615 0.605071
O O16 0.149654 0.518147 0.896222
#
# Coordination Sequence:
#
# PCOD8043073 Si02
#       8
#     2   2   2   2   2   2   2   2
#     4  10  23  42  63  85 121 152 203 247 294 348
#     4  10  21  39  61  88 126 151 200 248 290 350
#     4  10  19  36  57  88 122 154 191 241 298 349
#     4  10  21  36  62  85 120 165 193 233 305 355
#     4  10  22  40  64  92 112 154 198 254 296 345
#     4  11  21  39  64  86 117 158 196 242 304 349
#     4  10  23  42  56  89 126 158 197 249 285 352
#     4   9  20  34  55  91 122 145 193 251 287 350
#
# _framework density 24.544751000000002
#
# number of rings (size 3 to 8) (size 9 to 14) (size 15 to 20)
#    0.000    2.000    1.250    1.500    1.750    3.000 
#    0.000    5.000    0.000    0.000    0.000    0.000 
#    0.000    0.000    0.000    0.000    0.000    0.000 
#
# Total GULP energy -198283.620717 kJ/mol
# GULP energy per Si atom -12392.726295 kJ/mol
# Density = 2.448889 g / cm^3
# Si number density = 24.544751 Si / 1000 Ang^3
#
#
#
# Elastic Constant Matrix: (Units=GPa)
#
#
# Indices 1 2 3 4 5 6 
#
# 1 48.1656 -2.4731 4.2807 8.0178 -7.2915 5.9435
# 2 -2.4731 82.4997 18.1464 5.9232 -5.1997 -4.0180
# 3 4.2807 18.1464 94.8372 5.8351 -8.7234 -0.3245
# 4 8.0178 5.9232 5.8351 29.0123 8.7549 -3.1607
# 5 -7.2915 -5.1997 -8.7234 8.7549 27.5444 -0.1216
# 6 5.9435 -4.0180 -0.3245 -3.1607 -0.1216 21.4913
#
#
#
# Elastic Compliance Matrix: (Units=1/GPa)
#
#
# Indices 1 2 3 4 5 6 
#
# 1 0.025432 0.001830 0.000179 -0.011600 0.010785 -0.008333
# 2 0.001830 0.013181 -0.002051 -0.003688 0.003501 0.001405
# 3 0.000179 -0.002051 0.011535 -0.003350 0.004375 -0.000727
# 4 -0.011600 -0.003688 -0.003350 0.045945 -0.019391 0.009115
# 5 0.010785 0.003501 0.004375 -0.019391 0.047348 -0.004846
# 6 -0.008333 0.001405 -0.000727 0.009115 -0.004846 0.050400
#
#
# Mechanical properties :
#
#
# Convention : Reuss Voigt Hill
#
# Bulk Modulus (GPa) = 19.97468 29.49005 24.73236
# Shear Modulus (GPa) = 23.74025 29.31285 26.52655
#
# Velocity S-wave (km/s) = 3.11340 3.45956 3.29103
# Velocity P-wave (km/s) = 4.59130 5.29140 4.95374
#
# Compressibility (1/GPa) = 0.05006339
#
# Stress axis : x y z
#
# Youngs Moduli (GPa) = 39.32108 75.86631 86.69429
#
# Poissons Ratio (x) = -0.13881 -0.01553
# Poissons Ratio (y) = -0.07194 0.17780
# Poissons Ratio (z) = -0.00705 0.15559
#
# Static dielectric constant tensor:
#      x y z
#    x 4.350970 0.296510 -0.140310 
#    y 0.296510 4.296460 0.124590 
#    z -0.140310 0.124590 4.515410 
# 
# 
# High freq. dielectric constant tensor:
#      x y z
#    x 1.970840 0.013930 -0.007240 
#    y 0.013930 1.966150 0.005980 
#    z -0.007240 0.005980 1.977320 
# 
# From -- ./inp_files/525627.got.cif
#   From: 2010.06.25/outbox.cif.g09.slc.cpg/sg2_263_cif.got.tgz:525627.got - 2010.06.27 13:26:56.
