data_PCOD8043025
_publ_section_title
;
Structure prediction by ZEFSAII (Michael W. Deem and Ramdas Pophale) SiO2 
 PCOD8043025
Probable space group: P -1
;
_chemical_formula_sum "Si O2"
_cell_formula_units_Z 16
_cell_length_a 13.309295
_cell_length_b 9.462107
_cell_length_c 13.162197
_cell_angle_alpha 42.977153
_cell_angle_beta 131.969637
_cell_angle_gamma 131.095583
_cell_volume 792.611717
_symmetry_space_group_name_H-M "P -1"
_symmetry_group_IT_number 2
_symmetry_cell_setting 'triclinic'
loop_
_space_group_symop_operation_xyz
x,y,z
-x,-y,-z
loop_
_atom_site_type_symbol
_atom_site_label
_atom_site_fract_x
_atom_site_fract_y
_atom_site_fract_z
Si Si1 0.186323 0.976303 0.057967
Si Si2 0.851695 0.541522 0.898504
Si Si3 0.850579 0.415548 0.388489
Si Si4 0.124597 0.006731 0.417930
Si Si5 0.367529 0.700316 0.288685
Si Si6 0.806696 0.788409 0.268874
Si Si7 0.672931 0.753751 0.401684
Si Si8 0.878811 0.649744 0.077074
O O1 0.319016 0.887861 0.212423
O O2 0.042422 0.781835 0.090454
O O3 0.182596 0.038769 0.904320
O O4 0.204797 0.183426 0.034841
O O5 0.862014 0.791087 0.752454
O O6 0.726508 0.375227 0.836511
O O7 0.807706 0.505913 0.006124
O O8 0.000000 0.500000 0.000000
O O9 0.755793 0.540750 0.316680
O O10 0.871805 0.480507 0.250571
O O11 0.000000 0.500000 0.500000
O O12 0.790678 0.148832 0.492651
O O13 0.189082 0.089085 0.528475
O O14 0.959166 0.853498 0.396099
O O15 0.532961 0.807094 0.314312
O O16 0.345207 0.499805 0.456313
O O17 0.691600 0.796888 0.271059
#
# Coordination Sequence:
#
# PCOD8043025 Si02
#       8
#     2   2   2   2   2   2   2   2
#     4  10  20  35  58  82 110 145 189 225 287 328
#     4  11  20  35  59  84 113 143 190 235 273 332
#     4   9  21  33  54  86 116 142 179 228 289 330
#     4  10  20  35  55  86 112 145 189 230 278 333
#     4  10  22  39  55  83 111 155 189 226 281 336
#     4  10  19  36  56  87 110 144 187 238 277 327
#     4  10  23  37  56  79 119 151 187 229 280 333
#     4  10  20  35  56  86 112 143 180 238 278 333
#
# _framework density 20.186427999999999
#
# number of rings (size 3 to 8) (size 9 to 14) (size 15 to 20)
#    0.000    2.000    2.500    0.375    5.250    2.500 
#    0.000    1.250    0.000    7.500    0.000    0.000 
#    0.000    0.000    0.000    0.000    0.000    0.000 
#
# Total GULP energy -198330.535738 kJ/mol
# GULP energy per Si atom -12395.658484 kJ/mol
# Density = 2.014048 g / cm^3
# Si number density = 20.186428 Si / 1000 Ang^3
#
#
#
# Elastic Constant Matrix: (Units=GPa)
#
#
# Indices 1 2 3 4 5 6 
#
# 1 111.8003 32.0061 48.9618 -1.8370 4.2501 -18.5833
# 2 32.0061 53.0055 33.3247 -10.2299 -2.2507 -13.6423
# 3 48.9618 33.3247 86.3542 -3.3872 8.4780 -16.3730
# 4 -1.8370 -10.2299 -3.3872 33.3659 -14.9043 2.7225
# 5 4.2501 -2.2507 8.4780 -14.9043 33.2554 1.8196
# 6 -18.5833 -13.6423 -16.3730 2.7225 1.8196 25.3169
#
#
#
# Elastic Compliance Matrix: (Units=1/GPa)
#
#
# Indices 1 2 3 4 5 6 
#
# 1 0.013057 -0.004227 -0.004791 -0.002350 -0.002039 0.004608
# 2 -0.004227 0.031609 -0.009213 0.012688 0.010394 0.005861
# 3 -0.004791 -0.009213 0.019352 -0.004841 -0.007393 0.005086
# 4 -0.002350 0.012688 -0.004841 0.043464 0.022107 -0.004282
# 5 -0.002039 0.010394 -0.007393 0.022107 0.043164 -0.006156
# 6 0.004608 0.005861 0.005086 -0.004282 -0.006156 0.050232
#
#
# Mechanical properties :
#
#
# Convention : Reuss Voigt Hill
#
# Bulk Modulus (GPa) = 36.28782 53.30503 44.79643
# Shear Modulus (GPa) = 20.28188 27.51215 23.89701
#
# Velocity S-wave (km/s) = 3.17318 3.69576 3.44440
# Velocity P-wave (km/s) = 5.60721 6.68395 6.16912
#
# Compressibility (1/GPa) = 0.02755745
#
# Stress axis : x y z
#
# Youngs Moduli (GPa) = 76.58536 31.63659 51.67374
#
# Poissons Ratio (x) = 0.13372 0.24755
# Poissons Ratio (y) = 0.32370 0.47608
# Poissons Ratio (z) = 0.36689 0.29148
#
# Static dielectric constant tensor:
#      x y z
#    x 3.575000 -0.417890 0.102160 
#    y -0.417890 3.706420 -0.086840 
#    z 0.102160 -0.086840 3.763170 
# 
# 
# High freq. dielectric constant tensor:
#      x y z
#    x 1.765390 -0.033640 0.000060 
#    y -0.033640 1.776070 -0.009830 
#    z 0.000060 -0.009830 1.794760 
# 
# From -- ./inp_files/269601.got.cif
#   From: 2010.06.25/outbox.cif.g09.slc.cpg/sg2_135_cif.got.tgz:269601.got - 2010.06.27 13:26:56.
