data_PCOD8043456
_publ_section_title
;
Structure prediction by ZEFSAII (Michael W. Deem and Ramdas Pophale) SiO2 
 PCOD8043456
Probable space group: P -1
;
_chemical_formula_sum "Si O2"
_cell_formula_units_Z 16
_cell_length_a 11.567885
_cell_length_b 14.804565
_cell_length_c 8.652232
_cell_angle_alpha 126.523815
_cell_angle_beta 40.885176
_cell_angle_gamma 106.323136
_cell_volume 738.130855
_symmetry_space_group_name_H-M "P -1"
_symmetry_group_IT_number 2
_symmetry_cell_setting 'triclinic'
loop_
_space_group_symop_operation_xyz
x,y,z
-x,-y,-z
loop_
_atom_site_type_symbol
_atom_site_label
_atom_site_fract_x
_atom_site_fract_y
_atom_site_fract_z
Si Si1 0.905324 0.577596 0.822401
Si Si2 0.446877 0.996623 0.874533
Si Si3 0.865545 0.107822 0.841261
Si Si4 0.230784 0.246677 0.403830
Si Si5 0.185424 0.685997 0.127090
Si Si6 0.239676 0.498652 0.629556
Si Si7 0.820346 0.823457 0.266123
Si Si8 0.428403 0.513364 0.913593
O O1 0.000000 0.500000 0.500000
O O2 0.037939 0.540725 0.798327
O O3 0.859699 0.719583 0.991822
O O4 0.708817 0.562844 0.045168
O O5 0.632878 0.931682 0.519487
O O6 0.295816 0.927091 0.942508
O O7 0.500000 0.000000 0.000000
O O8 0.359865 0.135545 0.059247
O O9 0.772578 0.215886 0.925572
O O10 0.992829 0.139578 0.876633
O O11 0.000000 0.000000 0.500000
O O12 0.311421 0.355771 0.421212
O O13 0.216697 0.220234 0.571641
O O14 0.027490 0.273255 0.559354
O O15 0.223972 0.560022 0.872955
O O16 0.319888 0.650167 0.105880
O O17 0.387253 0.542660 0.430785
O O18 0.500000 0.500000 0.000000
#
# Coordination Sequence:
#
# PCOD8043456 Si02
#       8
#     2   2   2   2   2   2   2   2
#     4  12  24  44  64  86 132 171 222 270 330 392
#     4  10  20  34  57  95 137 166 206 261 330 390
#     4  11  19  35  58  98 137 164 209 265 326 387
#     4  10  19  36  62  95 134 164 205 267 327 382
#     4  11  22  38  64  98 137 168 216 275 329 389
#     4  12  23  41  63  98 130 168 219 280 331 387
#     4  10  22  36  61  93 127 170 209 264 324 382
#     4  12  27  40  60  95 128 179 219 260 336 398
#
# _framework density 21.676373000000002
#
# number of rings (size 3 to 8) (size 9 to 14) (size 15 to 20)
#    0.000    1.000    8.750    1.500    5.250    0.000 
#    0.000    0.000    0.000    0.750    0.000    4.375 
#    0.000    0.000    0.000    0.000    0.000    0.000 
#
# Total GULP energy -198301.617886 kJ/mol
# GULP energy per Si atom -12393.851118 kJ/mol
# Density = 2.162704 g / cm^3
# Si number density = 21.676373 Si / 1000 Ang^3
#
#
#
# Elastic Constant Matrix: (Units=GPa)
#
#
# Indices 1 2 3 4 5 6 
#
# 1 94.1403 38.5163 50.5777 4.5332 -20.4299 5.0948
# 2 38.5163 106.6837 45.6301 22.9133 -8.9265 22.9466
# 3 50.5777 45.6301 120.3254 29.6620 -12.9737 9.3087
# 4 4.5332 22.9133 29.6620 42.9675 4.5170 -8.5173
# 5 -20.4299 -8.9265 -12.9737 4.5170 29.4997 0.5334
# 6 5.0948 22.9466 9.3087 -8.5173 0.5334 38.4923
#
#
#
# Elastic Compliance Matrix: (Units=1/GPa)
#
#
# Indices 1 2 3 4 5 6 
#
# 1 0.016796 -0.004543 -0.005948 0.004597 0.006886 0.002845
# 2 -0.004543 0.016133 -0.000401 -0.010435 0.003361 -0.011274
# 3 -0.005948 -0.000401 0.014286 -0.010357 0.003714 -0.004771
# 4 0.004597 -0.010435 -0.010357 0.040052 -0.010971 0.017131
# 5 0.006886 0.003361 0.003714 -0.010971 0.043122 -0.006838
# 6 0.002845 -0.011274 -0.004771 0.017131 -0.006838 0.037363
#
#
# Mechanical properties :
#
#
# Convention : Reuss Voigt Hill
#
# Bulk Modulus (GPa) = 39.32394 65.62197 52.47295
# Shear Modulus (GPa) = 25.25095 34.62024 29.93559
#
# Velocity S-wave (km/s) = 3.41678 4.00076 3.72024
# Velocity P-wave (km/s) = 5.80918 7.18893 6.53557
#
# Compressibility (1/GPa) = 0.02542980
#
# Stress axis : x y z
#
# Youngs Moduli (GPa) = 59.53879 61.98575 69.99901
#
# Poissons Ratio (x) = 0.28159 0.41636
# Poissons Ratio (y) = 0.27048 0.02810
# Poissons Ratio (z) = 0.35414 0.02488
#
# Static dielectric constant tensor:
#      x y z
#    x 4.401390 0.445960 -0.701830 
#    y 0.445960 4.362550 0.400480 
#    z -0.701830 0.400480 4.623570 
# 
# 
# High freq. dielectric constant tensor:
#      x y z
#    x 1.834090 0.023310 -0.036570 
#    y 0.023310 1.841300 0.016350 
#    z -0.036570 0.016350 1.848040 
# 
# From -- ./inp_files/274210.got.cif
#   From: 2010.06.25/outbox.cif.g09.slc.cpg/sg2_138_cif.got.tgz:274210.got - 2010.06.27 13:26:56.
