data_PCOD8043569
_publ_section_title
;
Structure prediction by ZEFSAII (Michael W. Deem and Ramdas Pophale) SiO2 
 PCOD8043569
Probable space group: P -1
;
_chemical_formula_sum "Si O2"
_cell_formula_units_Z 16
_cell_length_a 9.534606
_cell_length_b 15.199870
_cell_length_c 9.163121
_cell_angle_alpha 38.671045
_cell_angle_beta 110.863242
_cell_angle_gamma 112.208270
_cell_volume 763.931425
_symmetry_space_group_name_H-M "P -1"
_symmetry_group_IT_number 2
_symmetry_cell_setting 'triclinic'
loop_
_space_group_symop_operation_xyz
x,y,z
-x,-y,-z
loop_
_atom_site_type_symbol
_atom_site_label
_atom_site_fract_x
_atom_site_fract_y
_atom_site_fract_z
Si Si1 0.742611 0.325006 0.261671
Si Si2 0.602630 0.383591 0.430265
Si Si3 0.743358 0.696263 0.047942
Si Si4 0.724040 0.631673 0.796902
Si Si5 0.012823 0.827762 0.579398
Si Si6 0.951355 0.135950 0.122691
Si Si7 0.386252 0.876233 0.038050
Si Si8 0.508204 0.138288 0.224024
O O1 0.682370 0.309460 0.425347
O O2 0.608803 0.270256 0.170790
O O3 0.880068 0.237369 0.409421
O O4 0.799642 0.490654 0.029486
O O5 0.698235 0.538967 0.306526
O O6 0.434649 0.406024 0.295714
O O7 0.589677 0.280319 0.698620
O O8 0.695027 0.694908 0.862018
O O9 0.654080 0.814178 0.933616
O O10 0.925656 0.746339 0.068617
O O11 0.839876 0.746440 0.599235
O O12 0.067815 0.810337 0.788487
O O13 0.022807 0.992529 0.332069
O O14 0.789948 0.112150 0.011414
O O15 0.415369 0.896973 0.851521
O O16 0.500000 0.000000 0.000000
O O17 0.500000 0.000000 0.500000
#
# Coordination Sequence:
#
# PCOD8043569 Si02
#       8
#     2   2   2   2   2   2   2   2
#     4  11  19  38  62  96 118 161 218 249 300 372
#     4  11  22  41  64  92 134 163 198 259 315 369
#     4  10  21  40  65  94 122 167 211 254 306 365
#     4  10  19  36  64  95 129 157 206 261 310 357
#     4  10  20  35  62  93 123 158 211 265 298 359
#     4  10  22  39  60  90 125 165 208 257 311 361
#     4  12  27  43  61  92 129 165 205 258 322 366
#     4  12  23  39  66  93 122 160 215 253 299 381
#
# _framework density 20.944288
#
# number of rings (size 3 to 8) (size 9 to 14) (size 15 to 20)
#    0.000    1.250    3.750    3.375    3.500    1.000 
#    0.000    3.750    0.000    0.000    0.000    0.000 
#    0.000    0.000    0.000    0.000    0.000    0.000 
#
# Total GULP energy -198446.706657 kJ/mol
# GULP energy per Si atom -12402.919166 kJ/mol
# Density = 2.089662 g / cm^3
# Si number density = 20.944288 Si / 1000 Ang^3
#
#
#
# Elastic Constant Matrix: (Units=GPa)
#
#
# Indices 1 2 3 4 5 6 
#
# 1 123.2760 43.5150 40.6024 -13.4568 5.4266 13.8417
# 2 43.5150 71.1822 27.5049 -19.4717 -7.8255 12.9814
# 3 40.6024 27.5049 104.3880 -15.4534 -12.6071 5.0771
# 4 -13.4568 -19.4717 -15.4534 25.5858 1.2872 -0.8781
# 5 5.4266 -7.8255 -12.6071 1.2872 30.4109 -7.1179
# 6 13.8417 12.9814 5.0771 -0.8781 -7.1179 45.1903
#
#
#
# Elastic Compliance Matrix: (Units=1/GPa)
#
#
# Indices 1 2 3 4 5 6 
#
# 1 0.012001 -0.006241 -0.003675 -0.000447 -0.005813 -0.002394
# 2 -0.006241 0.023082 -0.000862 0.013375 0.005304 -0.003527
# 3 -0.003675 -0.000862 0.012579 0.004756 0.005669 0.000945
# 4 -0.000447 0.013375 0.004756 0.051670 0.002646 -0.002819
# 5 -0.005813 0.005304 0.005669 0.002646 0.038880 0.005795
# 6 -0.002394 -0.003527 0.000945 -0.002819 0.005795 0.024627
#
#
# Mechanical properties :
#
#
# Convention : Reuss Voigt Hill
#
# Bulk Modulus (GPa) = 38.30678 58.01011 48.15845
# Shear Modulus (GPa) = 25.89364 32.71899 29.30631
#
# Velocity S-wave (km/s) = 3.51993 3.95674 3.74471
# Velocity P-wave (km/s) = 5.90334 6.97366 6.46070
#
# Compressibility (1/GPa) = 0.02610504
#
# Stress axis : x y z
#
# Youngs Moduli (GPa) = 83.32387 43.32406 79.49773
#
# Poissons Ratio (x) = 0.27039 0.29218
# Poissons Ratio (y) = 0.52004 0.06853
# Poissons Ratio (z) = 0.30624 0.03735
#
# Static dielectric constant tensor:
#      x y z
#    x 3.946030 0.156530 -0.160660 
#    y 0.156530 3.827260 -0.259330 
#    z -0.160660 -0.259330 3.561820 
# 
# 
# High freq. dielectric constant tensor:
#      x y z
#    x 1.831840 0.007580 -0.002600 
#    y 0.007580 1.808530 -0.028970 
#    z -0.002600 -0.028970 1.804200 
# 
# From -- ./inp_files/205424.got.cif
#   From: 2010.06.25/outbox.cif.g09.slc.cpg/sg2_103_cif.got.tgz:205424.got - 2010.06.27 13:26:56.
