data_PCOD8043896
_publ_section_title
;
Structure prediction by ZEFSAII (Michael W. Deem and Ramdas Pophale) SiO2 
 PCOD8043896
Probable space group: P -1
;
_chemical_formula_sum "Si O2"
_cell_formula_units_Z 16
_cell_length_a 22.600473
_cell_length_b 18.816502
_cell_length_c 9.106607
_cell_angle_alpha 43.302673
_cell_angle_beta 43.048026
_cell_angle_gamma 17.626238
_cell_volume 791.269936
_symmetry_space_group_name_H-M "P -1"
_symmetry_group_IT_number 2
_symmetry_cell_setting 'triclinic'
loop_
_space_group_symop_operation_xyz
x,y,z
-x,-y,-z
loop_
_atom_site_type_symbol
_atom_site_label
_atom_site_fract_x
_atom_site_fract_y
_atom_site_fract_z
Si Si1 0.907369 0.621883 0.200092
Si Si2 0.723447 0.005855 0.778089
Si Si3 0.506476 0.278956 0.039509
Si Si4 0.800844 0.843434 0.348323
Si Si5 0.830249 0.494506 0.621703
Si Si6 0.973096 0.891795 0.332804
Si Si7 0.314075 0.663917 0.993429
Si Si8 0.658381 0.915284 0.793452
O O1 0.876699 0.677456 0.344407
O O2 0.800215 0.625432 0.371417
O O3 0.133903 0.363699 0.129453
O O4 0.818357 0.805980 0.986408
O O5 0.884182 0.923884 0.582652
O O6 0.632709 0.052207 0.724245
O O7 0.566448 0.230073 0.833703
O O8 0.376882 0.312617 0.217532
O O9 0.692800 0.055554 0.144229
O O10 0.391647 0.503151 0.967723
O O11 0.653004 0.951309 0.576036
O O12 0.997521 0.675218 0.318159
O O13 0.887873 0.334634 0.664384
O O14 0.784167 0.134068 0.217140
O O15 0.134008 0.809706 0.202158
O O16 0.500000 0.500000 0.000000
O O17 0.500000 0.000000 0.000000
#
# Coordination Sequence:
#
# PCOD8043896 Si02
#       8
#     2   2   2   2   2   2   2   2
#     4  10  22  37  57  82 125 165 195 230 287 345
#     4  11  23  39  56  92 125 151 194 246 296 340
#     4  10  24  37  63  88 116 155 199 242 296 353
#     4  10  21  38  55  84 120 160 204 231 278 349
#     4  10  19  37  61  81 120 164 195 230 283 347
#     4  10  21  40  62  87 115 151 190 249 299 350
#     4  10  22  42  67  86 108 151 201 242 304 365
#     4  11  23  33  57  87 125 160 201 239 281 335
#
# _framework density 20.220659000000001
#
# number of rings (size 3 to 8) (size 9 to 14) (size 15 to 20)
#    0.000    1.750    2.500    2.625    5.250    2.500 
#    0.000    0.625    0.000    0.000    0.000    0.000 
#    0.000    0.000    0.000    0.000    0.000    0.000 
#
# Total GULP energy -198243.069436 kJ/mol
# GULP energy per Si atom -12390.191840 kJ/mol
# Density = 2.017464 g / cm^3
# Si number density = 20.220659 Si / 1000 Ang^3
#
#
#
# Elastic Constant Matrix: (Units=GPa)
#
#
# Indices 1 2 3 4 5 6 
#
# 1 89.9440 47.0221 31.9809 4.8093 -5.2823 2.7046
# 2 47.0221 86.5980 23.1354 0.1698 -7.5824 3.8426
# 3 31.9809 23.1354 121.2958 37.0118 -7.8276 -7.3110
# 4 4.8093 0.1698 37.0118 56.5961 5.0769 -2.4127
# 5 -5.2823 -7.5824 -7.8276 5.0769 26.7681 4.1401
# 6 2.7046 3.8426 -7.3110 -2.4127 4.1401 35.6468
#
#
#
# Elastic Compliance Matrix: (Units=1/GPa)
#
#
# Indices 1 2 3 4 5 6 
#
# 1 0.016403 -0.008051 -0.003005 0.000543 0.000125 -0.000971
# 2 -0.008051 0.016588 -0.001325 0.001182 0.002760 -0.001690
# 3 -0.003005 -0.001325 0.012049 -0.007877 0.003759 0.001872
# 4 0.000543 0.001182 -0.007877 0.023366 -0.006376 0.000538
# 5 0.000125 0.002760 0.003759 -0.006376 0.041208 -0.004754
# 6 -0.000971 -0.001690 0.001872 0.000538 -0.004754 0.029281
#
#
# Mechanical properties :
#
#
# Convention : Reuss Voigt Hill
#
# Bulk Modulus (GPa) = 49.32005 55.79051 52.55528
# Shear Modulus (GPa) = 29.33985 36.84882 33.09434
#
# Velocity S-wave (km/s) = 3.81331 4.27351 4.04995
# Velocity P-wave (km/s) = 6.62060 7.21119 6.92220
#
# Compressibility (1/GPa) = 0.02027573
#
# Stress axis : x y z
#
# Youngs Moduli (GPa) = 60.96414 60.28611 82.99661
#
# Poissons Ratio (x) = 0.48536 0.24944
# Poissons Ratio (y) = 0.49082 0.11001
# Poissons Ratio (z) = 0.18323 0.07991
#
# Static dielectric constant tensor:
#      x y z
#    x 3.975170 0.152510 -0.130090 
#    y 0.152510 3.798560 0.195310 
#    z -0.130090 0.195310 3.868260 
# 
# 
# High freq. dielectric constant tensor:
#      x y z
#    x 1.777440 0.009710 -0.008720 
#    y 0.009710 1.796880 0.008530 
#    z -0.008720 0.008530 1.791880 
# 
# From -- ./inp_files/208519.got.cif
#   From: 2010.06.25/outbox.cif.g09.slc.cpg/sg2_105_cif.got.tgz:208519.got - 2010.06.27 13:26:56.
