data_PCOD8043114
_publ_section_title
;
Structure prediction by ZEFSAII (Michael W. Deem and Ramdas Pophale) SiO2 
 PCOD8043114
Probable space group: P -1
;
_chemical_formula_sum "Si O2"
_cell_formula_units_Z 16
_cell_length_a 21.119558
_cell_length_b 9.028799
_cell_length_c 17.651125
_cell_angle_alpha 48.348248
_cell_angle_beta 160.918647
_cell_angle_gamma 134.119000
_cell_volume 789.587061
_symmetry_space_group_name_H-M "P -1"
_symmetry_group_IT_number 2
_symmetry_cell_setting 'triclinic'
loop_
_space_group_symop_operation_xyz
x,y,z
-x,-y,-z
loop_
_atom_site_type_symbol
_atom_site_label
_atom_site_fract_x
_atom_site_fract_y
_atom_site_fract_z
Si Si1 0.962722 0.583879 0.536812
Si Si2 0.936071 0.937307 0.721282
Si Si3 0.260149 0.335976 0.986030
Si Si4 0.868072 0.820130 0.859636
Si Si5 0.521856 0.774587 0.587266
Si Si6 0.554308 0.598573 0.109327
Si Si7 0.753483 0.198234 0.331056
Si Si8 0.073840 0.497601 0.168280
O O1 0.796887 0.648964 0.380102
O O2 0.837664 0.419108 0.391469
O O3 0.110702 0.478031 0.786246
O O4 0.099177 0.789611 0.579076
O O5 0.882066 0.884813 0.765654
O O6 0.965615 0.742966 0.772891
O O7 0.753966 0.006700 0.451087
O O8 0.138772 0.123676 0.879905
O O9 0.339652 0.283128 0.173254
O O10 0.445356 0.442928 0.104946
O O11 0.634248 0.770247 0.635837
O O12 0.948752 0.619636 0.035058
O O13 0.000000 0.000000 0.000000
O O14 0.309723 0.607298 0.402507
O O15 0.500000 0.000000 0.500000
O O16 0.500000 0.500000 0.000000
O O17 0.474673 0.805927 0.951551
O O18 0.000000 0.500000 0.000000
#
# Coordination Sequence:
#
# PCOD8043114 Si02
#       8
#     2   2   2   2   2   2   2   2
#     4   8  15  29  48  77 115 141 184 236 281 328
#     4  10  19  36  58  85 120 151 186 246 295 336
#     4  10  20  33  55  85 115 148 192 239 289 334
#     4  11  21  40  60  82 115 155 195 237 287 347
#     4  12  23  38  60  85 115 155 197 239 289 348
#     4   9  16  29  51  83 114 145 190 239 284 337
#     4   8  15  28  48  78 113 143 180 235 286 332
#     4  10  23  41  58  83 119 154 194 243 291 342
#
# _framework density 20.263756999999998
#
# number of rings (size 3 to 8) (size 9 to 14) (size 15 to 20)
#    0.000    2.250    2.500    3.000    0.000    6.000 
#    0.000    7.500    0.000    3.000    0.000    7.875 
#    0.000    0.000    0.000    0.000    0.000    0.000 
#
# Total GULP energy -198249.069427 kJ/mol
# GULP energy per Si atom -12390.566839 kJ/mol
# Density = 2.021764 g / cm^3
# Si number density = 20.263757 Si / 1000 Ang^3
#
#
#
# Elastic Constant Matrix: (Units=GPa)
#
#
# Indices 1 2 3 4 5 6 
#
# 1 83.8045 35.4096 53.7577 -22.8334 21.1418 12.8804
# 2 35.4096 96.2780 55.0257 -28.3394 3.3698 -2.0909
# 3 53.7577 55.0257 153.6965 -25.7955 24.8857 9.8942
# 4 -22.8334 -28.3394 -25.7955 29.9965 -0.6140 -3.8918
# 5 21.1418 3.3698 24.8857 -0.6140 39.6267 -3.1514
# 6 12.8804 -2.0909 9.8942 -3.8918 -3.1514 24.5031
#
#
#
# Elastic Compliance Matrix: (Units=1/GPa)
#
#
# Indices 1 2 3 4 5 6 
#
# 1 0.021964 -0.003831 -0.002292 0.009508 -0.010665 -0.010808
# 2 -0.003831 0.017452 -0.004175 0.011028 0.003945 0.007448
# 3 -0.002292 -0.004175 0.010300 0.002601 -0.005133 -0.003557
# 4 0.009508 0.011028 0.002601 0.053422 -0.006615 0.002527
# 5 -0.010665 0.003945 -0.005133 -0.006615 0.034619 0.011417
# 6 -0.010808 0.007448 -0.003557 0.002527 0.011417 0.050434
#
#
# Mechanical properties :
#
#
# Convention : Reuss Voigt Hill
#
# Bulk Modulus (GPa) = 34.34295 69.12947 51.73621
# Shear Modulus (GPa) = 22.88401 31.46435 27.17418
#
# Velocity S-wave (km/s) = 3.36416 3.94476 3.66597
# Velocity P-wave (km/s) = 5.66347 7.41195 6.59590
#
# Compressibility (1/GPa) = 0.02911806
#
# Stress axis : x y z
#
# Youngs Moduli (GPa) = 45.52947 57.30160 97.09165
#
# Poissons Ratio (x) = 0.21950 0.22257
# Poissons Ratio (y) = 0.17440 0.40540
# Poissons Ratio (z) = 0.10437 0.23926
#
# Static dielectric constant tensor:
#      x y z
#    x 3.731520 0.135140 0.264640 
#    y 0.135140 3.608980 -0.108480 
#    z 0.264640 -0.108480 3.886330 
# 
# 
# High freq. dielectric constant tensor:
#      x y z
#    x 1.773450 0.014820 0.008320 
#    y 0.014820 1.764880 -0.020960 
#    z 0.008320 -0.020960 1.807560 
# 
# From -- ./inp_files/577590.got.cif
#   From: 2010.06.25/outbox.cif.g09.slc.cpg/sg2_289_cif.got.tgz:577590.got - 2010.06.27 13:26:56.
