data_PCOD8043362
_publ_section_title
;
Structure prediction by ZEFSAII (Michael W. Deem and Ramdas Pophale) SiO2 
 PCOD8043362
Probable space group: P -1
;
_chemical_formula_sum "Si O2"
_cell_formula_units_Z 16
_cell_length_a 5.105081
_cell_length_b 9.084457
_cell_length_c 18.783003
_cell_angle_alpha 102.396363
_cell_angle_beta 100.888409
_cell_angle_gamma 78.555060
_cell_volume 824.075129
_symmetry_space_group_name_H-M "P -1"
_symmetry_group_IT_number 2
_symmetry_cell_setting 'triclinic'
loop_
_space_group_symop_operation_xyz
x,y,z
-x,-y,-z
loop_
_atom_site_type_symbol
_atom_site_label
_atom_site_fract_x
_atom_site_fract_y
_atom_site_fract_z
Si Si1 0.439378 0.051736 0.745686
Si Si2 0.794038 0.960499 0.042151
Si Si3 0.446388 0.381202 0.825033
Si Si4 0.717080 0.380414 0.278457
Si Si5 0.472066 0.784639 0.627475
Si Si6 0.979681 0.079155 0.200751
Si Si7 0.996326 0.376208 0.426724
Si Si8 0.022110 0.376124 0.925560
O O1 0.421867 0.233309 0.760586
O O2 0.470427 0.966211 0.660922
O O3 0.157097 0.023170 0.761264
O O4 0.703954 0.987363 0.799962
O O5 0.849800 0.785841 0.051993
O O6 0.817918 0.075646 0.119282
O O7 0.500000 0.000000 0.000000
O O8 0.000000 0.000000 0.000000
O O9 0.428203 0.513624 0.779375
O O10 0.728702 0.366212 0.878594
O O11 0.210846 0.418049 0.875554
O O12 0.496318 0.296914 0.300483
O O13 0.947070 0.252571 0.243016
O O14 0.877395 0.462163 0.356149
O O15 0.706918 0.718128 0.578748
O O16 0.193927 0.748458 0.574094
O O17 0.000000 0.500000 0.500000
O O18 0.000000 0.500000 0.000000
#
# Coordination Sequence:
#
# PCOD8043362 Si02
#       8
#     2   2   2   2   2   2   2   2
#     4  11  18  39  59  82 114 148 194 250 283 345
#     4  12  25  41  62  84 111 156 205 249 299 354
#     4  12  24  41  63  84 121 156 196 250 302 356
#     4   9  24  34  63  92 115 155 203 238 296 344
#     4   9  19  35  58  89 116 150 202 230 286 342
#     4  11  21  39  59  83 115 148 205 247 283 349
#     4  10  19  36  61  91 126 152 192 241 287 347
#     4  12  28  44  56  85 122 160 194 248 318 358
#
# _framework density 19.415707000000001
#
# number of rings (size 3 to 8) (size 9 to 14) (size 15 to 20)
#    0.750    0.500    3.750    2.250    5.250    0.000 
#    0.000    0.000    0.000    1.500    0.000    0.000 
#    0.000    0.000    0.000    0.000    0.000    0.000 
#
# Total GULP energy -198259.553329 kJ/mol
# GULP energy per Si atom -12391.222083 kJ/mol
# Density = 1.937152 g / cm^3
# Si number density = 19.415707 Si / 1000 Ang^3
#
#
#
# Elastic Constant Matrix: (Units=GPa)
#
#
# Indices 1 2 3 4 5 6 
#
# 1 113.4462 18.8014 22.6476 16.2090 1.8799 -6.8923
# 2 18.8014 86.2841 36.7543 13.3428 -0.8732 1.4944
# 3 22.6476 36.7543 91.4033 32.6233 2.7482 -0.5952
# 4 16.2090 13.3428 32.6233 39.5155 -3.2943 1.7462
# 5 1.8799 -0.8732 2.7482 -3.2943 30.5866 7.5253
# 6 -6.8923 1.4944 -0.5952 1.7462 7.5253 21.4566
#
#
#
# Elastic Compliance Matrix: (Units=1/GPa)
#
#
# Indices 1 2 3 4 5 6 
#
# 1 0.009964 -0.001500 -0.000524 -0.003508 -0.002042 0.004292
# 2 -0.001500 0.014287 -0.005700 0.000735 0.001651 -0.002274
# 3 -0.000524 -0.005700 0.018306 -0.013452 -0.004022 0.003242
# 4 -0.003508 0.000735 -0.013452 0.038540 0.007387 -0.007278
# 5 -0.002042 0.001651 -0.004022 0.007387 0.037636 -0.014684
# 6 0.004292 -0.002274 0.003242 -0.007278 -0.014684 0.053975
#
#
# Mechanical properties :
#
#
# Convention : Reuss Voigt Hill
#
# Bulk Modulus (GPa) = 36.89088 49.72668 43.30878
# Shear Modulus (GPa) = 25.35593 32.50710 28.93151
#
# Velocity S-wave (km/s) = 3.61771 4.09622 3.86438
# Velocity P-wave (km/s) = 6.04088 6.93103 6.50121
#
# Compressibility (1/GPa) = 0.02710697
#
# Stress axis : x y z
#
# Youngs Moduli (GPa) = 100.36308 69.99370 54.62813
#
# Poissons Ratio (x) = 0.10502 0.02864
# Poissons Ratio (y) = 0.15059 0.31139
# Poissons Ratio (z) = 0.05261 0.39897
#
# Static dielectric constant tensor:
#      x y z
#    x 3.690950 -0.067600 0.000380 
#    y -0.067600 3.598330 0.293200 
#    z 0.000380 0.293200 3.512460 
# 
# 
# High freq. dielectric constant tensor:
#      x y z
#    x 1.775250 -0.004270 0.005090 
#    y -0.004270 1.735980 0.034500 
#    z 0.005090 0.034500 1.743350 
# 
# From -- ./inp_files/547314.got.cif
#   From: 2010.06.25/outbox.cif.g09.slc.cpg/sg2_274_cif.got.tgz:547314.got - 2010.06.27 13:26:56.
