data_PCOD8043965
_publ_section_title
;
Structure prediction by ZEFSAII (Michael W. Deem and Ramdas Pophale) SiO2 
 PCOD8043965
Probable space group: P -1
;
_chemical_formula_sum "Si O2"
_cell_formula_units_Z 14
_cell_length_a 9.443247
_cell_length_b 8.746821
_cell_length_c 9.088531
_cell_angle_alpha 76.723471
_cell_angle_beta 98.185294
_cell_angle_gamma 98.276710
_cell_volume 718.351985
_symmetry_space_group_name_H-M "P -1"
_symmetry_group_IT_number 2
_symmetry_cell_setting 'triclinic'
loop_
_space_group_symop_operation_xyz
x,y,z
-x,-y,-z
loop_
_atom_site_type_symbol
_atom_site_label
_atom_site_fract_x
_atom_site_fract_y
_atom_site_fract_z
Si Si1 0.936832 0.952099 0.157568
Si Si2 0.845067 0.440715 0.420168
Si Si3 0.788610 0.155624 0.674945
Si Si4 0.209970 0.785828 0.794794
Si Si5 0.589047 0.163629 0.922672
Si Si6 0.323061 0.265424 0.726710
Si Si7 0.352101 0.023608 0.546155
O O1 0.781280 0.849494 0.156763
O O2 0.042555 0.837535 0.268780
O O3 0.922226 0.114365 0.207297
O O4 0.000000 0.000000 0.000000
O O5 0.763109 0.315655 0.549805
O O6 0.860550 0.364964 0.276125
O O7 0.739296 0.572459 0.350463
O O8 0.000000 0.500000 0.500000
O O9 0.685858 0.125781 0.806278
O O10 0.764049 0.004813 0.595134
O O11 0.329612 0.889294 0.695389
O O12 0.300134 0.746760 0.962482
O O13 0.476707 0.285410 0.829298
O O14 0.500000 0.000000 0.000000
O O15 0.343526 0.191708 0.584220
O O16 0.500000 0.000000 0.500000
#
# Coordination Sequence:
#
# PCOD8043965 Si02
#       7
#     2   2   2   2   2   2   2
#     4  11  20  38  64  96 116 159 211 255 306 355
#     4  11  25  43  58  89 132 166 201 250 306 370
#     4  11  22  37  66  90 125 158 205 257 307 362
#     4  10  23  37  64  90 123 162 203 252 308 359
#     4  12  20  41  66  93 123 155 205 264 300 360
#     4  11  23  38  65  87 128 163 200 252 310 359
#     4  10  19  37  61  95 117 154 208 256 304 356
#
# _framework density 19.489052999999998
#
# number of rings (size 3 to 8) (size 9 to 14) (size 15 to 20)
#    0.000    1.143    7.143    0.000    2.000    2.857 
#    0.000    2.857    3.143    0.000    0.000    0.000 
#    0.000    0.000    0.000    0.000    0.000    0.000 
#
# Total GULP energy -173475.143267 kJ/mol
# GULP energy per Si atom -12391.081662 kJ/mol
# Density = 1.944470 g / cm^3
# Si number density = 19.489053 Si / 1000 Ang^3
#
#
#
# Elastic Constant Matrix: (Units=GPa)
#
#
# Indices 1 2 3 4 5 6 
#
# 1 112.7231 42.8094 54.1564 -1.4501 1.3979 -21.5101
# 2 42.8094 115.9258 57.4037 10.5688 6.1761 -22.8221
# 3 54.1564 57.4037 129.8411 15.5440 3.4129 -9.1031
# 4 -1.4501 10.5688 15.5440 24.3738 -4.5335 8.0480
# 5 1.3979 6.1761 3.4129 -4.5335 49.7714 -1.4620
# 6 -21.5101 -22.8221 -9.1031 8.0480 -1.4620 30.4696
#
#
#
# Elastic Compliance Matrix: (Units=1/GPa)
#
#
# Indices 1 2 3 4 5 6 
#
# 1 0.012798 -0.001582 -0.004543 0.002514 0.000549 0.005854
# 2 -0.001582 0.013819 -0.003841 -0.007240 -0.001775 0.009913
# 3 -0.004543 -0.003841 0.011978 -0.006083 -0.000799 -0.000937
# 4 0.002514 -0.007240 -0.006083 0.055849 0.005746 -0.019941
# 5 0.000549 -0.001775 -0.000799 0.005746 0.020825 -0.001699
# 6 0.005854 0.009913 -0.000937 -0.019941 -0.001699 0.049283
#
#
# Mechanical properties :
#
#
# Convention : Reuss Voigt Hill
#
# Bulk Modulus (GPa) = 53.58579 74.13655 63.86117
# Shear Modulus (GPa) = 26.21847 34.53099 30.37473
#
# Velocity S-wave (km/s) = 3.67180 4.21386 3.95213
# Velocity P-wave (km/s) = 6.74768 7.86118 7.32562
#
# Compressibility (1/GPa) = 0.01866166
#
# Stress axis : x y z
#
# Youngs Moduli (GPa) = 78.13946 72.36620 83.48368
#
# Poissons Ratio (x) = 0.11449 0.37930
# Poissons Ratio (y) = 0.12362 0.32066
# Poissons Ratio (z) = 0.35502 0.27796
#
# Static dielectric constant tensor:
#      x y z
#    x 3.671890 -0.341010 -0.051790 
#    y -0.341010 3.127060 -0.519180 
#    z -0.051790 -0.519180 2.650320 
# 
# 
# High freq. dielectric constant tensor:
#      x y z
#    x 1.770360 -0.009280 0.002480 
#    y -0.009280 1.731820 0.008910 
#    z 0.002480 0.008910 1.772420 
# 
# From -- ./inp_files/149874.got.cif
#   From: 2010.06.25/outbox.cif.g09.slc.cpg/sg2_75_cif.got.tgz:149874.got - 2010.06.27 13:26:56.
