data_PCOD8043750
_publ_section_title
;
Structure prediction by ZEFSAII (Michael W. Deem and Ramdas Pophale) SiO2 
 PCOD8043750
Probable space group: P -1
;
_chemical_formula_sum "Si O2"
_cell_formula_units_Z 14
_cell_length_a 8.543555
_cell_length_b 12.311494
_cell_length_c 16.764609
_cell_angle_alpha 42.966307
_cell_angle_beta 124.492995
_cell_angle_gamma 92.211104
_cell_volume 736.236628
_symmetry_space_group_name_H-M "P -1"
_symmetry_group_IT_number 2
_symmetry_cell_setting 'triclinic'
loop_
_space_group_symop_operation_xyz
x,y,z
-x,-y,-z
loop_
_atom_site_type_symbol
_atom_site_label
_atom_site_fract_x
_atom_site_fract_y
_atom_site_fract_z
Si Si1 0.528415 0.251059 0.863401
Si Si2 0.051960 0.151021 0.456527
Si Si3 0.073554 0.734439 0.465307
Si Si4 0.018073 0.879017 0.839334
Si Si5 0.758788 0.429547 0.080134
Si Si6 0.365825 0.146062 0.180373
Si Si7 0.493058 0.015661 0.110900
O O1 0.301641 0.489828 0.635835
O O2 0.613526 0.086066 0.904890
O O3 0.773404 0.216651 0.979027
O O4 0.431615 0.200632 0.937429
O O5 0.897169 0.267523 0.430202
O O6 0.960962 0.315394 0.271165
O O7 0.343803 0.031762 0.615113
O O8 0.000000 0.000000 0.500000
O O9 0.796884 0.821475 0.314914
O O10 0.108824 0.884005 0.351708
O O11 0.791379 0.898331 0.795208
O O12 0.154646 0.723439 0.887006
O O13 0.500000 0.500000 0.000000
O O14 0.731494 0.627532 0.940546
O O15 0.342224 0.134054 0.085171
#
# Coordination Sequence:
#
# PCOD8043750 Si02
#       7
#     2   2   2   2   2   2   2
#     4  10  20  37  64  81 110 147 192 236 277 324
#     4  11  20  36  58  81 106 150 187 229 274 328
#     4  10  19  37  58  84 113 142 190 234 275 331
#     4  11  24  36  53  89 118 147 183 228 287 343
#     4  12  21  38  61  82 110 151 191 230 276 332
#     4  11  24  38  55  83 121 145 184 235 282 339
#     4   9  20  39  59  87 105 146 197 234 272 327
#
# _framework density 19.015626000000001
#
# number of rings (size 3 to 8) (size 9 to 14) (size 15 to 20)
#    0.000    1.429    2.857    4.286    0.000    2.286 
#    0.000    0.714    0.000    0.000    0.000    0.000 
#    0.000    0.000    0.000    0.000    0.000    0.000 
#
# Total GULP energy -173634.619852 kJ/mol
# GULP energy per Si atom -12402.472847 kJ/mol
# Density = 1.897235 g / cm^3
# Si number density = 19.015626 Si / 1000 Ang^3
#
#
#
# Elastic Constant Matrix: (Units=GPa)
#
#
# Indices 1 2 3 4 5 6 
#
# 1 99.6844 35.6151 19.9082 -3.0184 3.2400 13.1331
# 2 35.6151 89.1884 25.7607 4.7856 -5.4937 1.4076
# 3 19.9082 25.7607 91.7517 -9.2260 -9.6062 6.1914
# 4 -3.0184 4.7856 -9.2260 29.9813 0.1276 -2.1706
# 5 3.2400 -5.4937 -9.6062 0.1276 17.0140 -1.9022
# 6 13.1331 1.4076 6.1914 -2.1706 -1.9022 22.5467
#
#
#
# Elastic Compliance Matrix: (Units=1/GPa)
#
#
# Indices 1 2 3 4 5 6 
#
# 1 0.013406 -0.005254 -0.001423 0.001235 -0.005897 -0.007469
# 2 -0.005254 0.014612 -0.003073 -0.003607 0.004347 0.003012
# 3 -0.001423 -0.003073 0.013303 0.004292 0.006571 -0.001665
# 4 0.001235 -0.003607 0.004292 0.035503 0.000961 0.001826
# 5 -0.005897 0.004347 0.006571 0.000961 0.065787 0.007002
# 6 -0.007469 0.003012 -0.001665 0.001826 0.007002 0.049738
#
#
# Mechanical properties :
#
#
# Convention : Reuss Voigt Hill
#
# Bulk Modulus (GPa) = 45.82989 49.24359 47.53674
# Shear Modulus (GPa) = 22.81824 27.19777 25.00801
#
# Velocity S-wave (km/s) = 3.46782 3.78601 3.63041
# Velocity P-wave (km/s) = 6.33939 6.71301 6.52887
#
# Compressibility (1/GPa) = 0.02181982
#
# Stress axis : x y z
#
# Youngs Moduli (GPa) = 74.59347 68.43814 75.17378
#
# Poissons Ratio (x) = 0.35957 0.10697
# Poissons Ratio (y) = 0.39191 0.23103
# Poissons Ratio (z) = 0.10614 0.21033
#
# Static dielectric constant tensor:
#      x y z
#    x 3.262020 -0.027250 -0.142790 
#    y -0.027250 3.696460 0.195490 
#    z -0.142790 0.195490 3.877410 
# 
# 
# High freq. dielectric constant tensor:
#      x y z
#    x 1.714960 0.001910 -0.007180 
#    y 0.001910 1.755780 0.004290 
#    z -0.007180 0.004290 1.747320 
# 
# From -- ./inp_files/27479.got.cif
#   From: 2010.06.25/outbox.cif.g09.slc.cpg/sg2_14_cif.got.tgz:27479.got - 2010.06.27 13:26:56.
