data_PCOD8043044
_publ_section_title
;
Structure prediction by ZEFSAII (Michael W. Deem and Ramdas Pophale) SiO2 
 PCOD8043044
Probable space group: P -1
;
_chemical_formula_sum "Si O2"
_cell_formula_units_Z 16
_cell_length_a 25.929257
_cell_length_b 8.532418
_cell_length_c 8.354002
_cell_angle_alpha 53.069545
_cell_angle_beta 119.933826
_cell_angle_gamma 144.405624
_cell_volume 859.702943
_symmetry_space_group_name_H-M "P -1"
_symmetry_group_IT_number 2
_symmetry_cell_setting 'triclinic'
loop_
_space_group_symop_operation_xyz
x,y,z
-x,-y,-z
loop_
_atom_site_type_symbol
_atom_site_label
_atom_site_fract_x
_atom_site_fract_y
_atom_site_fract_z
Si Si1 0.100143 0.237025 0.955572
Si Si2 0.212968 0.141603 0.206089
Si Si3 0.197574 0.698798 0.581931
Si Si4 0.470584 0.927294 0.816333
Si Si5 0.346234 0.696055 0.275316
Si Si6 0.740831 0.155070 0.077297
Si Si7 0.343169 0.894482 0.472622
Si Si8 0.666648 0.730825 0.950121
O O1 0.112294 0.371497 0.717666
O O2 0.162852 0.506036 0.015042
O O3 0.132775 0.093583 0.077667
O O4 0.000000 0.000000 0.000000
O O5 0.275456 0.362563 0.312967
O O6 0.274197 0.269447 0.065901
O O7 0.166731 0.822538 0.372894
O O8 0.262434 0.917332 0.697394
O O9 0.250139 0.689563 0.545836
O O10 0.416422 0.993132 0.649536
O O11 0.554198 0.134653 0.700511
O O12 0.414503 0.592013 0.906779
O O13 0.500000 0.000000 0.000000
O O14 0.330055 0.699097 0.435353
O O15 0.335416 0.869206 0.050546
O O16 0.726987 0.943680 0.063259
O O17 0.369435 0.170667 0.268397
#
# Coordination Sequence:
#
# PCOD8043044 Si02
#       8
#     2   2   2   2   2   2   2   2
#     4   9  19  37  60  85 111 136 174 227 274 326
#     4  10  19  36  57  80 110 147 180 219 272 330
#     4   9  19  36  56  81 104 145 177 218 273 327
#     4  12  22  35  54  80 113 145 192 233 268 304
#     4  10  20  37  52  80 111 148 189 228 266 317
#     4   8  19  37  56  79 108 144 182 218 276 325
#     4  10  22  36  53  78 110 146 188 224 270 322
#     4  10  21  38  56  78 110 150 183 226 268 322
#
# _framework density 18.611080000000001
#
# number of rings (size 3 to 8) (size 9 to 14) (size 15 to 20)
#    0.750    1.500    1.250    1.875    1.750    3.000 
#    2.250    0.625    0.000   12.000    0.000    0.000 
#    0.000    0.000    0.000    0.000    0.000    0.000 
#
# Total GULP energy -198302.791957 kJ/mol
# GULP energy per Si atom -12393.924497 kJ/mol
# Density = 1.856872 g / cm^3
# Si number density = 18.611080 Si / 1000 Ang^3
#
#
#
# Elastic Constant Matrix: (Units=GPa)
#
#
# Indices 1 2 3 4 5 6 
#
# 1 124.7802 49.8060 36.8453 -9.3826 -3.2773 2.7904
# 2 49.8060 63.6841 17.8045 -10.7285 -0.4721 3.8657
# 3 36.8453 17.8045 71.9582 -13.1418 -0.1828 6.2140
# 4 -9.3826 -10.7285 -13.1418 25.6988 -3.5157 -12.8660
# 5 -3.2773 -0.4721 -0.1828 -3.5157 30.8112 5.3806
# 6 2.7904 3.8657 6.2140 -12.8660 5.3806 31.2637
#
#
#
# Elastic Compliance Matrix: (Units=1/GPa)
#
#
# Indices 1 2 3 4 5 6 
#
# 1 0.012904 -0.009003 -0.004606 -0.001148 0.001037 0.000226
# 2 -0.009003 0.023908 -0.000085 0.007035 0.000081 0.000745
# 3 -0.004606 -0.000085 0.017621 0.007274 0.000473 -0.000169
# 4 -0.001148 0.007035 0.007274 0.055652 0.002852 0.020199
# 5 0.001037 0.000081 0.000473 0.002852 0.033739 -0.004829
# 6 0.000226 0.000745 -0.000169 0.020199 -0.004829 0.041051
#
#
# Mechanical properties :
#
#
# Convention : Reuss Voigt Hill
#
# Bulk Modulus (GPa) = 36.97711 52.14823 44.56267
# Shear Modulus (GPa) = 22.59605 27.95252 25.27428
#
# Velocity S-wave (km/s) = 3.48820 3.87968 3.68913
# Velocity P-wave (km/s) = 6.01123 6.93902 6.49172
#
# Compressibility (1/GPa) = 0.02704376
#
# Stress axis : x y z
#
# Youngs Moduli (GPa) = 77.49684 41.82688 56.75169
#
# Poissons Ratio (x) = 0.37659 0.26140
# Poissons Ratio (y) = 0.69774 0.00482
# Poissons Ratio (z) = 0.35695 0.00355
#
# Static dielectric constant tensor:
#      x y z
#    x 3.377200 -0.165210 0.010240 
#    y -0.165210 3.135630 0.034630 
#    z 0.010240 0.034630 3.446790 
# 
# 
# High freq. dielectric constant tensor:
#      x y z
#    x 1.722910 -0.013870 0.002900 
#    y -0.013870 1.687860 -0.002320 
#    z 0.002900 -0.002320 1.728340 
# 
# From -- ./inp_files/213395.got.cif
#   From: 2010.06.25/outbox.cif.g09.slc.cpg/sg2_107_cif.got.tgz:213395.got - 2010.06.27 13:26:56.
