data_PCOD8043975
_publ_section_title
;
Structure prediction by ZEFSAII (Michael W. Deem and Ramdas Pophale) SiO2 
 PCOD8043975
Probable space group: P -1
;
_chemical_formula_sum "Si O2"
_cell_formula_units_Z 16
_cell_length_a 8.810368
_cell_length_b 14.516630
_cell_length_c 12.260993
_cell_angle_alpha 150.285292
_cell_angle_beta 86.528410
_cell_angle_gamma 103.774292
_cell_volume 719.274384
_symmetry_space_group_name_H-M "P -1"
_symmetry_group_IT_number 2
_symmetry_cell_setting 'triclinic'
loop_
_space_group_symop_operation_xyz
x,y,z
-x,-y,-z
loop_
_atom_site_type_symbol
_atom_site_label
_atom_site_fract_x
_atom_site_fract_y
_atom_site_fract_z
Si Si1 0.160350 0.550268 0.723794
Si Si2 0.296313 0.938383 0.228308
Si Si3 0.167615 0.612873 0.513137
Si Si4 0.980168 0.388235 0.998696
Si Si5 0.402314 0.343588 0.562696
Si Si6 0.363354 0.022112 0.816303
Si Si7 0.526469 0.295328 0.292050
Si Si8 0.737012 0.643736 0.917010
O O1 0.313821 0.477199 0.644670
O O2 0.029209 0.446305 0.524384
O O3 0.053357 0.475223 0.763563
O O4 0.227656 0.794279 0.977135
O O5 0.278855 0.155303 0.442251
O O6 0.490069 0.976289 0.269526
O O7 0.181041 0.822672 0.216489
O O8 0.274099 0.661298 0.673773
O O9 0.191423 0.421306 0.261289
O O10 0.237686 0.801015 0.621676
O O11 0.148254 0.351751 0.979901
O O12 0.000000 0.500000 0.000000
O O13 0.472501 0.226093 0.348275
O O14 0.547906 0.489132 0.782070
O O15 0.428818 0.133154 0.042882
O O16 0.261672 0.134824 0.874121
O O17 0.500000 0.500000 0.500000
#
# Coordination Sequence:
#
# PCOD8043975 Si02
#       8
#     2   2   2   2   2   2   2   2
#     4   9  21  39  58  79 120 149 185 242 293 334
#     4  10  21  35  62  81 119 148 192 236 292 333
#     4  10  21  34  57  83 115 160 195 230 287 335
#     4   9  21  42  63  86 115 145 185 245 298 350
#     4  11  20  38  58  87 114 161 192 230 280 344
#     4  12  20  37  60  85 113 163 195 236 276 335
#     4  11  20  35  59  81 123 155 203 233 269 332
#     4  10  19  37  62  81 116 152 190 233 294 346
#
# _framework density 22.24464
#
# number of rings (size 3 to 8) (size 9 to 14) (size 15 to 20)
#    0.750    1.000    6.250    0.375    1.750    0.000 
#    0.000    8.125    0.000    0.000    0.000    0.000 
#    0.000    0.000    0.000    0.000    0.000    0.000 
#
# Total GULP energy -198223.565669 kJ/mol
# GULP energy per Si atom -12388.972854 kJ/mol
# Density = 2.219401 g / cm^3
# Si number density = 22.244640 Si / 1000 Ang^3
#
#
#
# Elastic Constant Matrix: (Units=GPa)
#
#
# Indices 1 2 3 4 5 6 
#
# 1 143.2793 40.3059 33.9080 14.1404 24.0757 -19.7676
# 2 40.3059 78.6696 6.6351 11.5565 6.3982 -12.3473
# 3 33.9080 6.6351 57.1433 26.1303 -0.3362 -4.1597
# 4 14.1404 11.5565 26.1303 32.2210 2.5188 1.6613
# 5 24.0757 6.3982 -0.3362 2.5188 25.3379 4.9497
# 6 -19.7676 -12.3473 -4.1597 1.6613 4.9497 34.7135
#
#
#
# Elastic Compliance Matrix: (Units=1/GPa)
#
#
# Indices 1 2 3 4 5 6 
#
# 1 0.012871 -0.004314 -0.008218 0.003233 -0.012838 0.006486
# 2 -0.004314 0.016376 0.004596 -0.007928 -0.000028 0.004302
# 3 -0.008218 0.004596 0.034070 -0.026467 0.009547 0.000943
# 4 0.003233 -0.007928 -0.026467 0.054676 -0.005693 -0.005955
# 5 -0.012838 -0.000028 0.009547 -0.005693 0.055051 -0.013753
# 6 0.006486 0.004302 0.000943 -0.005955 -0.013753 0.036390
#
#
# Mechanical properties :
#
#
# Convention : Reuss Voigt Hill
#
# Bulk Modulus (GPa) = 21.07663 48.97669 35.02666
# Shear Modulus (GPa) = 20.73658 31.67071 26.20364
#
# Velocity S-wave (km/s) = 3.05652 3.77735 3.43589
# Velocity P-wave (km/s) = 4.68528 6.41012 5.61433
#
# Compressibility (1/GPa) = 0.04744592
#
# Stress axis : x y z
#
# Youngs Moduli (GPa) = 77.69598 61.06503 29.35128
#
# Poissons Ratio (x) = 0.26343 0.24121
# Poissons Ratio (y) = 0.33518 -0.13491
# Poissons Ratio (z) = 0.63850 -0.28068
#
# Static dielectric constant tensor:
#      x y z
#    x 1.299760 -3.427690 3.460830 
#    y -3.427690 -0.051570 3.957640 
#    z 3.460830 3.957640 0.261220 
# 
# 
# High freq. dielectric constant tensor:
#      x y z
#    x 1.895840 0.000110 0.011890 
#    y 0.000110 1.850470 0.030620 
#    z 0.011890 0.030620 1.857100 
# 
# From -- ./inp_files/359001.got.cif
#   From: 2010.06.25/outbox.cif.g09.slc.cpg/sg2_180_cif.got.tgz:359001.got - 2010.06.27 13:26:56.
