data_PCOD8043055
_publ_section_title
;
Structure prediction by ZEFSAII (Michael W. Deem and Ramdas Pophale) SiO2 
 PCOD8043055
Probable space group: P -1
;
_chemical_formula_sum "Si O2"
_cell_formula_units_Z 16
_cell_length_a 14.646615
_cell_length_b 13.014614
_cell_length_c 9.630999
_cell_angle_alpha 47.557001
_cell_angle_beta 103.211395
_cell_angle_gamma 134.041806
_cell_volume 867.916967
_symmetry_space_group_name_H-M "P -1"
_symmetry_group_IT_number 2
_symmetry_cell_setting 'triclinic'
loop_
_space_group_symop_operation_xyz
x,y,z
-x,-y,-z
loop_
_atom_site_type_symbol
_atom_site_label
_atom_site_fract_x
_atom_site_fract_y
_atom_site_fract_z
Si Si1 0.658183 0.771193 0.686754
Si Si2 0.900325 0.299935 0.054102
Si Si3 0.900954 0.983344 0.380879
Si Si4 0.368987 0.951884 0.644603
Si Si5 0.991255 0.603615 0.286354
Si Si6 0.319436 0.675780 0.647414
Si Si7 0.336416 0.374968 0.911043
Si Si8 0.116339 0.043487 0.922286
O O1 0.745451 0.811607 0.549962
O O2 0.658689 0.938764 0.553311
O O3 0.504150 0.536752 0.812232
O O4 0.725284 0.789207 0.836705
O O5 0.951860 0.199890 0.192780
O O6 0.732653 0.147508 0.164383
O O7 0.000000 0.500000 0.000000
O O8 0.939362 0.388376 0.832170
O O9 0.888256 0.916627 0.277980
O O10 0.000000 0.000000 0.500000
O O11 0.539121 0.136240 0.570089
O O12 0.329005 0.770380 0.709058
O O13 0.822987 0.441948 0.372261
O O14 0.000000 0.500000 0.500000
O O15 0.083324 0.845489 0.122540
O O16 0.303630 0.495200 0.837238
O O17 0.268415 0.254430 0.850037
O O18 0.000000 0.000000 0.000000
#
# Coordination Sequence:
#
# PCOD8043055 Si02
#       8
#     2   2   2   2   2   2   2   2
#     4   9  20  36  58  85 109 147 184 232 275 337
#     4  10  20  37  57  82 109 144 184 236 275 326
#     4  10  22  36  56  82 113 145 188 229 276 336
#     4   9  19  35  60  83 109 145 188 230 281 322
#     4  11  24  37  56  83 114 148 188 227 282 334
#     4  10  19  36  57  83 112 146 185 230 275 332
#     4  10  20  36  58  83 115 143 188 227 281 332
#     4  11  22  37  56  81 111 150 183 232 280 328
#
# _framework density 18.434943000000001
#
# number of rings (size 3 to 8) (size 9 to 14) (size 15 to 20)
#    0.000    2.000    2.500    0.750    3.500    1.500 
#    0.000    0.625    0.000    0.000    0.000    0.000 
#    0.000    0.000    0.000    0.000    0.000    0.000 
#
# Total GULP energy -198268.283030 kJ/mol
# GULP energy per Si atom -12391.767689 kJ/mol
# Density = 1.839298 g / cm^3
# Si number density = 18.434943 Si / 1000 Ang^3
#
#
#
# Elastic Constant Matrix: (Units=GPa)
#
#
# Indices 1 2 3 4 5 6 
#
# 1 110.5603 50.4717 56.5718 10.9201 -12.3724 0.0750
# 2 50.4717 122.4907 56.5532 7.5124 2.0354 -5.9934
# 3 56.5718 56.5532 124.1384 19.8525 -3.4191 -2.0194
# 4 10.9201 7.5124 19.8525 29.2544 -1.3550 -1.1042
# 5 -12.3724 2.0354 -3.4191 -1.3550 27.8430 0.8360
# 6 0.0750 -5.9934 -2.0194 -1.1042 0.8360 33.0138
#
#
#
# Elastic Compliance Matrix: (Units=1/GPa)
#
#
# Indices 1 2 3 4 5 6 
#
# 1 0.013678 -0.003787 -0.004197 -0.001059 0.005823 -0.001158
# 2 -0.003787 0.011535 -0.003726 0.000916 -0.002998 0.001981
# 3 -0.004197 -0.003726 0.012625 -0.006063 -0.000335 -0.000089
# 4 -0.001059 0.000916 -0.006063 0.038524 0.000561 0.001072
# 5 0.005823 -0.002998 -0.000335 0.000561 0.038755 -0.001541
# 6 -0.001158 0.001981 -0.000089 0.001072 -0.001541 0.030722
#
#
# Mechanical properties :
#
#
# Convention : Reuss Voigt Hill
#
# Bulk Modulus (GPa) = 69.35972 76.04252 72.70112
# Shear Modulus (GPa) = 28.72495 30.92842 29.82668
#
# Velocity S-wave (km/s) = 3.95166 4.10042 4.02673
# Velocity P-wave (km/s) = 7.65026 7.98478 7.81931
#
# Compressibility (1/GPa) = 0.01441759
#
# Stress axis : x y z
#
# Youngs Moduli (GPa) = 73.10916 86.69197 79.20943
#
# Poissons Ratio (x) = 0.32827 0.33248
# Poissons Ratio (y) = 0.27683 0.29515
# Poissons Ratio (z) = 0.30687 0.32303
#
# Static dielectric constant tensor:
#      x y z
#    x 3.128430 -0.190450 0.118900 
#    y -0.190450 3.731220 -0.010780 
#    z 0.118900 -0.010780 3.410550 
# 
# 
# High freq. dielectric constant tensor:
#      x y z
#    x 1.729620 -0.004480 -0.008330 
#    y -0.004480 1.703270 -0.017560 
#    z -0.008330 -0.017560 1.713100 
# 
# From -- ./inp_files/239958.got.cif
#   From: 2010.06.25/outbox.cif.g09.slc.cpg/sg2_120_cif.got.tgz:239958.got - 2010.06.27 13:26:56.
