data_PCOD8043358
_publ_section_title
;
Structure prediction by ZEFSAII (Michael W. Deem and Ramdas Pophale) SiO2 
 PCOD8043358
Probable space group: P -1
;
_chemical_formula_sum "Si O2"
_cell_formula_units_Z 12
_cell_length_a 12.580278
_cell_length_b 5.382573
_cell_length_c 14.246959
_cell_angle_alpha 100.888906
_cell_angle_beta 146.117446
_cell_angle_gamma 77.647185
_cell_volume 525.260840
_symmetry_space_group_name_H-M "P -1"
_symmetry_group_IT_number 2
_symmetry_cell_setting 'triclinic'
loop_
_space_group_symop_operation_xyz
x,y,z
-x,-y,-z
loop_
_atom_site_type_symbol
_atom_site_label
_atom_site_fract_x
_atom_site_fract_y
_atom_site_fract_z
Si Si1 0.365835 0.063753 0.993325
Si Si2 0.970931 0.560532 0.591983
Si Si3 0.908412 0.112635 0.633670
Si Si4 0.898117 0.279372 0.956861
Si Si5 0.619127 0.239109 0.597346
Si Si6 0.275794 0.599116 0.974010
O O1 0.409569 0.341197 0.082642
O O2 0.137497 0.086763 0.811005
O O3 0.500000 0.000000 0.000000
O O4 0.409563 0.831898 0.082641
O O5 0.175070 0.560687 0.796421
O O6 0.000000 0.500000 0.500000
O O7 0.852548 0.341845 0.535041
O O8 0.852551 0.840661 0.535039
O O9 0.800107 0.178211 0.656532
O O10 0.690371 0.283829 0.758029
O O11 0.887532 0.338082 0.063695
O O12 0.000000 0.500000 0.000000
O O13 0.000000 0.000000 0.000000
O O14 0.500000 0.500000 0.500000
O O15 0.500000 0.000000 0.500000
#
# Coordination Sequence:
#
# PCOD8043358 Si02
#       6
#     2   2   2   2   2   2
#     4  10  20  38  62  89 124 165 214 277 331 386
#     4  10  19  36  61  90 123 169 215 267 329 392
#     4  10  21  40  62  89 126 169 216 270 330 399
#     4  12  23  43  74 102 133 182 232 287 346 406
#     4  12  26  46  69 103 142 182 228 283 346 416
#     4  10  21  37  58  93 126 161 213 272 328 395
#
# _framework density 22.845790999999998
#
# number of rings (size 3 to 8) (size 9 to 14) (size 15 to 20)
#    0.000    1.333    0.000    8.000    0.000    0.000 
#    0.000   20.000    0.000    0.000    0.000    0.000 
#    0.000    0.000    0.000    0.000    0.000    0.000 
#
# Total GULP energy -148689.541188 kJ/mol
# GULP energy per Si atom -12390.795099 kJ/mol
# Density = 2.279379 g / cm^3
# Si number density = 22.845791 Si / 1000 Ang^3
#
#
#
# Elastic Constant Matrix: (Units=GPa)
#
#
# Indices 1 2 3 4 5 6 
#
# 1 155.7265 67.0202 19.5740 2.8470 14.2319 3.2796
# 2 67.0202 266.0932 18.9856 6.0167 12.6798 32.0963
# 3 19.5740 18.9856 74.0110 -0.2456 -3.2086 0.9606
# 4 2.8470 6.0167 -0.2456 19.5542 -4.8975 8.1371
# 5 14.2319 12.6798 -3.2086 -4.8975 38.0550 2.5386
# 6 3.2796 32.0963 0.9606 8.1371 2.5386 60.2582
#
#
#
# Elastic Compliance Matrix: (Units=1/GPa)
#
#
# Indices 1 2 3 4 5 6 
#
# 1 0.007644 -0.001744 -0.001708 -0.001635 -0.002691 0.000874
# 2 -0.001744 0.004568 -0.000719 -0.000442 -0.000839 -0.002232
# 3 -0.001708 -0.000719 0.014249 0.001213 0.002236 -0.000009
# 4 -0.001635 -0.000442 0.001213 0.056935 0.008705 -0.007750
# 5 -0.002691 -0.000839 0.002236 0.008705 0.028995 -0.001840
# 6 0.000874 -0.002232 -0.000009 -0.007750 -0.001840 0.018860
#
#
# Mechanical properties :
#
#
# Convention : Reuss Voigt Hill
#
# Bulk Modulus (GPa) = 55.19132 78.55446 66.87289
# Shear Modulus (GPa) = 34.33316 49.59022 41.96169
#
# Velocity S-wave (km/s) = 3.88083 4.66408 4.29037
# Velocity P-wave (km/s) = 6.65521 7.96644 7.34016
#
# Compressibility (1/GPa) = 0.01811879
#
# Stress axis : x y z
#
# Youngs Moduli (GPa) = 130.82196 218.92787 70.18129
#
# Poissons Ratio (x) = 0.38174 0.11985
# Poissons Ratio (y) = 0.22811 0.05049
# Poissons Ratio (z) = 0.22341 0.15750
#
# Static dielectric constant tensor:
#      x y z
#    x 4.358640 0.434230 -0.111500 
#    y 0.434230 5.583700 0.197670 
#    z -0.111500 0.197670 3.165020 
# 
# 
# High freq. dielectric constant tensor:
#      x y z
#    x 1.910210 0.014370 0.001450 
#    y 0.014370 1.951820 0.006350 
#    z 0.001450 0.006350 1.849900 
# 
# From -- ./inp_files/23421.got.cif
#   From: 2010.06.25/outbox.cif.g09.slc.cpg/sg2_12_cif.got.tgz:23421.got - 2010.06.27 13:26:56.
