data_PCOD8043319
_publ_section_title
;
Structure prediction by ZEFSAII (Michael W. Deem and Ramdas Pophale) SiO2 
 PCOD8043319
Probable space group: P -1
;
_chemical_formula_sum "Si O2"
_cell_formula_units_Z 16
_cell_length_a 11.621097
_cell_length_b 9.083277
_cell_length_c 11.409941
_cell_angle_alpha 113.572299
_cell_angle_beta 52.094358
_cell_angle_gamma 85.672980
_cell_volume 780.421188
_symmetry_space_group_name_H-M "P -1"
_symmetry_group_IT_number 2
_symmetry_cell_setting 'triclinic'
loop_
_space_group_symop_operation_xyz
x,y,z
-x,-y,-z
loop_
_atom_site_type_symbol
_atom_site_label
_atom_site_fract_x
_atom_site_fract_y
_atom_site_fract_z
Si Si1 0.134331 0.830801 0.066348
Si Si2 0.378685 0.890059 0.491538
Si Si3 0.938978 0.700483 0.566136
Si Si4 0.121116 0.782328 0.652265
Si Si5 0.052959 0.621019 0.863637
Si Si6 0.102105 0.238365 0.660803
Si Si7 0.329684 0.132480 0.809578
Si Si8 0.651822 0.978453 0.974886
O O1 0.063596 0.777048 0.208968
O O2 0.297635 0.854564 0.003119
O O3 0.997141 0.019394 0.161551
O O4 0.158955 0.683002 0.903545
O O5 0.259223 0.061988 0.544647
O O6 0.394125 0.955469 0.632419
O O7 0.306458 0.749012 0.514518
O O8 0.551545 0.780781 0.281492
O O9 0.891730 0.741097 0.474756
O O10 0.791615 0.803854 0.777776
O O11 0.000000 0.500000 0.500000
O O12 0.076355 0.760249 0.538807
O O13 0.101460 0.642032 0.707203
O O14 0.099602 0.411434 0.784852
O O15 0.860172 0.735833 0.046362
O O16 0.376633 0.063857 0.889168
O O17 0.500000 0.000000 0.000000
#
# Coordination Sequence:
#
# PCOD8043319 Si02
#       8
#     2   2   2   2   2   2   2   2
#     4  10  21  35  61  95 111 155 210 247 288 357
#     4  10  23  36  60  92 123 150 205 250 306 347
#     4  11  21  38  58  85 118 161 201 238 299 358
#     4  10  19  36  61  86 116 162 201 243 283 372
#     4  12  19  38  68  88 123 156 205 246 301 354
#     4  11  22  36  60  93 124 155 199 256 296 356
#     4  11  20  38  61  89 122 158 195 247 305 354
#     4  11  23  39  63  85 123 162 202 246 299 361
#
# _framework density 20.501750000000001
#
# number of rings (size 3 to 8) (size 9 to 14) (size 15 to 20)
#    0.000    1.250    6.250    2.250    0.000    5.500 
#    0.000    1.250    0.000    6.000    0.000    0.000 
#    0.000    0.000    0.000    0.000    0.000    0.000 
#
# Total GULP energy -198260.354924 kJ/mol
# GULP energy per Si atom -12391.272183 kJ/mol
# Density = 2.045509 g / cm^3
# Si number density = 20.501750 Si / 1000 Ang^3
#
#
#
# Elastic Constant Matrix: (Units=GPa)
#
#
# Indices 1 2 3 4 5 6 
#
# 1 117.2086 28.7496 47.7068 -17.9397 8.6188 21.7291
# 2 28.7496 78.2727 37.3054 -12.5625 -7.5784 14.8224
# 3 47.7068 37.3054 95.5670 -20.1769 13.0965 10.6704
# 4 -17.9397 -12.5625 -20.1769 32.2635 4.5082 -0.0302
# 5 8.6188 -7.5784 13.0965 4.5082 35.1894 -14.5058
# 6 21.7291 14.8224 10.6704 -0.0302 -14.5058 38.6407
#
#
#
# Elastic Compliance Matrix: (Units=1/GPa)
#
#
# Indices 1 2 3 4 5 6 
#
# 1 0.013000 -0.001562 -0.002791 0.005805 -0.006711 -0.008456
# 2 -0.001562 0.017467 -0.006314 0.001212 0.005511 -0.002009
# 3 -0.002791 -0.006314 0.018219 0.008870 -0.010670 -0.005039
# 4 0.005805 0.001212 0.008870 0.042283 -0.014685 -0.011659
# 5 -0.006711 0.005511 -0.010670 -0.014685 0.046134 0.021914
# 6 -0.008456 -0.002009 -0.005039 -0.011659 0.021914 0.041014
#
#
# Mechanical properties :
#
#
# Convention : Reuss Voigt Hill
#
# Bulk Modulus (GPa) = 36.55715 57.61911 47.08813
# Shear Modulus (GPa) = 23.97300 33.03782 28.50541
#
# Velocity S-wave (km/s) = 3.42323 4.01866 3.73284
# Velocity P-wave (km/s) = 5.78746 7.04970 6.44953
#
# Compressibility (1/GPa) = 0.02735443
#
# Stress axis : x y z
#
# Youngs Moduli (GPa) = 76.92095 57.25004 54.88751
#
# Poissons Ratio (x) = 0.08942 0.15317
# Poissons Ratio (y) = 0.12014 0.34654
# Poissons Ratio (z) = 0.21466 0.36146
#
# Static dielectric constant tensor:
#      x y z
#    x 3.893010 0.238520 0.188470 
#    y 0.238520 3.668240 -0.203490 
#    z 0.188470 -0.203490 3.740510 
# 
# 
# High freq. dielectric constant tensor:
#      x y z
#    x 1.799240 0.016890 0.016760 
#    y 0.016890 1.797580 -0.020830 
#    z 0.016760 -0.020830 1.794720 
# 
# From -- ./inp_files/205729.got.cif
#   From: 2010.06.25/outbox.cif.g09.slc.cpg/sg2_103_cif.got.tgz:205729.got - 2010.06.27 13:26:56.
