data_PCOD8043223
_publ_section_title
;
Structure prediction by ZEFSAII (Michael W. Deem and Ramdas Pophale) SiO2 
 PCOD8043223
Probable space group: P -1
;
_chemical_formula_sum "Si O2"
_cell_formula_units_Z 16
_cell_length_a 11.427961
_cell_length_b 20.017614
_cell_length_c 9.102167
_cell_angle_alpha 102.403468
_cell_angle_beta 79.990276
_cell_angle_gamma 33.114798
_cell_volume 831.777249
_symmetry_space_group_name_H-M "P -1"
_symmetry_group_IT_number 2
_symmetry_cell_setting 'triclinic'
loop_
_space_group_symop_operation_xyz
x,y,z
-x,-y,-z
loop_
_atom_site_type_symbol
_atom_site_label
_atom_site_fract_x
_atom_site_fract_y
_atom_site_fract_z
Si Si1 0.059329 0.139421 0.260388
Si Si2 0.068880 0.492820 0.139652
Si Si3 0.824737 0.396782 0.293017
Si Si4 0.441355 0.424337 0.066196
Si Si5 0.389317 0.705055 0.722875
Si Si6 0.339031 0.226939 0.100179
Si Si7 0.662141 0.373681 0.718421
Si Si8 0.704305 0.675187 0.572538
O O1 0.002977 0.238852 0.233805
O O2 0.924310 0.147008 0.202041
O O3 0.926393 0.210807 0.485503
O O4 0.397299 0.951140 0.113670
O O5 0.196822 0.501310 0.100025
O O6 0.304862 0.320078 0.081765
O O7 0.775717 0.653006 0.376005
O O8 0.000000 0.500000 0.000000
O O9 0.609250 0.532511 0.532894
O O10 0.643558 0.472857 0.224478
O O11 0.046151 0.340869 0.181934
O O12 0.614858 0.298190 0.101828
O O13 0.286846 0.575001 0.221011
O O14 0.659290 0.326263 0.839465
O O15 0.472510 0.736403 0.662810
O O16 0.397701 0.205135 0.253776
O O17 0.000000 0.500000 0.500000
#
# Coordination Sequence:
#
# PCOD8043223 Si02
#       8
#     2   2   2   2   2   2   2   2
#     4  11  23  35  56  88 120 149 181 238 292 324
#     4  11  22  38  63  85 110 150 193 234 281 336
#     4  11  18  37  59  84 111 153 191 230 274 343
#     4  11  19  36  60  85 109 149 198 233 271 327
#     4  11  18  37  62  82 109 149 199 233 271 336
#     4  11  22  37  58  88 117 145 188 238 285 333
#     4  10  22  35  60  86 114 151 195 227 273 344
#     4  10  19  36  60  83 108 145 197 236 270 336
#
# _framework density 19.235918999999999
#
# number of rings (size 3 to 8) (size 9 to 14) (size 15 to 20)
#    0.000    1.250    7.500    1.875    1.750    0.500 
#    0.000    1.875    0.000    3.750    0.000    0.000 
#    0.000    0.000    0.000    0.000    0.000    0.000 
#
# Total GULP energy -198404.141246 kJ/mol
# GULP energy per Si atom -12400.258828 kJ/mol
# Density = 1.919214 g / cm^3
# Si number density = 19.235919 Si / 1000 Ang^3
#
#
#
# Elastic Constant Matrix: (Units=GPa)
#
#
# Indices 1 2 3 4 5 6 
#
# 1 126.5371 19.5468 30.8702 -13.1008 1.6268 -7.7808
# 2 19.5468 46.2363 44.3062 -7.6889 1.9759 -5.4054
# 3 30.8702 44.3062 116.1294 -20.5014 7.5538 -2.3678
# 4 -13.1008 -7.6889 -20.5014 36.5340 -0.8370 4.0028
# 5 1.6268 1.9759 7.5538 -0.8370 26.3191 -7.4459
# 6 -7.7808 -5.4054 -2.3678 4.0028 -7.4459 23.7254
#
#
#
# Elastic Compliance Matrix: (Units=1/GPa)
#
#
# Indices 1 2 3 4 5 6 
#
# 1 0.008835 -0.001988 -0.001268 0.001810 0.000652 0.002217
# 2 -0.001988 0.035878 -0.013486 -0.001473 0.003370 0.007482
# 3 -0.001268 -0.013486 0.015286 0.005654 -0.004326 -0.004274
# 4 0.001810 -0.001473 0.005654 0.031398 -0.002076 -0.005126
# 5 0.000652 0.003370 -0.004326 -0.002076 0.042945 0.014378
# 6 0.002217 0.007482 -0.004274 -0.005126 0.014378 0.049531
#
#
# Mechanical properties :
#
#
# Convention : Reuss Voigt Hill
#
# Bulk Modulus (GPa) = 37.71541 53.14991 45.43266
# Shear Modulus (GPa) = 22.10489 30.26099 26.18294
#
# Velocity S-wave (km/s) = 3.39358 3.97060 3.69338
# Velocity P-wave (km/s) = 5.91646 6.97936 6.46977
#
# Compressibility (1/GPa) = 0.02651436
#
# Stress axis : x y z
#
# Youngs Moduli (GPa) = 113.19236 27.87250 65.41999
#
# Poissons Ratio (x) = 0.05540 0.08293
# Poissons Ratio (y) = 0.22500 0.88228
# Poissons Ratio (z) = 0.14349 0.37590
#
# Static dielectric constant tensor:
#      x y z
#    x 3.764140 -0.078850 0.034280 
#    y -0.078850 3.126660 -0.341800 
#    z 0.034280 -0.341800 3.887680 
# 
# 
# High freq. dielectric constant tensor:
#      x y z
#    x 1.771210 -0.004980 0.000950 
#    y -0.004980 1.704030 -0.024470 
#    z 0.000950 -0.024470 1.745770 
# 
# From -- ./inp_files/185913.got.cif
#   From: 2010.06.25/outbox.cif.g09.slc.cpg/sg2_93_cif.got.tgz:185913.got - 2010.06.27 13:26:56.
