data_PCOD8043932
_publ_section_title
;
Structure prediction by ZEFSAII (Michael W. Deem and Ramdas Pophale) SiO2 
 PCOD8043932
Probable space group: P -1
;
_chemical_formula_sum "Si O2"
_cell_formula_units_Z 16
_cell_length_a 21.415877
_cell_length_b 12.818243
_cell_length_c 7.986190
_cell_angle_alpha 146.412690
_cell_angle_beta 41.559269
_cell_angle_gamma 140.856044
_cell_volume 732.096443
_symmetry_space_group_name_H-M "P -1"
_symmetry_group_IT_number 2
_symmetry_cell_setting 'triclinic'
loop_
_space_group_symop_operation_xyz
x,y,z
-x,-y,-z
loop_
_atom_site_type_symbol
_atom_site_label
_atom_site_fract_x
_atom_site_fract_y
_atom_site_fract_z
Si Si1 0.198067 0.040912 0.259744
Si Si2 0.737917 0.240817 0.834207
Si Si3 0.054726 0.160814 0.957130
Si Si4 0.121235 0.587264 0.908206
Si Si5 0.385654 0.596243 0.922862
Si Si6 0.387952 0.175132 0.267371
Si Si7 0.797727 0.605498 0.777679
Si Si8 0.835923 0.025840 0.129870
O O1 0.119354 0.087946 0.599691
O O2 0.316563 0.165579 0.240547
O O3 0.195309 0.094048 0.143328
O O4 0.171622 0.799793 0.993525
O O5 0.660744 0.035220 0.810109
O O6 0.778419 0.169545 0.490575
O O7 0.837042 0.380726 0.939880
O O8 0.673584 0.372391 0.082279
O O9 0.128676 0.380193 0.188448
O O10 0.000000 0.000000 0.000000
O O11 0.958809 0.174859 0.070963
O O12 0.159799 0.429528 0.530940
O O13 0.000000 0.500000 0.000000
O O14 0.399420 0.382033 0.617560
O O15 0.496673 0.790474 0.977340
O O16 0.314856 0.576978 0.203114
O O17 0.801409 0.837756 0.082000
#
# Coordination Sequence:
#
# PCOD8043932 Si02
#       8
#     2   2   2   2   2   2   2   2
#     4  11  22  40  61  91 127 169 208 261 320 374
#     4  11  23  43  65  95 128 169 211 260 321 381
#     4  10  19  37  61  87 126 173 204 254 322 375
#     4  11  23  39  61  95 131 166 212 261 310 384
#     4  11  22  41  70  92 122 169 216 267 322 370
#     4  10  22  44  65  93 126 165 212 273 322 369
#     4  11  21  38  61  93 127 164 214 261 310 377
#     4  11  22  38  61  90 130 168 206 257 316 387
#
# _framework density 21.855043999999999
#
# number of rings (size 3 to 8) (size 9 to 14) (size 15 to 20)
#    0.000    1.250    2.500    6.000    1.750    1.000 
#    0.000   10.000    0.000    0.000    0.000    0.000 
#    0.000    0.000    0.000    0.000    0.000    0.000 
#
# Total GULP energy -198254.449473 kJ/mol
# GULP energy per Si atom -12390.903092 kJ/mol
# Density = 2.180530 g / cm^3
# Si number density = 21.855044 Si / 1000 Ang^3
#
#
#
# Elastic Constant Matrix: (Units=GPa)
#
#
# Indices 1 2 3 4 5 6 
#
# 1 76.5561 37.0321 21.0845 -30.7256 6.1617 18.1802
# 2 37.0321 98.7985 32.7917 -27.4935 -0.9175 32.1390
# 3 21.0845 32.7917 89.8367 -19.3732 12.1841 5.8596
# 4 -30.7256 -27.4935 -19.3732 33.3992 -4.9888 -8.5913
# 5 6.1617 -0.9175 12.1841 -4.9888 40.4772 -0.4863
# 6 18.1802 32.1390 5.8596 -8.5913 -0.4863 34.3985
#
#
#
# Elastic Compliance Matrix: (Units=1/GPa)
#
#
# Indices 1 2 3 4 5 6 
#
# 1 0.022424 -0.001443 -0.000406 0.017451 -0.001246 -0.006092
# 2 -0.001443 0.019134 -0.004217 0.008755 0.002832 -0.014170
# 3 -0.000406 -0.004217 0.014046 0.004481 -0.003676 0.002829
# 4 0.017451 0.008755 0.004481 0.055118 0.002934 -0.004359
# 5 -0.001246 0.002832 -0.003676 0.002934 0.026424 -0.000255
# 6 -0.006092 -0.014170 0.002829 -0.004359 -0.000255 0.043956
#
#
# Mechanical properties :
#
#
# Convention : Reuss Voigt Hill
#
# Bulk Modulus (GPa) = 23.00417 49.66753 36.33585
# Shear Modulus (GPa) = 24.07012 33.27385 28.67199
#
# Velocity S-wave (km/s) = 3.32226 3.90613 3.62597
# Velocity P-wave (km/s) = 5.02645 6.56651 5.84740
#
# Compressibility (1/GPa) = 0.04347038
#
# Stress axis : x y z
#
# Youngs Moduli (GPa) = 44.59588 52.26201 71.19298
#
# Poissons Ratio (x) = 0.07544 0.02891
# Poissons Ratio (y) = 0.06437 0.30025
# Poissons Ratio (z) = 0.01811 0.22041
#
# Static dielectric constant tensor:
#      x y z
#    x 3.197190 -0.154190 -0.661830 
#    y -0.154190 3.912770 -0.335970 
#    z -0.661830 -0.335970 3.389070 
# 
# 
# High freq. dielectric constant tensor:
#      x y z
#    x 1.853400 0.004760 -0.005840 
#    y 0.004760 1.866550 -0.000290 
#    z -0.005840 -0.000290 1.849030 
# 
# From -- ./inp_files/347427.got.cif
#   From: 2010.06.25/outbox.cif.g09.slc.cpg/sg2_174_cif.got.tgz:347427.got - 2010.06.27 13:26:56.
