data_PCOD8043239
_publ_section_title
;
Structure prediction by ZEFSAII (Michael W. Deem and Ramdas Pophale) SiO2 
 PCOD8043239
Probable space group: P -1
;
_chemical_formula_sum "Si O2"
_cell_formula_units_Z 16
_cell_length_a 7.882886
_cell_length_b 9.805718
_cell_length_c 11.378902
_cell_angle_alpha 101.112595
_cell_angle_beta 121.976455
_cell_angle_gamma 83.666057
_cell_volume 732.074714
_symmetry_space_group_name_H-M "P -1"
_symmetry_group_IT_number 2
_symmetry_cell_setting 'triclinic'
loop_
_space_group_symop_operation_xyz
x,y,z
-x,-y,-z
loop_
_atom_site_type_symbol
_atom_site_label
_atom_site_fract_x
_atom_site_fract_y
_atom_site_fract_z
Si Si1 0.453851 0.051403 0.863747
Si Si2 0.128148 0.115126 0.336513
Si Si3 0.714403 0.414060 0.312541
Si Si4 0.405169 0.221739 0.251142
Si Si5 0.985532 0.825519 0.265375
Si Si6 0.043768 0.339995 0.006583
Si Si7 0.226182 0.759953 0.908527
Si Si8 0.097352 0.312046 0.556237
O O1 0.237214 0.118107 0.781777
O O2 0.483773 0.921441 0.766760
O O3 0.622621 0.168964 0.931540
O O4 0.500000 0.000000 0.000000
O O5 0.289064 0.186162 0.321712
O O6 0.173908 0.175243 0.492903
O O7 0.901582 0.134490 0.204873
O O8 0.147093 0.949086 0.334766
O O9 0.568873 0.345128 0.345931
O O10 0.660463 0.350413 0.153718
O O11 0.714183 0.583223 0.336233
O O12 0.944236 0.378694 0.418068
O O13 0.266909 0.284770 0.106786
O O14 0.021628 0.725697 0.374188
O O15 0.022464 0.739100 0.147089
O O16 0.926022 0.315023 0.077311
O O17 0.000000 0.500000 0.000000
#
# Coordination Sequence:
#
# PCOD8043239 Si02
#       8
#     2   2   2   2   2   2   2   2
#     4  12  19  36  62  92 116 150 193 239 296 350
#     4  10  21  38  59  85 116 154 197 244 290 341
#     4  10  20  41  62  82 116 162 204 235 289 352
#     4  11  22  39  64  88 117 157 197 241 297 354
#     4  12  22  39  62  90 122 151 198 245 293 350
#     4  11  23  37  58  91 125 153 188 242 300 355
#     4  10  19  36  60  86 117 153 195 237 293 353
#     4  10  23  39  60  84 116 162 201 243 287 344
#
# _framework density 21.855692000000001
#
# number of rings (size 3 to 8) (size 9 to 14) (size 15 to 20)
#    0.000    1.250    3.750    2.625    0.000    4.500 
#    0.000    6.250    0.000    0.000    0.000    0.000 
#    0.000    0.000    0.000    0.000    0.000    0.000 
#
# Total GULP energy -198234.627066 kJ/mol
# GULP energy per Si atom -12389.664192 kJ/mol
# Density = 2.180595 g / cm^3
# Si number density = 21.855692 Si / 1000 Ang^3
#
#
#
# Elastic Constant Matrix: (Units=GPa)
#
#
# Indices 1 2 3 4 5 6 
#
# 1 78.9632 28.1927 21.7083 15.1109 -8.1849 15.3935
# 2 28.1927 125.6415 40.1526 36.6673 -5.1485 16.6328
# 3 21.7083 40.1526 53.7559 20.0423 -14.4203 13.3628
# 4 15.1109 36.6673 20.0423 39.1734 2.3484 6.7683
# 5 -8.1849 -5.1485 -14.4203 2.3484 30.4210 0.2523
# 6 15.3935 16.6328 13.3628 6.7683 0.2523 39.0853
#
#
#
# Elastic Compliance Matrix: (Units=1/GPa)
#
#
# Indices 1 2 3 4 5 6 
#
# 1 0.015472 -0.001098 -0.002317 -0.003201 0.003161 -0.004300
# 2 -0.001098 0.012582 -0.005516 -0.008246 -0.000131 -0.001607
# 3 -0.002317 -0.005516 0.033324 -0.010801 0.015126 -0.006360
# 4 -0.003201 -0.008246 -0.010801 0.040371 -0.010506 0.001539
# 5 0.003161 -0.000131 0.015126 -0.010506 0.041721 -0.004811
# 6 -0.004300 -0.001607 -0.006360 0.001539 -0.004811 0.029902
#
#
# Mechanical properties :
#
#
# Convention : Reuss Voigt Hill
#
# Bulk Modulus (GPa) = 22.98025 48.71863 35.84944
# Shear Modulus (GPa) = 24.30257 32.95641 28.62949
#
# Velocity S-wave (km/s) = 3.33822 3.88739 3.62323
# Velocity P-wave (km/s) = 5.03941 6.51832 5.82598
#
# Compressibility (1/GPa) = 0.04351564
#
# Stress axis : x y z
#
# Youngs Moduli (GPa) = 64.63368 79.47664 30.00841
#
# Poissons Ratio (x) = 0.08727 0.06954
# Poissons Ratio (y) = 0.07098 0.16552
# Poissons Ratio (z) = 0.14977 0.43838
#
# Static dielectric constant tensor:
#      x y z
#    x 4.234820 0.246850 -0.544500 
#    y 0.246850 3.934980 0.308090 
#    z -0.544500 0.308090 3.246410 
# 
# 
# High freq. dielectric constant tensor:
#      x y z
#    x 1.852500 0.018360 -0.009180 
#    y 0.018360 1.864170 0.015370 
#    z -0.009180 0.015370 1.846250 
# 
# From -- ./inp_files/207381.got.cif
#   From: 2010.06.25/outbox.cif.g09.slc.cpg/sg2_104_cif.got.tgz:207381.got - 2010.06.27 13:26:56.
