data_PCOD8043263
_publ_section_title
;
Structure prediction by ZEFSAII (Michael W. Deem and Ramdas Pophale) SiO2 
 PCOD8043263
Probable space group: P -1
;
_chemical_formula_sum "Si O2"
_cell_formula_units_Z 14
_cell_length_a 13.261855
_cell_length_b 12.020844
_cell_length_c 14.202869
_cell_angle_alpha 54.245385
_cell_angle_beta 148.297967
_cell_angle_gamma 144.041775
_cell_volume 657.503703
_symmetry_space_group_name_H-M "P -1"
_symmetry_group_IT_number 2
_symmetry_cell_setting 'triclinic'
loop_
_space_group_symop_operation_xyz
x,y,z
-x,-y,-z
loop_
_atom_site_type_symbol
_atom_site_label
_atom_site_fract_x
_atom_site_fract_y
_atom_site_fract_z
Si Si1 0.568316 0.321899 0.021855
Si Si2 0.881274 0.275701 0.081795
Si Si3 0.928145 0.776493 0.371855
Si Si4 0.739211 0.095989 0.244238
Si Si5 0.694938 0.401509 0.292785
Si Si6 0.989017 0.368430 0.923378
Si Si7 0.523351 0.028914 0.394346
O O1 0.650268 0.205645 0.142916
O O2 0.639845 0.418682 0.133473
O O3 0.739439 0.500459 0.992123
O O4 0.235438 0.168203 0.810603
O O5 0.890021 0.166889 0.226217
O O6 0.056476 0.498683 0.145372
O O7 0.010907 0.291380 0.076911
O O8 0.548750 0.142874 0.867640
O O9 0.686968 0.531439 0.289114
O O10 0.042592 0.845759 0.534742
O O11 0.179583 0.878032 0.449060
O O12 0.480411 0.167987 0.267487
O O13 0.000000 0.500000 0.500000
O O14 0.717201 0.182611 0.742097
O O15 0.500000 0.000000 0.500000
#
# Coordination Sequence:
#
# PCOD8043263 Si02
#       7
#     2   2   2   2   2   2   2
#     4  11  21  37  64  87 122 156 199 245 293 358
#     4   9  19  35  64  82 116 167 196 243 296 348
#     4  11  22  38  61  90 119 158 202 240 294 362
#     4  10  19  39  62  84 116 162 203 237 300 352
#     4  10  19  37  59  85 119 159 194 233 298 359
#     4  10  19  36  60  90 117 153 203 246 298 343
#     4  11  22  37  64  88 119 156 198 247 301 353
#
# _framework density 21.292656000000001
#
# number of rings (size 3 to 8) (size 9 to 14) (size 15 to 20)
#    0.000    1.714    4.286    2.143    2.000    0.000 
#    0.000   11.429    0.000    0.000    0.000    0.000 
#    0.000    0.000    0.000    0.000    0.000    0.000 
#
# Total GULP energy -173485.799323 kJ/mol
# GULP energy per Si atom -12391.842809 kJ/mol
# Density = 2.124419 g / cm^3
# Si number density = 21.292656 Si / 1000 Ang^3
#
#
#
# Elastic Constant Matrix: (Units=GPa)
#
#
# Indices 1 2 3 4 5 6 
#
# 1 83.9968 38.4120 43.8662 -0.4130 -39.6076 28.7573
# 2 38.4120 87.9438 22.3609 19.6212 -18.5397 12.6257
# 3 43.8662 22.3609 125.1748 0.5112 -29.4206 6.1434
# 4 -0.4130 19.6212 0.5112 29.8212 -0.3373 -15.0396
# 5 -39.6076 -18.5397 -29.4206 -0.3373 47.8414 -5.7208
# 6 28.7573 12.6257 6.1434 -15.0396 -5.7208 43.6080
#
#
#
# Elastic Compliance Matrix: (Units=1/GPa)
#
#
# Indices 1 2 3 4 5 6 
#
# 1 0.032126 -0.004860 -0.004890 -0.005317 0.019472 -0.018369
# 2 -0.004860 0.018721 -0.000803 -0.016097 0.001736 -0.007426
# 3 -0.004890 -0.000803 0.010235 0.001791 0.002298 0.002935
# 4 -0.005317 -0.016097 0.001791 0.057567 -0.005905 0.026994
# 5 0.019472 0.001736 0.002298 -0.005905 0.037782 -0.010747
# 6 -0.018369 -0.007426 0.002935 0.026994 -0.010747 0.044681
#
#
# Mechanical properties :
#
#
# Convention : Reuss Voigt Hill
#
# Bulk Modulus (GPa) = 25.01520 56.26597 40.64059
# Shear Modulus (GPa) = 21.22741 37.08587 29.15664
#
# Velocity S-wave (km/s) = 3.16085 4.17792 3.70446
# Velocity P-wave (km/s) = 5.00950 7.05378 6.11763
#
# Compressibility (1/GPa) = 0.03997569
#
# Stress axis : x y z
#
# Youngs Moduli (GPa) = 31.12728 53.41477 97.70690
#
# Poissons Ratio (x) = 0.25961 0.47780
# Poissons Ratio (y) = 0.15129 0.07845
# Poissons Ratio (z) = 0.15222 0.04289
#
# Static dielectric constant tensor:
#      x y z
#    x 3.922780 -0.172560 -0.374900 
#    y -0.172560 4.369120 0.042050 
#    z -0.374900 0.042050 3.670390 
# 
# 
# High freq. dielectric constant tensor:
#      x y z
#    x 1.833910 0.004180 -0.042580 
#    y 0.004180 1.837850 0.012980 
#    z -0.042580 0.012980 1.812740 
# 
# From -- ./inp_files/379219.got.cif
#   From: 2010.06.25/outbox.cif.g09.slc.cpg/sg2_190_cif.got.tgz:379219.got - 2010.06.27 13:26:56.
