data_PCOD8043707
_publ_section_title
;
Structure prediction by ZEFSAII (Michael W. Deem and Ramdas Pophale) SiO2 
 PCOD8043707
Probable space group: P -1
;
_chemical_formula_sum "Si O2"
_cell_formula_units_Z 14
_cell_length_a 12.518708
_cell_length_b 18.405814
_cell_length_c 8.918423
_cell_angle_alpha 142.377945
_cell_angle_beta 75.622354
_cell_angle_gamma 131.874267
_cell_volume 735.201492
_symmetry_space_group_name_H-M "P -1"
_symmetry_group_IT_number 2
_symmetry_cell_setting 'triclinic'
loop_
_space_group_symop_operation_xyz
x,y,z
-x,-y,-z
loop_
_atom_site_type_symbol
_atom_site_label
_atom_site_fract_x
_atom_site_fract_y
_atom_site_fract_z
Si Si1 0.782313 0.494026 0.547289
Si Si2 0.152196 0.899937 0.215972
Si Si3 0.296658 0.832888 0.853182
Si Si4 0.427100 0.328559 0.342192
Si Si5 0.850922 0.917569 0.718283
Si Si6 0.123406 0.941790 0.629129
Si Si7 0.980092 0.260545 0.389000
O O1 0.779167 0.362030 0.404783
O O2 0.590912 0.395026 0.467758
O O3 0.834231 0.531390 0.411927
O O4 0.940362 0.701478 0.918661
O O5 0.176743 0.932440 0.436772
O O6 0.225009 0.081313 0.402239
O O7 0.274993 0.894063 0.110272
O O8 0.184609 0.797097 0.699790
O O9 0.500000 0.000000 0.000000
O O10 0.500000 0.500000 0.500000
O O11 0.311264 0.276615 0.440465
O O12 0.309593 0.140755 0.970767
O O13 0.987430 0.934226 0.641432
O O14 0.956954 0.103114 0.088493
O O15 0.022044 0.749545 0.446055
#
# Coordination Sequence:
#
# PCOD8043707 Si02
#       7
#     2   2   2   2   2   2   2
#     4  10  19  37  57  77 103 143 182 213 258 328
#     4  10  21  36  56  80 105 140 180 222 266 308
#     4  10  19  37  58  76 103 144 181 212 261 331
#     4  11  20  34  57  83 107 142 181 213 257 322
#     4   9  18  34  53  75 109 148 174 205 263 326
#     4  11  20  35  54  81 111 137 175 229 266 298
#     4   9  18  33  54  78 103 142 180 212 258 317
#
# _framework density 19.042397999999999
#
# number of rings (size 3 to 8) (size 9 to 14) (size 15 to 20)
#    0.000    2.286    0.000    9.000    0.000    0.000 
#    0.000   12.857    0.000    0.000    0.000    0.000 
#    0.000    0.000    0.000    0.000    0.000    0.000 
#
# Total GULP energy -173534.498244 kJ/mol
# GULP energy per Si atom -12395.321303 kJ/mol
# Density = 1.899906 g / cm^3
# Si number density = 19.042398 Si / 1000 Ang^3
#
#
#
# Elastic Constant Matrix: (Units=GPa)
#
#
# Indices 1 2 3 4 5 6 
#
# 1 96.8494 26.9855 19.5835 -0.7705 -10.4806 10.5399
# 2 26.9855 131.8650 37.3105 -7.2626 -4.9338 -9.1997
# 3 19.5835 37.3105 46.5104 -0.1334 2.9981 2.6542
# 4 -0.7705 -7.2626 -0.1334 35.2610 -2.7225 0.2866
# 5 -10.4806 -4.9338 2.9981 -2.7225 19.5031 13.0953
# 6 10.5399 -9.1997 2.6542 0.2866 13.0953 43.3658
#
#
#
# Elastic Compliance Matrix: (Units=1/GPa)
#
#
# Indices 1 2 3 4 5 6 
#
# 1 0.013968 -0.001344 -0.005223 0.001073 0.013019 -0.007299
# 2 -0.001344 0.010524 -0.008130 0.002228 0.001830 0.002489
# 3 -0.005223 -0.008130 0.030844 -0.002491 -0.010524 0.000851
# 4 0.001073 0.002228 -0.002491 0.029382 0.006912 -0.001917
# 5 0.013019 0.001830 -0.010524 0.006912 0.078744 -0.025956
# 6 -0.007299 0.002489 0.000851 -0.001917 -0.025956 0.033160
#
#
# Mechanical properties :
#
#
# Convention : Reuss Voigt Hill
#
# Bulk Modulus (GPa) = 38.54680 49.22042 43.88361
# Shear Modulus (GPa) = 21.30719 32.38233 26.84476
#
# Velocity S-wave (km/s) = 3.34868 4.12823 3.75872
# Velocity P-wave (km/s) = 5.93617 6.97331 6.47553
#
# Compressibility (1/GPa) = 0.02594249
#
# Stress axis : x y z
#
# Youngs Moduli (GPa) = 71.59472 95.02411 32.42100
#
# Poissons Ratio (x) = 0.12767 0.16933
# Poissons Ratio (y) = 0.09619 0.26358
# Poissons Ratio (z) = 0.37394 0.77254
#
# Static dielectric constant tensor:
#      x y z
#    x 3.638700 0.165190 0.028510 
#    y 0.165190 5.982640 0.577520 
#    z 0.028510 0.577520 3.155950 
# 
# 
# High freq. dielectric constant tensor:
#      x y z
#    x 1.752190 -0.009330 -0.001090 
#    y -0.009330 1.762610 0.019260 
#    z -0.001090 0.019260 1.686180 
# 
# From -- ./inp_files/249973.got.cif
#   From: 2010.06.25/outbox.cif.g09.slc.cpg/sg2_125_cif.got.tgz:249973.got - 2010.06.27 13:26:56.
