data_PCOD8043747
_publ_section_title
;
Structure prediction by ZEFSAII (Michael W. Deem and Ramdas Pophale) SiO2 
 PCOD8043747
Probable space group: P -1
;
_chemical_formula_sum "Si O2"
_cell_formula_units_Z 14
_cell_length_a 15.941914
_cell_length_b 9.426499
_cell_length_c 10.613057
_cell_angle_alpha 137.623791
_cell_angle_beta 50.884191
_cell_angle_gamma 101.391445
_cell_volume 715.646031
_symmetry_space_group_name_H-M "P -1"
_symmetry_group_IT_number 2
_symmetry_cell_setting 'triclinic'
loop_
_space_group_symop_operation_xyz
x,y,z
-x,-y,-z
loop_
_atom_site_type_symbol
_atom_site_label
_atom_site_fract_x
_atom_site_fract_y
_atom_site_fract_z
Si Si1 0.400763 0.039334 0.453252
Si Si2 0.946368 0.601667 0.293117
Si Si3 0.101908 0.235463 0.287065
Si Si4 0.667813 0.867746 0.149229
Si Si5 0.788017 0.032405 0.550096
Si Si6 0.011507 0.062906 0.886831
Si Si7 0.216912 0.533863 0.041637
O O1 0.382084 0.966783 0.566774
O O2 0.349581 0.923961 0.323249
O O3 0.548212 0.931500 0.215864
O O4 0.320953 0.338985 0.716437
O O5 0.866295 0.734782 0.580944
O O6 0.878992 0.757437 0.335071
O O7 0.083497 0.569053 0.154023
O O8 0.944722 0.352298 0.120955
O O9 0.000000 0.500000 0.500000
O O10 0.050909 0.049189 0.216224
O O11 0.232828 0.090167 0.991860
O O12 0.744022 0.581284 0.929808
O O13 0.845528 0.056828 0.378705
O O14 0.781252 0.215198 0.786546
O O15 0.000000 0.000000 0.000000
#
# Coordination Sequence:
#
# PCOD8043747 Si02
#       7
#     2   2   2   2   2   2   2
#     4   9  20  38  58  85 119 148 203 237 286 343
#     4  12  24  36  57  93 123 153 187 241 305 346
#     4  12  20  38  58  87 121 145 195 244 290 340
#     4   9  19  40  59  86 116 152 192 255 278 336
#     4  12  23  36  60  91 119 155 193 237 298 352
#     4  12  22  34  60  87 118 153 190 243 293 340
#     4  10  19  37  58  83 119 149 195 237 288 337
#
# _framework density 19.562743000000001
#
# number of rings (size 3 to 8) (size 9 to 14) (size 15 to 20)
#    0.857    0.286    5.714    1.714    0.000    0.571 
#    0.000    0.714    0.000    1.714    0.000    0.000 
#    0.000    0.000    0.000    0.000    0.000    0.000 
#
# Total GULP energy -173480.638332 kJ/mol
# GULP energy per Si atom -12391.474167 kJ/mol
# Density = 1.951822 g / cm^3
# Si number density = 19.562743 Si / 1000 Ang^3
#
#
#
# Elastic Constant Matrix: (Units=GPa)
#
#
# Indices 1 2 3 4 5 6 
#
# 1 112.5807 43.9639 38.6784 11.1947 -13.1394 22.2475
# 2 43.9639 67.1154 25.5335 11.3825 -0.3749 11.2895
# 3 38.6784 25.5335 47.3385 3.7411 0.2061 15.4692
# 4 11.1947 11.3825 3.7411 33.5158 8.2815 10.2032
# 5 -13.1394 -0.3749 0.2061 8.2815 40.4730 1.6476
# 6 22.2475 11.2895 15.4692 10.2032 1.6476 30.2885
#
#
#
# Elastic Compliance Matrix: (Units=1/GPa)
#
#
# Indices 1 2 3 4 5 6 
#
# 1 0.015863 -0.006148 -0.007897 -0.002277 0.005798 -0.004875
# 2 -0.006148 0.022188 -0.007062 -0.004974 -0.000801 0.001571
# 3 -0.007897 -0.007062 0.034508 0.005325 -0.003455 -0.010798
# 4 -0.002277 -0.004974 0.005325 0.037080 -0.007942 -0.011252
# 5 0.005798 -0.000801 -0.003455 -0.007942 0.028268 -0.001058
# 6 -0.004875 0.001571 -0.010798 -0.011252 -0.001058 0.045373
#
#
# Mechanical properties :
#
#
# Convention : Reuss Voigt Hill
#
# Bulk Modulus (GPa) = 32.95288 49.26515 41.10901
# Shear Modulus (GPa) = 21.22149 28.77939 25.00044
#
# Velocity S-wave (km/s) = 3.29719 3.83970 3.57874
# Velocity P-wave (km/s) = 5.60148 6.70041 6.17544
#
# Compressibility (1/GPa) = 0.03034637
#
# Stress axis : x y z
#
# Youngs Moduli (GPa) = 63.03976 45.06886 28.97844
#
# Poissons Ratio (x) = 0.27708 0.22885
# Poissons Ratio (y) = 0.38757 0.20463
# Poissons Ratio (z) = 0.49783 0.31826
#
# Static dielectric constant tensor:
#      x y z
#    x 3.522380 0.066960 0.095270 
#    y 0.066960 3.446270 0.038530 
#    z 0.095270 0.038530 3.533520 
# 
# 
# High freq. dielectric constant tensor:
#      x y z
#    x 1.759070 0.009400 0.009970 
#    y 0.009400 1.735720 0.003300 
#    z 0.009970 0.003300 1.751360 
# 
# From -- ./inp_files/430332.got.cif
#   From: 2010.06.25/outbox.cif.g09.slc.cpg/sg2_216_cif.got.tgz:430332.got - 2010.06.27 13:26:56.
