data_PCOD8043713
_publ_section_title
;
Structure prediction by ZEFSAII (Michael W. Deem and Ramdas Pophale) SiO2 
 PCOD8043713
Probable space group: P -1
;
_chemical_formula_sum "Si O2"
_cell_formula_units_Z 14
_cell_length_a 11.787529
_cell_length_b 17.339302
_cell_length_c 9.627523
_cell_angle_alpha 79.536803
_cell_angle_beta 78.987866
_cell_angle_gamma 149.015512
_cell_volume 725.879050
_symmetry_space_group_name_H-M "P -1"
_symmetry_group_IT_number 2
_symmetry_cell_setting 'triclinic'
loop_
_space_group_symop_operation_xyz
x,y,z
-x,-y,-z
loop_
_atom_site_type_symbol
_atom_site_label
_atom_site_fract_x
_atom_site_fract_y
_atom_site_fract_z
Si Si1 0.372346 0.487257 0.203907
Si Si2 0.777664 0.205284 0.781570
Si Si3 0.675858 0.719108 0.782467
Si Si4 0.573035 0.456808 0.521644
Si Si5 0.922785 0.456286 0.370420
Si Si6 0.646487 0.810270 0.516517
Si Si7 0.217179 0.799850 0.540497
O O1 0.436909 0.434534 0.204710
O O2 0.475675 0.591741 0.288900
O O3 0.012648 0.274297 0.348880
O O4 0.544320 0.642574 0.992812
O O5 0.682456 0.147428 0.660744
O O6 0.085873 0.347871 0.674874
O O7 0.836842 0.326869 0.803040
O O8 0.500000 0.000000 0.000000
O O9 0.555000 0.717022 0.720138
O O10 0.038072 0.946961 0.628040
O O11 0.500000 0.500000 0.500000
O O12 0.327207 0.249356 0.569054
O O13 0.588940 0.277427 0.467316
O O14 0.944730 0.384493 0.317610
O O15 0.000000 0.500000 0.500000
O O16 0.500000 0.000000 0.500000
#
# Coordination Sequence:
#
# PCOD8043713 Si02
#       7
#     2   2   2   2   2   2   2
#     4  10  21  38  56  83 115 149 187 234 281 341
#     4   9  20  38  57  81 111 149 189 229 284 341
#     4  10  21  37  57  85 115 148 190 228 294 338
#     4  10  19  37  57  82 113 145 188 236 279 329
#     4   9  19  38  57  79 113 151 187 228 283 342
#     4  10  20  37  60  81 113 150 188 236 285 334
#     4  10  20  36  58  81 114 146 189 229 283 331
#
# _framework density 19.286957999999998
#
# number of rings (size 3 to 8) (size 9 to 14) (size 15 to 20)
#    0.000    2.286    1.429    1.714    0.000    2.857 
#    7.714    1.429    0.000    0.000    0.000    0.000 
#    0.000    0.000    0.000    0.000    0.000    0.000 
#
# Total GULP energy -173449.178074 kJ/mol
# GULP energy per Si atom -12389.227005 kJ/mol
# Density = 1.924306 g / cm^3
# Si number density = 19.286958 Si / 1000 Ang^3
#
#
#
# Elastic Constant Matrix: (Units=GPa)
#
#
# Indices 1 2 3 4 5 6 
#
# 1 79.5467 22.2538 22.6835 4.0585 8.6981 2.0677
# 2 22.2538 87.9382 27.6328 -2.6234 14.7637 0.2489
# 3 22.6835 27.6328 116.1152 3.4607 15.8867 -2.4253
# 4 4.0585 -2.6234 3.4607 17.4438 -4.1339 4.9164
# 5 8.6981 14.7637 15.8867 -4.1339 18.1539 3.3160
# 6 2.0677 0.2489 -2.4253 4.9164 3.3160 39.7185
#
#
#
# Elastic Compliance Matrix: (Units=1/GPa)
#
#
# Indices 1 2 3 4 5 6 
#
# 1 0.014436 -0.002559 -0.001435 -0.004599 -0.004652 0.000135
# 2 -0.002559 0.014015 -0.001668 0.000832 -0.008624 0.000560
# 3 -0.001435 -0.001668 0.010666 -0.004678 -0.008728 0.002044
# 4 -0.004599 0.000832 -0.004678 0.067810 0.022954 -0.010362
# 5 -0.004652 -0.008624 -0.008728 0.022954 0.078958 -0.009670
# 6 0.000135 0.000560 0.002044 -0.010362 -0.009670 0.027381
#
#
# Mechanical properties :
#
#
# Convention : Reuss Voigt Hill
#
# Bulk Modulus (GPa) = 35.98148 47.63781 41.80964
# Shear Modulus (GPa) = 21.38079 29.13192 25.25635
#
# Velocity S-wave (km/s) = 3.33312 3.89066 3.62263
# Velocity P-wave (km/s) = 5.78872 6.70344 6.26280
#
# Compressibility (1/GPa) = 0.02779207
#
# Stress axis : x y z
#
# Youngs Moduli (GPa) = 69.27078 71.35431 93.75832
#
# Poissons Ratio (x) = 0.18259 0.13452
# Poissons Ratio (y) = 0.17726 0.15643
# Poissons Ratio (z) = 0.09939 0.11905
#
# Static dielectric constant tensor:
#      x y z
#    x 3.911990 -0.051400 0.192430 
#    y -0.051400 3.849450 0.164430 
#    z 0.192430 0.164430 3.275070 
# 
# 
# High freq. dielectric constant tensor:
#      x y z
#    x 1.759600 0.000330 0.013500 
#    y 0.000330 1.765700 0.006410 
#    z 0.013500 0.006410 1.719280 
# 
# From -- ./inp_files/171246.got.cif
#   From: 2010.06.25/outbox.cif.g09.slc.cpg/sg2_86_cif.got.tgz:171246.got - 2010.06.27 13:26:56.
