data_PCOD8043336
_publ_section_title
;
Structure prediction by ZEFSAII (Michael W. Deem and Ramdas Pophale) SiO2 
 PCOD8043336
Probable space group: P -1
;
_chemical_formula_sum "Si O2"
_cell_formula_units_Z 16
_cell_length_a 18.560431
_cell_length_b 5.086416
_cell_length_c 21.436283
_cell_angle_alpha 92.465739
_cell_angle_beta 27.739690
_cell_angle_gamma 76.789501
_cell_volume 771.055260
_symmetry_space_group_name_H-M "P -1"
_symmetry_group_IT_number 2
_symmetry_cell_setting 'triclinic'
loop_
_space_group_symop_operation_xyz
x,y,z
-x,-y,-z
loop_
_atom_site_type_symbol
_atom_site_label
_atom_site_fract_x
_atom_site_fract_y
_atom_site_fract_z
Si Si1 0.081187 0.674158 0.810133
Si Si2 0.546363 0.674718 0.121483
Si Si3 0.453923 0.430443 0.467323
Si Si4 0.793542 0.664454 0.743283
Si Si5 0.668777 0.685472 0.265609
Si Si6 0.416542 0.860029 0.988358
Si Si7 0.870668 0.912799 0.565690
Si Si8 0.837367 0.429989 0.003344
O O1 0.230129 0.589502 0.639406
O O2 0.182716 0.531231 0.796846
O O3 0.975362 0.512071 0.868003
O O4 0.938153 0.053925 0.931249
O O5 0.633751 0.370806 0.005284
O O6 0.567401 0.935978 0.075417
O O7 0.330087 0.796958 0.305203
O O8 0.654628 0.569188 0.102312
O O9 0.500000 0.500000 0.500000
O O10 0.514948 0.599621 0.374029
O O11 0.569114 0.054129 0.362781
O O12 0.611165 0.647413 0.877763
O O13 0.809852 0.765644 0.662923
O O14 0.997834 0.327828 0.594069
O O15 0.756013 0.907796 0.829804
O O16 0.778083 0.610235 0.116646
O O17 0.000000 0.000000 0.500000
#
# Coordination Sequence:
#
# PCOD8043336 Si02
#       8
#     2   2   2   2   2   2   2   2
#     4  11  21  39  63  88 119 157 207 248 297 361
#     4  11  24  40  57  82 125 158 195 241 302 352
#     4  10  20  37  62  91 119 149 195 260 305 345
#     4   9  20  34  61  92 111 147 198 246 292 344
#     4  11  21  38  64  93 117 155 207 253 298 352
#     4  10  21  38  61  86 116 151 196 245 291 353
#     4  10  19  36  61  88 115 150 193 246 294 346
#     4  12  24  39  59  87 124 165 198 249 304 358
#
# _framework density 20.750781
#
# number of rings (size 3 to 8) (size 9 to 14) (size 15 to 20)
#    0.000    1.500    1.250    6.000    1.750    1.500 
#    0.000    3.750    2.750    0.000    0.000    0.000 
#    0.000    0.000    0.000    0.000    0.000    0.000 
#
# Total GULP energy -198336.204176 kJ/mol
# GULP energy per Si atom -12396.012761 kJ/mol
# Density = 2.070355 g / cm^3
# Si number density = 20.750781 Si / 1000 Ang^3
#
#
#
# Elastic Constant Matrix: (Units=GPa)
#
#
# Indices 1 2 3 4 5 6 
#
# 1 69.0061 22.4985 39.1056 17.9290 -17.3793 8.5301
# 2 22.4985 93.5401 27.5389 13.2973 -5.1318 15.9557
# 3 39.1056 27.5389 124.7398 17.4843 -6.6816 0.9365
# 4 17.9290 13.2973 17.4843 39.1078 9.1077 -4.1593
# 5 -17.3793 -5.1318 -6.6816 9.1077 22.5104 -5.3619
# 6 8.5301 15.9557 0.9365 -4.1593 -5.3619 17.6860
#
#
#
# Elastic Compliance Matrix: (Units=1/GPa)
#
#
# Indices 1 2 3 4 5 6 
#
# 1 0.030774 0.000357 -0.005463 -0.019351 0.027400 -0.011120
# 2 0.000357 0.014659 -0.002276 -0.006108 0.002058 -0.014090
# 3 -0.005463 -0.002276 0.010294 -0.000815 -0.000442 0.003818
# 4 -0.019351 -0.006108 -0.000815 0.045891 -0.031285 0.016195
# 5 0.027400 0.002058 -0.000442 -0.031285 0.078937 0.001526
# 6 -0.011120 -0.014090 0.003818 0.016195 0.001526 0.078685
#
#
# Mechanical properties :
#
#
# Convention : Reuss Voigt Hill
#
# Bulk Modulus (GPa) = 24.41203 51.73023 38.07113
# Shear Modulus (GPa) = 17.38171 29.07039 23.22605
#
# Velocity S-wave (km/s) = 2.89734 3.74696 3.34920
# Velocity P-wave (km/s) = 4.79403 6.61083 5.77433
#
# Compressibility (1/GPa) = 0.04096341
#
# Stress axis : x y z
#
# Youngs Moduli (GPa) = 32.49514 68.21575 97.14740
#
# Poissons Ratio (x) = -0.02438 0.53070
# Poissons Ratio (y) = -0.01161 0.22113
# Poissons Ratio (z) = 0.17752 0.15527
#
# Static dielectric constant tensor:
#      x y z
#    x 3.461510 0.201250 -0.226370 
#    y 0.201250 4.345000 -0.744800 
#    z -0.226370 -0.744800 5.672460 
# 
# 
# High freq. dielectric constant tensor:
#      x y z
#    x 1.770330 0.019290 0.000210 
#    y 0.019290 1.818820 0.001900 
#    z 0.000210 0.001900 1.832780 
# 
# From -- ./inp_files/585730.got.cif
#   From: 2010.06.25/outbox.cif.g09.slc.cpg/sg2_293_cif.got.tgz:585730.got - 2010.06.27 13:26:56.
