data_PCOD8043715
_publ_section_title
;
Structure prediction by ZEFSAII (Michael W. Deem and Ramdas Pophale) SiO2 
 PCOD8043715
Probable space group: P -1
;
_chemical_formula_sum "Si O2"
_cell_formula_units_Z 12
_cell_length_a 22.548652
_cell_length_b 9.129034
_cell_length_c 9.142049
_cell_angle_alpha 74.834416
_cell_angle_beta 137.393385
_cell_angle_gamma 138.734779
_cell_volume 636.233197
_symmetry_space_group_name_H-M "P -1"
_symmetry_group_IT_number 2
_symmetry_cell_setting 'triclinic'
loop_
_space_group_symop_operation_xyz
x,y,z
-x,-y,-z
loop_
_atom_site_type_symbol
_atom_site_label
_atom_site_fract_x
_atom_site_fract_y
_atom_site_fract_z
Si Si1 0.266316 0.223277 0.286572
Si Si2 0.510398 0.328820 0.645253
Si Si3 0.635222 0.088479 0.289900
Si Si4 0.057753 0.243825 0.359005
Si Si5 0.674264 0.820179 0.289333
Si Si6 0.805882 0.863126 0.256074
O O1 0.347147 0.194951 0.360975
O O2 0.384264 0.535238 0.351322
O O3 0.268028 0.206145 0.467661
O O4 0.073638 0.965825 0.957879
O O5 0.437752 0.061350 0.642156
O O6 0.631178 0.583223 0.922902
O O7 0.816901 0.435528 0.541288
O O8 0.661214 0.975135 0.271599
O O9 0.500000 0.000000 0.000000
O O10 0.161221 0.243603 0.568782
O O11 0.959989 0.137609 0.359217
O O12 0.799145 0.985859 0.334036
O O13 0.500000 0.500000 0.000000
#
# Coordination Sequence:
#
# PCOD8043715 Si02
#       6
#     2   2   2   2   2   2
#     4   9  19  33  57  84 106 147 183 230 265 331
#     4   9  17  34  57  81 106 147 186 217 270 336
#     4  11  20  35  60  83 111 147 187 226 272 332
#     4  10  21  35  58  84 111 145 186 227 274 326
#     4  11  20  35  59  84 110 147 187 225 275 328
#     4  10  19  37  57  83 111 147 185 222 276 335
#
# _framework density 18.861008999999999
#
# number of rings (size 3 to 8) (size 9 to 14) (size 15 to 20)
#    0.000    2.000    5.000    0.000    0.000    4.000 
#    0.000    0.000    3.667    2.000    0.000    0.000 
#    0.000    0.000    0.000    0.000    0.000    0.000 
#
# Total GULP energy -148698.851028 kJ/mol
# GULP energy per Si atom -12391.570919 kJ/mol
# Density = 1.881808 g / cm^3
# Si number density = 18.861009 Si / 1000 Ang^3
#
#
#
# Elastic Constant Matrix: (Units=GPa)
#
#
# Indices 1 2 3 4 5 6 
#
# 1 72.8935 22.9763 11.0935 -7.9479 -3.9787 7.1009
# 2 22.9763 132.9459 29.4254 -0.0206 2.0951 14.0174
# 3 11.0935 29.4254 85.7254 -14.9096 2.1162 -0.0756
# 4 -7.9479 -0.0206 -14.9096 33.0254 4.8967 2.1973
# 5 -3.9787 2.0951 2.1162 4.8967 22.3508 -5.2786
# 6 7.1009 14.0174 -0.0756 2.1973 -5.2786 22.9003
#
#
#
# Elastic Compliance Matrix: (Units=1/GPa)
#
#
# Indices 1 2 3 4 5 6 
#
# 1 0.015281 -0.002150 -0.000690 0.003378 0.001440 -0.003417
# 2 -0.002150 0.009151 -0.003037 -0.001247 -0.001924 -0.005269
# 3 -0.000690 -0.003037 0.013973 0.006423 -0.002341 0.000963
# 4 0.003378 -0.001247 0.006423 0.035723 -0.009082 -0.005784
# 5 0.001440 -0.001924 -0.002341 -0.009082 0.050516 0.013239
# 6 -0.003417 -0.005269 0.000963 -0.005784 0.013239 0.051562
#
#
# Mechanical properties :
#
#
# Convention : Reuss Voigt Hill
#
# Bulk Modulus (GPa) = 37.52324 46.50616 42.01470
# Shear Modulus (GPa) = 25.40074 30.85993 28.13034
#
# Velocity S-wave (km/s) = 3.67377 4.04936 3.86613
# Velocity P-wave (km/s) = 6.15899 6.82451 6.50027
#
# Compressibility (1/GPa) = 0.02665015
#
# Stress axis : x y z
#
# Youngs Moduli (GPa) = 65.43975 109.27430 71.56809
#
# Poissons Ratio (x) = 0.23495 0.04942
# Poissons Ratio (y) = 0.14070 0.21735
# Poissons Ratio (z) = 0.04519 0.33186
#
# Static dielectric constant tensor:
#      x y z
#    x 4.012740 0.354030 0.070610 
#    y 0.354030 3.765600 -0.229890 
#    z 0.070610 -0.229890 3.525210 
# 
# 
# High freq. dielectric constant tensor:
#      x y z
#    x 1.707000 0.031500 0.019550 
#    y 0.031500 1.729880 -0.019400 
#    z 0.019550 -0.019400 1.740710 
# 
# From -- ./inp_files/147552.got.cif
#   From: 2010.06.25/outbox.cif.g09.slc.cpg/sg2_74_cif.got.tgz:147552.got - 2010.06.27 13:26:56.
