data_PCOD8043270
_publ_section_title
;
Structure prediction by ZEFSAII (Michael W. Deem and Ramdas Pophale) SiO2 
 PCOD8043270
Probable space group: P -1
;
_chemical_formula_sum "Si O2"
_cell_formula_units_Z 14
_cell_length_a 11.755951
_cell_length_b 16.795432
_cell_length_c 8.466138
_cell_angle_alpha 41.206193
_cell_angle_beta 102.841220
_cell_angle_gamma 131.211670
_cell_volume 690.918493
_symmetry_space_group_name_H-M "P -1"
_symmetry_group_IT_number 2
_symmetry_cell_setting 'triclinic'
loop_
_space_group_symop_operation_xyz
x,y,z
-x,-y,-z
loop_
_atom_site_type_symbol
_atom_site_label
_atom_site_fract_x
_atom_site_fract_y
_atom_site_fract_z
Si Si1 0.560675 0.644910 0.677434
Si Si2 0.281851 0.897399 0.209961
Si Si3 0.365053 0.713511 0.410231
Si Si4 0.884441 0.021599 0.391798
Si Si5 0.858026 0.020039 0.740602
Si Si6 0.933583 0.664793 0.255585
Si Si7 0.778348 0.733987 0.339578
O O1 0.397141 0.609616 0.657191
O O2 0.600569 0.599470 0.597139
O O3 0.726319 0.861368 0.460685
O O4 0.500000 0.500000 0.000000
O O5 0.328676 0.792656 0.406984
O O6 0.193428 0.888082 0.348991
O O7 0.132522 0.785715 0.193792
O O8 0.464251 0.114513 0.900640
O O9 0.183663 0.548311 0.496917
O O10 0.811376 0.004376 0.566148
O O11 0.000000 0.000000 0.500000
O O12 0.023511 0.226889 0.051935
O O13 0.061322 0.136882 0.672346
O O14 0.745441 0.825115 0.082651
O O15 0.812376 0.645292 0.372451
#
# Coordination Sequence:
#
# PCOD8043270 Si02
#       7
#     2   2   2   2   2   2   2
#     4  12  24  38  59  96 128 155 202 256 307 363
#     4  10  22  44  64  86 122 165 211 243 295 370
#     4  11  23  40  66  88 122 165 205 249 299 364
#     4  12  20  36  60  91 124 160 195 252 312 353
#     4  10  19  36  62  88 118 164 202 247 302 359
#     4  11  22  39  66  91 120 160 208 250 305 360
#     4  10  19  36  60  90 122 155 203 250 306 358
#
# _framework density 20.262881
#
# number of rings (size 3 to 8) (size 9 to 14) (size 15 to 20)
#    0.000    1.143    5.714    2.143    0.000    1.714 
#    0.000    1.429    3.143    0.000    0.000    0.000 
#    0.000    0.000    0.000    0.000    0.000    0.000 
#
# Total GULP energy -173445.047499 kJ/mol
# GULP energy per Si atom -12388.931964 kJ/mol
# Density = 2.021676 g / cm^3
# Si number density = 20.262881 Si / 1000 Ang^3
#
#
#
# Elastic Constant Matrix: (Units=GPa)
#
#
# Indices 1 2 3 4 5 6 
#
# 1 103.0456 8.2067 47.4720 10.6359 -2.0640 -17.7403
# 2 8.2067 66.7990 37.9065 -5.5263 -11.0885 -12.5909
# 3 47.4720 37.9065 106.8895 0.3002 -2.5542 -11.0462
# 4 10.6359 -5.5263 0.3002 41.6676 -3.0440 -7.6497
# 5 -2.0640 -11.0885 -2.5542 -3.0440 22.5275 -1.0210
# 6 -17.7403 -12.5909 -11.0462 -7.6497 -1.0210 28.8956
#
#
#
# Elastic Compliance Matrix: (Units=1/GPa)
#
#
# Indices 1 2 3 4 5 6 
#
# 1 0.013967 0.003775 -0.006719 -0.001484 0.002509 0.007348
# 2 0.003775 0.024126 -0.008781 0.005286 0.012453 0.011313
# 3 -0.006719 -0.008781 0.015131 -0.000235 -0.003360 -0.002348
# 4 -0.001484 0.005286 -0.000235 0.027157 0.006504 0.008722
# 5 0.002509 0.012453 -0.003360 0.006504 0.051666 0.009229
# 6 0.007348 0.011313 -0.002348 0.008722 0.009229 0.045786
#
#
# Mechanical properties :
#
#
# Convention : Reuss Voigt Hill
#
# Bulk Modulus (GPa) = 33.58368 51.54492 42.56430
# Shear Modulus (GPa) = 23.67348 30.82806 27.25077
#
# Velocity S-wave (km/s) = 3.42177 3.90475 3.67121
# Velocity P-wave (km/s) = 5.67639 6.76925 6.24676
#
# Compressibility (1/GPa) = 0.02977637
#
# Stress axis : x y z
#
# Youngs Moduli (GPa) = 71.59556 41.44885 66.08941
#
# Poissons Ratio (x) = -0.15648 0.44403
# Poissons Ratio (y) = -0.27029 0.58031
# Poissons Ratio (z) = 0.48102 0.36395
#
# Static dielectric constant tensor:
#      x y z
#    x 3.828500 -0.020760 -0.059510 
#    y -0.020760 3.098450 -0.101140 
#    z -0.059510 -0.101140 3.395440 
# 
# 
# High freq. dielectric constant tensor:
#      x y z
#    x 1.800750 -0.003230 -0.008120 
#    y -0.003230 1.785130 -0.008900 
#    z -0.008120 -0.008900 1.773260 
# 
# From -- ./inp_files/176458.got.cif
#   From: 2010.06.25/outbox.cif.g09.slc.cpg/sg2_89_cif.got.tgz:176458.got - 2010.06.27 13:26:56.
