data_PCOD8043375
_publ_section_title
;
Structure prediction by ZEFSAII (Michael W. Deem and Ramdas Pophale) SiO2 
 PCOD8043375
Probable space group: P -1
;
_chemical_formula_sum "Si O2"
_cell_formula_units_Z 14
_cell_length_a 6.633644
_cell_length_b 16.553064
_cell_length_c 9.073648
_cell_angle_alpha 141.702197
_cell_angle_beta 99.030504
_cell_angle_gamma 81.712774
_cell_volume 609.476392
_symmetry_space_group_name_H-M "P -1"
_symmetry_group_IT_number 2
_symmetry_cell_setting 'triclinic'
loop_
_space_group_symop_operation_xyz
x,y,z
-x,-y,-z
loop_
_atom_site_type_symbol
_atom_site_label
_atom_site_fract_x
_atom_site_fract_y
_atom_site_fract_z
Si Si1 0.522966 0.578186 0.400805
Si Si2 0.352222 0.161168 0.091050
Si Si3 0.446492 0.294740 0.717026
Si Si4 0.862612 0.545952 0.913332
Si Si5 0.699761 0.956297 0.780794
Si Si6 0.022426 0.921275 0.237859
Si Si7 0.220579 0.658884 0.963214
O O1 0.586076 0.687580 0.681131
O O2 0.606491 0.617723 0.306215
O O3 0.277811 0.564613 0.335188
O O4 0.637835 0.440690 0.262916
O O5 0.238435 0.115757 0.162552
O O6 0.198548 0.135266 0.903435
O O7 0.566977 0.085577 0.985143
O O8 0.439414 0.141144 0.466621
O O9 0.283812 0.333543 0.879638
O O10 0.673279 0.322763 0.839150
O O11 0.002238 0.596558 0.870916
O O12 0.000000 0.500000 0.000000
O O13 0.901845 0.985410 0.751243
O O14 0.189593 0.801407 0.091600
O O15 0.000000 0.000000 0.500000
#
# Coordination Sequence:
#
# PCOD8043375 Si02
#       7
#     2   2   2   2   2   2   2
#     4  10  21  38  61  92 126 163 211 266 313 374
#     4  10  24  45  67  94 128 171 220 261 322 382
#     4  10  19  36  61  94 125 160 213 264 312 370
#     4  11  18  34  61  94 124 163 209 258 316 372
#     4  10  23  45  68  91 127 175 214 269 316 379
#     4  12  26  43  65  97 132 170 217 263 322 389
#     4  11  22  36  60  95 131 164 208 263 319 376
#
# _framework density 22.970535999999999
#
# number of rings (size 3 to 8) (size 9 to 14) (size 15 to 20)
#    0.000    1.429    2.857    3.000    0.000    6.286 
#    2.571    1.429    0.000    0.000    0.000    0.000 
#    0.000    0.000    0.000    0.000    0.000    0.000 
#
# Total GULP energy -173581.976958 kJ/mol
# GULP energy per Si atom -12398.712640 kJ/mol
# Density = 2.291825 g / cm^3
# Si number density = 22.970536 Si / 1000 Ang^3
#
#
#
# Elastic Constant Matrix: (Units=GPa)
#
#
# Indices 1 2 3 4 5 6 
#
# 1 101.9038 18.1003 44.0357 -1.7249 21.5300 4.6654
# 2 18.1003 61.4985 30.6947 13.0472 2.9171 -5.3529
# 3 44.0357 30.6947 156.1341 14.8196 33.0875 -8.7784
# 4 -1.7249 13.0472 14.8196 33.7884 -3.4637 -3.4951
# 5 21.5300 2.9171 33.0875 -3.4637 34.9951 -0.9579
# 6 4.6654 -5.3529 -8.7784 -3.4951 -0.9579 35.0024
#
#
#
# Elastic Compliance Matrix: (Units=1/GPa)
#
#
# Indices 1 2 3 4 5 6 
#
# 1 0.012554 -0.003006 -0.002154 0.001929 -0.005318 -0.002626
# 2 -0.003006 0.019957 -0.002869 -0.006135 0.002351 0.002185
# 3 -0.002154 -0.002869 0.009733 -0.003916 -0.007980 0.001680
# 4 0.001929 -0.006135 -0.003916 0.034596 0.006491 0.001455
# 5 -0.005318 0.002351 -0.007980 0.006491 0.039861 0.000806
# 6 -0.002626 0.002185 0.001680 0.001455 0.000806 0.029842
#
#
# Mechanical properties :
#
#
# Convention : Reuss Voigt Hill
#
# Bulk Modulus (GPa) = 38.18464 56.13311 47.15887
# Shear Modulus (GPa) = 29.18346 35.87089 32.52718
#
# Velocity S-wave (km/s) = 3.56824 3.95600 3.76711
# Velocity P-wave (km/s) = 5.79964 6.73473 6.28460
#
# Compressibility (1/GPa) = 0.02618854
#
# Stress axis : x y z
#
# Youngs Moduli (GPa) = 79.65515 50.10728 102.73899
#
# Poissons Ratio (x) = 0.15061 0.22127
# Poissons Ratio (y) = 0.23942 0.29473
# Poissons Ratio (z) = 0.17155 0.14374
#
# Static dielectric constant tensor:
#      x y z
#    x 4.013320 0.010250 0.160720 
#    y 0.010250 4.012980 0.153440 
#    z 0.160720 0.153440 4.178030 
# 
# 
# High freq. dielectric constant tensor:
#      x y z
#    x 1.903040 0.002060 0.011230 
#    y 0.002060 1.893500 0.010860 
#    z 0.011230 0.010860 1.911080 
# 
# From -- ./inp_files/69284.got.cif
#   From: 2010.06.25/outbox.cif.g09.slc.cpg/sg2_35_cif.got.tgz:69284.got - 2010.06.27 13:26:56.
