data_PCOD8043174
_publ_section_title
;
Structure prediction by ZEFSAII (Michael W. Deem and Ramdas Pophale) SiO2 
 PCOD8043174
Probable space group: P -1
;
_chemical_formula_sum "Si O2"
_cell_formula_units_Z 16
_cell_length_a 12.538868
_cell_length_b 10.556308
_cell_length_c 8.732719
_cell_angle_alpha 113.894766
_cell_angle_beta 132.781099
_cell_angle_gamma 86.347236
_cell_volume 736.165542
_symmetry_space_group_name_H-M "P -1"
_symmetry_group_IT_number 2
_symmetry_cell_setting 'triclinic'
loop_
_space_group_symop_operation_xyz
x,y,z
-x,-y,-z
loop_
_atom_site_type_symbol
_atom_site_label
_atom_site_fract_x
_atom_site_fract_y
_atom_site_fract_z
Si Si1 0.535035 0.826652 0.387228
Si Si2 0.953866 0.840119 0.948360
Si Si3 0.310328 0.127388 0.139284
Si Si4 0.833801 0.442192 0.240801
Si Si5 0.605560 0.318691 0.379521
Si Si6 0.302012 0.397112 0.593167
Si Si7 0.630644 0.143916 0.033804
Si Si8 0.779944 0.291482 0.819009
O O1 0.666179 0.912911 0.677155
O O2 0.562941 0.674533 0.292243
O O3 0.378878 0.810290 0.317135
O O4 0.521575 0.903922 0.249224
O O5 0.850969 0.839538 0.000529
O O6 0.855608 0.718807 0.674520
O O7 0.102324 0.799778 0.124216
O O8 0.000000 0.000000 0.000000
O O9 0.444812 0.274281 0.293264
O O10 0.302547 0.991251 0.956353
O O11 0.733610 0.543749 0.248065
O O12 0.758593 0.278560 0.148478
O O13 0.000000 0.500000 0.500000
O O14 0.842416 0.434253 0.060539
O O15 0.633310 0.469946 0.395472
O O16 0.591524 0.183674 0.184706
O O17 0.749678 0.341603 0.644513
#
# Coordination Sequence:
#
# PCOD8043174 Si02
#       8
#     2   2   2   2   2   2   2   2
#     4   9  20  37  63  90 115 153 205 249 284 344
#     4  11  22  38  61  89 119 154 199 248 291 346
#     4  10  21  38  63  89 118 156 195 247 296 351
#     4  10  19  36  59  86 117 152 196 246 284 346
#     4  10  23  40  60  87 125 158 191 241 301 362
#     4  10  22  39  61  90 119 153 201 243 297 345
#     4  10  20  37  63  87 120 154 201 243 296 343
#     4  10  21  38  62  87 121 156 197 238 305 347
#
# _framework density 21.734241999999998
#
# number of rings (size 3 to 8) (size 9 to 14) (size 15 to 20)
#    0.000    2.000    1.250    2.250    0.000   12.500 
#    0.000    0.625    0.000    0.000    0.000    0.000 
#    0.000    0.000    0.000    0.000    0.000    0.000 
#
# Total GULP energy -198294.170375 kJ/mol
# GULP energy per Si atom -12393.385648 kJ/mol
# Density = 2.168477 g / cm^3
# Si number density = 21.734242 Si / 1000 Ang^3
#
#
#
# Elastic Constant Matrix: (Units=GPa)
#
#
# Indices 1 2 3 4 5 6 
#
# 1 121.4603 58.9229 42.0112 -10.0174 -1.5499 -30.8139
# 2 58.9229 93.7099 17.8560 5.0757 -3.9659 -32.3095
# 3 42.0112 17.8560 58.9098 -1.2677 -12.9706 -5.8233
# 4 -10.0174 5.0757 -1.2677 36.4002 -0.0836 2.0579
# 5 -1.5499 -3.9659 -12.9706 -0.0836 40.4537 -1.7658
# 6 -30.8139 -32.3095 -5.8233 2.0579 -1.7658 36.3709
#
#
#
# Elastic Compliance Matrix: (Units=1/GPa)
#
#
# Indices 1 2 3 4 5 6 
#
# 1 0.017043 -0.007113 -0.009938 0.004984 -0.002954 0.006104
# 2 -0.007113 0.019454 0.000751 -0.005305 0.002379 0.011791
# 3 -0.009938 0.000751 0.025151 -0.001762 0.007611 -0.003256
# 4 0.004984 -0.005305 -0.001762 0.029661 -0.000942 -0.002496
# 5 -0.002954 0.002379 0.007611 -0.000942 0.027375 0.002212
# 6 0.006104 0.011791 -0.003256 -0.002496 0.002212 0.042868
#
#
# Mechanical properties :
#
#
# Convention : Reuss Voigt Hill
#
# Bulk Modulus (GPa) = 34.42549 56.85114 45.63831
# Shear Modulus (GPa) = 24.52973 32.99762 28.76368
#
# Velocity S-wave (km/s) = 3.36314 3.90068 3.64184
# Velocity P-wave (km/s) = 5.56369 6.81918 6.22318
#
# Compressibility (1/GPa) = 0.02904825
#
# Stress axis : x y z
#
# Youngs Moduli (GPa) = 58.67454 51.40245 39.76060
#
# Poissons Ratio (x) = 0.36564 0.39514
# Poissons Ratio (y) = 0.41737 -0.02988
# Poissons Ratio (z) = 0.58310 -0.03862
#
# Static dielectric constant tensor:
#      x y z
#    x 4.180840 -0.309590 -0.223570 
#    y -0.309590 3.795800 -0.009900 
#    z -0.223570 -0.009900 4.351570 
# 
# 
# High freq. dielectric constant tensor:
#      x y z
#    x 1.858260 -0.023480 -0.003730 
#    y -0.023480 1.837520 0.015060 
#    z -0.003730 0.015060 1.853220 
# 
# From -- ./inp_files/263187.got.cif
#   From: 2010.06.25/outbox.cif.g09.slc.cpg/sg2_132_cif.got.tgz:263187.got - 2010.06.27 13:26:56.
