data_PCOD8043232
_publ_section_title
;
Structure prediction by ZEFSAII (Michael W. Deem and Ramdas Pophale) SiO2 
 PCOD8043232
Probable space group: P -1
;
_chemical_formula_sum "Si O2"
_cell_formula_units_Z 14
_cell_length_a 14.120619
_cell_length_b 13.787360
_cell_length_c 9.422019
_cell_angle_alpha 140.318059
_cell_angle_beta 66.684654
_cell_angle_gamma 135.927252
_cell_volume 762.009420
_symmetry_space_group_name_H-M "P -1"
_symmetry_group_IT_number 2
_symmetry_cell_setting 'triclinic'
loop_
_space_group_symop_operation_xyz
x,y,z
-x,-y,-z
loop_
_atom_site_type_symbol
_atom_site_label
_atom_site_fract_x
_atom_site_fract_y
_atom_site_fract_z
Si Si1 0.480239 0.058014 0.846643
Si Si2 0.946058 0.763505 0.400012
Si Si3 0.787543 0.865311 0.495046
Si Si4 0.802948 0.378263 0.591093
Si Si5 0.288933 0.523109 0.992022
Si Si6 0.083750 0.501096 0.643677
Si Si7 0.654363 0.013904 0.866608
O O1 0.570089 0.999088 0.765653
O O2 0.331143 0.871057 0.643065
O O3 0.566944 0.254586 0.909097
O O4 0.450067 0.107948 0.071629
O O5 0.890469 0.881931 0.566660
O O6 0.849819 0.569271 0.124314
O O7 0.924479 0.664297 0.452484
O O8 0.114448 0.934968 0.446998
O O9 0.694030 0.643253 0.211473
O O10 0.686005 0.873425 0.650062
O O11 0.873199 0.509770 0.551231
O O12 0.925787 0.414855 0.645978
O O13 0.741383 0.455163 0.805088
O O14 0.201153 0.739729 0.906724
#
# Coordination Sequence:
#
# PCOD8043232 Si02
#       7
#     2   2   2   2   2   2   2
#     4  10  21  35  57  84 111 148 184 226 279 323
#     4   9  19  36  59  87 104 143 196 223 274 322
#     4   9  20  34  58  86 111 138 192 234 267 321
#     4  10  22  35  57  84 118 138 186 233 277 325
#     4  10  19  37  55  80 114 147 176 232 275 329
#     4  10  20  37  61  83 105 150 188 231 274 317
#     4  10  19  36  60  85 107 141 196 230 262 333
#
# _framework density 18.372475000000001
#
# number of rings (size 3 to 8) (size 9 to 14) (size 15 to 20)
#    0.857    1.429    1.429    1.286    2.000    1.714 
#    0.000    1.429    0.000    0.000    0.000    0.000 
#    0.000    0.000    0.000    0.000    0.000    0.000 
#
# Total GULP energy -173524.575511 kJ/mol
# GULP energy per Si atom -12394.612536 kJ/mol
# Density = 1.833066 g / cm^3
# Si number density = 18.372475 Si / 1000 Ang^3
#
#
#
# Elastic Constant Matrix: (Units=GPa)
#
#
# Indices 1 2 3 4 5 6 
#
# 1 59.3223 37.0351 32.3193 -3.9812 -10.3440 4.6576
# 2 37.0351 109.6657 49.1426 -1.1090 -9.5825 -5.5550
# 3 32.3193 49.1426 74.4277 -13.1661 -17.9618 1.3808
# 4 -3.9812 -1.1090 -13.1661 22.9745 10.6882 1.3221
# 5 -10.3440 -9.5825 -17.9618 10.6882 29.5255 1.4091
# 6 4.6576 -5.5550 1.3808 1.3221 1.4091 27.7748
#
#
#
# Elastic Compliance Matrix: (Units=1/GPa)
#
#
# Indices 1 2 3 4 5 6 
#
# 1 0.024663 -0.005443 -0.006324 -0.001014 0.003634 -0.005046
# 2 -0.005443 0.014969 -0.008681 -0.005141 -0.000690 0.004618
# 3 -0.006324 -0.008681 0.025405 0.009973 0.006944 -0.002766
# 4 -0.001014 -0.005141 0.009973 0.056579 -0.016284 -0.003221
# 5 0.003634 -0.000690 0.006944 -0.016284 0.045162 -0.002609
# 6 -0.005046 0.004618 -0.002766 -0.003221 -0.002609 0.038197
#
#
# Mechanical properties :
#
#
# Convention : Reuss Voigt Hill
#
# Bulk Modulus (GPa) = 41.42573 53.37884 47.40228
# Shear Modulus (GPa) = 19.69139 24.38288 22.03714
#
# Velocity S-wave (km/s) = 3.27737 3.64695 3.46709
# Velocity P-wave (km/s) = 6.07603 6.84474 6.47181
#
# Compressibility (1/GPa) = 0.02413959
#
# Stress axis : x y z
#
# Youngs Moduli (GPa) = 40.54734 66.80614 39.36184
#
# Poissons Ratio (x) = 0.36364 0.24893
# Poissons Ratio (y) = 0.22071 0.34171
# Poissons Ratio (z) = 0.25642 0.57996
#
# Static dielectric constant tensor:
#      x y z
#    x 3.213420 0.124170 0.102480 
#    y 0.124170 3.410230 -0.005960 
#    z 0.102480 -0.005960 3.206250 
# 
# 
# High freq. dielectric constant tensor:
#      x y z
#    x 1.692850 0.009270 0.004380 
#    y 0.009270 1.723490 -0.000050 
#    z 0.004380 -0.000050 1.696630 
# 
# From -- ./inp_files/311028.got.cif
#   From: 2010.06.25/outbox.cif.g09.slc.cpg/sg2_156_cif.got.tgz:311028.got - 2010.06.27 13:26:56.
