data_PCOD8043521
_publ_section_title
;
Structure prediction by ZEFSAII (Michael W. Deem and Ramdas Pophale) SiO2 
 PCOD8043521
Probable space group: P -1
;
_chemical_formula_sum "Si O2"
_cell_formula_units_Z 16
_cell_length_a 9.129157
_cell_length_b 16.179515
_cell_length_c 11.211849
_cell_angle_alpha 116.131490
_cell_angle_beta 136.704740
_cell_angle_gamma 42.204770
_cell_volume 745.191753
_symmetry_space_group_name_H-M "P -1"
_symmetry_group_IT_number 2
_symmetry_cell_setting 'triclinic'
loop_
_space_group_symop_operation_xyz
x,y,z
-x,-y,-z
loop_
_atom_site_type_symbol
_atom_site_label
_atom_site_fract_x
_atom_site_fract_y
_atom_site_fract_z
Si Si1 0.704807 0.633554 0.747741
Si Si2 0.731218 0.199146 0.898605
Si Si3 0.940005 0.293601 0.920583
Si Si4 0.920192 0.623284 0.320038
Si Si5 0.517479 0.471371 0.350869
Si Si6 0.268280 0.162585 0.812526
Si Si7 0.086453 0.882708 0.542391
Si Si8 0.876125 0.063633 0.133820
O O1 0.620512 0.590557 0.782713
O O2 0.390332 0.756237 0.584681
O O3 0.910849 0.521246 0.703104
O O4 0.871073 0.673774 0.914775
O O5 0.868907 0.253718 0.968399
O O6 0.380861 0.309582 0.748359
O O7 0.838164 0.154696 0.069913
O O8 0.828053 0.081585 0.803885
O O9 0.640987 0.411051 0.754754
O O10 0.131326 0.176176 0.867869
O O11 0.854047 0.700437 0.209221
O O12 0.135128 0.621647 0.531457
O O13 0.500000 0.500000 0.500000
O O14 0.173489 0.114277 0.629122
O O15 0.616969 0.064752 0.966319
O O16 0.125319 0.887434 0.708787
O O17 0.000000 0.000000 0.500000
#
# Coordination Sequence:
#
# PCOD8043521 Si02
#       8
#     2   2   2   2   2   2   2   2
#     4  11  22  39  68 102 131 171 225 286 335 390
#     4  10  25  44  66  94 142 187 218 269 350 414
#     4  12  22  37  69 105 133 174 225 284 337 403
#     4  10  21  43  65  93 137 180 221 270 341 407
#     4  10  19  36  63  96 128 169 220 280 331 384
#     4  11  21  41  74  99 128 179 232 286 329 389
#     4  12  25  40  72 109 127 167 237 292 330 392
#     4  10  24  48  68  93 141 188 224 272 343 410
#
# _framework density 21.470984999999999
#
# number of rings (size 3 to 8) (size 9 to 14) (size 15 to 20)
#    0.000    1.250    5.000    1.875    1.750    2.000 
#    0.000    5.625   16.500    0.000    0.000    0.000 
#    0.000    0.000    0.000    0.000    0.000    0.000 
#
# Total GULP energy -198337.748738 kJ/mol
# GULP energy per Si atom -12396.109296 kJ/mol
# Density = 2.142212 g / cm^3
# Si number density = 21.470985 Si / 1000 Ang^3
#
#
#
# Elastic Constant Matrix: (Units=GPa)
#
#
# Indices 1 2 3 4 5 6 
#
# 1 123.6125 54.2684 65.8206 -2.4557 6.4815 9.6723
# 2 54.2684 114.3431 43.1250 -9.0896 4.4431 -2.9235
# 3 65.8206 43.1250 122.2697 15.5175 16.2477 -0.0254
# 4 -2.4557 -9.0896 15.5175 36.0568 4.2418 6.9363
# 5 6.4815 4.4431 16.2477 4.2418 22.1483 -9.6262
# 6 9.6723 -2.9235 -0.0254 6.9363 -9.6262 38.3061
#
#
#
# Elastic Compliance Matrix: (Units=1/GPa)
#
#
# Indices 1 2 3 4 5 6 
#
# 1 0.013656 -0.003888 -0.006267 0.003732 -0.001411 -0.004779
# 2 -0.003888 0.011871 -0.002621 0.003513 0.000617 0.001405
# 3 -0.006267 -0.002621 0.014159 -0.006631 -0.006320 0.001004
# 4 0.003732 0.003513 -0.006631 0.034260 -0.007281 -0.008712
# 5 -0.001411 0.000617 -0.006320 -0.007281 0.058619 0.016448
# 6 -0.004779 0.001405 0.001004 -0.008712 0.016448 0.033131
#
#
# Mechanical properties :
#
#
# Convention : Reuss Voigt Hill
#
# Bulk Modulus (GPa) = 70.76180 76.29481 73.52831
# Shear Modulus (GPa) = 25.51546 32.43633 28.97590
#
# Velocity S-wave (km/s) = 3.45101 3.89100 3.67759
# Velocity P-wave (km/s) = 6.99341 7.46977 7.23551
#
# Compressibility (1/GPa) = 0.01413192
#
# Stress axis : x y z
#
# Youngs Moduli (GPa) = 73.22765 84.23991 70.62882
#
# Poissons Ratio (x) = 0.32755 0.44264
# Poissons Ratio (y) = 0.28473 0.18514
# Poissons Ratio (z) = 0.45893 0.22082
#
# Static dielectric constant tensor:
#      x y z
#    x 3.873550 0.023110 0.325480 
#    y 0.023110 3.974680 -0.171070 
#    z 0.325480 -0.171070 4.062640 
# 
# 
# High freq. dielectric constant tensor:
#      x y z
#    x 1.823210 0.005900 0.022540 
#    y 0.005900 1.847310 -0.015330 
#    z 0.022540 -0.015330 1.842090 
# 
# From -- ./inp_files/399344.got.cif
#   From: 2010.06.25/outbox.cif.g09.slc.cpg/sg2_200_cif.got.tgz:399344.got - 2010.06.27 13:26:56.
