data_PCOD8043927
_publ_section_title
;
Structure prediction by ZEFSAII (Michael W. Deem and Ramdas Pophale) SiO2 
 PCOD8043927
Probable space group: P -1
;
_chemical_formula_sum "Si O2"
_cell_formula_units_Z 16
_cell_length_a 13.983244
_cell_length_b 8.510344
_cell_length_c 13.989465
_cell_angle_alpha 110.346548
_cell_angle_beta 52.239432
_cell_angle_gamma 141.919946
_cell_volume 780.332173
_symmetry_space_group_name_H-M "P -1"
_symmetry_group_IT_number 2
_symmetry_cell_setting 'triclinic'
loop_
_space_group_symop_operation_xyz
x,y,z
-x,-y,-z
loop_
_atom_site_type_symbol
_atom_site_label
_atom_site_fract_x
_atom_site_fract_y
_atom_site_fract_z
Si Si1 0.826284 0.347948 0.887823
Si Si2 0.245865 0.679506 0.289804
Si Si3 0.668323 0.056571 0.108415
Si Si4 0.786901 0.394904 0.271869
Si Si5 0.334068 0.411019 0.526843
Si Si6 0.643179 0.940292 0.369822
Si Si7 0.150521 0.878362 0.522016
Si Si8 0.918787 0.096657 0.083750
O O1 0.733043 0.283782 0.829476
O O2 0.006588 0.423035 0.773070
O O3 0.893652 0.588924 0.950559
O O4 0.680293 0.096600 0.995534
O O5 0.212055 0.828071 0.385226
O O6 0.072384 0.375944 0.366942
O O7 0.446833 0.811072 0.226208
O O8 0.770058 0.323870 0.156239
O O9 0.784950 0.014065 0.059168
O O10 0.762748 0.566489 0.333944
O O11 0.633624 0.115573 0.365912
O O12 0.500000 0.500000 0.500000
O O13 0.431429 0.627408 0.428922
O O14 0.185601 0.110262 0.517947
O O15 0.715851 0.032994 0.453410
O O16 0.789550 0.975046 0.232039
O O17 0.000000 0.000000 0.000000
#
# Coordination Sequence:
#
# PCOD8043927 Si02
#       8
#     2   2   2   2   2   2   2   2
#     4  10  21  40  60  85 116 163 199 240 297 359
#     4  11  21  40  60  84 125 163 201 234 305 363
#     4  10  21  37  64  90 112 159 201 242 292 365
#     4  10  19  37  61  87 116 150 198 248 302 353
#     4  10  20  32  58  91 113 147 200 253 287 344
#     4   9  18  37  60  87 116 152 196 244 304 349
#     4  10  21  37  61  83 121 162 194 245 300 349
#     4  10  21  38  62  91 119 148 196 253 302 345
#
# _framework density 20.504086999999998
#
# number of rings (size 3 to 8) (size 9 to 14) (size 15 to 20)
#    0.000    2.250    2.500    3.750    0.000    6.000 
#    0.000    1.250    2.750    0.000    0.000    0.000 
#    0.000    0.000    0.000    0.000    0.000    0.000 
#
# Total GULP energy -198282.175312 kJ/mol
# GULP energy per Si atom -12392.635957 kJ/mol
# Density = 2.045742 g / cm^3
# Si number density = 20.504087 Si / 1000 Ang^3
#
#
#
# Elastic Constant Matrix: (Units=GPa)
#
#
# Indices 1 2 3 4 5 6 
#
# 1 80.6829 42.8158 39.0754 10.5630 -13.4170 -4.8054
# 2 42.8158 122.3383 49.8210 0.0355 -11.3875 -20.5767
# 3 39.0754 49.8210 72.0717 -3.3210 2.4080 -12.1973
# 4 10.5630 0.0355 -3.3210 28.3525 -8.1611 -4.9030
# 5 -13.4170 -11.3875 2.4080 -8.1611 39.8088 7.3397
# 6 -4.8054 -20.5767 -12.1973 -4.9030 7.3397 30.8973
#
#
#
# Elastic Compliance Matrix: (Units=1/GPa)
#
#
# Indices 1 2 3 4 5 6 
#
# 1 0.021202 -0.003509 -0.010690 -0.008416 0.006181 -0.006063
# 2 -0.003509 0.013061 -0.006172 0.002200 0.002363 0.005503
# 3 -0.010690 -0.006172 0.025636 0.006204 -0.006934 0.006979
# 4 -0.008416 0.002200 0.006204 0.041835 0.004486 0.008178
# 5 0.006181 0.002363 -0.006934 0.004486 0.030459 -0.006726
# 6 -0.006063 0.005503 0.006979 0.008178 -0.006726 0.040738
#
#
# Mechanical properties :
#
#
# Convention : Reuss Voigt Hill
#
# Bulk Modulus (GPa) = 52.20115 59.83525 56.01820
# Shear Modulus (GPa) = 22.72117 29.37045 26.04581
#
# Velocity S-wave (km/s) = 3.33247 3.78884 3.56796
# Velocity P-wave (km/s) = 6.34990 6.95599 6.65985
#
# Compressibility (1/GPa) = 0.01915667
#
# Stress axis : x y z
#
# Youngs Moduli (GPa) = 47.16486 76.56610 39.00711
#
# Poissons Ratio (x) = 0.26866 0.41699
# Poissons Ratio (y) = 0.16549 0.24076
# Poissons Ratio (z) = 0.50420 0.47258
#
# Static dielectric constant tensor:
#      x y z
#    x 3.574100 -0.183270 0.092920 
#    y -0.183270 4.124170 -0.268390 
#    z 0.092920 -0.268390 3.791390 
# 
# 
# High freq. dielectric constant tensor:
#      x y z
#    x 1.785800 0.000810 -0.001870 
#    y 0.000810 1.784600 -0.010780 
#    z -0.001870 -0.010780 1.811470 
# 
# From -- ./inp_files/527662.got.cif
#   From: 2010.06.25/outbox.cif.g09.slc.cpg/sg2_264_cif.got.tgz:527662.got - 2010.06.27 13:26:56.
