data_PCOD8043063
_publ_section_title
;
Structure prediction by ZEFSAII (Michael W. Deem and Ramdas Pophale) SiO2 
 PCOD8043063
Probable space group: P -1
;
_chemical_formula_sum "Si O2"
_cell_formula_units_Z 16
_cell_length_a 10.121276
_cell_length_b 7.765505
_cell_length_c 11.574944
_cell_angle_alpha 83.190891
_cell_angle_beta 96.178736
_cell_angle_gamma 48.035354
_cell_volume 649.803059
_symmetry_space_group_name_H-M "P -1"
_symmetry_group_IT_number 2
_symmetry_cell_setting 'triclinic'
loop_
_space_group_symop_operation_xyz
x,y,z
-x,-y,-z
loop_
_atom_site_type_symbol
_atom_site_label
_atom_site_fract_x
_atom_site_fract_y
_atom_site_fract_z
Si Si1 0.783274 0.680776 0.575872
Si Si2 0.420447 0.187888 0.875434
Si Si3 0.543221 0.069058 0.326268
Si Si4 0.200319 0.877188 0.663195
Si Si5 0.008992 0.554464 0.866142
Si Si6 0.777041 0.061545 0.890117
Si Si7 0.941324 0.298111 0.445283
Si Si8 0.007880 0.809484 0.159543
O O1 0.665310 0.895496 0.457268
O O2 0.834761 0.454288 0.537835
O O3 0.971292 0.619736 0.626826
O O4 0.670894 0.747226 0.677148
O O5 0.408885 0.084521 0.768089
O O6 0.215469 0.435143 0.867783
O O7 0.557286 0.227706 0.862963
O O8 0.500000 0.000000 0.000000
O O9 0.597694 0.221679 0.296350
O O10 0.201792 0.667701 0.658453
O O11 0.108912 0.027900 0.523531
O O12 0.079302 0.032105 0.748382
O O13 0.869450 0.845330 0.821535
O O14 0.945882 0.437949 0.794759
O O15 0.000000 0.500000 0.000000
O O16 0.814385 0.229982 0.848234
O O17 0.860380 0.950115 0.032486
#
# Coordination Sequence:
#
# PCOD8043063 Si02
#       8
#     2   2   2   2   2   2   2   2
#     4   9  20  40  56  88 114 149 208 237 299 363
#     4  12  21  39  62  94 123 164 208 247 309 371
#     4  10  21  36  60  83 121 153 189 259 293 352
#     4  10  19  36  57  84 118 150 188 252 305 348
#     4  10  20  40  62  85 123 166 201 254 300 360
#     4  10  23  39  63  87 124 170 203 250 303 364
#     4   9  20  36  61  84 111 154 195 245 298 368
#     4  10  20  39  59  89 124 159 206 255 300 363
#
# _framework density 24.622843
#
# number of rings (size 3 to 8) (size 9 to 14) (size 15 to 20)
#    0.000    2.000    3.750    0.000    1.750    2.500 
#    0.000    6.875    5.500    0.000    0.000    0.000 
#    0.000    0.000    0.000    0.000    0.000    0.000 
#
# Total GULP energy -198313.114625 kJ/mol
# GULP energy per Si atom -12394.569664 kJ/mol
# Density = 2.456680 g / cm^3
# Si number density = 24.622843 Si / 1000 Ang^3
#
#
#
# Elastic Constant Matrix: (Units=GPa)
#
#
# Indices 1 2 3 4 5 6 
#
# 1 205.0456 57.8869 52.9191 24.0571 1.8064 -4.1899
# 2 57.8869 71.2299 12.1223 22.3325 -2.8590 -2.9540
# 3 52.9191 12.1223 59.3432 26.2036 -1.9033 -0.5961
# 4 24.0571 22.3325 26.2036 42.5355 3.0801 1.6231
# 5 1.8064 -2.8590 -1.9033 3.0801 35.5562 12.3823
# 6 -4.1899 -2.9540 -0.5961 1.6231 12.3823 46.5003
#
#
#
# Elastic Compliance Matrix: (Units=1/GPa)
#
#
# Indices 1 2 3 4 5 6 
#
# 1 0.008368 -0.006683 -0.007779 0.003683 -0.001910 0.000610
# 2 -0.006683 0.022370 0.007061 -0.012581 0.003457 0.000428
# 3 -0.007779 0.007061 0.030643 -0.018485 0.004333 -0.000368
# 4 0.003683 -0.012581 -0.018485 0.039837 -0.005411 -0.000654
# 5 -0.001910 0.003457 0.004333 -0.005411 0.032073 -0.008249
# 6 0.000610 0.000428 -0.000368 -0.000654 -0.008249 0.023802
#
#
# Mechanical properties :
#
#
# Convention : Reuss Voigt Hill
#
# Bulk Modulus (GPa) = 21.46905 64.60838 43.03872
# Shear Modulus (GPa) = 26.67796 39.09774 32.88785
#
# Velocity S-wave (km/s) = 3.29517 3.98912 3.65864
# Velocity P-wave (km/s) = 4.81826 6.89301 5.94682
#
# Compressibility (1/GPa) = 0.04657867
#
# Stress axis : x y z
#
# Youngs Moduli (GPa) = 119.49646 44.70329 32.63409
#
# Poissons Ratio (x) = 0.29876 0.25385
# Poissons Ratio (y) = 0.79861 -0.23042
# Poissons Ratio (z) = 0.92953 -0.31564
#
# Static dielectric constant tensor:
#      x y z
#    x 5.231820 0.299260 0.052360 
#    y 0.299260 4.279070 0.135380 
#    z 0.052360 0.135380 4.496450 
# 
# 
# High freq. dielectric constant tensor:
#      x y z
#    x 1.998900 0.006560 -0.000070 
#    y 0.006560 1.950340 0.005530 
#    z -0.000070 0.005530 1.997440 
# 
# From -- ./inp_files/382323.got.cif
#   From: 2010.06.25/outbox.cif.g09.slc.cpg/sg2_192_cif.got.tgz:382323.got - 2010.06.27 13:26:56.
