data_PCOD8043330
_publ_section_title
;
Structure prediction by ZEFSAII (Michael W. Deem and Ramdas Pophale) SiO2 
 PCOD8043330
Probable space group: P -1
;
_chemical_formula_sum "Si O2"
_cell_formula_units_Z 14
_cell_length_a 7.492286
_cell_length_b 7.588572
_cell_length_c 16.882083
_cell_angle_alpha 90.556663
_cell_angle_beta 49.483096
_cell_angle_gamma 61.252786
_cell_volume 560.051146
_symmetry_space_group_name_H-M "P -1"
_symmetry_group_IT_number 2
_symmetry_cell_setting 'triclinic'
loop_
_space_group_symop_operation_xyz
x,y,z
-x,-y,-z
loop_
_atom_site_type_symbol
_atom_site_label
_atom_site_fract_x
_atom_site_fract_y
_atom_site_fract_z
Si Si1 0.351834 0.669339 0.184113
Si Si2 0.754063 0.767821 0.971895
Si Si3 0.104009 0.364789 0.758396
Si Si4 0.241171 0.942313 0.364683
Si Si5 0.016252 0.802988 0.032274
Si Si6 0.002471 0.038354 0.176322
Si Si7 0.172800 0.671032 0.633100
O O1 0.331324 0.734836 0.281234
O O2 0.634214 0.416329 0.080354
O O3 0.034188 0.728979 0.253064
O O4 0.354029 0.835551 0.118165
O O5 0.887627 0.516804 0.898601
O O6 0.779161 0.772888 0.062119
O O7 0.028867 0.779662 0.871222
O O8 0.500000 0.000000 0.000000
O O9 0.449510 0.146961 0.681400
O O10 0.084197 0.540490 0.705952
O O11 0.000000 0.000000 0.500000
O O12 0.088303 0.171579 0.357516
O O13 0.000000 0.000000 0.000000
O O14 0.929183 0.886378 0.151180
O O15 0.804813 0.170613 0.312791
O O16 0.500000 0.500000 0.500000
#
# Coordination Sequence:
#
# PCOD8043330 Si02
#       7
#     2   2   2   2   2   2   2
#     4  11  23  42  62  91 128 161 210 264 311 377
#     4  10  20  39  62  91 127 166 206 256 320 378
#     4  11  22  42  66  92 127 167 213 256 319 381
#     4  11  23  43  67  91 128 169 211 264 318 366
#     4  10  19  36  61  87 124 163 200 255 315 367
#     4   9  21  38  60  87 123 161 206 258 312 366
#     4  10  21  42  66  89 128 167 208 267 317 368
#
# _framework density 24.997714999999999
#
# number of rings (size 3 to 8) (size 9 to 14) (size 15 to 20)
#    0.000    1.714    2.857    2.143    0.000    0.571 
#   12.857    2.143    0.000    0.000    0.000    0.000 
#    0.000    0.000    0.000    0.000    0.000    0.000 
#
# Total GULP energy -173460.144582 kJ/mol
# GULP energy per Si atom -12390.010327 kJ/mol
# Density = 2.494082 g / cm^3
# Si number density = 24.997715 Si / 1000 Ang^3
#
#
#
# Elastic Constant Matrix: (Units=GPa)
#
#
# Indices 1 2 3 4 5 6 
#
# 1 155.3409 43.7772 56.0995 2.2464 -1.1706 -16.9351
# 2 43.7772 115.9652 50.7539 10.7635 -1.3173 -20.3408
# 3 56.0995 50.7539 146.4747 12.0096 5.8485 -7.9363
# 4 2.2464 10.7635 12.0096 43.0968 -8.0779 -0.4478
# 5 -1.1706 -1.3173 5.8485 -8.0779 40.4142 9.0895
# 6 -16.9351 -20.3408 -7.9363 -0.4478 9.0895 39.6429
#
#
#
# Elastic Compliance Matrix: (Units=1/GPa)
#
#
# Indices 1 2 3 4 5 6 
#
# 1 0.008002 -0.001658 -0.002450 0.000743 0.000223 0.002034
# 2 -0.001658 0.011544 -0.002906 -0.002076 -0.000741 0.004779
# 3 -0.002450 -0.002906 0.008988 -0.001989 -0.001785 -0.000352
# 4 0.000743 -0.002076 -0.001989 0.025300 0.005791 -0.002188
# 5 0.000223 -0.000741 -0.001785 0.005791 0.027700 -0.006928
# 6 0.002034 0.004779 -0.000352 -0.002188 -0.006928 0.030040
#
#
# Mechanical properties :
#
#
# Convention : Reuss Voigt Hill
#
# Bulk Modulus (GPa) = 68.93983 79.89355 74.41669
# Shear Modulus (GPa) = 38.33257 42.44080 40.38669
#
# Velocity S-wave (km/s) = 3.92017 4.12489 4.02383
# Velocity P-wave (km/s) = 6.93748 7.39703 7.17094
#
# Compressibility (1/GPa) = 0.01450540
#
# Stress axis : x y z
#
# Youngs Moduli (GPa) = 124.96535 86.62692 111.26334
#
# Poissons Ratio (x) = 0.14364 0.27258
# Poissons Ratio (y) = 0.20722 0.32334
# Poissons Ratio (z) = 0.30614 0.25175
#
# Static dielectric constant tensor:
#      x y z
#    x 6.467770 -0.281560 0.386160 
#    y -0.281560 6.840260 -1.290940 
#    z 0.386160 -1.290940 5.395510 
# 
# 
# High freq. dielectric constant tensor:
#      x y z
#    x 2.007000 -0.009630 0.010240 
#    y -0.009630 2.045470 -0.002920 
#    z 0.010240 -0.002920 1.987620 
# 
# From -- ./inp_files/312694.got.cif
#   From: 2010.06.25/outbox.cif.g09.slc.cpg/sg2_157_cif.got.tgz:312694.got - 2010.06.27 13:26:56.
