data_PCOD8043633
_publ_section_title
;
Structure prediction by ZEFSAII (Michael W. Deem and Ramdas Pophale) SiO2 
 PCOD8043633
Probable space group: P -1
;
_chemical_formula_sum "Si O2"
_cell_formula_units_Z 16
_cell_length_a 9.319341
_cell_length_b 15.345127
_cell_length_c 9.220494
_cell_angle_alpha 40.889404
_cell_angle_beta 62.391518
_cell_angle_gamma 63.737359
_cell_volume 755.155309
_symmetry_space_group_name_H-M "P -1"
_symmetry_group_IT_number 2
_symmetry_cell_setting 'triclinic'
loop_
_space_group_symop_operation_xyz
x,y,z
-x,-y,-z
loop_
_atom_site_type_symbol
_atom_site_label
_atom_site_fract_x
_atom_site_fract_y
_atom_site_fract_z
Si Si1 0.155862 0.538601 0.301042
Si Si2 0.896590 0.677253 0.066933
Si Si3 0.332639 0.750923 0.111634
Si Si4 0.996874 0.124453 0.447624
Si Si5 0.345766 0.743059 0.456246
Si Si6 0.295280 0.247586 0.651352
Si Si7 0.384753 0.457754 0.733347
Si Si8 0.848548 0.965996 0.205999
O O1 0.221196 0.648787 0.229574
O O2 0.281499 0.399148 0.399350
O O3 0.000000 0.500000 0.500000
O O4 0.085177 0.607527 0.096965
O O5 0.812548 0.758140 0.144895
O O6 0.790285 0.561477 0.223365
O O7 0.902120 0.771855 0.807579
O O8 0.305319 0.764456 0.278857
O O9 0.520759 0.684085 0.066748
O O10 0.285062 0.898870 0.878258
O O11 0.804515 0.177836 0.485544
O O12 0.087448 0.088441 0.600837
O O13 0.000000 0.000000 0.500000
O O14 0.512733 0.800337 0.343564
O O15 0.359854 0.584519 0.694501
O O16 0.237276 0.147100 0.689114
O O17 0.500000 0.500000 0.500000
O O18 0.000000 0.000000 0.000000
#
# Coordination Sequence:
#
# PCOD8043633 Si02
#       8
#     2   2   2   2   2   2   2   2
#     4  10  19  36  67 101 133 165 226 279 334 394
#     4  11  23  40  71 101 138 179 223 288 349 393
#     4  11  20  39  68  98 132 173 229 282 325 396
#     4  12  28  47  64  97 149 181 222 282 356 405
#     4  11  22  42  71  99 134 181 227 282 336 415
#     4  11  22  42  73 103 127 175 243 278 329 414
#     4  10  19  40  68 105 130 172 228 286 335 405
#     4  12  25  43  68 101 133 184 236 279 332 413
#
# _framework density 21.187695000000001
#
# number of rings (size 3 to 8) (size 9 to 14) (size 15 to 20)
#    0.000    1.000    5.000    5.250    1.750    2.000 
#    0.000    4.375    0.000    0.000    0.000    0.000 
#    0.000    0.000    0.000    0.000    0.000    0.000 
#
# Total GULP energy -198324.678635 kJ/mol
# GULP energy per Si atom -12395.292415 kJ/mol
# Density = 2.113947 g / cm^3
# Si number density = 21.187695 Si / 1000 Ang^3
#
#
#
# Elastic Constant Matrix: (Units=GPa)
#
#
# Indices 1 2 3 4 5 6 
#
# 1 165.5843 72.7344 57.6200 -6.0490 3.8592 16.5980
# 2 72.7344 129.3616 53.4388 -22.7989 4.7373 1.3389
# 3 57.6200 53.4388 117.6185 -5.1990 16.8024 7.4426
# 4 -6.0490 -22.7989 -5.1990 29.4847 0.1960 -0.2748
# 5 3.8592 4.7373 16.8024 0.1960 30.7640 -12.4123
# 6 16.5980 1.3389 7.4426 -0.2748 -12.4123 47.4879
#
#
#
# Elastic Compliance Matrix: (Units=1/GPa)
#
#
# Indices 1 2 3 4 5 6 
#
# 1 0.008981 -0.004431 -0.002257 -0.002005 -0.000310 -0.002753
# 2 -0.004431 0.013248 -0.003808 0.008675 0.001426 0.002195
# 3 -0.002257 -0.003808 0.012489 -0.001185 -0.007126 -0.002931
# 4 -0.002005 0.008675 -0.001185 0.040013 -0.000379 0.000774
# 5 -0.000310 0.001426 -0.007126 -0.000379 0.041023 0.011905
# 6 -0.002753 0.002195 -0.002931 0.000774 0.011905 0.025534
#
#
# Mechanical properties :
#
#
# Convention : Reuss Voigt Hill
#
# Bulk Modulus (GPa) = 72.84714 86.68341 79.76528
# Shear Modulus (GPa) = 29.96636 36.79874 33.38255
#
# Velocity S-wave (km/s) = 3.76484 4.17201 3.97364
# Velocity P-wave (km/s) = 7.30446 8.01302 7.66693
#
# Compressibility (1/GPa) = 0.01372737
#
# Stress axis : x y z
#
# Youngs Moduli (GPa) = 111.35042 75.48068 80.07241
#
# Poissons Ratio (x) = 0.33444 0.18069
# Poissons Ratio (y) = 0.49337 0.30490
# Poissons Ratio (z) = 0.25128 0.28741
#
# Static dielectric constant tensor:
#      x y z
#    x 4.485880 -0.456020 0.385290 
#    y -0.456020 4.205640 -0.557900 
#    z 0.385290 -0.557900 3.766290 
# 
# 
# High freq. dielectric constant tensor:
#      x y z
#    x 1.853530 0.001710 0.009600 
#    y 0.001710 1.819860 -0.028080 
#    z 0.009600 -0.028080 1.810540 
# 
# From -- ./inp_files/205027.got.cif
#   From: 2010.06.25/outbox.cif.g09.slc.cpg/sg2_103_cif.got.tgz:205027.got - 2010.06.27 13:26:56.
