data_PCOD8043267
_publ_section_title
;
Structure prediction by ZEFSAII (Michael W. Deem and Ramdas Pophale) SiO2 
 PCOD8043267
Probable space group: P -1
;
_chemical_formula_sum "Si O2"
_cell_formula_units_Z 16
_cell_length_a 9.757716
_cell_length_b 16.392109
_cell_length_c 13.453034
_cell_angle_alpha 145.201335
_cell_angle_beta 45.806854
_cell_angle_gamma 114.896422
_cell_volume 817.966802
_symmetry_space_group_name_H-M "P -1"
_symmetry_group_IT_number 2
_symmetry_cell_setting 'triclinic'
loop_
_space_group_symop_operation_xyz
x,y,z
-x,-y,-z
loop_
_atom_site_type_symbol
_atom_site_label
_atom_site_fract_x
_atom_site_fract_y
_atom_site_fract_z
Si Si1 0.970054 0.063596 0.232249
Si Si2 0.560424 0.373636 0.983250
Si Si3 0.685178 0.598171 0.258238
Si Si4 0.994409 0.428754 0.089253
Si Si5 0.177229 0.598074 0.305127
Si Si6 0.673015 0.063534 0.720558
Si Si7 0.961993 0.115974 0.780262
Si Si8 0.658943 0.085655 0.246466
O O1 0.959072 0.239673 0.413980
O O2 0.774572 0.052260 0.260830
O O3 0.969575 0.002442 0.282121
O O4 0.180134 0.960556 0.970478
O O5 0.655317 0.439496 0.090646
O O6 0.324782 0.485177 0.198863
O O7 0.689275 0.361367 0.806126
O O8 0.573657 0.206028 0.839370
O O9 0.467834 0.733223 0.520244
O O10 0.822754 0.567450 0.256364
O O11 0.798066 0.641479 0.151200
O O12 0.034217 0.509491 0.248871
O O13 0.921978 0.288480 0.012170
O O14 0.755943 0.110461 0.827950
O O15 0.858409 0.929997 0.438911
O O16 0.493457 0.004380 0.778752
#
# Coordination Sequence:
#
# PCOD8043267 Si02
#       8
#     2   2   2   2   2   2   2   2
#     4  11  25  44  60  88 128 163 207 247 301 372
#     4  10  19  36  60  90 120 155 201 255 299 351
#     4  10  19  38  60  87 124 159 199 243 305 361
#     4  10  21  34  62  93 121 152 199 256 303 351
#     4  10  21  36  60  90 121 157 200 250 303 354
#     4  11  23  38  64  94 124 158 203 254 308 354
#     4  11  23  39  61  96 127 152 204 260 300 358
#     4  11  25  43  63  86 124 172 200 246 308 366
#
# _framework density 19.560696
#
# number of rings (size 3 to 8) (size 9 to 14) (size 15 to 20)
#    0.000    1.500    5.000    0.000    3.500    1.000 
#    0.000    2.500    0.000    0.000    0.000    0.000 
#    0.000    0.000    0.000    0.000    0.000    0.000 
#
# Total GULP energy -198448.903140 kJ/mol
# GULP energy per Si atom -12403.056446 kJ/mol
# Density = 1.951618 g / cm^3
# Si number density = 19.560696 Si / 1000 Ang^3
#
#
#
# Elastic Constant Matrix: (Units=GPa)
#
#
# Indices 1 2 3 4 5 6 
#
# 1 118.4092 25.6625 23.6048 -2.6713 1.7902 9.7074
# 2 25.6625 47.4615 9.7465 12.7533 2.1587 10.8966
# 3 23.6048 9.7465 83.8460 6.7227 -11.1001 2.4236
# 4 -2.6713 12.7533 6.7227 22.4414 2.4741 1.5946
# 5 1.7902 2.1587 -11.1001 2.4741 28.2907 4.9091
# 6 9.7074 10.8966 2.4236 1.5946 4.9091 30.2105
#
#
#
# Elastic Compliance Matrix: (Units=1/GPa)
#
#
# Indices 1 2 3 4 5 6 
#
# 1 0.010684 -0.006537 -0.002940 0.006119 -0.001712 -0.000884
# 2 -0.006537 0.031354 0.000036 -0.018127 0.001084 -0.008431
# 3 -0.002940 0.000036 0.014029 -0.005201 0.006307 -0.000944
# 4 0.006119 -0.018127 -0.005201 0.057663 -0.006612 0.003020
# 5 -0.001712 0.001084 0.006307 -0.006612 0.039540 -0.006423
# 6 -0.000884 -0.008431 -0.000944 0.003020 -0.006423 0.037386
#
#
# Mechanical properties :
#
#
# Convention : Reuss Voigt Hill
#
# Bulk Modulus (GPa) = 26.89105 40.86046 33.87575
# Shear Modulus (GPa) = 22.52930 28.90207 25.71568
#
# Velocity S-wave (km/s) = 3.39745 3.84807 3.62976
# Velocity P-wave (km/s) = 5.40070 6.37793 5.90955
#
# Compressibility (1/GPa) = 0.03718709
#
# Stress axis : x y z
#
# Youngs Moduli (GPa) = 93.59406 31.89389 71.27943
#
# Poissons Ratio (x) = 0.20848 0.20955
# Poissons Ratio (y) = 0.61179 -0.00258
# Poissons Ratio (z) = 0.27515 -0.00115
#
# Static dielectric constant tensor:
#      x y z
#    x 3.735760 0.024310 0.009850 
#    y 0.024310 3.198780 0.226280 
#    z 0.009850 0.226280 3.449770 
# 
# 
# High freq. dielectric constant tensor:
#      x y z
#    x 1.779150 0.000050 0.000140 
#    y 0.000050 1.736620 0.029870 
#    z 0.000140 0.029870 1.752900 
# 
# From -- ./inp_files/187667.got.cif
#   From: 2010.06.25/outbox.cif.g09.slc.cpg/sg2_94_cif.got.tgz:187667.got - 2010.06.27 13:26:56.
