data_PCOD8043404
_publ_section_title
;
Structure prediction by ZEFSAII (Michael W. Deem and Ramdas Pophale) SiO2 
 PCOD8043404
Probable space group: P -1
;
_chemical_formula_sum "Si O2"
_cell_formula_units_Z 16
_cell_length_a 10.500710
_cell_length_b 13.249652
_cell_length_c 14.555222
_cell_angle_alpha 44.078400
_cell_angle_beta 56.248189
_cell_angle_gamma 33.426425
_cell_volume 770.896544
_symmetry_space_group_name_H-M "P -1"
_symmetry_group_IT_number 2
_symmetry_cell_setting 'triclinic'
loop_
_space_group_symop_operation_xyz
x,y,z
-x,-y,-z
loop_
_atom_site_type_symbol
_atom_site_label
_atom_site_fract_x
_atom_site_fract_y
_atom_site_fract_z
Si Si1 0.704462 0.643487 0.267688
Si Si2 0.321624 0.026589 0.884099
Si Si3 0.185156 0.646057 0.091662
Si Si4 0.829426 0.317347 0.298067
Si Si5 0.413487 0.440138 0.944357
Si Si6 0.423449 0.099701 0.609367
Si Si7 0.818638 0.659242 0.631987
Si Si8 0.670324 0.161528 0.576945
O O1 0.637726 0.861981 0.138666
O O2 0.779850 0.515335 0.225749
O O3 0.482839 0.714567 0.350327
O O4 0.919258 0.480761 0.359070
O O5 0.302773 0.096848 0.741186
O O6 0.084299 0.114128 0.951086
O O7 0.532762 0.761810 0.979629
O O8 0.345268 0.661312 0.053220
O O9 0.222561 0.482457 0.249656
O O10 0.236583 0.565937 0.018069
O O11 0.703440 0.387721 0.204601
O O12 0.732819 0.274465 0.440217
O O13 0.102715 0.095063 0.320833
O O14 0.227634 0.258003 0.507211
O O15 0.515145 0.190353 0.545092
O O16 0.645572 0.856800 0.642839
#
# Coordination Sequence:
#
# PCOD8043404 Si02
#       8
#     2   2   2   2   2   2   2   2
#     4  10  22  39  61  88 119 152 195 245 290 346
#     4  10  22  39  61  88 119 152 195 245 290 346
#     4  10  22  40  61  87 119 151 197 244 291 347
#     4  11  23  40  60  85 121 159 194 238 291 348
#     4  11  23  40  60  85 121 159 194 238 291 348
#     4  10  19  36  62  88 115 150 192 243 297 340
#     4  10  19  36  62  88 115 150 192 243 297 340
#     4  10  22  40  61  87 119 151 197 244 291 347
#
# _framework density 20.755056
#
# number of rings (size 3 to 8) (size 9 to 14) (size 15 to 20)
#    0.000    1.750    2.500    1.500    0.000    7.000 
#    0.000    8.750    0.000    0.000    0.000    0.000 
#    0.000    0.000    0.000    0.000    0.000    0.000 
#
# Total GULP energy -198398.515054 kJ/mol
# GULP energy per Si atom -12399.907191 kJ/mol
# Density = 2.070782 g / cm^3
# Si number density = 20.755056 Si / 1000 Ang^3
#
#
#
# Elastic Constant Matrix: (Units=GPa)
#
#
# Indices 1 2 3 4 5 6 
#
# 1 59.5089 33.2422 33.0189 3.9759 2.3812 5.5568
# 2 33.2422 114.6268 44.1611 7.6502 1.5072 4.3186
# 3 33.0189 44.1611 60.4400 -5.3300 4.5758 -5.9481
# 4 3.9759 7.6502 -5.3300 20.0930 -1.4756 -17.1488
# 5 2.3812 1.5072 4.5758 -1.4756 23.6670 1.1351
# 6 5.5568 4.3186 -5.9481 -17.1488 1.1351 28.3826
#
#
#
# Elastic Compliance Matrix: (Units=1/GPa)
#
#
# Indices 1 2 3 4 5 6 
#
# 1 0.083655 0.035631 -0.105560 -0.196972 0.005267 -0.163143
# 2 0.035631 0.037511 -0.068983 -0.129298 0.004359 -0.105437
# 3 -0.105560 -0.068983 0.178917 0.315331 -0.012372 0.259676
# 4 -0.196972 -0.129298 0.315331 0.675324 -0.016372 0.533006
# 5 0.005267 0.004359 -0.012372 -0.016372 0.043580 -0.015922
# 6 -0.163143 -0.105437 0.259676 0.533006 -0.015922 0.460315
#
#
# Mechanical properties :
#
#
# Convention : Reuss Voigt Hill
#
# Bulk Modulus (GPa) = 44.92395 50.60224 47.76309
# Shear Modulus (GPa) = 2.83359 22.70540 12.76949
#
# Velocity S-wave (km/s) = 1.16971 3.31111 2.48311
# Velocity P-wave (km/s) = 4.84934 6.24912 5.59319
#
# Compressibility (1/GPa) = 0.02225984
#
# Stress axis : x y z
#
# Youngs Moduli (GPa) = 11.95393 26.65855 5.58918
#
# Poissons Ratio (x) = -0.94987 0.58999
# Poissons Ratio (y) = -0.42593 0.38556
# Poissons Ratio (z) = 1.26186 1.83897
#
# Static dielectric constant tensor:
#      x y z
#    x 3.602910 0.101040 -0.128120 
#    y 0.101040 4.023170 -0.009220 
#    z -0.128120 -0.009220 3.517540 
# 
# 
# High freq. dielectric constant tensor:
#      x y z
#    x 1.800680 0.004490 -0.007860 
#    y 0.004490 1.835770 0.001640 
#    z -0.007860 0.001640 1.795760 
# 
# From -- ./inp_files/471496.got.cif
#   From: 2010.06.25/outbox.cif.g09.slc.cpg/sg2_236_cif.got.tgz:471496.got - 2010.06.27 13:26:56.
