data_PCOD8043286
_publ_section_title
;
Structure prediction by ZEFSAII (Michael W. Deem and Ramdas Pophale) SiO2 
 PCOD8043286
Probable space group: P -1
;
_chemical_formula_sum "Si O2"
_cell_formula_units_Z 16
_cell_length_a 11.590674
_cell_length_b 12.320798
_cell_length_c 14.793164
_cell_angle_alpha 118.122822
_cell_angle_beta 137.895745
_cell_angle_gamma 35.374754
_cell_volume 769.907980
_symmetry_space_group_name_H-M "P -1"
_symmetry_group_IT_number 2
_symmetry_cell_setting 'triclinic'
loop_
_space_group_symop_operation_xyz
x,y,z
-x,-y,-z
loop_
_atom_site_type_symbol
_atom_site_label
_atom_site_fract_x
_atom_site_fract_y
_atom_site_fract_z
Si Si1 0.857337 0.512630 0.288977
Si Si2 0.226530 0.979853 0.870018
Si Si3 0.761031 0.063740 0.938099
Si Si4 0.853244 0.141736 0.384037
Si Si5 0.663083 0.695400 0.787688
Si Si6 0.948376 0.715686 0.511893
Si Si7 0.647006 0.879187 0.697037
Si Si8 0.800344 0.729313 0.063806
O O1 0.535922 0.694609 0.138279
O O2 0.944383 0.603366 0.396721
O O3 0.863785 0.424519 0.347896
O O4 0.087827 0.323508 0.282000
O O5 0.188621 0.131760 0.857024
O O6 0.074894 0.966154 0.711675
O O7 0.114086 0.024768 0.923175
O O8 0.562493 0.784294 0.997715
O O9 0.742589 0.943567 0.832596
O O10 0.000000 0.000000 0.000000
O O11 0.528176 0.300236 0.275784
O O12 0.908551 0.254676 0.449045
O O13 0.000000 0.000000 0.500000
O O14 0.524096 0.848720 0.685238
O O15 0.922855 0.478004 0.811041
O O16 0.776965 0.726370 0.940968
O O17 0.633053 0.928588 0.447071
#
# Coordination Sequence:
#
# PCOD8043286 Si02
#       8
#     2   2   2   2   2   2   2   2
#     4  10  24  44  68  93 123 177 214 264 317 378
#     4  10  21  39  62  88 129 166 200 266 318 375
#     4  11  25  42  64  99 129 161 216 268 324 378
#     4  11  23  40  62  92 129 165 209 261 317 373
#     4  10  19  36  60  93 122 163 204 262 310 383
#     4  10  23  45  64  92 131 169 222 261 311 380
#     4  11  21  41  70  87 130 168 216 259 323 379
#     4   9  19  36  61  89 121 162 210 244 325 378
#
# _framework density 20.781704000000001
#
# number of rings (size 3 to 8) (size 9 to 14) (size 15 to 20)
#    0.000    1.750    2.500    1.125    1.750    2.500 
#    4.500    1.250    0.000    0.000    0.000    0.000 
#    0.000    0.000    0.000    0.000    0.000    0.000 
#
# Total GULP energy -198267.894573 kJ/mol
# GULP energy per Si atom -12391.743411 kJ/mol
# Density = 2.073440 g / cm^3
# Si number density = 20.781704 Si / 1000 Ang^3
#
#
#
# Elastic Constant Matrix: (Units=GPa)
#
#
# Indices 1 2 3 4 5 6 
#
# 1 118.3021 40.5058 35.4153 10.8490 4.4915 15.7842
# 2 40.5058 112.8110 39.5402 0.8102 7.3517 -6.3841
# 3 35.4153 39.5402 68.1339 7.5101 -2.3369 12.5044
# 4 10.8490 0.8102 7.5101 19.8970 -0.2931 -0.9734
# 5 4.4915 7.3517 -2.3369 -0.2931 24.5104 -0.4439
# 6 15.7842 -6.3841 12.5044 -0.9734 -0.4439 38.1911
#
#
#
# Elastic Compliance Matrix: (Units=1/GPa)
#
#
# Indices 1 2 3 4 5 6 
#
# 1 0.011569 -0.003335 -0.002688 -0.005406 -0.001524 -0.004614
# 2 -0.003335 0.013377 -0.007803 0.004465 -0.003979 0.006237
# 3 -0.002688 -0.007803 0.023003 -0.007213 0.004798 -0.007853
# 4 -0.005406 0.004465 -0.007213 0.056075 -0.000243 0.006769
# 5 -0.001524 -0.003979 0.004798 -0.000243 0.042706 -0.001116
# 6 -0.004614 0.006237 -0.007853 0.006769 -0.001116 0.031865
#
#
# Mechanical properties :
#
#
# Convention : Reuss Voigt Hill
#
# Bulk Modulus (GPa) = 49.26570 58.90774 54.08672
# Shear Modulus (GPa) = 23.47310 28.77209 26.12260
#
# Velocity S-wave (km/s) = 3.36446 3.72491 3.54927
# Velocity P-wave (km/s) = 6.23302 6.84890 6.54821
#
# Compressibility (1/GPa) = 0.02029810
#
# Stress axis : x y z
#
# Youngs Moduli (GPa) = 86.44133 74.75613 43.47254
#
# Poissons Ratio (x) = 0.24930 0.11683
# Poissons Ratio (y) = 0.28826 0.33921
# Poissons Ratio (z) = 0.23231 0.58331
#
# Static dielectric constant tensor:
#      x y z
#    x 3.690470 0.019990 0.030290 
#    y 0.019990 3.854350 -0.239350 
#    z 0.030290 -0.239350 3.452900 
# 
# 
# High freq. dielectric constant tensor:
#      x y z
#    x 1.813590 0.004950 -0.003150 
#    y 0.004950 1.817270 -0.004660 
#    z -0.003150 -0.004660 1.805460 
# 
# From -- ./inp_files/519860.got.cif
#   From: 2010.06.25/outbox.cif.g09.slc.cpg/sg2_260_cif.got.tgz:519860.got - 2010.06.27 13:26:56.
