data_PCOD8043962
_publ_section_title
;
Structure prediction by ZEFSAII (Michael W. Deem and Ramdas Pophale) SiO2 
 PCOD8043962
Probable space group: P -1
;
_chemical_formula_sum "Si O2"
_cell_formula_units_Z 12
_cell_length_a 7.792028
_cell_length_b 11.368347
_cell_length_c 13.296911
_cell_angle_alpha 31.912427
_cell_angle_beta 135.433542
_cell_angle_gamma 120.614333
_cell_volume 422.208260
_symmetry_space_group_name_H-M "P -1"
_symmetry_group_IT_number 2
_symmetry_cell_setting 'triclinic'
loop_
_space_group_symop_operation_xyz
x,y,z
-x,-y,-z
loop_
_atom_site_type_symbol
_atom_site_label
_atom_site_fract_x
_atom_site_fract_y
_atom_site_fract_z
Si Si1 0.855784 0.346753 0.113070
Si Si2 0.439003 0.271959 0.767200
Si Si3 0.857112 0.081182 0.553627
Si Si4 0.400058 0.046865 0.267316
Si Si5 0.280669 0.438536 0.788010
Si Si6 0.277031 0.378699 0.400656
O O1 0.002532 0.331621 0.293199
O O2 0.561567 0.471299 0.906248
O O3 0.888749 0.095521 0.256078
O O4 0.000000 0.500000 0.000000
O O5 0.253022 0.375500 0.706464
O O6 0.294701 0.362544 0.539186
O O7 0.691059 0.371260 0.804988
O O8 0.500000 0.000000 0.000000
O O9 0.652639 0.125586 0.345329
O O10 0.913905 0.316419 0.446567
O O11 0.760689 0.960539 0.695518
O O12 0.488757 0.804484 0.422225
O O13 0.228025 0.238443 0.982573
#
# Coordination Sequence:
#
# PCOD8043962 Si02
#       6
#     2   2   2   2   2   2
#     4  11  22  41  68 101 127 164 214 271 321 374
#     4  11  21  38  62  93 126 173 218 254 314 389
#     4  10  22  39  60  96 135 163 204 267 326 375
#     4  10  19  37  61  93 125 166 204 261 321 376
#     4  12  22  40  68  97 126 167 216 263 318 377
#     4  10  21  37  62  93 126 168 214 259 318 381
#
# _framework density 28.421994999999999
#
# number of rings (size 3 to 8) (size 9 to 14) (size 15 to 20)
#    0.000    1.333    5.000    2.500    0.000    2.667 
#    0.000    1.667    0.000    9.000    0.000    0.000 
#    0.000    0.000    0.000    0.000    0.000    0.000 
#
# Total GULP energy -148834.927486 kJ/mol
# GULP energy per Si atom -12402.910624 kJ/mol
# Density = 2.835730 g / cm^3
# Si number density = 28.421995 Si / 1000 Ang^3
#
#
#
# Elastic Constant Matrix: (Units=GPa)
#
#
# Indices 1 2 3 4 5 6 
#
# 1 74.1243 39.5230 14.2547 -8.5489 -3.5374 -16.1487
# 2 39.5230 142.4510 42.7249 -32.8254 -1.7142 -29.5260
# 3 14.2547 42.7249 99.4770 -41.1887 -21.5946 -11.0864
# 4 -8.5489 -32.8254 -41.1887 50.4251 -8.2343 -7.6798
# 5 -3.5374 -1.7142 -21.5946 -8.2343 38.6053 9.3879
# 6 -16.1487 -29.5260 -11.0864 -7.6798 9.3879 59.0025
#
#
#
# Elastic Compliance Matrix: (Units=1/GPa)
#
#
# Indices 1 2 3 4 5 6 
#
# 1 0.016187 -0.003783 0.000257 0.001054 0.001063 0.002553
# 2 -0.003783 0.010888 -0.001001 0.006355 -0.000308 0.005101
# 3 0.000257 -0.001001 0.023858 0.022310 0.017051 0.004243
# 4 0.001054 0.006355 0.022310 0.047309 0.020377 0.010576
# 5 0.001063 -0.000308 0.017051 0.020377 0.039960 -0.000365
# 6 0.002553 0.005101 0.004243 0.010576 -0.000365 0.022432
#
#
# Mechanical properties :
#
#
# Convention : Reuss Voigt Hill
#
# Bulk Modulus (GPa) = 23.87904 56.56193 40.22048
# Shear Modulus (GPa) = 27.22599 44.24324 35.73461
#
# Velocity S-wave (km/s) = 3.09839 3.94973 3.54967
# Velocity P-wave (km/s) = 4.60650 6.38314 5.56616
#
# Compressibility (1/GPa) = 0.04187774
#
# Stress axis : x y z
#
# Youngs Moduli (GPa) = 61.77691 91.84428 41.91525
#
# Poissons Ratio (x) = 0.34748 -0.01077
# Poissons Ratio (y) = 0.23372 0.04197
# Poissons Ratio (z) = -0.01588 0.09196
#
# Static dielectric constant tensor:
#      x y z
#    x 5.237880 -0.282200 -0.470370 
#    y -0.282200 5.648640 0.110820 
#    z -0.470370 0.110820 5.410860 
# 
# 
# High freq. dielectric constant tensor:
#      x y z
#    x 2.171260 -0.020630 -0.028930 
#    y -0.020630 2.152970 -0.008800 
#    z -0.028930 -0.008800 2.153020 
# 
# From -- ./inp_files/430541.got.cif
#   From: 2010.06.25/outbox.cif.g09.slc.cpg/sg2_216_cif.got.tgz:430541.got - 2010.06.27 13:26:56.
