data_PCOD8043083
_publ_section_title
;
Structure prediction by ZEFSAII (Michael W. Deem and Ramdas Pophale) SiO2 
 PCOD8043083
Probable space group: P -1
;
_chemical_formula_sum "Si O2"
_cell_formula_units_Z 12
_cell_length_a 15.937350
_cell_length_b 6.760515
_cell_length_c 12.174866
_cell_angle_alpha 64.259538
_cell_angle_beta 147.291377
_cell_angle_gamma 128.277778
_cell_volume 544.637288
_symmetry_space_group_name_H-M "P -1"
_symmetry_group_IT_number 2
_symmetry_cell_setting 'triclinic'
loop_
_space_group_symop_operation_xyz
x,y,z
-x,-y,-z
loop_
_atom_site_type_symbol
_atom_site_label
_atom_site_fract_x
_atom_site_fract_y
_atom_site_fract_z
Si Si1 0.950565 0.751811 0.574571
Si Si2 0.289556 0.795616 0.030858
Si Si3 0.177563 0.374913 0.304260
Si Si4 0.440031 0.632070 0.813713
Si Si5 0.176983 0.851297 0.136491
Si Si6 0.561949 0.576207 0.720708
O O1 0.894197 0.794665 0.623580
O O2 0.778806 0.499176 0.391768
O O3 0.125909 0.722188 0.782427
O O4 0.000000 0.000000 0.500000
O O5 0.227634 0.811551 0.079992
O O6 0.333471 0.573373 0.127722
O O7 0.467178 0.067244 0.127327
O O8 0.194672 0.651474 0.282278
O O9 0.377684 0.431128 0.478325
O O10 0.035042 0.225479 0.083985
O O11 0.504939 0.596140 0.775778
O O12 0.500000 0.500000 0.000000
O O13 0.305771 0.139354 0.252475
#
# Coordination Sequence:
#
# PCOD8043083 Si02
#       6
#     2   2   2   2   2   2
#     4  10  19  36  58  78 110 147 182 222 271 322
#     4  10  21  36  57  86 108 141 183 225 273 321
#     4   9  19  36  57  81 110 148 180 220 275 322
#     4  10  20  37  56  76 112 147 177 223 271 320
#     4   9  19  38  58  78 114 145 176 223 275 326
#     4  10  21  35  57  85 110 139 184 227 270 323
#
# _framework density 22.033013
#
# number of rings (size 3 to 8) (size 9 to 14) (size 15 to 20)
#    0.000    2.333    1.667    0.500    0.000    2.667 
#    0.000    8.333    0.000    0.000    0.000    0.000 
#    0.000    0.000    0.000    0.000    0.000    0.000 
#
# Total GULP energy -148772.443633 kJ/mol
# GULP energy per Si atom -12397.703636 kJ/mol
# Density = 2.198286 g / cm^3
# Si number density = 22.033013 Si / 1000 Ang^3
#
#
#
# Elastic Constant Matrix: (Units=GPa)
#
#
# Indices 1 2 3 4 5 6 
#
# 1 25.1708 33.4219 28.7703 2.6548 16.5074 11.5224
# 2 33.4219 111.0349 41.6272 5.5009 20.5415 18.8706
# 3 28.7703 41.6272 157.2795 6.9710 42.9124 5.4653
# 4 2.6548 5.5009 6.9710 41.0102 10.7445 5.0571
# 5 16.5074 20.5415 42.9124 10.7445 35.7350 -3.2648
# 6 11.5224 18.8706 5.4653 5.0571 -3.2648 29.8743
#
#
#
# Elastic Compliance Matrix: (Units=1/GPa)
#
#
# Indices 1 2 3 4 5 6 
#
# 1 0.114853 -0.019032 -0.002500 0.012521 -0.046442 -0.039014
# 2 -0.019032 0.015180 -0.000695 -0.000697 0.000936 -0.001901
# 3 -0.002500 -0.000695 0.010049 0.001725 -0.011211 -0.001952
# 4 0.012521 -0.000697 0.001725 0.029341 -0.017334 -0.011566
# 5 -0.046442 0.000936 -0.011211 -0.017334 0.070313 0.029991
# 6 -0.039014 -0.001901 -0.001952 -0.011566 0.029991 0.055314
#
#
# Mechanical properties :
#
#
# Convention : Reuss Voigt Hill
#
# Bulk Modulus (GPa) = 10.45712 55.68044 33.06878
# Shear Modulus (GPa) = 13.46327 33.96827 23.71577
#
# Velocity S-wave (km/s) = 2.47462 3.93071 3.28437
# Velocity P-wave (km/s) = 3.59464 6.77693 5.42440
#
# Compressibility (1/GPa) = 0.09562864
#
# Stress axis : x y z
#
# Youngs Moduli (GPa) = 8.70678 65.87767 99.50808
#
# Poissons Ratio (x) = 1.25377 0.24881
# Poissons Ratio (y) = 0.16571 0.06912
# Poissons Ratio (z) = 0.02177 0.04576
#
# Static dielectric constant tensor:
#      x y z
#    x 3.705530 0.528470 0.235650 
#    y 0.528470 4.118250 0.281350 
#    z 0.235650 0.281350 4.551370 
# 
# 
# High freq. dielectric constant tensor:
#      x y z
#    x 1.836700 0.040500 0.010750 
#    y 0.040500 1.860500 0.002520 
#    z 0.010750 0.002520 1.890590 
# 
# From -- ./inp_files/371696.got.cif
#   From: 2010.06.25/outbox.cif.g09.slc.cpg/sg2_186_cif.got.tgz:371696.got - 2010.06.27 13:26:56.
