data_PCOD8043231
_publ_section_title
;
Structure prediction by ZEFSAII (Michael W. Deem and Ramdas Pophale) SiO2 
 PCOD8043231
Probable space group: P -1
;
_chemical_formula_sum "Si O2"
_cell_formula_units_Z 16
_cell_length_a 7.434561
_cell_length_b 9.441749
_cell_length_c 12.151724
_cell_angle_alpha 114.862960
_cell_angle_beta 99.372351
_cell_angle_gamma 77.326552
_cell_volume 752.672985
_symmetry_space_group_name_H-M "P -1"
_symmetry_group_IT_number 2
_symmetry_cell_setting 'triclinic'
loop_
_space_group_symop_operation_xyz
x,y,z
-x,-y,-z
loop_
_atom_site_type_symbol
_atom_site_label
_atom_site_fract_x
_atom_site_fract_y
_atom_site_fract_z
Si Si1 0.091211 0.244626 0.954616
Si Si2 0.267697 0.876616 0.126819
Si Si3 0.608715 0.404372 0.791154
Si Si4 0.085527 0.509342 0.394098
Si Si5 0.485953 0.244110 0.080335
Si Si6 0.021960 0.455471 0.828181
Si Si7 0.583576 0.346891 0.528591
Si Si8 0.616114 0.802111 0.707927
O O1 0.956091 0.113992 0.893776
O O2 0.134431 0.305545 0.855696
O O3 0.288149 0.190571 0.012959
O O4 0.958195 0.385570 0.052473
O O5 0.380474 0.733073 0.162660
O O6 0.297843 0.039154 0.238151
O O7 0.352469 0.862343 0.007528
O O8 0.498564 0.571443 0.881448
O O9 0.807921 0.442415 0.795305
O O10 0.516555 0.355513 0.652272
O O11 0.922136 0.538786 0.293611
O O12 0.194958 0.659190 0.455412
O O13 0.218395 0.346205 0.322762
O O14 0.000000 0.500000 0.500000
O O15 0.512203 0.205079 0.199340
O O16 0.500000 0.500000 0.500000
O O17 0.516047 0.198951 0.412957
#
# Coordination Sequence:
#
# PCOD8043231 Si02
#       8
#     2   2   2   2   2   2   2   2
#     4   9  18  36  57  79 118 147 184 238 280 329
#     4  11  24  35  58  91 118 154 186 231 299 341
#     4   9  17  36  61  82 110 150 200 234 271 349
#     4  10  19  36  60  85 105 150 202 233 277 347
#     4  11  20  40  59  85 118 154 194 231 280 352
#     4   8  15  33  57  81 109 146 186 245 277 318
#     4   9  17  37  60  76 110 153 184 243 282 314
#     4  11  22  40  53  86 124 144 189 243 285 341
#
# _framework density 21.257573000000001
#
# number of rings (size 3 to 8) (size 9 to 14) (size 15 to 20)
#    0.000    2.250    5.000    1.500    0.000    2.000 
#    6.750    0.000    0.000    2.250    0.000    0.000 
#    0.000    0.000    0.000    0.000    0.000    0.000 
#
# Total GULP energy -198261.878037 kJ/mol
# GULP energy per Si atom -12391.367377 kJ/mol
# Density = 2.120919 g / cm^3
# Si number density = 21.257573 Si / 1000 Ang^3
#
#
#
# Elastic Constant Matrix: (Units=GPa)
#
#
# Indices 1 2 3 4 5 6 
#
# 1 42.5296 12.5439 33.2845 2.3163 2.5280 12.1925
# 2 12.5439 55.8317 37.0970 7.5805 10.1489 17.1146
# 3 33.2845 37.0970 143.9319 -10.3520 14.3598 14.9909
# 4 2.3163 7.5805 -10.3520 37.9585 10.4646 8.2296
# 5 2.5280 10.1489 14.3598 10.4646 32.1619 0.5669
# 6 12.1925 17.1146 14.9909 8.2296 0.5669 20.9370
#
#
#
# Elastic Compliance Matrix: (Units=1/GPa)
#
#
# Indices 1 2 3 4 5 6 
#
# 1 0.032492 0.001777 -0.006456 -0.000839 0.000313 -0.015430
# 2 0.001777 0.028244 -0.005106 -0.001174 -0.006041 -0.019841
# 3 -0.006456 -0.005106 0.010893 0.006150 -0.004708 -0.002156
# 4 -0.000839 -0.001174 0.006150 0.035662 -0.013620 -0.016603
# 5 0.000313 -0.006041 -0.004708 -0.013620 0.039289 0.012416
# 6 -0.015430 -0.019841 -0.002156 -0.016603 0.012416 0.080700
#
#
# Mechanical properties :
#
#
# Convention : Reuss Voigt Hill
#
# Bulk Modulus (GPa) = 19.20913 45.34932 32.27923
# Shear Modulus (GPa) = 18.92474 28.83601 23.88038
#
# Velocity S-wave (km/s) = 2.98696 3.68707 3.35533
# Velocity P-wave (km/s) = 4.57732 6.28535 5.49807
#
# Compressibility (1/GPa) = 0.05205858
#
# Stress axis : x y z
#
# Youngs Moduli (GPa) = 30.77637 35.40598 91.79962
#
# Poissons Ratio (x) = -0.06290 0.59269
# Poissons Ratio (y) = -0.05468 0.46870
# Poissons Ratio (z) = 0.19870 0.18077
#
# Static dielectric constant tensor:
#      x y z
#    x 3.643910 0.179090 0.348530 
#    y 0.179090 3.755500 -0.232470 
#    z 0.348530 -0.232470 4.515720 
# 
# 
# High freq. dielectric constant tensor:
#      x y z
#    x 1.804260 0.017550 0.020190 
#    y 0.017550 1.809970 -0.020260 
#    z 0.020190 -0.020260 1.846090 
# 
# From -- ./inp_files/199493.got.cif
#   From: 2010.06.25/outbox.cif.g09.slc.cpg/sg2_100_cif.got.tgz:199493.got - 2010.06.27 13:26:56.
