data_PCOD8043296
_publ_section_title
;
Structure prediction by ZEFSAII (Michael W. Deem and Ramdas Pophale) SiO2 
 PCOD8043296
Probable space group: P -1
;
_chemical_formula_sum "Si O2"
_cell_formula_units_Z 16
_cell_length_a 14.484986
_cell_length_b 14.493126
_cell_length_c 11.913880
_cell_angle_alpha 69.405528
_cell_angle_beta 130.696294
_cell_angle_gamma 150.170530
_cell_volume 776.845311
_symmetry_space_group_name_H-M "P -1"
_symmetry_group_IT_number 2
_symmetry_cell_setting 'triclinic'
loop_
_space_group_symop_operation_xyz
x,y,z
-x,-y,-z
loop_
_atom_site_type_symbol
_atom_site_label
_atom_site_fract_x
_atom_site_fract_y
_atom_site_fract_z
Si Si1 0.109586 0.470244 0.578715
Si Si2 0.810775 0.296612 0.767813
Si Si3 0.352861 0.590272 0.104277
Si Si4 0.705326 0.005607 0.113901
Si Si5 0.359363 0.502611 0.386728
Si Si6 0.411298 0.950001 0.786890
Si Si7 0.488043 0.752452 0.563592
Si Si8 0.032354 0.755321 0.226165
O O1 0.407859 0.677797 0.662900
O O2 0.000000 0.500000 0.500000
O O3 0.893451 0.263854 0.412062
O O4 0.126512 0.417490 0.726488
O O5 0.760487 0.360772 0.633931
O O6 0.741570 0.154276 0.690263
O O7 0.611332 0.155141 0.775642
O O8 0.131337 0.520304 0.967099
O O9 0.623560 0.832943 0.152017
O O10 0.433825 0.610025 0.282344
O O11 0.210086 0.400405 0.993776
O O12 0.602677 0.000809 0.132156
O O13 0.532989 0.926118 0.905506
O O14 0.030260 0.249765 0.243184
O O15 0.500000 0.500000 0.500000
O O16 0.491065 0.657040 0.530445
O O17 0.798759 0.026341 0.690489
#
# Coordination Sequence:
#
# PCOD8043296 Si02
#       8
#     2   2   2   2   2   2   2   2
#     4  12  20  32  58  97 140 170 196 251 329 402
#     4  10  19  36  60  97 133 165 193 254 327 391
#     4  10  24  41  65  92 129 167 210 267 327 379
#     4  11  22  40  60  94 126 167 210 264 324 380
#     4  12  28  47  66  89 125 178 230 268 307 371
#     4  11  20  32  59  97 135 158 203 256 323 394
#     4  12  22  38  64  96 134 172 207 262 320 383
#     4  10  22  37  60  98 134 166 204 254 332 395
#
# _framework density 20.596121
#
# number of rings (size 3 to 8) (size 9 to 14) (size 15 to 20)
#    0.750    0.250    5.000    3.375    1.750    2.500 
#    0.000    0.625    0.000    1.500    0.000    0.000 
#    0.000    0.000    0.000    0.000    0.000    0.000 
#
# Total GULP energy -198264.923355 kJ/mol
# GULP energy per Si atom -12391.557710 kJ/mol
# Density = 2.054924 g / cm^3
# Si number density = 20.596121 Si / 1000 Ang^3
#
#
#
# Elastic Constant Matrix: (Units=GPa)
#
#
# Indices 1 2 3 4 5 6 
#
# 1 77.5967 37.1994 24.5482 -9.0959 -14.0962 -9.8950
# 2 37.1994 190.6152 28.8833 5.7128 -33.4544 0.5081
# 3 24.5482 28.8833 47.1126 -5.3987 -12.8930 -0.5693
# 4 -9.0959 5.7128 -5.3987 23.7582 -0.7992 -13.2125
# 5 -14.0962 -33.4544 -12.8930 -0.7992 28.8952 0.5677
# 6 -9.8950 0.5081 -0.5693 -13.2125 0.5677 32.2625
#
#
#
# Elastic Compliance Matrix: (Units=1/GPa)
#
#
# Indices 1 2 3 4 5 6 
#
# 1 0.019801 -0.002691 -0.005885 0.013378 0.004065 0.011419
# 2 -0.002691 0.007304 -0.001953 -0.004693 0.006202 -0.003006
# 3 -0.005885 -0.001953 0.028178 0.005296 0.007573 0.000759
# 4 0.013378 -0.004693 0.005296 0.067376 0.004695 0.031780
# 5 0.004065 0.006202 0.007573 0.004695 0.047233 0.002374
# 6 0.011419 -0.003006 0.000759 0.031780 0.002374 0.047532
#
#
# Mechanical properties :
#
#
# Convention : Reuss Voigt Hill
#
# Bulk Modulus (GPa) = 29.21691 55.17626 42.19659
# Shear Modulus (GPa) = 20.00875 31.96275 25.98575
#
# Velocity S-wave (km/s) = 3.12024 3.94367 3.55587
# Velocity P-wave (km/s) = 5.21514 6.89815 6.11482
#
# Compressibility (1/GPa) = 0.03422675
#
# Stress axis : x y z
#
# Youngs Moduli (GPa) = 50.50172 136.90427 35.48901
#
# Poissons Ratio (x) = 0.36836 0.20884
# Poissons Ratio (y) = 0.13588 0.06931
# Poissons Ratio (z) = 0.29719 0.26737
#
# Static dielectric constant tensor:
#      x y z
#    x 3.448950 0.163620 -0.355440 
#    y 0.163620 3.908090 0.001000 
#    z -0.355440 0.001000 3.730860 
# 
# 
# High freq. dielectric constant tensor:
#      x y z
#    x 1.769810 0.016970 -0.039170 
#    y 0.016970 1.818520 0.003060 
#    z -0.039170 0.003060 1.788280 
# 
# From -- ./inp_files/454781.got.cif
#   From: 2010.06.25/outbox.cif.g09.slc.cpg/sg2_228_cif.got.tgz:454781.got - 2010.06.27 13:26:56.
