data_PCOD8043983
_publ_section_title
;
Structure prediction by ZEFSAII (Michael W. Deem and Ramdas Pophale) SiO2 
 PCOD8043983
Probable space group: P -1
;
_chemical_formula_sum "Si O2"
_cell_formula_units_Z 16
_cell_length_a 12.271686
_cell_length_b 9.421503
_cell_length_c 11.595504
_cell_angle_alpha 132.365733
_cell_angle_beta 112.614665
_cell_angle_gamma 94.177581
_cell_volume 798.768044
_symmetry_space_group_name_H-M "P -1"
_symmetry_group_IT_number 2
_symmetry_cell_setting 'triclinic'
loop_
_space_group_symop_operation_xyz
x,y,z
-x,-y,-z
loop_
_atom_site_type_symbol
_atom_site_label
_atom_site_fract_x
_atom_site_fract_y
_atom_site_fract_z
Si Si1 0.640383 0.032203 0.215319
Si Si2 0.480801 0.394637 0.558610
Si Si3 0.622021 0.339632 0.193864
Si Si4 0.035610 0.351551 0.013197
Si Si5 0.136363 0.093476 0.755773
Si Si6 0.843611 0.760048 0.408659
Si Si7 0.291551 0.718964 0.386511
Si Si8 0.755784 0.024936 0.684903
O O1 0.668766 0.238223 0.260076
O O2 0.662967 0.103916 0.396721
O O3 0.742928 0.946173 0.171909
O O4 0.484121 0.845668 0.036582
O O5 0.500000 0.500000 0.500000
O O6 0.452915 0.534666 0.717344
O O7 0.613806 0.389527 0.647975
O O8 0.357388 0.144858 0.368126
O O9 0.757747 0.505513 0.271885
O O10 0.111474 0.239208 0.917876
O O11 0.139916 0.516255 0.241440
O O12 0.888756 0.164702 0.896659
O O13 0.000000 0.500000 0.000000
O O14 0.181324 0.230532 0.731188
O O15 0.002806 0.856205 0.551699
O O16 0.793169 0.907488 0.534929
O O17 0.295291 0.826526 0.322385
#
# Coordination Sequence:
#
# PCOD8043983 Si02
#       8
#     2   2   2   2   2   2   2   2
#     4  11  22  38  59  81 116 151 192 232 276 337
#     4  11  21  38  60  82 116 155 187 229 285 331
#     4  10  23  41  55  81 117 153 189 233 280 333
#     4   9  20  37  60  87 116 142 182 237 284 331
#     4  10  19  37  62  86 110 147 187 233 282 335
#     4   9  19  36  62  84 111 146 189 232 280 335
#     4  11  20  38  58  87 112 149 192 231 282 330
#     4   9  19  38  59  86 114 145 189 235 276 335
#
# _framework density 20.030847000000001
#
# number of rings (size 3 to 8) (size 9 to 14) (size 15 to 20)
#    0.000    2.000    2.500    1.125    1.750    1.000 
#    6.750    0.625    2.750    0.000    0.000    0.000 
#    0.000    0.000    0.000    0.000    0.000    0.000 
#
# Total GULP energy -198351.782356 kJ/mol
# GULP energy per Si atom -12396.986397 kJ/mol
# Density = 1.998526 g / cm^3
# Si number density = 20.030847 Si / 1000 Ang^3
#
#
#
# Elastic Constant Matrix: (Units=GPa)
#
#
# Indices 1 2 3 4 5 6 
#
# 1 64.7486 42.5646 21.2938 2.3785 14.6659 -7.4198
# 2 42.5646 102.2476 37.2912 20.2854 21.1941 8.2025
# 3 21.2938 37.2912 105.9028 14.1443 19.2371 16.3742
# 4 2.3785 20.2854 14.1443 23.0905 4.3534 3.4503
# 5 14.6659 21.1941 19.2371 4.3534 31.7075 8.8321
# 6 -7.4198 8.2025 16.3742 3.4503 8.8321 38.6725
#
#
#
# Elastic Compliance Matrix: (Units=1/GPa)
#
#
# Indices 1 2 3 4 5 6 
#
# 1 0.025601 -0.010648 -0.002682 0.008276 -0.006771 0.009114
# 2 -0.010648 0.018341 -0.001384 -0.012956 -0.003789 -0.003326
# 3 -0.002682 -0.001384 0.012407 -0.004810 -0.003520 -0.004241
# 4 0.008276 -0.012956 -0.004810 0.056653 -0.000421 0.001414
# 5 -0.006771 -0.003789 -0.003520 -0.000421 0.041765 -0.008506
# 6 0.009114 -0.003326 -0.004241 0.001414 -0.008506 0.031924
#
#
# Mechanical properties :
#
#
# Convention : Reuss Voigt Hill
#
# Bulk Modulus (GPa) = 37.14991 52.79981 44.97486
# Shear Modulus (GPa) = 22.21299 30.14406 26.17852
#
# Velocity S-wave (km/s) = 3.33369 3.88349 3.61904
# Velocity P-wave (km/s) = 5.77967 6.82093 6.32178
#
# Compressibility (1/GPa) = 0.02691797
#
# Stress axis : x y z
#
# Youngs Moduli (GPa) = 39.06132 54.52413 80.59996
#
# Poissons Ratio (x) = 0.58060 0.21621
# Poissons Ratio (y) = 0.41594 0.11157
# Poissons Ratio (z) = 0.10478 0.07547
#
# Static dielectric constant tensor:
#      x y z
#    x 3.675960 -0.125030 0.278840 
#    y -0.125030 3.552930 0.277760 
#    z 0.278840 0.277760 3.903370 
# 
# 
# High freq. dielectric constant tensor:
#      x y z
#    x 1.781060 -0.016630 0.015470 
#    y -0.016630 1.767830 0.015710 
#    z 0.015470 0.015710 1.788840 
# 
# From -- ./inp_files/187544.got.cif
#   From: 2010.06.25/outbox.cif.g09.slc.cpg/sg2_94_cif.got.tgz:187544.got - 2010.06.27 13:26:56.
