data_PCOD8043589
_publ_section_title
;
Structure prediction by ZEFSAII (Michael W. Deem and Ramdas Pophale) SiO2 
 PCOD8043589
Probable space group: P -1
;
_chemical_formula_sum "Si O2"
_cell_formula_units_Z 16
_cell_length_a 8.953082
_cell_length_b 11.540950
_cell_length_c 9.620144
_cell_angle_alpha 103.796751
_cell_angle_beta 97.684724
_cell_angle_gamma 54.743737
_cell_volume 788.267460
_symmetry_space_group_name_H-M "P -1"
_symmetry_group_IT_number 2
_symmetry_cell_setting 'triclinic'
loop_
_space_group_symop_operation_xyz
x,y,z
-x,-y,-z
loop_
_atom_site_type_symbol
_atom_site_label
_atom_site_fract_x
_atom_site_fract_y
_atom_site_fract_z
Si Si1 0.826704 0.939251 0.739280
Si Si2 0.120600 0.045285 0.952684
Si Si3 0.813392 0.481591 0.373371
Si Si4 0.514326 0.497058 0.163295
Si Si5 0.166944 0.766043 0.553228
Si Si6 0.769744 0.710908 0.627163
Si Si7 0.827223 0.196876 0.740424
Si Si8 0.437347 0.768929 0.760968
O O1 0.740389 0.864546 0.625068
O O2 0.033456 0.868673 0.690424
O O3 0.735447 0.109382 0.745779
O O4 0.821198 0.901360 0.890995
O O5 0.985262 0.168525 0.859409
O O6 0.304577 0.922246 0.863724
O O7 0.000000 0.000000 0.000000
O O8 0.690059 0.494432 0.233092
O O9 0.801297 0.390762 0.472640
O O10 0.741266 0.640678 0.468152
O O11 0.022406 0.399396 0.322657
O O12 0.332339 0.635336 0.243132
O O13 0.529347 0.354043 0.166578
O O14 0.500000 0.500000 0.000000
O O15 0.087205 0.839942 0.414767
O O16 0.353073 0.755593 0.602607
O O17 0.629062 0.744240 0.741753
#
# Coordination Sequence:
#
# PCOD8043589 Si02
#       8
#     2   2   2   2   2   2   2   2
#     4  10  21  37  61  84 123 166 193 240 311 358
#     4  10  20  37  60  88 121 156 200 247 303 356
#     4   9  21  41  61  87 120 167 199 244 306 358
#     4  11  23  38  66  90 119 153 209 257 300 346
#     4  10  19  36  65  87 115 152 215 251 287 348
#     4  10  21  38  64  82 124 166 200 236 301 377
#     4  11  21  34  63  96 116 150 209 262 293 345
#     4  11  21  38  63  90 115 161 206 248 296 358
#
# _framework density 20.297678000000001
#
# number of rings (size 3 to 8) (size 9 to 14) (size 15 to 20)
#    0.000    1.750    2.500    3.375    3.500    2.500 
#    0.000    3.125   13.750    0.000    0.000    0.000 
#    0.000    0.000    0.000    0.000    0.000    0.000 
#
# Total GULP energy -198287.998968 kJ/mol
# GULP energy per Si atom -12392.999936 kJ/mol
# Density = 2.025148 g / cm^3
# Si number density = 20.297678 Si / 1000 Ang^3
#
#
#
# Elastic Constant Matrix: (Units=GPa)
#
#
# Indices 1 2 3 4 5 6 
#
# 1 103.7338 21.6972 42.9110 2.9628 -4.3209 -9.9335
# 2 21.6972 60.3231 29.8218 -6.4947 4.1516 -10.9570
# 3 42.9110 29.8218 121.0299 -19.2662 -1.1336 -5.3882
# 4 2.9628 -6.4947 -19.2662 37.1735 -5.2328 -0.9901
# 5 -4.3209 4.1516 -1.1336 -5.2328 22.2374 11.8195
# 6 -9.9335 -10.9570 -5.3882 -0.9901 11.8195 29.3340
#
#
#
# Elastic Compliance Matrix: (Units=1/GPa)
#
#
# Indices 1 2 3 4 5 6 
#
# 1 0.012188 -0.002348 -0.004184 -0.003398 0.000681 0.002092
# 2 -0.002348 0.022278 -0.004146 0.000745 -0.010511 0.011025
# 3 -0.004184 -0.004146 0.011674 0.006024 0.002929 -0.001798
# 4 -0.003398 0.000745 0.006024 0.031489 0.007926 -0.001897
# 5 0.000681 -0.010511 0.002929 0.007926 0.064409 -0.028842
# 6 0.002092 0.011025 -0.001798 -0.001897 -0.028842 0.050144
#
#
# Mechanical properties :
#
#
# Convention : Reuss Voigt Hill
#
# Bulk Modulus (GPa) = 40.34968 52.66076 46.50522
# Shear Modulus (GPa) = 22.54309 30.45944 26.50127
#
# Velocity S-wave (km/s) = 3.33622 3.87801 3.61727
# Velocity P-wave (km/s) = 5.89598 6.78620 6.35669
#
# Compressibility (1/GPa) = 0.02478334
#
# Stress axis : x y z
#
# Youngs Moduli (GPa) = 82.04932 44.88799 85.66266
#
# Poissons Ratio (x) = 0.10540 0.35842
# Poissons Ratio (y) = 0.19266 0.35514
# Poissons Ratio (z) = 0.34330 0.18610
#
# Static dielectric constant tensor:
#      x y z
#    x 3.633760 0.894690 0.791180 
#    y 0.894690 54.283800 34.795740 
#    z 0.791180 34.795740 27.776000 
# 
# 
# High freq. dielectric constant tensor:
#      x y z
#    x 1.774920 -0.003030 0.002560 
#    y -0.003030 1.788130 0.018650 
#    z 0.002560 0.018650 1.794560 
# 
# From -- ./inp_files/188530.got.cif
#   From: 2010.06.25/outbox.cif.g09.slc.cpg/sg2_95_cif.got.tgz:188530.got - 2010.06.27 13:26:56.
