data_PCOD8043271
_publ_section_title
;
Structure prediction by ZEFSAII (Michael W. Deem and Ramdas Pophale) SiO2 
 PCOD8043271
Probable space group: P -1
;
_chemical_formula_sum "Si O2"
_cell_formula_units_Z 16
_cell_length_a 9.424310
_cell_length_b 14.425749
_cell_length_c 12.953388
_cell_angle_alpha 56.225047
_cell_angle_beta 35.006644
_cell_angle_gamma 70.324802
_cell_volume 813.339746
_symmetry_space_group_name_H-M "P -1"
_symmetry_group_IT_number 2
_symmetry_cell_setting 'triclinic'
loop_
_space_group_symop_operation_xyz
x,y,z
-x,-y,-z
loop_
_atom_site_type_symbol
_atom_site_label
_atom_site_fract_x
_atom_site_fract_y
_atom_site_fract_z
Si Si1 0.318350 0.467596 0.921753
Si Si2 0.384877 0.322602 0.158552
Si Si3 0.045815 0.662950 0.443288
Si Si4 0.890267 0.348531 0.962671
Si Si5 0.094874 0.232991 0.083490
Si Si6 0.430159 0.870980 0.163732
Si Si7 0.798770 0.552755 0.464027
Si Si8 0.960298 0.124788 0.435839
O O1 0.122924 0.540544 0.029666
O O2 0.524235 0.553298 0.673631
O O3 0.443664 0.427025 0.975730
O O4 0.184892 0.359143 0.000395
O O5 0.647456 0.304670 0.059664
O O6 0.227687 0.349537 0.333419
O O7 0.221546 0.209138 0.269333
O O8 0.225887 0.792055 0.256681
O O9 0.187140 0.579774 0.472245
O O10 0.016811 0.624437 0.366001
O O11 0.920710 0.243362 0.081931
O O12 0.148308 0.387523 0.716022
O O13 0.923273 0.150121 0.321745
O O14 0.322034 0.178309 0.944195
O O15 0.293142 0.863190 0.361539
O O16 0.500000 0.000000 0.000000
O O17 0.000000 0.000000 0.500000
#
# Coordination Sequence:
#
# PCOD8043271 Si02
#       8
#     2   2   2   2   2   2   2   2
#     4  11  21  39  58  86 123 164 201 233 287 361
#     4  10  20  37  62  86 119 153 204 243 281 358
#     4  10  19  36  60  91 111 156 208 244 284 347
#     4  12  24  37  55  92 129 157 191 240 306 356
#     4  11  25  40  58  89 125 156 192 250 304 353
#     4  11  22  40  67  87 113 151 209 252 289 353
#     4  11  21  32  60  86 122 155 196 244 293 346
#     4  10  22  41  69  87 106 155 208 247 295 348
#
# _framework density 19.671976999999998
#
# number of rings (size 3 to 8) (size 9 to 14) (size 15 to 20)
#    0.000    1.250    5.000    2.250    1.750    1.500 
#    0.000    0.625    0.000    1.500    0.000    0.000 
#    0.000    0.000    0.000    0.000    0.000    0.000 
#
# Total GULP energy -198385.211563 kJ/mol
# GULP energy per Si atom -12399.075723 kJ/mol
# Density = 1.962720 g / cm^3
# Si number density = 19.671977 Si / 1000 Ang^3
#
#
#
# Elastic Constant Matrix: (Units=GPa)
#
#
# Indices 1 2 3 4 5 6 
#
# 1 79.2165 34.7400 51.1641 0.4951 20.7494 -20.5863
# 2 34.7400 92.7275 53.2614 1.7216 11.8535 -2.4896
# 3 51.1641 53.2614 144.8352 8.2557 21.6732 -5.6008
# 4 0.4951 1.7216 8.2557 36.0892 0.6883 -0.7248
# 5 20.7494 11.8535 21.6732 0.6883 27.6043 -3.5944
# 6 -20.5863 -2.4896 -5.6008 -0.7248 -3.5944 21.0851
#
#
#
# Elastic Compliance Matrix: (Units=1/GPa)
#
#
# Indices 1 2 3 4 5 6 
#
# 1 0.026993 -0.005124 -0.005217 0.001732 -0.011103 0.022530
# 2 -0.005124 0.014770 -0.003783 0.000147 -0.000081 -0.004272
# 3 -0.005217 -0.003783 0.010607 -0.002181 -0.003162 -0.003337
# 4 0.001732 0.000147 -0.002181 0.028221 -0.000085 0.002085
# 5 -0.011103 -0.000081 -0.003162 -0.000085 0.046603 -0.003748
# 6 0.022530 -0.004272 -0.003337 0.002085 -0.003748 0.067466
#
#
# Mechanical properties :
#
#
# Convention : Reuss Voigt Hill
#
# Bulk Modulus (GPa) = 41.45691 66.12336 53.79014
# Shear Modulus (GPa) = 21.64989 28.79664 25.22326
#
# Velocity S-wave (km/s) = 3.32104 3.83017 3.58466
# Velocity P-wave (km/s) = 5.98545 7.29700 6.67352
#
# Compressibility (1/GPa) = 0.02412143
#
# Stress axis : x y z
#
# Youngs Moduli (GPa) = 37.04685 67.70653 94.27801
#
# Poissons Ratio (x) = 0.34693 0.49186
# Poissons Ratio (y) = 0.18983 0.35663
# Poissons Ratio (z) = 0.19328 0.25612
#
# Static dielectric constant tensor:
#      x y z
#    x 3.381310 0.120730 0.162040 
#    y 0.120730 3.618610 0.171870 
#    z 0.162040 0.171870 3.837950 
# 
# 
# High freq. dielectric constant tensor:
#      x y z
#    x 1.738370 0.012620 0.007730 
#    y 0.012620 1.763920 0.017720 
#    z 0.007730 0.017720 1.779630 
# 
# From -- ./inp_files/258345.got.cif
#   From: 2010.06.25/outbox.cif.g09.slc.cpg/sg2_130_cif.got.tgz:258345.got - 2010.06.27 13:26:56.
