data_PCOD8043417
_publ_section_title
;
Structure prediction by ZEFSAII (Michael W. Deem and Ramdas Pophale) SiO2 
 PCOD8043417
Probable space group: P -1
;
_chemical_formula_sum "Si O2"
_cell_formula_units_Z 16
_cell_length_a 20.426326
_cell_length_b 5.280376
_cell_length_c 10.044317
_cell_angle_alpha 57.642299
_cell_angle_beta 57.015188
_cell_angle_gamma 79.632106
_cell_volume 758.089913
_symmetry_space_group_name_H-M "P -1"
_symmetry_group_IT_number 2
_symmetry_cell_setting 'triclinic'
loop_
_space_group_symop_operation_xyz
x,y,z
-x,-y,-z
loop_
_atom_site_type_symbol
_atom_site_label
_atom_site_fract_x
_atom_site_fract_y
_atom_site_fract_z
Si Si1 0.088304 0.480340 0.949110
Si Si2 0.674107 0.620889 0.590168
Si Si3 0.601176 0.923639 0.821526
Si Si4 0.565811 0.798438 0.453506
Si Si5 0.145735 0.175050 0.717257
Si Si6 0.538572 0.822682 0.193504
Si Si7 0.911549 0.878895 0.679362
Si Si8 0.911888 0.515389 0.544864
O O1 0.128309 0.286203 0.852151
O O2 0.137884 0.813475 0.818866
O O3 0.088584 0.312710 0.134576
O O4 0.000000 0.500000 0.000000
O O5 0.645555 0.267125 0.692564
O O6 0.640969 0.845171 0.456151
O O7 0.767724 0.675998 0.464987
O O8 0.648724 0.715759 0.738263
O O9 0.512905 0.910441 0.859736
O O10 0.591572 0.768083 0.022597
O O11 0.594337 0.882316 0.246096
O O12 0.527557 0.453886 0.614481
O O13 0.500000 0.000000 0.500000
O O14 0.084594 0.290967 0.649144
O O15 0.867448 0.673058 0.666920
O O16 0.867373 0.170981 0.667641
O O17 0.000000 0.000000 0.500000
O O18 0.000000 0.500000 0.500000
#
# Coordination Sequence:
#
# PCOD8043417 Si02
#       8
#     2   2   2   2   2   2   2   2
#     4  12  23  41  68  95 119 160 216 260 308 381
#     4  11  24  41  60  87 131 165 199 254 319 371
#     4  10  21  38  62  90 122 162 211 253 303 361
#     4  10  19  36  62  89 123 166 210 253 307 354
#     4  12  25  42  64  93 129 165 205 261 325 374
#     4   9  20  34  61  94 117 159 218 263 287 357
#     4  10  20  36  60  89 117 146 193 257 303 353
#     4  10  19  37  60  84 114 153 197 244 297 362
#
# _framework density 21.105675000000002
#
# number of rings (size 3 to 8) (size 9 to 14) (size 15 to 20)
#    0.000    1.500    1.250    5.625    1.750    1.500 
#    0.000    3.750    0.000    0.000    0.000    0.000 
#    0.000    0.000    0.000    0.000    0.000    0.000 
#
# Total GULP energy -198324.727276 kJ/mol
# GULP energy per Si atom -12395.295455 kJ/mol
# Density = 2.105764 g / cm^3
# Si number density = 21.105675 Si / 1000 Ang^3
#
#
#
# Elastic Constant Matrix: (Units=GPa)
#
#
# Indices 1 2 3 4 5 6 
#
# 1 58.6701 16.8938 45.9005 5.6447 15.9664 4.9391
# 2 16.8938 121.4019 22.2653 10.5940 16.9629 22.3609
# 3 45.9005 22.2653 119.3738 12.2936 34.1099 11.3615
# 4 5.6447 10.5940 12.2936 37.6259 -2.9364 7.2028
# 5 15.9664 16.9629 34.1099 -2.9364 45.2217 2.4151
# 6 4.9391 22.3609 11.3615 7.2028 2.4151 24.9912
#
#
#
# Elastic Compliance Matrix: (Units=1/GPa)
#
#
# Indices 1 2 3 4 5 6 
#
# 1 0.024843 -0.001749 -0.008803 -0.000673 -0.001573 0.001003
# 2 -0.001749 0.010571 0.000684 -0.001558 -0.003504 -0.008637
# 3 -0.008803 0.000684 0.014732 -0.003620 -0.008297 -0.003725
# 4 -0.000673 -0.001558 -0.003620 0.029904 0.005815 -0.006008
# 5 -0.001573 -0.003504 -0.008297 0.005815 0.030480 0.002597
# 6 0.001003 -0.008637 -0.003725 -0.006008 0.002597 0.050718
#
#
# Mechanical properties :
#
#
# Convention : Reuss Voigt Hill
#
# Bulk Modulus (GPa) = 32.88180 52.17389 42.52785
# Shear Modulus (GPa) = 26.16139 35.86016 31.01078
#
# Velocity S-wave (km/s) = 3.52453 4.12646 3.83732
# Velocity P-wave (km/s) = 5.67244 6.89039 6.31087
#
# Compressibility (1/GPa) = 0.03041196
#
# Stress axis : x y z
#
# Youngs Moduli (GPa) = 40.25201 94.59623 67.87726
#
# Poissons Ratio (x) = 0.16544 0.59753
# Poissons Ratio (y) = 0.07040 -0.04645
# Poissons Ratio (z) = 0.35434 -0.06474
#
# Static dielectric constant tensor:
#      x y z
#    x 3.347920 -1.529340 0.248950 
#    y -1.529340 -3.470620 -0.383170 
#    z 0.248950 -0.383170 3.750140 
# 
# 
# High freq. dielectric constant tensor:
#      x y z
#    x 1.804030 0.008050 0.034810 
#    y 0.008050 1.844760 0.004590 
#    z 0.034810 0.004590 1.821460 
# 
# From -- ./inp_files/122835.got.cif
#   From: 2010.06.25/outbox.cif.g09.slc.cpg/sg2_62_cif.got.tgz:122835.got - 2010.06.27 13:26:56.
