data_PCOD8043076
_publ_section_title
;
Structure prediction by ZEFSAII (Michael W. Deem and Ramdas Pophale) SiO2 
 PCOD8043076
Probable space group: P -1
;
_chemical_formula_sum "Si O2"
_cell_formula_units_Z 16
_cell_length_a 10.678348
_cell_length_b 12.500147
_cell_length_c 9.531675
_cell_angle_alpha 78.032257
_cell_angle_beta 136.536713
_cell_angle_gamma 82.835636
_cell_volume 781.296362
_symmetry_space_group_name_H-M "P -1"
_symmetry_group_IT_number 2
_symmetry_cell_setting 'triclinic'
loop_
_space_group_symop_operation_xyz
x,y,z
-x,-y,-z
loop_
_atom_site_type_symbol
_atom_site_label
_atom_site_fract_x
_atom_site_fract_y
_atom_site_fract_z
Si Si1 0.569347 0.685665 0.487928
Si Si2 0.168674 0.466950 0.031111
Si Si3 0.107746 0.108278 0.936130
Si Si4 0.949946 0.917028 0.779945
Si Si5 0.287083 0.678560 0.049839
Si Si6 0.286068 0.399187 0.654751
Si Si7 0.531299 0.951145 0.385018
Si Si8 0.042955 0.355200 0.698888
O O1 0.629528 0.625632 0.704711
O O2 0.373112 0.666252 0.283210
O O3 0.743612 0.627172 0.526726
O O4 0.515059 0.825329 0.410168
O O5 0.190080 0.585855 0.966102
O O6 0.135617 0.399611 0.889957
O O7 0.000000 0.500000 0.000000
O O8 0.017966 0.235693 0.751830
O O9 0.068343 0.127978 0.065520
O O10 0.991747 0.035303 0.792609
O O11 0.346089 0.040504 0.116456
O O12 0.748162 0.943944 0.517598
O O13 0.122794 0.813461 0.861098
O O14 0.476069 0.649287 0.105967
O O15 0.192806 0.328632 0.696383
O O16 0.172365 0.542529 0.547677
O O17 0.500000 0.000000 0.500000
#
# Coordination Sequence:
#
# PCOD8043076 Si02
#       8
#     2   2   2   2   2   2   2   2
#     4  10  20  37  57  89 123 156 197 256 307 353
#     4  12  20  33  60  93 116 153 206 253 306 361
#     4  10  20  37  57  88 122 159 203 249 309 362
#     4  10  20  34  62  90 123 157 197 258 312 360
#     4  10  21  37  58  88 122 158 205 250 311 363
#     4   9  23  41  59  86 119 170 199 250 316 359
#     4  10  19  36  57  89 123 156 198 250 304 362
#     4  11  22  41  62  85 124 164 207 249 308 369
#
# _framework density 20.478784999999998
#
# number of rings (size 3 to 8) (size 9 to 14) (size 15 to 20)
#    0.750    1.000    2.500    3.375    0.000    0.500 
#    2.250    2.500    0.000    1.500    0.000    0.000 
#    0.000    0.000    0.000    0.000    0.000    0.000 
#
# Total GULP energy -198299.071704 kJ/mol
# GULP energy per Si atom -12393.691982 kJ/mol
# Density = 2.043217 g / cm^3
# Si number density = 20.478785 Si / 1000 Ang^3
#
#
#
# Elastic Constant Matrix: (Units=GPa)
#
#
# Indices 1 2 3 4 5 6 
#
# 1 87.1124 30.6799 21.0549 -14.0446 15.0664 5.3687
# 2 30.6799 103.3564 18.0592 -21.3910 2.2947 18.2164
# 3 21.0549 18.0592 62.6022 -9.6686 21.4382 6.8551
# 4 -14.0446 -21.3910 -9.6686 34.3003 -1.1619 0.4097
# 5 15.0664 2.2947 21.4382 -1.1619 35.5380 -1.8065
# 6 5.3687 18.2164 6.8551 0.4097 -1.8065 27.1488
#
#
#
# Elastic Compliance Matrix: (Units=1/GPa)
#
#
# Indices 1 2 3 4 5 6 
#
# 1 0.014380 -0.003036 -0.001721 0.003356 -0.004790 -0.000741
# 2 -0.003036 0.013708 -0.001261 0.007082 0.000971 -0.008321
# 3 -0.001721 -0.001261 0.022662 0.004523 -0.012990 -0.005469
# 4 0.003356 0.007082 0.004523 0.036179 -0.003799 -0.007357
# 5 -0.004790 0.000971 -0.012990 -0.003799 0.038133 0.006170
# 6 -0.000741 -0.008321 -0.005469 -0.007357 0.006170 0.044466
#
#
# Mechanical properties :
#
#
# Convention : Reuss Voigt Hill
#
# Bulk Modulus (GPa) = 25.83007 43.62877 34.72942
# Shear Modulus (GPa) = 25.71122 31.61589 28.66355
#
# Velocity S-wave (km/s) = 3.54715 3.93343 3.74528
# Velocity P-wave (km/s) = 5.42373 6.47918 5.97481
#
# Compressibility (1/GPa) = 0.03871457
#
# Stress axis : x y z
#
# Youngs Moduli (GPa) = 69.54165 72.95224 44.12670
#
# Poissons Ratio (x) = 0.22150 0.07592
# Poissons Ratio (y) = 0.21115 0.05563
# Poissons Ratio (z) = 0.11965 0.09197
#
# Static dielectric constant tensor:
#      x y z
#    x 3.582080 -0.041510 0.415460 
#    y -0.041510 3.626840 0.003590 
#    z 0.415460 0.003590 4.009530 
# 
# 
# High freq. dielectric constant tensor:
#      x y z
#    x 1.769320 -0.003610 0.030800 
#    y -0.003610 1.805990 -0.004230 
#    z 0.030800 -0.004230 1.795680 
# 
# From -- ./inp_files/425715.got.cif
#   From: 2010.06.25/outbox.cif.g09.slc.cpg/sg2_213_cif.got.tgz:425715.got - 2010.06.27 13:26:56.
