data_PCOD8043242
_publ_section_title
;
Structure prediction by ZEFSAII (Michael W. Deem and Ramdas Pophale) SiO2 
 PCOD8043242
Probable space group: P -1
;
_chemical_formula_sum "Si O2"
_cell_formula_units_Z 16
_cell_length_a 9.460108
_cell_length_b 15.665632
_cell_length_c 12.036621
_cell_angle_alpha 62.079112
_cell_angle_beta 62.666054
_cell_angle_gamma 115.044100
_cell_volume 814.846062
_symmetry_space_group_name_H-M "P -1"
_symmetry_group_IT_number 2
_symmetry_cell_setting 'triclinic'
loop_
_space_group_symop_operation_xyz
x,y,z
-x,-y,-z
loop_
_atom_site_type_symbol
_atom_site_label
_atom_site_fract_x
_atom_site_fract_y
_atom_site_fract_z
Si Si1 0.282544 0.984626 0.211038
Si Si2 0.662146 0.384999 0.298881
Si Si3 0.896401 0.961653 0.349822
Si Si4 0.598133 0.441867 0.524640
Si Si5 0.965867 0.885717 0.015262
Si Si6 0.278156 0.968048 0.475675
Si Si7 0.125907 0.791896 0.178311
Si Si8 0.839559 0.276349 0.199673
O O1 0.122190 0.837384 0.273159
O O2 0.179651 0.043229 0.194458
O O3 0.217013 0.920185 0.398498
O O4 0.603748 0.137056 0.981091
O O5 0.360651 0.239736 0.440574
O O6 0.628585 0.389563 0.437825
O O7 0.784185 0.338588 0.263941
O O8 0.867922 0.565985 0.062382
O O9 0.882971 0.016819 0.433452
O O10 0.881152 0.029269 0.209947
O O11 0.500000 0.500000 0.500000
O O12 0.360673 0.282575 0.786085
O O13 0.889390 0.594359 0.386379
O O14 0.089273 0.855469 0.056945
O O15 0.000000 0.000000 0.000000
O O16 0.600847 0.144665 0.274428
O O17 0.147499 0.812124 0.677722
#
# Coordination Sequence:
#
# PCOD8043242 Si02
#       8
#     2   2   2   2   2   2   2   2
#     4  11  22  40  58  85 128 159 193 232 310 346
#     4  10  19  36  60  86 125 140 197 250 303 329
#     4  11  22  38  61  90 118 159 193 245 293 356
#     4  10  20  34  60  91 114 149 194 249 288 340
#     4  11  20  38  64  91 114 152 204 243 294 343
#     4  10  22  37  64  84 117 154 204 238 294 353
#     4  10  23  38  63  86 119 160 194 245 286 360
#     4   9  21  37  60  94 106 154 199 254 284 348
#
# _framework density 19.63561
#
# number of rings (size 3 to 8) (size 9 to 14) (size 15 to 20)
#    0.000    1.750    2.500    1.875    8.750    0.000 
#    0.000    1.250    8.250    0.000    0.000    0.000 
#    0.000    0.000    0.000    0.000    0.000    0.000 
#
# Total GULP energy -198345.652259 kJ/mol
# GULP energy per Si atom -12396.603266 kJ/mol
# Density = 1.959092 g / cm^3
# Si number density = 19.635610 Si / 1000 Ang^3
#
#
#
# Elastic Constant Matrix: (Units=GPa)
#
#
# Indices 1 2 3 4 5 6 
#
# 1 91.1381 38.8961 41.6734 -0.9555 -10.8059 2.1138
# 2 38.8961 90.5537 33.0007 8.1670 1.4177 1.5835
# 3 41.6734 33.0007 109.6115 -8.9475 -1.4116 -3.4995
# 4 -0.9555 8.1670 -8.9475 39.8620 -1.3354 4.4716
# 5 -10.8059 1.4177 -1.4116 -1.3354 25.9852 8.4365
# 6 2.1138 1.5835 -3.4995 4.4716 8.4365 21.8496
#
#
#
# Elastic Compliance Matrix: (Units=1/GPa)
#
#
# Indices 1 2 3 4 5 6 
#
# 1 0.016696 -0.005673 -0.004586 0.001470 0.008925 -0.005685
# 2 -0.005673 0.014851 -0.002652 -0.004066 -0.003983 0.001418
# 3 -0.004586 -0.002652 0.011952 0.002751 -0.001849 0.002701
# 4 0.001470 -0.004066 0.002751 0.027491 0.004607 -0.006812
# 5 0.008925 -0.003983 -0.001849 0.004607 0.049320 -0.020857
# 6 -0.005685 0.001418 0.002701 -0.006812 -0.020857 0.056095
#
#
# Mechanical properties :
#
#
# Convention : Reuss Voigt Hill
#
# Bulk Modulus (GPa) = 56.57390 57.60488 57.08939
# Shear Modulus (GPa) = 24.02463 29.38824 26.70644
#
# Velocity S-wave (km/s) = 3.50168 3.87289 3.69196
# Velocity P-wave (km/s) = 6.72484 7.02849 6.87834
#
# Compressibility (1/GPa) = 0.01767600
#
# Stress axis : x y z
#
# Youngs Moduli (GPa) = 59.89428 67.33636 83.66555
#
# Poissons Ratio (x) = 0.38200 0.38372
# Poissons Ratio (y) = 0.33978 0.22190
# Poissons Ratio (z) = 0.27470 0.17859
#
# Static dielectric constant tensor:
#      x y z
#    x 3.466990 0.105660 -0.118710 
#    y 0.105660 4.031200 -0.102540 
#    z -0.118710 -0.102540 4.461840 
# 
# 
# High freq. dielectric constant tensor:
#      x y z
#    x 1.738130 -0.010940 -0.014950 
#    y -0.010940 1.779680 0.004750 
#    z -0.014950 0.004750 1.772240 
# 
# From -- ./inp_files/186938.got.cif
#   From: 2010.06.25/outbox.cif.g09.slc.cpg/sg2_94_cif.got.tgz:186938.got - 2010.06.27 13:26:56.
