data_PCOD8043647
_publ_section_title
;
Structure prediction by ZEFSAII (Michael W. Deem and Ramdas Pophale) SiO2 
 PCOD8043647
Probable space group: P -1
;
_chemical_formula_sum "Si O2"
_cell_formula_units_Z 16
_cell_length_a 15.603364
_cell_length_b 8.204807
_cell_length_c 8.355416
_cell_angle_alpha 63.681517
_cell_angle_beta 132.348454
_cell_angle_gamma 111.454490
_cell_volume 704.969934
_symmetry_space_group_name_H-M "P -1"
_symmetry_group_IT_number 2
_symmetry_cell_setting 'triclinic'
loop_
_space_group_symop_operation_xyz
x,y,z
-x,-y,-z
loop_
_atom_site_type_symbol
_atom_site_label
_atom_site_fract_x
_atom_site_fract_y
_atom_site_fract_z
Si Si1 0.258322 0.440619 0.639569
Si Si2 0.100705 0.318711 0.753433
Si Si3 0.503987 0.086565 0.723263
Si Si4 0.963389 0.412958 0.828389
Si Si5 0.162309 0.910132 0.043160
Si Si6 0.911175 0.141386 0.372820
Si Si7 0.319631 0.062311 0.756930
Si Si8 0.396128 0.779597 0.509506
O O1 0.214284 0.441406 0.769650
O O2 0.141436 0.465855 0.388334
O O3 0.300329 0.243350 0.750799
O O4 0.358956 0.594894 0.642870
O O5 0.066797 0.424076 0.823708
O O6 0.986078 0.303687 0.495890
O O7 0.136487 0.118283 0.920478
O O8 0.384672 0.122167 0.647739
O O9 0.537537 0.249596 0.564394
O O10 0.484285 0.895165 0.687750
O O11 0.606074 0.068825 0.987819
O O12 0.922550 0.198135 0.888322
O O13 0.000000 0.500000 0.000000
O O14 0.292163 0.896796 0.275367
O O15 0.143764 0.808366 0.889998
O O16 0.805225 0.050576 0.390227
O O17 0.000000 0.000000 0.500000
#
# Coordination Sequence:
#
# PCOD8043647 Si02
#       8
#     2   2   2   2   2   2   2   2
#     4  11  23  40  61  93 130 163 206 266 316 377
#     4  11  22  40  63  91 130 177 211 244 315 387
#     4  10  23  43  67  89 120 170 218 268 302 381
#     4  11  25  38  55  93 136 167 204 257 315 373
#     4  10  20  39  63  89 125 167 211 254 302 384
#     4  10  19  36  68  91 122 166 211 254 296 383
#     4  11  22  41  67  94 120 166 224 254 314 371
#     4  10  22  42  63  93 126 160 212 267 327 357
#
# _framework density 22.696003000000001
#
# number of rings (size 3 to 8) (size 9 to 14) (size 15 to 20)
#    0.000    1.500    3.750    1.500    5.250    2.000 
#    0.000    0.000    0.000    0.000    0.000    0.000 
#    0.000    0.000    0.000    0.000    0.000    0.000 
#
# Total GULP energy -198226.048331 kJ/mol
# GULP energy per Si atom -12389.128021 kJ/mol
# Density = 2.264435 g / cm^3
# Si number density = 22.696003 Si / 1000 Ang^3
#
#
#
# Elastic Constant Matrix: (Units=GPa)
#
#
# Indices 1 2 3 4 5 6 
#
# 1 199.0279 50.2657 16.4220 0.7220 -17.5032 31.3256
# 2 50.2657 51.1915 12.3263 -3.5173 -6.8908 16.0361
# 3 16.4220 12.3263 48.7384 0.0317 -2.8654 1.5350
# 4 0.7220 -3.5173 0.0317 31.8529 -1.8338 -8.1868
# 5 -17.5032 -6.8908 -2.8654 -1.8338 28.4804 4.9065
# 6 31.3256 16.0361 1.5350 -8.1868 4.9065 41.1542
#
#
#
# Elastic Compliance Matrix: (Units=1/GPa)
#
#
# Indices 1 2 3 4 5 6 
#
# 1 0.007481 -0.005384 -0.000794 -0.001661 0.003859 -0.004357
# 2 -0.005384 0.029030 -0.005033 0.001739 0.004565 -0.007224
# 3 -0.000794 -0.005033 0.022017 -0.000111 0.000210 0.001697
# 4 -0.001661 0.001739 -0.000111 0.033497 0.000302 0.007219
# 5 0.003859 0.004565 0.000210 0.000302 0.040259 -0.009463
# 6 -0.004357 -0.007224 0.001697 0.007219 -0.009463 0.032931
#
#
# Mechanical properties :
#
#
# Convention : Reuss Voigt Hill
#
# Bulk Modulus (GPa) = 27.69618 50.77622 39.23620
# Shear Modulus (GPa) = 25.04104 34.96042 30.00073
#
# Velocity S-wave (km/s) = 3.32524 3.92902 3.63967
# Velocity P-wave (km/s) = 5.19351 6.55773 5.91508
#
# Compressibility (1/GPa) = 0.03610606
#
# Stress axis : x y z
#
# Youngs Moduli (GPa) = 133.67366 34.44683 45.41940
#
# Poissons Ratio (x) = 0.18547 0.03605
# Poissons Ratio (y) = 0.71974 0.22860
# Poissons Ratio (z) = 0.10610 0.17337
#
# Static dielectric constant tensor:
#      x y z
#    x 4.697930 0.366780 -0.278210 
#    y 0.366780 3.880320 0.078020 
#    z -0.278210 0.078020 4.225560 
# 
# 
# High freq. dielectric constant tensor:
#      x y z
#    x 1.915990 0.021930 -0.008580 
#    y 0.021930 1.874250 -0.008660 
#    z -0.008580 -0.008660 1.887780 
# 
# From -- ./inp_files/295015.got.cif
#   From: 2010.06.25/outbox.cif.g09.slc.cpg/sg2_148_cif.got.tgz:295015.got - 2010.06.27 13:26:56.
