data_PCOD8043889
_publ_section_title
;
Structure prediction by ZEFSAII (Michael W. Deem and Ramdas Pophale) SiO2 
 PCOD8043889
Probable space group: P -1
;
_chemical_formula_sum "Si O2"
_cell_formula_units_Z 16
_cell_length_a 13.744382
_cell_length_b 11.355167
_cell_length_c 10.021319
_cell_angle_alpha 82.606714
_cell_angle_beta 119.003518
_cell_angle_gamma 47.577019
_cell_volume 715.166499
_symmetry_space_group_name_H-M "P -1"
_symmetry_group_IT_number 2
_symmetry_cell_setting 'triclinic'
loop_
_space_group_symop_operation_xyz
x,y,z
-x,-y,-z
loop_
_atom_site_type_symbol
_atom_site_label
_atom_site_fract_x
_atom_site_fract_y
_atom_site_fract_z
Si Si1 0.966812 0.330001 0.546688
Si Si2 0.050307 0.805054 0.921758
Si Si3 0.812535 0.870761 0.551731
Si Si4 0.302951 0.252572 0.378457
Si Si5 0.894172 0.973405 0.085660
Si Si6 0.707324 0.811198 0.078342
Si Si7 0.485486 0.218173 0.736601
Si Si8 0.324808 0.349964 0.120314
O O1 0.047679 0.222285 0.469727
O O2 0.089056 0.336361 0.679011
O O3 0.716177 0.585201 0.326888
O O4 0.015583 0.180371 0.705516
O O5 0.065508 0.926458 0.868309
O O6 0.859456 0.914983 0.700138
O O7 0.263084 0.544270 0.053800
O O8 0.017493 0.823111 0.056004
O O9 0.848781 0.699701 0.647133
O O10 0.572834 0.109573 0.318760
O O11 0.378838 0.296818 0.510062
O O12 0.201622 0.400845 0.156569
O O13 0.500000 0.000000 0.500000
O O14 0.640751 0.190108 0.859936
O O15 0.759659 0.636437 0.072591
O O16 0.500000 0.000000 0.000000
O O17 0.645858 0.962420 0.902096
#
# Coordination Sequence:
#
# PCOD8043889 Si02
#       8
#     2   2   2   2   2   2   2   2
#     4  11  25  40  67  98 129 180 212 265 329 381
#     4  11  26  44  71  92 125 176 219 272 325 379
#     4  11  24  41  63 102 136 159 219 266 321 394
#     4  10  19  37  60  95 130 163 203 264 322 381
#     4  10  25  49  65  94 126 168 233 270 311 388
#     4  11  22  38  61  97 142 167 214 260 317 407
#     4  11  22  41  66  89 132 176 208 265 329 382
#     4  11  23  40  65  99 134 173 207 269 331 381
#
# _framework density 22.372413000000002
#
# number of rings (size 3 to 8) (size 9 to 14) (size 15 to 20)
#    0.000    1.250    3.750    2.250    5.250    3.000 
#    0.000    4.375    0.000    0.000    0.000    0.000 
#    0.000    0.000    0.000    0.000    0.000    0.000 
#
# Total GULP energy -198319.019471 kJ/mol
# GULP energy per Si atom -12394.938717 kJ/mol
# Density = 2.232149 g / cm^3
# Si number density = 22.372413 Si / 1000 Ang^3
#
#
#
# Elastic Constant Matrix: (Units=GPa)
#
#
# Indices 1 2 3 4 5 6 
#
# 1 56.5811 27.8679 15.2243 8.0618 2.4358 -7.8132
# 2 27.8679 108.3714 22.2185 1.3574 -7.9827 1.0022
# 3 15.2243 22.2185 67.8781 -0.6651 8.1830 3.7162
# 4 8.0618 1.3574 -0.6651 32.9826 -7.5732 8.1674
# 5 2.4358 -7.9827 8.1830 -7.5732 37.7103 5.3936
# 6 -7.8132 1.0022 3.7162 8.1674 5.3936 33.8684
#
#
#
# Elastic Compliance Matrix: (Units=1/GPa)
#
#
# Indices 1 2 3 4 5 6 
#
# 1 0.024343 -0.005900 -0.003493 -0.009272 -0.005248 0.009245
# 2 -0.005900 0.011641 -0.002840 0.002580 0.004368 -0.002712
# 3 -0.003493 -0.002840 0.017006 0.001070 -0.003524 -0.002285
# 4 -0.009272 0.002580 0.001070 0.038174 0.010468 -0.013206
# 5 -0.005248 0.004368 -0.003524 0.010468 0.031872 -0.008553
# 6 0.009245 -0.002712 -0.002285 -0.013206 -0.008553 0.036536
#
#
# Mechanical properties :
#
#
# Convention : Reuss Voigt Hill
#
# Bulk Modulus (GPa) = 35.05761 40.38355 37.72058
# Shear Modulus (GPa) = 25.83355 32.08026 28.95691
#
# Velocity S-wave (km/s) = 3.40178 3.79082 3.60156
# Velocity P-wave (km/s) = 5.57974 6.10330 5.84738
#
# Compressibility (1/GPa) = 0.02852448
#
# Stress axis : x y z
#
# Youngs Moduli (GPa) = 41.07949 85.90036 58.80330
#
# Poissons Ratio (x) = 0.50678 0.20541
# Poissons Ratio (y) = 0.24235 0.16701
# Poissons Ratio (z) = 0.14350 0.24397
#
# Static dielectric constant tensor:
#      x y z
#    x 4.409060 -0.090550 -0.197690 
#    y -0.090550 4.163240 0.039230 
#    z -0.197690 0.039230 4.331490 
# 
# 
# High freq. dielectric constant tensor:
#      x y z
#    x 1.867940 -0.018540 -0.000330 
#    y -0.018540 1.883430 0.002550 
#    z -0.000330 0.002550 1.891280 
# 
# From -- ./inp_files/451413.got.cif
#   From: 2010.06.25/outbox.cif.g09.slc.cpg/sg2_226_cif.got.tgz:451413.got - 2010.06.27 13:26:56.
