data_PCOD8043649
_publ_section_title
;
Structure prediction by ZEFSAII (Michael W. Deem and Ramdas Pophale) SiO2 
 PCOD8043649
Probable space group: P -1
;
_chemical_formula_sum "Si O2"
_cell_formula_units_Z 16
_cell_length_a 18.636389
_cell_length_b 22.005088
_cell_length_c 9.625868
_cell_angle_alpha 40.283704
_cell_angle_beta 37.446555
_cell_angle_gamma 19.148628
_cell_volume 785.667905
_symmetry_space_group_name_H-M "P -1"
_symmetry_group_IT_number 2
_symmetry_cell_setting 'triclinic'
loop_
_space_group_symop_operation_xyz
x,y,z
-x,-y,-z
loop_
_atom_site_type_symbol
_atom_site_label
_atom_site_fract_x
_atom_site_fract_y
_atom_site_fract_z
Si Si1 0.936303 0.994185 0.249910
Si Si2 0.653631 0.998773 0.654049
Si Si3 0.702241 0.367972 0.531775
Si Si4 0.499107 0.588141 0.742951
Si Si5 0.747450 0.598503 0.343424
Si Si6 0.511600 0.023142 0.286214
Si Si7 0.082853 0.246235 0.063895
Si Si8 0.197872 0.392147 0.056756
O O1 0.753703 0.187301 0.274397
O O2 0.832871 0.962354 0.426068
O O3 0.172880 0.815344 0.289725
O O4 0.000000 0.000000 0.000000
O O5 0.734323 0.878292 0.870356
O O6 0.395102 0.217657 0.691170
O O7 0.640512 0.943060 0.634910
O O8 0.500000 0.500000 0.500000
O O9 0.590128 0.495598 0.614277
O O10 0.908961 0.279747 0.289791
O O11 0.674841 0.546847 0.606876
O O12 0.500000 0.500000 0.000000
O O13 0.020620 0.427960 0.236724
O O14 0.696718 0.630152 0.201931
O O15 0.500000 0.000000 0.500000
O O16 0.412372 0.196836 0.143664
O O17 0.775131 0.854841 0.121271
O O18 0.928795 0.445078 0.937958
#
# Coordination Sequence:
#
# PCOD8043649 Si02
#       8
#     2   2   2   2   2   2   2   2
#     4  10  22  41  67  96 125 170 223 267 318 382
#     4  10  20  40  67  91 125 161 216 257 307 384
#     4  11  25  45  64  96 132 173 219 271 327 384
#     4  11  22  40  67  99 131 166 221 274 320 382
#     4  10  19  36  68  97 116 165 220 259 304 379
#     4  12  26  42  57  98 136 161 202 266 334 381
#     4  11  22  44  68  88 125 170 217 260 308 393
#     4  11  21  36  67  92 121 164 211 255 317 381
#
# _framework density 20.364839
#
# number of rings (size 3 to 8) (size 9 to 14) (size 15 to 20)
#    0.000    1.250    5.000    1.875    1.750    1.000 
#    6.750    0.000    0.000    0.000    0.000    0.000 
#    0.000    0.000    0.000    0.000    0.000    0.000 
#
# Total GULP energy -198309.335503 kJ/mol
# GULP energy per Si atom -12394.333469 kJ/mol
# Density = 2.031849 g / cm^3
# Si number density = 20.364839 Si / 1000 Ang^3
#
#
#
# Elastic Constant Matrix: (Units=GPa)
#
#
# Indices 1 2 3 4 5 6 
#
# 1 61.3914 38.8233 35.5356 -2.4848 12.6249 3.4941
# 2 38.8233 140.9299 57.8409 -15.0054 10.9965 21.4981
# 3 35.5356 57.8409 134.1066 0.3138 8.4102 11.6718
# 4 -2.4848 -15.0054 0.3138 36.1305 8.0497 -2.6818
# 5 12.6249 10.9965 8.4102 8.0497 27.4353 1.1982
# 6 3.4941 21.4981 11.6718 -2.6818 1.1982 28.3321
#
#
#
# Elastic Compliance Matrix: (Units=1/GPa)
#
#
# Indices 1 2 3 4 5 6 
#
# 1 0.022881 -0.004222 -0.003947 0.001890 -0.008292 0.002538
# 2 -0.004222 0.011101 -0.002980 0.004478 -0.002639 -0.006140
# 3 -0.003947 -0.002980 0.009888 -0.001839 0.000586 -0.001524
# 4 0.001890 0.004478 -0.001839 0.032321 -0.011614 0.000677
# 5 -0.008292 -0.002639 0.000586 -0.011614 0.044560 -0.000200
# 6 0.002538 -0.006140 -0.001524 0.000677 -0.000200 0.040342
#
#
# Mechanical properties :
#
#
# Convention : Reuss Voigt Hill
#
# Bulk Modulus (GPa) = 46.35613 66.75861 56.55737
# Shear Modulus (GPa) = 26.23538 31.99478 29.11508
#
# Velocity S-wave (km/s) = 3.59314 3.96798 3.78520
# Velocity P-wave (km/s) = 6.32665 7.33796 6.85099
#
# Compressibility (1/GPa) = 0.02157212
#
# Stress axis : x y z
#
# Youngs Moduli (GPa) = 43.70412 90.08125 101.13073
#
# Poissons Ratio (x) = 0.38032 0.39919
# Poissons Ratio (y) = 0.18452 0.30135
# Poissons Ratio (z) = 0.17251 0.26843
#
# Static dielectric constant tensor:
#      x y z
#    x 3.285430 0.052750 -0.126110 
#    y 0.052750 4.094590 0.003730 
#    z -0.126110 0.003730 3.767260 
# 
# 
# High freq. dielectric constant tensor:
#      x y z
#    x 1.746330 0.013760 -0.013950 
#    y 0.013760 1.824070 0.003340 
#    z -0.013950 0.003340 1.806390 
# 
# From -- ./inp_files/338075.got.cif
#   From: 2010.06.25/outbox.cif.g09.slc.cpg/sg2_170_cif.got.tgz:338075.got - 2010.06.27 13:26:56.
