data_PCOD8043138
_publ_section_title
;
Structure prediction by ZEFSAII (Michael W. Deem and Ramdas Pophale) SiO2 
 PCOD8043138
Probable space group: P -1
;
_chemical_formula_sum "Si O2"
_cell_formula_units_Z 14
_cell_length_a 8.134763
_cell_length_b 17.865679
_cell_length_c 12.268289
_cell_angle_alpha 29.779421
_cell_angle_beta 90.557207
_cell_angle_gamma 69.478969
_cell_volume 611.892025
_symmetry_space_group_name_H-M "P -1"
_symmetry_group_IT_number 2
_symmetry_cell_setting 'triclinic'
loop_
_space_group_symop_operation_xyz
x,y,z
-x,-y,-z
loop_
_atom_site_type_symbol
_atom_site_label
_atom_site_fract_x
_atom_site_fract_y
_atom_site_fract_z
Si Si1 0.936723 0.516787 0.217104
Si Si2 0.187950 0.500078 0.537565
Si Si3 0.828998 0.308762 0.351707
Si Si4 0.555626 0.790205 0.284760
Si Si5 0.879029 0.972659 0.870473
Si Si6 0.852139 0.900153 0.726233
Si Si7 0.294685 0.707593 0.862209
O O1 0.772145 0.552690 0.266493
O O2 0.948112 0.389130 0.280534
O O3 0.201135 0.384499 0.424606
O O4 0.817469 0.750429 0.877232
O O5 0.419292 0.316689 0.695417
O O6 0.000000 0.500000 0.500000
O O7 0.091127 0.734160 0.225170
O O8 0.970263 0.079694 0.702893
O O9 0.832069 0.288129 0.247927
O O10 0.556495 0.474961 0.180510
O O11 0.336311 0.863210 0.254292
O O12 0.500000 0.000000 0.000000
O O13 0.781034 0.954907 0.783726
O O14 0.127707 0.774240 0.878164
O O15 0.690830 0.120478 0.374767
#
# Coordination Sequence:
#
# PCOD8043138 Si02
#       7
#     2   2   2   2   2   2   2
#     4  11  21  37  60  92 123 150 201 247 288 348
#     4  10  19  36  58  89 121 152 198 237 282 364
#     4  10  23  38  60  90 119 156 198 249 298 350
#     4  11  19  36  62  85 119 163 194 232 287 354
#     4  11  20  38  64  85 122 164 191 232 304 357
#     4  10  19  38  66  83 115 161 198 247 291 357
#     4   9  21  42  60  85 117 158 202 242 306 349
#
# _framework density 22.879853000000001
#
# number of rings (size 3 to 8) (size 9 to 14) (size 15 to 20)
#    0.000    1.714    5.714    0.857    0.000    1.714 
#    0.000    9.286    0.000    0.000    0.000    0.000 
#    0.000    0.000    0.000    0.000    0.000    0.000 
#
# Total GULP energy -173554.419481 kJ/mol
# GULP energy per Si atom -12396.744249 kJ/mol
# Density = 2.282778 g / cm^3
# Si number density = 22.879853 Si / 1000 Ang^3
#
#
#
# Elastic Constant Matrix: (Units=GPa)
#
#
# Indices 1 2 3 4 5 6 
#
# 1 35.1729 25.1819 24.2661 -6.4201 -25.4385 9.9065
# 2 25.1819 86.8701 36.1166 -21.0160 -7.3397 -9.9908
# 3 24.2661 36.1166 116.0039 -15.7419 -40.7421 9.3232
# 4 -6.4201 -21.0160 -15.7419 33.0432 0.4901 -2.8568
# 5 -25.4385 -7.3397 -40.7421 0.4901 37.3915 -16.1332
# 6 9.9065 -9.9908 9.3232 -2.8568 -16.1332 41.9799
#
#
#
# Elastic Compliance Matrix: (Units=1/GPa)
#
#
# Indices 1 2 3 4 5 6 
#
# 1 0.089221 -0.024594 0.015334 0.007738 0.071479 -0.002317
# 2 -0.024594 0.022781 -0.007955 0.006748 -0.018236 0.006443
# 3 0.015334 -0.007955 0.019625 0.007033 0.031299 0.002637
# 4 0.007738 0.006748 0.007033 0.039801 0.016939 0.007436
# 5 0.071479 -0.018236 0.031299 0.016939 0.112713 0.016310
# 6 -0.002317 0.006443 0.002637 0.007436 0.016310 0.032089
#
#
# Mechanical properties :
#
#
# Convention : Reuss Voigt Hill
#
# Bulk Modulus (GPa) = 10.28838 45.46404 27.87621
# Shear Modulus (GPa) = 13.05289 32.64840 22.85065
#
# Velocity S-wave (km/s) = 2.39110 3.78160 3.16369
# Velocity P-wave (km/s) = 3.48276 6.24349 5.05524
#
# Compressibility (1/GPa) = 0.09719702
#
# Stress axis : x y z
#
# Youngs Moduli (GPa) = 11.20815 43.89699 50.95643
#
# Poissons Ratio (x) = 1.07959 -0.78136
# Poissons Ratio (y) = 0.27565 0.40535
# Poissons Ratio (z) = -0.17186 0.34919
#
# Static dielectric constant tensor:
#      x y z
#    x 3.577700 -0.298100 -0.258870 
#    y -0.298100 4.791250 -0.402680 
#    z -0.258870 -0.402680 4.307430 
# 
# 
# High freq. dielectric constant tensor:
#      x y z
#    x 1.855290 -0.013580 -0.033630 
#    y -0.013580 1.911610 -0.017870 
#    z -0.033630 -0.017870 1.909100 
# 
# From -- ./inp_files/213696.got.cif
#   From: 2010.06.25/outbox.cif.g09.slc.cpg/sg2_107_cif.got.tgz:213696.got - 2010.06.27 13:26:56.
