data_PCOD8043622
_publ_section_title
;
Structure prediction by ZEFSAII (Michael W. Deem and Ramdas Pophale) SiO2 
 PCOD8043622
Probable space group: P -1
;
_chemical_formula_sum "Si O2"
_cell_formula_units_Z 14
_cell_length_a 9.041672
_cell_length_b 5.293554
_cell_length_c 28.743787
_cell_angle_alpha 113.876805
_cell_angle_beta 29.770232
_cell_angle_gamma 122.248180
_cell_volume 572.108807
_symmetry_space_group_name_H-M "P -1"
_symmetry_group_IT_number 2
_symmetry_cell_setting 'triclinic'
loop_
_space_group_symop_operation_xyz
x,y,z
-x,-y,-z
loop_
_atom_site_type_symbol
_atom_site_label
_atom_site_fract_x
_atom_site_fract_y
_atom_site_fract_z
Si Si1 0.593882 0.783645 0.734326
Si Si2 0.121010 0.592375 0.256938
Si Si3 0.442956 0.300834 0.454596
Si Si4 0.751615 0.550197 0.106978
Si Si5 0.164485 0.032813 0.096587
Si Si6 0.792198 0.242015 0.467612
Si Si7 0.978999 0.566706 0.192426
O O1 0.361466 0.678998 0.835548
O O2 0.378823 0.692573 0.739263
O O3 0.868195 0.646949 0.645516
O O4 0.788719 0.142698 0.710022
O O5 0.428937 0.502554 0.162165
O O6 0.791511 0.316958 0.342503
O O7 0.039274 0.701590 0.237711
O O8 0.500000 0.500000 0.500000
O O9 0.276268 0.464073 0.477653
O O10 0.204447 0.948645 0.500916
O O11 0.936559 0.884107 0.102981
O O12 0.000000 0.500000 0.000000
O O13 0.014558 0.846796 0.170679
O O14 0.215703 0.383569 0.109385
O O15 0.500000 0.000000 0.000000
O O16 0.500000 0.000000 0.500000
#
# Coordination Sequence:
#
# PCOD8043622 Si02
#       7
#     2   2   2   2   2   2   2
#     4  11  24  44  67  96 138 177 218 283 334 391
#     4  12  24  42  72  94 136 178 226 274 332 404
#     4  10  20  36  64  99 124 172 217 270 330 387
#     4  11  25  42  70 100 131 182 230 268 337 403
#     4  11  24  47  64  94 138 171 221 290 325 385
#     4  10  19  36  66  92 129 169 216 264 334 387
#     4  11  27  43  65  99 131 177 221 272 340 390
#
# _framework density 24.470870999999999
#
# number of rings (size 3 to 8) (size 9 to 14) (size 15 to 20)
#    0.000    1.143    4.286    3.000    4.000    1.714 
#    0.000    1.429    0.000    0.000    0.000    0.000 
#    0.000    0.000    0.000    0.000    0.000    0.000 
#
# Total GULP energy -173461.146499 kJ/mol
# GULP energy per Si atom -12390.081893 kJ/mol
# Density = 2.441517 g / cm^3
# Si number density = 24.470871 Si / 1000 Ang^3
#
#
#
# Elastic Constant Matrix: (Units=GPa)
#
#
# Indices 1 2 3 4 5 6 
#
# 1 105.7439 14.7441 31.4844 3.0304 -8.1917 -3.9747
# 2 14.7441 67.2629 8.9601 -2.5658 -3.5148 -28.0728
# 3 31.4844 8.9601 156.3512 -0.1255 -23.0270 -11.4400
# 4 3.0304 -2.5658 -0.1255 24.6555 -10.9952 -2.7546
# 5 -8.1917 -3.5148 -23.0270 -10.9952 30.8218 2.1525
# 6 -3.9747 -28.0728 -11.4400 -2.7546 2.1525 43.4654
#
#
#
# Elastic Compliance Matrix: (Units=1/GPa)
#
#
# Indices 1 2 3 4 5 6 
#
# 1 0.010445 -0.002630 -0.001970 -0.001464 0.000579 -0.001383
# 2 -0.002630 0.021630 0.000835 0.005689 0.003433 0.014140
# 3 -0.001970 0.000835 0.007886 0.003560 0.006570 0.002335
# 4 -0.001464 0.005689 0.003560 0.051362 0.020774 0.006704
# 5 0.000579 0.003433 0.006570 0.020774 0.045094 0.003083
# 6 -0.001383 0.014140 0.002335 0.006704 0.003083 0.032900
#
#
# Mechanical properties :
#
#
# Convention : Reuss Voigt Hill
#
# Bulk Modulus (GPa) = 30.83448 48.85946 39.84697
# Shear Modulus (GPa) = 26.64434 38.06650 32.35542
#
# Velocity S-wave (km/s) = 3.30330 3.94837 3.64015
# Velocity P-wave (km/s) = 5.21315 6.38716 5.82979
#
# Compressibility (1/GPa) = 0.03243122
#
# Stress axis : x y z
#
# Youngs Moduli (GPa) = 95.74157 46.23165 126.80689
#
# Poissons Ratio (x) = 0.12159 0.24977
# Poissons Ratio (y) = 0.25181 -0.10587
# Poissons Ratio (z) = 0.18858 -0.03860
#
# Static dielectric constant tensor:
#      x y z
#    x 4.117830 0.381900 -0.126000 
#    y 0.381900 3.709280 -0.249150 
#    z -0.126000 -0.249150 4.465670 
# 
# 
# High freq. dielectric constant tensor:
#      x y z
#    x 1.970480 -0.012990 -0.016290 
#    y -0.012990 1.956360 -0.005210 
#    z -0.016290 -0.005210 1.969790 
# 
# From -- ./inp_files/39087.got.cif
#   From: 2010.06.25/outbox.cif.g09.slc.cpg/sg2_20_cif.got.tgz:39087.got - 2010.06.27 13:26:56.
