data_PCOD8043886
_publ_section_title
;
Structure prediction by ZEFSAII (Michael W. Deem and Ramdas Pophale) SiO2 
 PCOD8043886
Probable space group: P -1
;
_chemical_formula_sum "Si O2"
_cell_formula_units_Z 14
_cell_length_a 7.553667
_cell_length_b 11.338715
_cell_length_c 17.333500
_cell_angle_alpha 153.066798
_cell_angle_beta 113.807147
_cell_angle_gamma 56.542765
_cell_volume 545.650226
_symmetry_space_group_name_H-M "P -1"
_symmetry_group_IT_number 2
_symmetry_cell_setting 'triclinic'
loop_
_space_group_symop_operation_xyz
x,y,z
-x,-y,-z
loop_
_atom_site_type_symbol
_atom_site_label
_atom_site_fract_x
_atom_site_fract_y
_atom_site_fract_z
Si Si1 0.257119 0.294508 0.721266
Si Si2 0.521734 0.612173 0.748419
Si Si3 0.154340 0.143240 0.067812
Si Si4 0.950930 0.152653 0.357151
Si Si5 0.580500 0.122520 0.358225
Si Si6 0.692846 0.196067 0.672573
Si Si7 0.864212 0.796647 0.732071
O O1 0.480772 0.308939 0.754945
O O2 0.052011 0.614009 0.871964
O O3 0.261149 0.157101 0.725875
O O4 0.239334 0.103182 0.536689
O O5 0.669266 0.741143 0.810491
O O6 0.477250 0.399476 0.559661
O O7 0.658707 0.449696 0.754265
O O8 0.279106 0.854093 0.869423
O O9 0.094971 0.074110 0.104036
O O10 0.016822 0.092276 0.244228
O O11 0.709071 0.187808 0.349553
O O12 0.971629 0.444505 0.553616
O O13 0.108500 0.877703 0.277212
O O14 0.390038 0.069741 0.256875
#
# Coordination Sequence:
#
# PCOD8043886 Si02
#       7
#     2   2   2   2   2   2   2
#     4  10  20  36  65  90 126 160 221 259 307 371
#     4  10  23  38  66  88 132 164 211 256 328 370
#     4  11  22  42  60  95 131 165 204 269 317 380
#     4  11  21  36  64  95 129 158 212 265 315 359
#     4  11  21  41  69  96 121 167 216 264 309 375
#     4  10  19  37  60  95 120 167 215 262 301 380
#     4  11  23  38  64  97 128 163 212 264 312 379
#
# _framework density 25.657464000000001
#
# number of rings (size 3 to 8) (size 9 to 14) (size 15 to 20)
#    0.000    1.429    4.286    1.286    0.000    2.857 
#    0.000    0.714    3.143    2.571    0.000    0.000 
#    0.000    0.000    0.000    0.000    0.000    0.000 
#
# Total GULP energy -173673.701383 kJ/mol
# GULP energy per Si atom -12405.264384 kJ/mol
# Density = 2.559907 g / cm^3
# Si number density = 25.657464 Si / 1000 Ang^3
#
#
#
# Elastic Constant Matrix: (Units=GPa)
#
#
# Indices 1 2 3 4 5 6 
#
# 1 119.6654 55.0859 40.0651 -3.6913 -29.7345 23.2006
# 2 55.0859 161.4705 59.6766 11.2312 -19.2471 5.7142
# 3 40.0651 59.6766 97.5835 22.1653 -21.2560 -8.4342
# 4 -3.6913 11.2312 22.1653 37.9938 -9.5534 -2.5062
# 5 -29.7345 -19.2471 -21.2560 -9.5534 31.5800 -0.2941
# 6 23.2006 5.7142 -8.4342 -2.5062 -0.2941 43.1798
#
#
#
# Elastic Compliance Matrix: (Units=1/GPa)
#
#
# Indices 1 2 3 4 5 6 
#
# 1 0.016262 -0.002426 -0.004948 0.007815 0.012785 -0.008842
# 2 -0.002426 0.008649 -0.004276 -0.000344 -0.000001 -0.000696
# 3 -0.004948 -0.004276 0.017885 -0.008686 0.002204 0.006229
# 4 0.007815 -0.000344 -0.008686 0.034981 0.011850 -0.003739
# 5 0.012785 -0.000001 0.002204 0.011850 0.048720 -0.005419
# 6 -0.008842 -0.000696 0.006229 -0.003739 -0.005419 0.028965
#
#
# Mechanical properties :
#
#
# Convention : Reuss Voigt Hill
#
# Bulk Modulus (GPa) = 51.28746 76.48607 63.88676
# Shear Modulus (GPa) = 26.98896 37.47683 32.23290
#
# Velocity S-wave (km/s) = 3.24681 3.82600 3.54825
# Velocity P-wave (km/s) = 5.83853 7.02801 6.46070
#
# Compressibility (1/GPa) = 0.01949794
#
# Stress axis : x y z
#
# Youngs Moduli (GPa) = 61.49269 115.61549 55.91240
#
# Poissons Ratio (x) = 0.28048 0.27664
# Poissons Ratio (y) = 0.14918 0.23906
# Poissons Ratio (z) = 0.30425 0.49433
#
# Static dielectric constant tensor:
#      x y z
#    x 4.733840 0.258070 -0.163210 
#    y 0.258070 4.580970 0.178020 
#    z -0.163210 0.178020 4.245390 
# 
# 
# High freq. dielectric constant tensor:
#      x y z
#    x 2.043020 0.005080 -0.011510 
#    y 0.005080 2.043240 0.009730 
#    z -0.011510 0.009730 1.996570 
# 
# From -- ./inp_files/266143.got.cif
#   From: 2010.06.25/outbox.cif.g09.slc.cpg/sg2_134_cif.got.tgz:266143.got - 2010.06.27 13:26:56.
