data_PCOD8043378
_publ_section_title
;
Structure prediction by ZEFSAII (Michael W. Deem and Ramdas Pophale) SiO2 
 PCOD8043378
Probable space group: P -1
;
_chemical_formula_sum "Si O2"
_cell_formula_units_Z 16
_cell_length_a 9.513683
_cell_length_b 15.654412
_cell_length_c 20.086172
_cell_angle_alpha 151.844677
_cell_angle_beta 142.238408
_cell_angle_gamma 33.747154
_cell_volume 765.091847
_symmetry_space_group_name_H-M "P -1"
_symmetry_group_IT_number 2
_symmetry_cell_setting 'triclinic'
loop_
_space_group_symop_operation_xyz
x,y,z
-x,-y,-z
loop_
_atom_site_type_symbol
_atom_site_label
_atom_site_fract_x
_atom_site_fract_y
_atom_site_fract_z
Si Si1 0.356124 0.447788 0.658331
Si Si2 0.842500 0.966086 0.136631
Si Si3 0.597759 0.264522 0.863910
Si Si4 0.685901 0.779924 0.390244
Si Si5 0.718262 0.046547 0.899990
Si Si6 0.517274 0.773924 0.931837
Si Si7 0.223141 0.324754 0.402437
Si Si8 0.751291 0.345066 0.446510
O O1 0.362262 0.377869 0.688751
O O2 0.552603 0.542228 0.781825
O O3 0.395006 0.266192 0.495289
O O4 0.069190 0.632646 0.661889
O O5 0.150876 0.847708 0.166085
O O6 0.731009 0.059616 0.086935
O O7 0.733207 0.147327 0.275510
O O8 0.764977 0.789435 0.006679
O O9 0.375605 0.242291 0.724580
O O10 0.651398 0.164450 0.886969
O O11 0.500000 0.500000 0.000000
O O12 0.984529 0.733460 0.466394
O O13 0.500000 0.000000 0.500000
O O14 0.675065 0.848009 0.734717
O O15 0.509776 0.174525 0.964912
O O16 0.000000 0.000000 0.000000
O O17 0.225506 0.530655 0.521536
O O18 0.500000 0.500000 0.500000
#
# Coordination Sequence:
#
# PCOD8043378 Si02
#       8
#     2   2   2   2   2   2   2   2
#     4  10  19  36  61  95 121 174 226 269 334 404
#     4  11  23  42  67 100 139 176 224 285 346 403
#     4  12  26  43  65 100 138 181 230 277 347 419
#     4  11  23  41  70  93 135 182 223 280 347 408
#     4  12  22  39  65  98 134 173 233 286 330 404
#     4  11  22  39  68  98 134 171 224 287 338 393
#     4  10  20  34  64  93 127 161 225 284 322 386
#     4  11  23  41  70 102 132 173 232 284 339 404
#
# _framework density 20.912521999999999
#
# number of rings (size 3 to 8) (size 9 to 14) (size 15 to 20)
#    0.000    1.000    5.000    2.250    3.500    2.000 
#    0.000    2.500    0.000    2.250    0.000    0.000 
#    0.000    0.000    0.000    0.000    0.000    0.000 
#
# Total GULP energy -198306.453498 kJ/mol
# GULP energy per Si atom -12394.153344 kJ/mol
# Density = 2.086492 g / cm^3
# Si number density = 20.912522 Si / 1000 Ang^3
#
#
#
# Elastic Constant Matrix: (Units=GPa)
#
#
# Indices 1 2 3 4 5 6 
#
# 1 90.9379 39.5910 44.1713 -7.0642 -2.5331 2.8133
# 2 39.5910 86.9168 45.2123 -12.4750 -5.2713 2.0454
# 3 44.1713 45.2123 145.3993 -3.4875 -13.1414 8.7969
# 4 -7.0642 -12.4750 -3.4875 37.3793 6.1801 -7.5336
# 5 -2.5331 -5.2713 -13.1414 6.1801 43.1054 4.2935
# 6 2.8133 2.0454 8.7969 -7.5336 4.2935 39.1901
#
#
#
# Elastic Compliance Matrix: (Units=1/GPa)
#
#
# Indices 1 2 3 4 5 6 
#
# 1 0.014681 -0.005070 -0.002942 0.000971 -0.000808 0.000146
# 2 -0.005070 0.016219 -0.003478 0.004382 -0.000118 0.001154
# 3 -0.002942 -0.003478 0.009193 -0.001768 0.002687 -0.002305
# 4 0.000971 0.004382 -0.001768 0.030356 -0.004943 0.006475
# 5 -0.000808 -0.000118 0.002687 -0.004943 0.025087 -0.004238
# 6 0.000146 0.001154 -0.002305 0.006475 -0.004238 0.027672
#
#
# Mechanical properties :
#
#
# Convention : Reuss Voigt Hill
#
# Bulk Modulus (GPa) = 58.43888 64.57814 61.50851
# Shear Modulus (GPa) = 32.91774 36.88693 34.90234
#
# Velocity S-wave (km/s) = 3.97176 4.20440 4.08973
# Velocity P-wave (km/s) = 7.00273 7.38353 7.19565
#
# Compressibility (1/GPa) = 0.01711190
#
# Stress axis : x y z
#
# Youngs Moduli (GPa) = 68.11380 61.65721 108.77889
#
# Poissons Ratio (x) = 0.31261 0.32004
# Poissons Ratio (y) = 0.34534 0.37837
# Poissons Ratio (z) = 0.20040 0.21447
#
# Static dielectric constant tensor:
#      x y z
#    x 3.245100 0.155060 0.562670 
#    y 0.155060 3.577590 -0.040650 
#    z 0.562670 -0.040650 3.497450 
# 
# 
# High freq. dielectric constant tensor:
#      x y z
#    x 1.807570 0.020290 -0.005400 
#    y 0.020290 1.795110 -0.001930 
#    z -0.005400 -0.001930 1.841920 
# 
# From -- ./inp_files/561445.got.cif
#   From: 2010.06.25/outbox.cif.g09.slc.cpg/sg2_281_cif.got.tgz:561445.got - 2010.06.27 13:26:56.
