data_PCOD8043675
_publ_section_title
;
Structure prediction by ZEFSAII (Michael W. Deem and Ramdas Pophale) SiO2 
 PCOD8043675
Probable space group: P -1
;
_chemical_formula_sum "Si O2"
_cell_formula_units_Z 16
_cell_length_a 15.492755
_cell_length_b 8.847004
_cell_length_c 11.802340
_cell_angle_alpha 60.782211
_cell_angle_beta 132.828177
_cell_angle_gamma 89.635481
_cell_volume 879.124511
_symmetry_space_group_name_H-M "P -1"
_symmetry_group_IT_number 2
_symmetry_cell_setting 'triclinic'
loop_
_space_group_symop_operation_xyz
x,y,z
-x,-y,-z
loop_
_atom_site_type_symbol
_atom_site_label
_atom_site_fract_x
_atom_site_fract_y
_atom_site_fract_z
Si Si1 0.572415 0.626848 0.000960
Si Si2 0.696560 0.593921 0.363483
Si Si3 0.003419 0.454130 0.650909
Si Si4 0.357530 0.420843 0.325009
Si Si5 0.775675 0.539437 0.027730
Si Si6 0.651179 0.318642 0.573037
Si Si7 0.744849 0.930493 0.911745
Si Si8 0.466141 0.079266 0.712786
O O1 0.683004 0.502362 0.046459
O O2 0.467676 0.867672 0.789781
O O3 0.500000 0.500000 0.000000
O O4 0.653631 0.632852 0.180758
O O5 0.853520 0.535539 0.538489
O O6 0.689013 0.399301 0.466812
O O7 0.597154 0.798068 0.271516
O O8 0.000000 0.500000 0.500000
O O9 0.068510 0.562591 0.744433
O O10 0.104882 0.207319 0.843559
O O11 0.231866 0.528623 0.081887
O O12 0.496142 0.368220 0.401414
O O13 0.324588 0.583706 0.331496
O O14 0.374331 0.219264 0.473231
O O15 0.706484 0.783661 0.865450
O O16 0.753085 0.077307 0.773121
O O17 0.619711 0.049097 0.848738
#
# Coordination Sequence:
#
# PCOD8043675 Si02
#       8
#     2   2   2   2   2   2   2   2
#     4  11  21  32  53  83 106 131 176 229 260 296
#     4  11  20  34  57  76 108 139 177 213 259 316
#     4  10  19  37  55  72 105 151 176 204 259 325
#     4   9  17  33  55  78 111 134 172 217 271 307
#     4   9  19  34  53  76 101 145 174 210 258 319
#     4   9  18  31  52  84 106 136 168 224 265 303
#     4   8  18  33  55  78 103 139 179 208 262 312
#     4   9  19  35  54  81 101 139 176 216 259 312
#
# _framework density 18.199925
#
# number of rings (size 3 to 8) (size 9 to 14) (size 15 to 20)
#    0.750    1.750    1.250    1.875    0.000    6.000 
#    0.000    2.500    2.750    1.500    0.000    0.000 
#    0.000    0.000    0.000    0.000    0.000    0.000 
#
# Total GULP energy -198211.404149 kJ/mol
# GULP energy per Si atom -12388.212759 kJ/mol
# Density = 1.815850 g / cm^3
# Si number density = 18.199925 Si / 1000 Ang^3
#
#
#
# Elastic Constant Matrix: (Units=GPa)
#
#
# Indices 1 2 3 4 5 6 
#
# 1 64.3346 18.1295 16.1372 -1.0074 -2.7253 11.6408
# 2 18.1295 43.4616 19.6523 6.3637 -2.7824 14.9177
# 3 16.1372 19.6523 57.9834 22.1289 -1.9078 3.6313
# 4 -1.0074 6.3637 22.1289 35.3448 -1.5193 -8.6891
# 5 -2.7253 -2.7824 -1.9078 -1.5193 30.4465 -3.8835
# 6 11.6408 14.9177 3.6313 -8.6891 -3.8835 32.8559
#
#
#
# Elastic Compliance Matrix: (Units=1/GPa)
#
#
# Indices 1 2 3 4 5 6 
#
# 1 0.018788 -0.005327 -0.004693 0.003821 0.000757 -0.002619
# 2 -0.005327 0.034132 -0.007172 -0.005293 0.000117 -0.014203
# 3 -0.004693 -0.007172 0.027516 -0.016733 -0.000519 -0.002609
# 4 0.003821 -0.005293 -0.016733 0.043584 0.002868 0.014764
# 5 0.000757 0.000117 -0.000519 0.002868 0.033603 0.004466
# 6 -0.002619 -0.014203 -0.002609 0.014764 0.004466 0.042533
#
#
# Mechanical properties :
#
#
# Convention : Reuss Voigt Hill
#
# Bulk Modulus (GPa) = 21.71516 30.40194 26.05855
# Shear Modulus (GPa) = 20.00881 27.18681 23.59781
#
# Velocity S-wave (km/s) = 3.31930 3.86915 3.60472
# Velocity P-wave (km/s) = 5.16214 6.05814 5.62800
#
# Compressibility (1/GPa) = 0.04605078
#
# Stress axis : x y z
#
# Youngs Moduli (GPa) = 53.22582 29.29837 36.34303
#
# Poissons Ratio (x) = 0.15608 0.17055
# Poissons Ratio (y) = 0.28355 0.26066
# Poissons Ratio (z) = 0.24977 0.21013
#
# Static dielectric constant tensor:
#      x y z
#    x 3.346940 0.139070 -0.163070 
#    y 0.139070 3.146520 -0.073940 
#    z -0.163070 -0.073940 3.346120 
# 
# 
# High freq. dielectric constant tensor:
#      x y z
#    x 1.699150 0.008680 -0.020850 
#    y 0.008680 1.681700 0.001880 
#    z -0.020850 0.001880 1.698460 
# 
# From -- ./inp_files/445684.got.cif
#   From: 2010.06.25/outbox.cif.g09.slc.cpg/sg2_223_cif.got.tgz:445684.got - 2010.06.27 13:26:56.
