data_PCOD8043144
_publ_section_title
;
Structure prediction by ZEFSAII (Michael W. Deem and Ramdas Pophale) SiO2 
 PCOD8043144
Probable space group: P -1
;
_chemical_formula_sum "Si O2"
_cell_formula_units_Z 16
_cell_length_a 11.901758
_cell_length_b 13.702492
_cell_length_c 7.635913
_cell_angle_alpha 107.797036
_cell_angle_beta 63.855644
_cell_angle_gamma 139.761395
_cell_volume 721.107644
_symmetry_space_group_name_H-M "P -1"
_symmetry_group_IT_number 2
_symmetry_cell_setting 'triclinic'
loop_
_space_group_symop_operation_xyz
x,y,z
-x,-y,-z
loop_
_atom_site_type_symbol
_atom_site_label
_atom_site_fract_x
_atom_site_fract_y
_atom_site_fract_z
Si Si1 0.455121 0.470209 0.310533
Si Si2 0.298604 0.168551 0.156184
Si Si3 0.064333 0.271754 0.333497
Si Si4 0.495318 0.854396 0.572457
Si Si5 0.852016 0.951120 0.434686
Si Si6 0.735055 0.204842 0.595279
Si Si7 0.807143 0.780676 0.075411
Si Si8 0.431152 0.844811 0.982273
O O1 0.500000 0.500000 0.500000
O O2 0.447785 0.346914 0.191082
O O3 0.262189 0.410436 0.363756
O O4 0.606948 0.618477 0.173284
O O5 0.146211 0.078367 0.373515
O O6 0.201979 0.135070 0.019516
O O7 0.395603 0.117617 0.046846
O O8 0.943131 0.302059 0.448040
O O9 0.080069 0.246461 0.104146
O O10 0.971915 0.124569 0.424560
O O11 0.638528 0.846044 0.466976
O O12 0.352031 0.764566 0.461529
O O13 0.609600 0.028430 0.586661
O O14 0.372897 0.770630 0.789016
O O15 0.909272 0.889844 0.235088
O O16 0.733992 0.257197 0.817502
O O17 0.500000 0.000000 0.000000
#
# Coordination Sequence:
#
# PCOD8043144 Si02
#       8
#     2   2   2   2   2   2   2   2
#     4  11  23  44  62  82 116 170 206 244 301 359
#     4  10  20  36  63  89 120 158 201 245 290 362
#     4  10  22  37  58  90 126 149 203 252 296 355
#     4   8  16  29  52  79 116 150 185 221 293 356
#     4  10  19  36  58  93 120 150 191 254 299 351
#     4   9  16  32  50  80 117 150 181 237 285 344
#     4  11  22  39  61  86 119 162 202 241 308 362
#     4   9  17  31  54  86 118 153 189 232 298 355
#
# _framework density 22.188086999999999
#
# number of rings (size 3 to 8) (size 9 to 14) (size 15 to 20)
#    0.000    2.250    1.250    3.375    0.000    3.000 
#    4.500    0.000    0.000    7.500    0.000    0.000 
#    0.000    0.000    0.000    0.000    0.000    0.000 
#
# Total GULP energy -198320.385117 kJ/mol
# GULP energy per Si atom -12395.024070 kJ/mol
# Density = 2.213759 g / cm^3
# Si number density = 22.188087 Si / 1000 Ang^3
#
#
#
# Elastic Constant Matrix: (Units=GPa)
#
#
# Indices 1 2 3 4 5 6 
#
# 1 106.0447 12.2247 67.1354 2.1239 0.9419 14.6593
# 2 12.2247 43.9150 25.7201 -7.4688 7.0212 7.8467
# 3 67.1354 25.7201 182.3457 -0.0683 2.8017 13.8955
# 4 2.1239 -7.4688 -0.0683 37.0712 2.0829 5.6784
# 5 0.9419 7.0212 2.8017 2.0829 40.3005 3.2365
# 6 14.6593 7.8467 13.8955 5.6784 3.2365 23.8488
#
#
#
# Elastic Compliance Matrix: (Units=1/GPa)
#
#
# Indices 1 2 3 4 5 6 
#
# 1 0.012940 -0.000161 -0.004334 0.000026 0.000463 -0.005445
# 2 -0.000161 0.028114 -0.003196 0.007201 -0.004369 -0.008411
# 3 -0.004334 -0.003196 0.007577 -0.000292 0.000199 -0.000657
# 4 0.000026 0.007201 -0.000292 0.029927 -0.002054 -0.009062
# 5 0.000463 -0.004369 0.000199 -0.002054 0.025815 -0.001977
# 6 -0.005445 -0.008411 -0.000657 -0.009062 -0.001977 0.050854
#
#
# Mechanical properties :
#
#
# Convention : Reuss Voigt Hill
#
# Bulk Modulus (GPa) = 30.07394 60.27395 45.17395
# Shear Modulus (GPa) = 27.51920 35.39246 31.45583
#
# Velocity S-wave (km/s) = 3.52557 3.99822 3.76931
# Velocity P-wave (km/s) = 5.49148 6.96694 6.27274
#
# Compressibility (1/GPa) = 0.03325137
#
# Stress axis : x y z
#
# Youngs Moduli (GPa) = 77.27818 35.56998 131.97249
#
# Poissons Ratio (x) = 0.00571 0.57194
# Poissons Ratio (y) = 0.01241 0.42173
# Poissons Ratio (z) = 0.33491 0.11367
#
# Static dielectric constant tensor:
#      x y z
#    x 4.244290 0.038400 0.001900 
#    y 0.038400 3.555690 0.016170 
#    z 0.001900 0.016170 4.798500 
# 
# 
# High freq. dielectric constant tensor:
#      x y z
#    x 1.874470 0.003400 0.007250 
#    y 0.003400 1.830640 0.001790 
#    z 0.007250 0.001790 1.898850 
# 
# From -- ./inp_files/273320.got.cif
#   From: 2010.06.25/outbox.cif.g09.slc.cpg/sg2_137_cif.got.tgz:273320.got - 2010.06.27 13:26:56.
