data_PCOD8043834
_publ_section_title
;
Structure prediction by ZEFSAII (Michael W. Deem and Ramdas Pophale) SiO2 
 PCOD8043834
Probable space group: P -1
;
_chemical_formula_sum "Si O2"
_cell_formula_units_Z 16
_cell_length_a 8.496690
_cell_length_b 8.028260
_cell_length_c 13.842023
_cell_angle_alpha 110.533875
_cell_angle_beta 124.280581
_cell_angle_gamma 58.035994
_cell_volume 660.037045
_symmetry_space_group_name_H-M "P -1"
_symmetry_group_IT_number 2
_symmetry_cell_setting 'triclinic'
loop_
_space_group_symop_operation_xyz
x,y,z
-x,-y,-z
loop_
_atom_site_type_symbol
_atom_site_label
_atom_site_fract_x
_atom_site_fract_y
_atom_site_fract_z
Si Si1 0.074566 0.125797 0.649711
Si Si2 0.548186 0.821296 0.715025
Si Si3 0.389364 0.228046 0.491119
Si Si4 0.295420 0.983368 0.044844
Si Si5 0.982201 0.243394 0.436010
Si Si6 0.523056 0.509592 0.286388
Si Si7 0.225601 0.256128 0.907728
Si Si8 0.682119 0.395694 0.966307
O O1 0.951231 0.269979 0.547734
O O2 0.077966 0.259123 0.767930
O O3 0.307062 0.983312 0.661390
O O4 0.960291 0.987245 0.613533
O O5 0.627122 0.730053 0.619249
O O6 0.580988 0.637551 0.756597
O O7 0.694499 0.915751 0.829952
O O8 0.157264 0.310914 0.474097
O O9 0.520073 0.330897 0.610999
O O10 0.500000 0.000000 0.500000
O O11 0.530454 0.862605 0.059479
O O12 0.189237 0.831792 0.998934
O O13 0.164926 0.149268 0.954304
O O14 0.772733 0.381240 0.334615
O O15 0.422919 0.616517 0.174133
O O16 0.175686 0.482259 0.964529
O O17 0.500000 0.500000 0.000000
#
# Coordination Sequence:
#
# PCOD8043834 Si02
#       8
#     2   2   2   2   2   2   2   2
#     4   9  19  37  61  89 122 162 197 253 313 361
#     4  10  19  37  60  83 123 158 202 244 306 358
#     4  12  23  38  59  88 121 167 206 246 302 372
#     4   9  17  31  54  89 118 153 196 257 296 345
#     4  10  22  38  59  90 127 157 202 254 307 363
#     4  11  23  39  59  94 124 157 204 260 301 363
#     4   9  17  32  57  88 121 153 202 256 301 351
#     4  10  20  31  56  94 119 151 204 258 301 350
#
# _framework density 24.241064000000001
#
# number of rings (size 3 to 8) (size 9 to 14) (size 15 to 20)
#    0.000    2.000    2.500    1.500    8.750    0.000 
#    0.000    0.000    0.000    0.750    0.000    3.500 
#    0.000    0.000    0.000    0.000    0.000    0.000 
#
# Total GULP energy -198379.613533 kJ/mol
# GULP energy per Si atom -12398.725846 kJ/mol
# Density = 2.418589 g / cm^3
# Si number density = 24.241064 Si / 1000 Ang^3
#
#
#
# Elastic Constant Matrix: (Units=GPa)
#
#
# Indices 1 2 3 4 5 6 
#
# 1 22.4004 24.2851 26.7776 -1.3263 -3.2197 24.0056
# 2 24.2851 115.1722 51.7406 12.8343 3.3229 39.5907
# 3 26.7776 51.7406 174.6190 18.3733 -2.9440 26.4063
# 4 -1.3263 12.8343 18.3733 40.5133 7.8987 3.0804
# 5 -3.2197 3.3229 -2.9440 7.8987 31.1142 5.0642
# 6 24.0056 39.5907 26.4063 3.0804 5.0642 35.1047
#
#
#
# Elastic Compliance Matrix: (Units=1/GPa)
#
#
# Indices 1 2 3 4 5 6 
#
# 1 0.265572 0.015275 -0.016530 0.016064 0.051996 -0.195310
# 2 0.015275 0.016075 -0.002715 -0.002197 0.004559 -0.026998
# 3 -0.016530 -0.002715 0.008126 -0.003816 -0.001107 0.008747
# 4 0.016064 -0.002197 -0.003816 0.029110 -0.004630 -0.007523
# 5 0.051996 0.004559 -0.001107 -0.004630 0.045597 -0.046037
# 6 -0.195310 -0.026998 0.008747 -0.007523 -0.046037 0.193214
#
#
# Mechanical properties :
#
#
# Convention : Reuss Voigt Hill
#
# Bulk Modulus (GPa) = 3.54818 57.53312 30.54065
# Shear Modulus (GPa) = 7.58061 35.30566 21.44313
#
# Velocity S-wave (km/s) = 1.77030 3.82047 2.97741
# Velocity P-wave (km/s) = 2.37603 6.57622 4.94430
#
# Compressibility (1/GPa) = 0.28183498
#
# Stress axis : x y z
#
# Youngs Moduli (GPa) = 3.76546 62.20730 123.06118
#
# Poissons Ratio (x) = -0.95024 2.03416
# Poissons Ratio (y) = -0.05752 0.33410
# Poissons Ratio (z) = 0.06224 0.16889
#
# Static dielectric constant tensor:
#      x y z
#    x 3.973970 0.490580 0.192000 
#    y 0.490580 4.649300 0.186010 
#    z 0.192000 0.186010 4.200860 
# 
# 
# High freq. dielectric constant tensor:
#      x y z
#    x 1.928870 0.027420 -0.001000 
#    y 0.027420 1.968670 0.008120 
#    z -0.001000 0.008120 1.968410 
# 
# From -- ./inp_files/380066.got.cif
#   From: 2010.06.25/outbox.cif.g09.slc.cpg/sg2_191_cif.got.tgz:380066.got - 2010.06.27 13:26:56.
