data_PCOD8043606
_publ_section_title
;
Structure prediction by ZEFSAII (Michael W. Deem and Ramdas Pophale) SiO2 
 PCOD8043606
Probable space group: P -1
;
_chemical_formula_sum "Si O2"
_cell_formula_units_Z 14
_cell_length_a 11.540247
_cell_length_b 13.253250
_cell_length_c 8.926549
_cell_angle_alpha 141.249398
_cell_angle_beta 102.607725
_cell_angle_gamma 102.812284
_cell_volume 639.602612
_symmetry_space_group_name_H-M "P -1"
_symmetry_group_IT_number 2
_symmetry_cell_setting 'triclinic'
loop_
_space_group_symop_operation_xyz
x,y,z
-x,-y,-z
loop_
_atom_site_type_symbol
_atom_site_label
_atom_site_fract_x
_atom_site_fract_y
_atom_site_fract_z
Si Si1 0.664434 0.565632 0.789775
Si Si2 0.312740 0.316290 0.384014
Si Si3 0.893537 0.847420 0.422054
Si Si4 0.159907 0.503195 0.620053
Si Si5 0.907214 0.056765 0.950156
Si Si6 0.675743 0.217559 0.288647
Si Si7 0.017516 0.619592 0.292566
O O1 0.494290 0.487655 0.643465
O O2 0.751410 0.719997 0.847657
O O3 0.674272 0.384445 0.566324
O O4 0.730527 0.666049 0.087116
O O5 0.251315 0.416130 0.579565
O O6 0.257349 0.095232 0.182256
O O7 0.871954 0.976893 0.678237
O O8 0.973980 0.766025 0.426940
O O9 0.000000 0.000000 0.500000
O O10 0.265976 0.709526 0.783290
O O11 0.106589 0.549073 0.810424
O O12 0.994448 0.305256 0.266082
O O13 0.000000 0.000000 0.000000
O O14 0.804289 0.223891 0.419220
O O15 0.500000 0.000000 0.000000
O O16 0.000000 0.500000 0.000000
#
# Coordination Sequence:
#
# PCOD8043606 Si02
#       7
#     2   2   2   2   2   2   2
#     4  10  22  38  61  99 134 168 223 278 335 394
#     4   9  19  38  65  90 130 167 215 280 334 382
#     4  12  23  39  65  96 131 170 225 274 332 392
#     4  10  22  43  68  96 131 173 233 270 327 404
#     4  10  19  36  65  94 120 167 216 274 328 386
#     4  11  25  42  67  95 132 185 225 264 337 412
#     4  12  25  44  67  95 140 180 218 280 331 398
#
# _framework density 21.888591999999999
#
# number of rings (size 3 to 8) (size 9 to 14) (size 15 to 20)
#    0.000    1.429    4.286    3.000    2.000    2.857 
#    0.000    0.714    0.000    0.000    0.000    0.000 
#    0.000    0.000    0.000    0.000    0.000    0.000 
#
# Total GULP energy -173450.787031 kJ/mol
# GULP energy per Si atom -12389.341931 kJ/mol
# Density = 2.183877 g / cm^3
# Si number density = 21.888592 Si / 1000 Ang^3
#
#
#
# Elastic Constant Matrix: (Units=GPa)
#
#
# Indices 1 2 3 4 5 6 
#
# 1 84.8948 34.0228 26.9145 -16.9954 14.1046 16.3403
# 2 34.0228 131.9616 66.3420 5.3019 6.3502 26.0420
# 3 26.9145 66.3420 108.9116 -15.1976 1.4275 23.2317
# 4 -16.9954 5.3019 -15.1976 40.2122 8.2780 1.1960
# 5 14.1046 6.3502 1.4275 8.2780 34.1342 -9.4087
# 6 16.3403 26.0420 23.2317 1.1960 -9.4087 37.9964
#
#
#
# Elastic Compliance Matrix: (Units=1/GPa)
#
#
# Indices 1 2 3 4 5 6 
#
# 1 0.019420 -0.003530 0.001485 0.012287 -0.013310 -0.010522
# 2 -0.003530 0.012882 -0.007212 -0.005842 0.000034 -0.002709
# 3 0.001485 -0.007212 0.015863 0.008560 -0.003834 -0.006613
# 4 0.012287 -0.005842 0.008560 0.037879 -0.016805 -0.011867
# 5 -0.013310 0.000034 -0.003834 -0.016805 0.044421 0.019573
# 6 -0.010522 -0.002709 -0.006613 -0.011867 0.019573 0.041964
#
#
# Mechanical properties :
#
#
# Convention : Reuss Voigt Hill
#
# Bulk Modulus (GPa) = 33.72709 64.48074 49.10392
# Shear Modulus (GPa) = 24.89722 35.70115 30.29918
#
# Velocity S-wave (km/s) = 3.37627 4.04299 3.72458
# Velocity P-wave (km/s) = 5.53542 7.16359 6.40148
#
# Compressibility (1/GPa) = 0.02964975
#
# Stress axis : x y z
#
# Youngs Moduli (GPa) = 51.49422 77.63048 63.03801
#
# Poissons Ratio (x) = 0.27402 -0.09359
# Poissons Ratio (y) = 0.18177 0.45464
# Poissons Ratio (z) = -0.07645 0.55989
#
# Static dielectric constant tensor:
#      x y z
#    x 4.200980 1.066440 -0.446160 
#    y 1.066440 0.895940 4.720780 
#    z -0.446160 4.720780 -1.402470 
# 
# 
# High freq. dielectric constant tensor:
#      x y z
#    x 1.867620 0.013180 -0.001480 
#    y 0.013180 1.869830 0.002040 
#    z -0.001480 0.002040 1.840370 
# 
# From -- ./inp_files/314245.got.cif
#   From: 2010.06.25/outbox.cif.g09.slc.cpg/sg2_158_cif.got.tgz:314245.got - 2010.06.27 13:26:56.
