data_PCOD8043774
_publ_section_title
;
Structure prediction by ZEFSAII (Michael W. Deem and Ramdas Pophale) SiO2 
 PCOD8043774
Probable space group: P -1
;
_chemical_formula_sum "Si O2"
_cell_formula_units_Z 16
_cell_length_a 18.768618
_cell_length_b 8.785622
_cell_length_c 12.395992
_cell_angle_alpha 120.101174
_cell_angle_beta 144.444369
_cell_angle_gamma 85.400904
_cell_volume 779.967949
_symmetry_space_group_name_H-M "P -1"
_symmetry_group_IT_number 2
_symmetry_cell_setting 'triclinic'
loop_
_space_group_symop_operation_xyz
x,y,z
-x,-y,-z
loop_
_atom_site_type_symbol
_atom_site_label
_atom_site_fract_x
_atom_site_fract_y
_atom_site_fract_z
Si Si1 0.176987 0.854145 0.525031
Si Si2 0.715077 0.676594 0.216007
Si Si3 0.761191 0.359528 0.655347
Si Si4 0.126085 0.618406 0.967961
Si Si5 0.603518 0.458910 0.220886
Si Si6 0.820240 0.384217 0.201663
Si Si7 0.581993 0.059381 0.974781
Si Si8 0.924719 0.742305 0.841202
O O1 0.168972 0.742626 0.361352
O O2 0.335712 0.948591 0.821836
O O3 0.017953 0.655439 0.325690
O O4 0.164232 0.051176 0.563986
O O5 0.687585 0.654938 0.302414
O O6 0.793555 0.569291 0.236128
O O7 0.538344 0.557592 0.903718
O O8 0.881496 0.638993 0.874130
O O9 0.763158 0.330648 0.775947
O O10 0.572882 0.206247 0.337399
O O11 0.222721 0.715859 0.008852
O O12 0.052706 0.740923 0.939278
O O13 0.527763 0.209495 0.987330
O O14 0.745601 0.540998 0.504570
O O15 0.699483 0.170019 0.055935
O O16 0.000000 0.500000 0.500000
O O17 0.000000 0.000000 0.000000
#
# Coordination Sequence:
#
# PCOD8043774 Si02
#       8
#     2   2   2   2   2   2   2   2
#     4  11  19  38  64  97 123 161 210 266 312 365
#     4  10  22  32  66  93 120 156 215 271 299 359
#     4  11  23  38  62  99 128 161 206 261 321 365
#     4  11  24  41  60  92 132 172 201 253 321 379
#     4  10  19  37  58  99 119 158 212 262 311 355
#     4  11  23  46  60  90 127 172 216 248 318 388
#     4  11  20  40  71  88 128 168 208 264 312 372
#     4  11  23  38  63  92 130 165 205 259 317 373
#
# _framework density 20.513665
#
# number of rings (size 3 to 8) (size 9 to 14) (size 15 to 20)
#    0.000    1.250    5.000    3.375    3.500    1.000 
#    0.000    0.000    0.000    2.250    0.000    0.000 
#    0.000    0.000    0.000    0.000    0.000    0.000 
#
# Total GULP energy -198282.212744 kJ/mol
# GULP energy per Si atom -12392.638297 kJ/mol
# Density = 2.046697 g / cm^3
# Si number density = 20.513665 Si / 1000 Ang^3
#
#
#
# Elastic Constant Matrix: (Units=GPa)
#
#
# Indices 1 2 3 4 5 6 
#
# 1 104.5321 42.5812 27.4987 2.8538 -1.6877 12.8711
# 2 42.5812 119.2207 35.6153 20.4252 -0.2406 4.7447
# 3 27.4987 35.6153 81.3101 0.6024 2.3020 4.4810
# 4 2.8538 20.4252 0.6024 41.2941 9.1616 5.7016
# 5 -1.6877 -0.2406 2.3020 9.1616 27.7336 -7.7002
# 6 12.8711 4.7447 4.4810 5.7016 -7.7002 31.5863
#
#
#
# Elastic Compliance Matrix: (Units=1/GPa)
#
#
# Indices 1 2 3 4 5 6 
#
# 1 0.012222 -0.003876 -0.002160 0.001994 -0.001078 -0.004715
# 2 -0.003876 0.012057 -0.004133 -0.006626 0.003037 0.002291
# 3 -0.002160 -0.004133 0.015001 0.002867 -0.002872 -0.001845
# 4 0.001994 -0.006626 0.002867 0.031476 -0.013098 -0.009099
# 5 -0.001078 0.003037 -0.002872 -0.013098 0.044350 0.013567
# 6 -0.004715 0.002291 -0.001845 -0.009099 0.013567 0.038448
#
#
# Mechanical properties :
#
#
# Convention : Reuss Voigt Hill
#
# Bulk Modulus (GPa) = 52.79491 57.38370 55.08930
# Shear Modulus (GPa) = 27.74560 33.41398 30.57979
#
# Velocity S-wave (km/s) = 3.68168 4.04030 3.86515
# Velocity P-wave (km/s) = 6.62309 7.05687 6.84342
#
# Compressibility (1/GPa) = 0.01894122
#
# Stress axis : x y z
#
# Youngs Moduli (GPa) = 81.81726 82.93831 66.66058
#
# Poissons Ratio (x) = 0.32149 0.14399
# Poissons Ratio (y) = 0.31715 0.27554
# Poissons Ratio (z) = 0.17673 0.34282
#
# Static dielectric constant tensor:
#      x y z
#    x 3.622210 0.288670 0.169450 
#    y 0.288670 4.190940 -0.166450 
#    z 0.169450 -0.166450 3.626340 
# 
# 
# High freq. dielectric constant tensor:
#      x y z
#    x 1.778330 0.023420 0.021200 
#    y 0.023420 1.818110 -0.009920 
#    z 0.021200 -0.009920 1.791370 
# 
# From -- ./inp_files/263324.got.cif
#   From: 2010.06.25/outbox.cif.g09.slc.cpg/sg2_132_cif.got.tgz:263324.got - 2010.06.27 13:26:56.
