data_PCOD8043971
_publ_section_title
;
Structure prediction by ZEFSAII (Michael W. Deem and Ramdas Pophale) SiO2 
 PCOD8043971
Probable space group: P -1
;
_chemical_formula_sum "Si O2"
_cell_formula_units_Z 14
_cell_length_a 9.660493
_cell_length_b 18.442863
_cell_length_c 9.498112
_cell_angle_alpha 134.182546
_cell_angle_beta 45.362757
_cell_angle_gamma 133.478829
_cell_volume 795.584428
_symmetry_space_group_name_H-M "P -1"
_symmetry_group_IT_number 2
_symmetry_cell_setting 'triclinic'
loop_
_space_group_symop_operation_xyz
x,y,z
-x,-y,-z
loop_
_atom_site_type_symbol
_atom_site_label
_atom_site_fract_x
_atom_site_fract_y
_atom_site_fract_z
Si Si1 0.256841 0.422809 0.846112
Si Si2 0.465165 0.673598 0.008842
Si Si3 0.881414 0.253719 0.756934
Si Si4 0.425295 0.140547 0.297171
Si Si5 0.183186 0.891698 0.133050
Si Si6 0.306050 0.292028 0.394500
Si Si7 0.286301 0.251013 0.789421
O O1 0.322037 0.551154 0.995687
O O2 0.382983 0.395306 0.588372
O O3 0.302454 0.370050 0.885258
O O4 0.004588 0.363895 0.912252
O O5 0.603490 0.667804 0.769139
O O6 0.316194 0.738256 0.169995
O O7 0.622176 0.739459 0.107594
O O8 0.806054 0.148781 0.770698
O O9 0.048642 0.240650 0.507118
O O10 0.389730 0.201018 0.265483
O O11 0.420164 0.206966 0.530565
O O12 0.238752 0.020874 0.274712
O O13 0.652602 0.133848 0.118751
O O14 0.954646 0.833877 0.149238
#
# Coordination Sequence:
#
# PCOD8043971 Si02
#       7
#     2   2   2   2   2   2   2
#     4   8  19  37  53  76 106 148 181 202 250 326
#     4  12  19  35  54  79 119 134 165 231 266 289
#     4   9  20  33  56  82 100 140 186 211 248 321
#     4  10  19  37  62  75  99 143 184 213 258 322
#     4  10  19  37  62  75  99 143 184 213 258 322
#     4   9  20  33  56  82 100 140 186 211 248 321
#     4  10  22  34  54  85 107 136 173 223 265 311
#
# _framework density 17.597125999999999
#
# number of rings (size 3 to 8) (size 9 to 14) (size 15 to 20)
#    0.857    1.429    2.857    1.714    0.000    1.143 
#    0.000    1.429    0.000    5.143    0.000    0.000 
#    0.000    0.000    0.000    0.000    0.000    0.000 
#
# Total GULP energy -173537.901468 kJ/mol
# GULP energy per Si atom -12395.564391 kJ/mol
# Density = 1.755707 g / cm^3
# Si number density = 17.597126 Si / 1000 Ang^3
#
#
#
# Elastic Constant Matrix: (Units=GPa)
#
#
# Indices 1 2 3 4 5 6 
#
# 1 107.3787 17.6471 16.6868 3.3977 7.3631 -3.0933
# 2 17.6471 67.8730 2.8856 5.0047 8.8952 -7.5409
# 3 16.6868 2.8856 34.4758 -5.6275 0.8561 1.9692
# 4 3.3977 5.0047 -5.6275 23.8438 -0.3080 -7.2176
# 5 7.3631 8.8952 0.8561 -0.3080 19.5210 -0.4107
# 6 -3.0933 -7.5409 1.9692 -7.2176 -0.4107 13.4126
#
#
#
# Elastic Compliance Matrix: (Units=1/GPa)
#
#
# Indices 1 2 3 4 5 6 
#
# 1 0.010763 -0.001917 -0.005381 -0.002154 -0.002964 0.000945
# 2 -0.001917 0.017215 -0.001006 -0.001063 -0.006913 0.008600
# 3 -0.005381 -0.001006 0.033122 0.008125 0.001116 -0.002263
# 4 -0.002154 -0.001063 0.008125 0.052258 0.002310 0.025905
# 5 -0.002964 -0.006913 0.001116 0.002310 0.055445 -0.001793
# 6 0.000945 0.008600 -0.002263 0.025905 -0.001793 0.093827
#
#
# Mechanical properties :
#
#
# Convention : Reuss Voigt Hill
#
# Bulk Modulus (GPa) = 22.47629 31.57405 27.02517
# Shear Modulus (GPa) = 17.00288 22.85602 19.92945
#
# Velocity S-wave (km/s) = 3.11180 3.60787 3.36897
# Velocity P-wave (km/s) = 5.07065 5.94452 5.52489
#
# Compressibility (1/GPa) = 0.04449133
#
# Stress axis : x y z
#
# Youngs Moduli (GPa) = 92.91342 58.09035 30.19129
#
# Poissons Ratio (x) = 0.11138 0.16245
# Poissons Ratio (y) = 0.17815 0.03037
# Poissons Ratio (z) = 0.49994 0.05844
#
# Static dielectric constant tensor:
#      x y z
#    x 3.056780 -0.092890 -0.149280 
#    y -0.092890 3.220070 -0.092410 
#    z -0.149280 -0.092410 3.073270 
# 
# 
# High freq. dielectric constant tensor:
#      x y z
#    x 1.665150 -0.011740 -0.017820 
#    y -0.011740 1.684100 -0.008730 
#    z -0.017820 -0.008730 1.668070 
# 
# From -- ./inp_files/195483.got.cif
#   From: 2010.06.25/outbox.cif.g09.slc.cpg/sg2_98_cif.got.tgz:195483.got - 2010.06.27 13:26:56.
