data_PCOD8043020
_publ_section_title
;
Structure prediction by ZEFSAII (Michael W. Deem and Ramdas Pophale) SiO2 
 PCOD8043020
Probable space group: P -1
;
_chemical_formula_sum "Si O2"
_cell_formula_units_Z 14
_cell_length_a 9.287759
_cell_length_b 15.250905
_cell_length_c 9.851372
_cell_angle_alpha 93.268511
_cell_angle_beta 45.991979
_cell_angle_gamma 65.826972
_cell_volume 781.846241
_symmetry_space_group_name_H-M "P -1"
_symmetry_group_IT_number 2
_symmetry_cell_setting 'triclinic'
loop_
_space_group_symop_operation_xyz
x,y,z
-x,-y,-z
loop_
_atom_site_type_symbol
_atom_site_label
_atom_site_fract_x
_atom_site_fract_y
_atom_site_fract_z
Si Si1 0.438037 0.771069 0.594720
Si Si2 0.342815 0.618813 0.540767
Si Si3 0.770843 0.743660 0.913214
Si Si4 0.734179 0.619451 0.157674
Si Si5 0.430752 0.852023 0.886229
Si Si6 0.419597 0.038833 0.776538
Si Si7 0.840736 0.982752 0.296988
O O1 0.304739 0.711393 0.678462
O O2 0.679762 0.702691 0.325637
O O3 0.533089 0.769673 0.682248
O O4 0.234521 0.898574 0.687842
O O5 0.500000 0.500000 0.500000
O O6 0.509523 0.607339 0.302188
O O7 0.069672 0.661650 0.670343
O O8 0.609233 0.777507 0.886829
O O9 0.722623 0.670892 0.027362
O O10 0.696756 0.850269 0.052930
O O11 0.000000 0.500000 0.000000
O O12 0.457353 0.948080 0.847252
O O13 0.143365 0.901260 0.117718
O O14 0.225205 0.066509 0.785475
O O15 0.694787 0.992118 0.529719
#
# Coordination Sequence:
#
# PCOD8043020 Si02
#       7
#     2   2   2   2   2   2   2
#     4   9  19  39  57  79 114 150 185 227 271 333
#     4  10  20  36  62  80 100 142 198 234 268 334
#     4  12  21  36  58  85 116 145 182 237 283 314
#     4  10  21  39  61  81 102 142 198 235 273 330
#     4  11  23  34  54  88 123 145 177 230 282 329
#     4  10  20  34  57  84 114 155 191 213 261 348
#     4  10  19  36  56  82 118 155 187 215 268 339
#
# _framework density 17.906334000000001
#
# number of rings (size 3 to 8) (size 9 to 14) (size 15 to 20)
#    0.857    0.857    2.857    3.857    0.000    1.714 
#    0.000    2.857    0.000    1.714    0.000    0.000 
#    0.000    0.000    0.000    0.000    0.000    0.000 
#
# Total GULP energy -173538.659677 kJ/mol
# GULP energy per Si atom -12395.618548 kJ/mol
# Density = 1.786558 g / cm^3
# Si number density = 17.906334 Si / 1000 Ang^3
#
#
#
# Elastic Constant Matrix: (Units=GPa)
#
#
# Indices 1 2 3 4 5 6 
#
# 1 93.1892 61.8459 55.8024 -2.1301 -15.9310 -22.6999
# 2 61.8459 105.3340 47.8820 -17.8542 -13.4660 -18.5054
# 3 55.8024 47.8820 116.0534 -10.2351 -24.4536 -22.3927
# 4 -2.1301 -17.8542 -10.2351 32.8648 5.3846 -4.8063
# 5 -15.9310 -13.4660 -24.4536 5.3846 24.5986 -1.1839
# 6 -22.6999 -18.5054 -22.3927 -4.8063 -1.1839 30.5029
#
#
#
# Elastic Compliance Matrix: (Units=1/GPa)
#
#
# Indices 1 2 3 4 5 6 
#
# 1 0.022942 -0.010331 -0.004680 -0.005599 0.006100 0.006725
# 2 -0.010331 0.018419 -0.000764 0.009632 0.000740 0.004472
# 3 -0.004680 -0.000764 0.015594 0.003464 0.011704 0.008502
# 4 -0.005599 0.009632 0.003464 0.038321 -0.002810 0.010149
# 5 0.006100 0.000740 0.011704 -0.002810 0.057999 0.015389
# 6 0.006725 0.004472 0.008502 0.010149 0.015389 0.048939
#
#
# Mechanical properties :
#
#
# Convention : Reuss Voigt Hill
#
# Bulk Modulus (GPa) = 39.35951 71.73745 55.54848
# Shear Modulus (GPa) = 20.64126 27.52970 24.08548
#
# Velocity S-wave (km/s) = 3.39888 3.92526 3.67151
# Velocity P-wave (km/s) = 6.11814 7.79058 7.00446
#
# Compressibility (1/GPa) = 0.02540682
#
# Stress axis : x y z
#
# Youngs Moduli (GPa) = 43.58773 54.29083 64.12578
#
# Poissons Ratio (x) = 0.56086 0.30011
# Poissons Ratio (y) = 0.45029 0.04898
# Poissons Ratio (z) = 0.20399 0.04147
#
# Static dielectric constant tensor:
#      x y z
#    x 3.120980 0.162270 -0.030360 
#    y 0.162270 3.291480 -0.067330 
#    z -0.030360 -0.067330 3.449970 
# 
# 
# High freq. dielectric constant tensor:
#      x y z
#    x 1.667340 0.013140 -0.008680 
#    y 0.013140 1.694810 -0.005010 
#    z -0.008680 -0.005010 1.704300 
# 
# From -- ./inp_files/215038.got.cif
#   From: 2010.06.25/outbox.cif.g09.slc.cpg/sg2_108_cif.got.tgz:215038.got - 2010.06.27 13:26:56.
