data_PCOD8043037
_publ_section_title
;
Structure prediction by ZEFSAII (Michael W. Deem and Ramdas Pophale) SiO2 
 PCOD8043037
Probable space group: P -1
;
_chemical_formula_sum "Si O2"
_cell_formula_units_Z 14
_cell_length_a 17.473767
_cell_length_b 7.704148
_cell_length_c 10.597733
_cell_angle_alpha 76.794420
_cell_angle_beta 35.489804
_cell_angle_gamma 61.666913
_cell_volume 693.328518
_symmetry_space_group_name_H-M "P -1"
_symmetry_group_IT_number 2
_symmetry_cell_setting 'triclinic'
loop_
_space_group_symop_operation_xyz
x,y,z
-x,-y,-z
loop_
_atom_site_type_symbol
_atom_site_label
_atom_site_fract_x
_atom_site_fract_y
_atom_site_fract_z
Si Si1 0.153650 0.399224 0.888498
Si Si2 0.816653 0.001740 0.131585
Si Si3 0.393168 0.477911 0.247130
Si Si4 0.310653 0.819401 0.982348
Si Si5 0.191051 0.535765 0.299260
Si Si6 0.850952 0.709016 0.807620
Si Si7 0.178539 0.750296 0.690400
O O1 0.123475 0.414430 0.075859
O O2 0.233134 0.530957 0.724473
O O3 0.000000 0.500000 0.000000
O O4 0.247414 0.157696 0.758915
O O5 0.783853 0.108445 0.293965
O O6 0.727789 0.173910 0.115298
O O7 0.998715 0.876160 0.874934
O O8 0.282358 0.422228 0.324980
O O9 0.282289 0.693623 0.435029
O O10 0.500000 0.500000 0.000000
O O11 0.505028 0.301516 0.225058
O O12 0.248194 0.046375 0.083964
O O13 0.234669 0.705760 0.173860
O O14 0.236869 0.362786 0.158427
O O15 0.011285 0.656651 0.543068
#
# Coordination Sequence:
#
# PCOD8043037 Si02
#       7
#     2   2   2   2   2   2   2
#     4   9  17  32  53  80 107 130 171 228 274 313
#     4   9  19  34  58  84 102 136 186 228 270 316
#     4  10  22  38  55  78 114 152 179 216 272 331
#     4  10  20  36  54  79 112 144 180 223 271 325
#     4  10  20  36  55  79 110 146 185 226 268 315
#     4  10  20  34  58  83 105 141 188 229 268 317
#     4  10  19  36  57  78 109 142 178 227 272 315
#
# _framework density 20.192449
#
# number of rings (size 3 to 8) (size 9 to 14) (size 15 to 20)
#    0.000    2.286    0.000    3.857    0.000    2.286 
#    0.000   14.286    0.000    0.000    0.000    0.000 
#    0.000    0.000    0.000    0.000    0.000    0.000 
#
# Total GULP energy -173506.327293 kJ/mol
# GULP energy per Si atom -12393.309092 kJ/mol
# Density = 2.014649 g / cm^3
# Si number density = 20.192449 Si / 1000 Ang^3
#
#
#
# Elastic Constant Matrix: (Units=GPa)
#
#
# Indices 1 2 3 4 5 6 
#
# 1 158.3250 35.9254 52.9836 23.2753 13.4709 -7.5283
# 2 35.9254 70.2750 19.1181 5.6299 1.4435 -0.6491
# 3 52.9836 19.1181 86.1876 11.8533 15.0294 2.7020
# 4 23.2753 5.6299 11.8533 19.9498 -5.2941 2.1431
# 5 13.4709 1.4435 15.0294 -5.2941 30.5620 11.5832
# 6 -7.5283 -0.6491 2.7020 2.1431 11.5832 30.7204
#
#
#
# Elastic Compliance Matrix: (Units=1/GPa)
#
#
# Indices 1 2 3 4 5 6 
#
# 1 0.011055 -0.003559 -0.003035 -0.012961 -0.008050 0.006840
# 2 -0.003559 0.016421 -0.002096 0.001625 0.002657 -0.001456
# 3 -0.003035 -0.002096 0.016527 -0.008176 -0.008720 0.001617
# 4 -0.012961 0.001625 -0.008176 0.079979 0.030970 -0.019679
# 5 -0.008050 0.002657 -0.008720 0.030970 0.054895 -0.024008
# 6 0.006840 -0.001456 0.001617 -0.019679 -0.024008 0.044480
#
#
# Mechanical properties :
#
#
# Convention : Reuss Voigt Hill
#
# Bulk Modulus (GPa) = 37.55946 58.98243 48.27095
# Shear Modulus (GPa) = 20.03114 30.03048 25.03081
#
# Velocity S-wave (km/s) = 3.15304 3.86062 3.52463
# Velocity P-wave (km/s) = 5.64771 7.01043 6.36564
#
# Compressibility (1/GPa) = 0.02662445
#
# Stress axis : x y z
#
# Youngs Moduli (GPa) = 90.45838 60.89715 60.50594
#
# Poissons Ratio (x) = 0.21673 0.18361
# Poissons Ratio (y) = 0.32193 0.12681
# Poissons Ratio (z) = 0.27451 0.12763
#
# Static dielectric constant tensor:
#      x y z
#    x 4.302620 -0.106570 -0.109570 
#    y -0.106570 4.005480 0.172480 
#    z -0.109570 0.172480 3.544030 
# 
# 
# High freq. dielectric constant tensor:
#      x y z
#    x 1.808990 -0.004010 0.007680 
#    y -0.004010 1.777060 0.007350 
#    z 0.007680 0.007350 1.766550 
# 
# From -- ./inp_files/459955.got.cif
#   From: 2010.06.25/outbox.cif.g09.slc.cpg/sg2_230_cif.got.tgz:459955.got - 2010.06.27 13:26:56.
