data_PCOD8043282
_publ_section_title
;
Structure prediction by ZEFSAII (Michael W. Deem and Ramdas Pophale) SiO2 
 PCOD8043282
Probable space group: P -1
;
_chemical_formula_sum "Si O2"
_cell_formula_units_Z 16
_cell_length_a 7.021118
_cell_length_b 20.533441
_cell_length_c 15.268426
_cell_angle_alpha 26.485888
_cell_angle_beta 51.739333
_cell_angle_gamma 46.875324
_cell_volume 716.320167
_symmetry_space_group_name_H-M "P -1"
_symmetry_group_IT_number 2
_symmetry_cell_setting 'triclinic'
loop_
_space_group_symop_operation_xyz
x,y,z
-x,-y,-z
loop_
_atom_site_type_symbol
_atom_site_label
_atom_site_fract_x
_atom_site_fract_y
_atom_site_fract_z
Si Si1 0.677073 0.417463 0.433267
Si Si2 0.366162 0.162777 0.297906
Si Si3 0.851440 0.336349 0.746082
Si Si4 0.872564 0.658479 0.161452
Si Si5 0.026669 0.146293 0.765877
Si Si6 0.419775 0.570679 0.032438
Si Si7 0.525968 0.116285 0.114954
Si Si8 0.125186 0.606937 0.782034
O O1 0.366013 0.486424 0.418046
O O2 0.730575 0.533241 0.349324
O O3 0.852228 0.420527 0.295238
O O4 0.782347 0.239944 0.657504
O O5 0.363354 0.141254 0.220262
O O6 0.067612 0.217875 0.350913
O O7 0.500000 0.000000 0.500000
O O8 0.511919 0.276224 0.152144
O O9 0.952112 0.669000 0.225735
O O10 0.031972 0.274193 0.683003
O O11 0.704123 0.219695 0.951014
O O12 0.117793 0.607867 0.087789
O O13 0.667774 0.824837 0.983751
O O14 0.296047 0.069173 0.727209
O O15 0.000000 0.000000 0.000000
O O16 0.581883 0.431921 0.220318
O O17 0.500000 0.500000 0.000000
O O18 0.000000 0.500000 0.000000
#
# Coordination Sequence:
#
# PCOD8043282 Si02
#       8
#     2   2   2   2   2   2   2   2
#     4  11  21  39  63  94 120 154 209 257 302 364
#     4  11  21  37  60  87 128 168 200 247 311 378
#     4  10  20  40  63  88 113 157 208 254 308 349
#     4  11  20  37  64  86 121 153 201 260 301 361
#     4  10  23  41  64  84 122 167 201 251 311 367
#     4  11  20  36  60  91 121 159 206 254 303 363
#     4  10  21  40  59  87 122 163 201 246 311 368
#     4  10  19  36  60  92 121 159 202 248 304 364
#
# _framework density 22.336378
#
# number of rings (size 3 to 8) (size 9 to 14) (size 15 to 20)
#    0.000    1.500    2.500    5.625    0.000    1.000 
#    0.000    6.250    0.000    0.000    0.000    0.000 
#    0.000    0.000    0.000    0.000    0.000    0.000 
#
# Total GULP energy -198273.510327 kJ/mol
# GULP energy per Si atom -12392.094395 kJ/mol
# Density = 2.228554 g / cm^3
# Si number density = 22.336378 Si / 1000 Ang^3
#
#
#
# Elastic Constant Matrix: (Units=GPa)
#
#
# Indices 1 2 3 4 5 6 
#
# 1 137.9687 42.5796 37.5178 -21.8402 30.9704 8.2965
# 2 42.5796 132.8771 22.9937 -29.0635 19.4714 13.0218
# 3 37.5178 22.9937 69.2586 -20.1150 31.2557 -3.8429
# 4 -21.8402 -29.0635 -20.1150 29.8110 -13.7128 18.4481
# 5 30.9704 19.4714 31.2557 -13.7128 36.2237 0.3738
# 6 8.2965 13.0218 -3.8429 18.4481 0.3738 40.7014
#
#
#
# Elastic Compliance Matrix: (Units=1/GPa)
#
#
# Indices 1 2 3 4 5 6 
#
# 1 0.010286 -0.000065 -0.001618 0.008024 -0.004265 -0.005827
# 2 -0.000065 0.014080 0.001225 0.024479 0.000857 -0.015479
# 3 -0.001618 0.001225 0.025779 0.010909 -0.017364 -0.002413
# 4 0.008024 0.024479 0.010909 0.114974 0.014719 -0.060685
# 5 -0.004265 0.000857 -0.017364 0.014719 0.051431 -0.008188
# 6 -0.005827 -0.015479 -0.002413 -0.060685 -0.008188 0.058062
#
#
# Mechanical properties :
#
#
# Convention : Reuss Voigt Hill
#
# Bulk Modulus (GPa) = 20.31363 60.69850 40.50607
# Shear Modulus (GPa) = 17.12681 37.14809 27.13745
#
# Velocity S-wave (km/s) = 2.77206 4.08256 3.48939
# Velocity P-wave (km/s) = 4.39999 7.03255 5.86586
#
# Compressibility (1/GPa) = 0.04922803
#
# Stress axis : x y z
#
# Youngs Moduli (GPa) = 97.21749 71.02217 38.79080
#
# Poissons Ratio (x) = 0.00461 0.06278
# Poissons Ratio (y) = 0.00632 -0.04750
# Poissons Ratio (z) = 0.15734 -0.08697
#
# Static dielectric constant tensor:
#      x y z
#    x 4.129830 -0.205510 0.378290 
#    y -0.205510 4.739460 -0.258310 
#    z 0.378290 -0.258310 3.862430 
# 
# 
# High freq. dielectric constant tensor:
#      x y z
#    x 1.874430 -0.002870 0.034540 
#    y -0.002870 1.907600 0.002780 
#    z 0.034540 0.002780 1.852770 
# 
# From -- ./inp_files/563281.got.cif
#   From: 2010.06.25/outbox.cif.g09.slc.cpg/sg2_282_cif.got.tgz:563281.got - 2010.06.27 13:26:56.
