data_PCOD8043855
_publ_section_title
;
Structure prediction by ZEFSAII (Michael W. Deem and Ramdas Pophale) SiO2 
 PCOD8043855
Probable space group: P -1
;
_chemical_formula_sum "Si O2"
_cell_formula_units_Z 14
_cell_length_a 19.313898
_cell_length_b 12.426735
_cell_length_c 11.485076
_cell_angle_alpha 63.714388
_cell_angle_beta 48.951212
_cell_angle_gamma 23.921271
_cell_volume 722.608752
_symmetry_space_group_name_H-M "P -1"
_symmetry_group_IT_number 2
_symmetry_cell_setting 'triclinic'
loop_
_space_group_symop_operation_xyz
x,y,z
-x,-y,-z
loop_
_atom_site_type_symbol
_atom_site_label
_atom_site_fract_x
_atom_site_fract_y
_atom_site_fract_z
Si Si1 0.913604 0.095019 0.918312
Si Si2 0.496858 0.708442 0.192194
Si Si3 0.866773 0.945704 0.410061
Si Si4 0.847214 0.432104 0.096840
Si Si5 0.176108 0.168791 0.701989
Si Si6 0.991651 0.369348 0.390809
Si Si7 0.639579 0.718238 0.434584
O O1 0.047298 0.021925 0.716031
O O2 0.635768 0.464598 0.056762
O O3 0.970014 0.893119 0.908758
O O4 0.000000 0.000000 0.000000
O O5 0.661898 0.609023 0.119340
O O6 0.393403 0.743697 0.390330
O O7 0.275405 0.039055 0.213099
O O8 0.860663 0.895562 0.314158
O O9 0.049001 0.648921 0.431611
O O10 0.709494 0.649250 0.255688
O O11 0.000974 0.357296 0.913063
O O12 0.120347 0.363394 0.609441
O O13 0.452542 0.833748 0.597615
O O14 0.874488 0.424590 0.395077
O O15 0.500000 0.000000 0.500000
#
# Coordination Sequence:
#
# PCOD8043855 Si02
#       7
#     2   2   2   2   2   2   2
#     4  10  20  37  59  89 116 147 196 238 284 342
#     4   9  20  37  57  89 114 147 189 242 289 327
#     4  10  19  37  60  86 117 149 190 241 292 328
#     4  11  22  37  62  90 110 152 199 237 282 345
#     4  11  20  38  61  88 114 151 196 239 288 338
#     4   9  22  38  56  85 121 151 192 233 294 342
#     4  10  22  42  57  82 120 158 195 227 285 350
#
# _framework density 19.374247
#
# number of rings (size 3 to 8) (size 9 to 14) (size 15 to 20)
#    0.857    1.143    4.286    0.429    0.000    6.286 
#    7.714    1.429    0.000    0.000    0.000    0.000 
#    0.000    0.000    0.000    0.000    0.000    0.000 
#
# Total GULP energy -173459.630154 kJ/mol
# GULP energy per Si atom -12389.973582 kJ/mol
# Density = 1.933015 g / cm^3
# Si number density = 19.374247 Si / 1000 Ang^3
#
#
#
# Elastic Constant Matrix: (Units=GPa)
#
#
# Indices 1 2 3 4 5 6 
#
# 1 77.4445 35.3818 34.1861 7.0494 4.7922 -13.5578
# 2 35.3818 54.3662 16.7439 4.4712 -9.2348 -2.7156
# 3 34.1861 16.7439 137.0777 -1.5461 -6.6368 -5.4453
# 4 7.0494 4.4712 -1.5461 36.3742 7.4962 -9.8633
# 5 4.7922 -9.2348 -6.6368 7.4962 21.2240 10.2140
# 6 -13.5578 -2.7156 -5.4453 -9.8633 10.2140 28.3611
#
#
#
# Elastic Compliance Matrix: (Units=1/GPa)
#
#
# Indices 1 2 3 4 5 6 
#
# 1 0.036134 -0.028649 -0.006124 0.014729 -0.044313 0.034436
# 2 -0.028649 0.044550 0.002556 -0.019053 0.049441 -0.033371
# 3 -0.006124 0.002556 0.008699 -0.001578 0.007892 -0.004403
# 4 0.014729 -0.019053 -0.001578 0.046979 -0.047091 0.038211
# 5 -0.044313 0.049441 0.007892 -0.047091 0.136453 -0.080454
# 6 0.034436 -0.033371 -0.004403 0.038211 -0.080454 0.089944
#
#
# Mechanical properties :
#
#
# Convention : Reuss Voigt Hill
#
# Bulk Modulus (GPa) = 40.07830 49.05689 44.56760
# Shear Modulus (GPa) = 11.48085 29.36362 20.42224
#
# Velocity S-wave (km/s) = 2.43694 3.89729 3.25020
# Velocity P-wave (km/s) = 5.35253 6.75481 6.09414
#
# Compressibility (1/GPa) = 0.02495116
#
# Stress axis : x y z
#
# Youngs Moduli (GPa) = 27.67470 22.44692 114.95014
#
# Poissons Ratio (x) = 0.64307 0.70390
# Poissons Ratio (y) = 0.79284 -0.29385
# Poissons Ratio (z) = 0.16947 -0.05738
#
# Static dielectric constant tensor:
#      x y z
#    x 3.611540 -0.114670 -0.160910 
#    y -0.114670 3.677190 0.374770 
#    z -0.160910 0.374770 3.781350 
# 
# 
# High freq. dielectric constant tensor:
#      x y z
#    x 1.732460 0.000840 -0.004370 
#    y 0.000840 1.737350 0.013100 
#    z -0.004370 0.013100 1.762100 
# 
# From -- ./inp_files/312208.got.cif
#   From: 2010.06.25/outbox.cif.g09.slc.cpg/sg2_157_cif.got.tgz:312208.got - 2010.06.27 13:26:56.
