data_PCOD8043669
_publ_section_title
;
Structure prediction by ZEFSAII (Michael W. Deem and Ramdas Pophale) SiO2 
 PCOD8043669
Probable space group: P -1
;
_chemical_formula_sum "Si O2"
_cell_formula_units_Z 16
_cell_length_a 18.198089
_cell_length_b 11.486330
_cell_length_c 8.814750
_cell_angle_alpha 39.639294
_cell_angle_beta 98.862604
_cell_angle_gamma 74.362311
_cell_volume 915.034571
_symmetry_space_group_name_H-M "P -1"
_symmetry_group_IT_number 2
_symmetry_cell_setting 'triclinic'
loop_
_space_group_symop_operation_xyz
x,y,z
-x,-y,-z
loop_
_atom_site_type_symbol
_atom_site_label
_atom_site_fract_x
_atom_site_fract_y
_atom_site_fract_z
Si Si1 0.210939 0.501979 0.209485
Si Si2 0.975940 0.331291 0.116926
Si Si3 0.697010 0.437580 0.251363
Si Si4 0.585213 0.266169 0.334075
Si Si5 0.376533 0.157085 0.405648
Si Si6 0.876934 0.176018 0.396756
Si Si7 0.487582 0.855298 0.315284
Si Si8 0.644824 0.649656 0.345420
O O1 0.286307 0.270889 0.370343
O O2 0.254451 0.482504 0.405729
O O3 0.113772 0.531706 0.165276
O O4 0.187158 0.721034 0.882045
O O5 0.947074 0.247915 0.337924
O O6 0.065635 0.100005 0.297293
O O7 0.000000 0.500000 0.000000
O O8 0.674813 0.264183 0.370079
O O9 0.809101 0.297140 0.400128
O O10 0.668564 0.499906 0.354556
O O11 0.636300 0.672003 0.899612
O O12 0.555756 0.254823 0.506365
O O13 0.610354 0.056689 0.450818
O O14 0.500000 0.500000 0.000000
O O15 0.467708 0.074314 0.616594
O O16 0.568495 0.663873 0.415727
O O17 0.401026 0.084567 0.972406
#
# Coordination Sequence:
#
# PCOD8043669 Si02
#       8
#     2   2   2   2   2   2   2   2
#     4   8  18  35  57  81 105 145 174 225 277 326
#     4   9  17  34  63  85 104 135 179 232 272 324
#     4  11  21  34  56  80 111 151 180 233 270 323
#     4  12  22  31  56  84 103 145 201 233 263 314
#     4  10  19  37  54  77 111 143 194 233 263 305
#     4   8  19  35  56  86 106 133 186 223 274 324
#     4  10  20  36  55  76 111 155 189 230 271 317
#     4  10  20  36  55  74 119 154 176 220 290 323
#
# _framework density 17.485678
#
# number of rings (size 3 to 8) (size 9 to 14) (size 15 to 20)
#    0.750    1.500    2.500    1.125    1.750    0.500 
#    0.000    1.875    0.000    0.750    0.000    0.000 
#    0.000    0.000    0.000    0.000    0.000    0.000 
#
# Total GULP energy -198268.136565 kJ/mol
# GULP energy per Si atom -12391.758535 kJ/mol
# Density = 1.744588 g / cm^3
# Si number density = 17.485678 Si / 1000 Ang^3
#
#
#
# Elastic Constant Matrix: (Units=GPa)
#
#
# Indices 1 2 3 4 5 6 
#
# 1 74.6082 41.5481 30.1887 -11.7056 1.6914 0.6448
# 2 41.5481 98.3242 32.3098 -4.3488 -5.3630 -3.3950
# 3 30.1887 32.3098 76.4579 -6.0544 7.1348 4.7233
# 4 -11.7056 -4.3488 -6.0544 28.2030 2.4347 -0.5755
# 5 1.6914 -5.3630 7.1348 2.4347 30.7569 -2.3845
# 6 0.6448 -3.3950 4.7233 -0.5755 -2.3845 25.2466
#
#
#
# Elastic Compliance Matrix: (Units=1/GPa)
#
#
# Indices 1 2 3 4 5 6 
#
# 1 0.020041 -0.006907 -0.004263 0.006487 -0.001883 -0.000673
# 2 -0.006907 0.014762 -0.004266 -0.001813 0.004345 0.003329
# 3 -0.004263 -0.004266 0.017421 0.001660 -0.005004 -0.004159
# 4 0.006487 -0.001813 0.001660 0.038578 -0.004130 -0.000231
# 5 -0.001883 0.004345 -0.005004 -0.004130 0.035234 0.004802
# 6 -0.000673 0.003329 -0.004159 -0.000231 0.004802 0.041300
#
#
# Mechanical properties :
#
#
# Convention : Reuss Voigt Hill
#
# Bulk Modulus (GPa) = 46.83457 50.83151 48.83304
# Shear Modulus (GPa) = 24.35153 26.53087 25.44120
#
# Velocity S-wave (km/s) = 3.73588 3.89947 3.81855
# Velocity P-wave (km/s) = 6.74179 7.02908 6.88693
#
# Compressibility (1/GPa) = 0.02135175
#
# Stress axis : x y z
#
# Youngs Moduli (GPa) = 49.89816 67.73922 57.40355
#
# Poissons Ratio (x) = 0.46785 0.24473
# Poissons Ratio (y) = 0.34463 0.24489
# Poissons Ratio (z) = 0.21273 0.28898
#
# Static dielectric constant tensor:
#      x y z
#    x 3.343140 -0.150280 0.055430 
#    y -0.150280 3.087140 0.001040 
#    z 0.055430 0.001040 3.280640 
# 
# 
# High freq. dielectric constant tensor:
#      x y z
#    x 1.669460 -0.017830 0.007100 
#    y -0.017830 1.658090 -0.007360 
#    z 0.007100 -0.007360 1.668380 
# 
# From -- ./inp_files/124796.got.cif
#   From: 2010.06.25/outbox.cif.g09.slc.cpg/sg2_63_cif.got.tgz:124796.got - 2010.06.27 13:26:56.
