data_PCOD8043360
_publ_section_title
;
Structure prediction by ZEFSAII (Michael W. Deem and Ramdas Pophale) SiO2 
 PCOD8043360
Probable space group: P -1
;
_chemical_formula_sum "Si O2"
_cell_formula_units_Z 16
_cell_length_a 16.572604
_cell_length_b 11.250420
_cell_length_c 22.681275
_cell_angle_alpha 30.617745
_cell_angle_beta 158.034069
_cell_angle_gamma 149.728414
_cell_volume 756.476734
_symmetry_space_group_name_H-M "P -1"
_symmetry_group_IT_number 2
_symmetry_cell_setting 'triclinic'
loop_
_space_group_symop_operation_xyz
x,y,z
-x,-y,-z
loop_
_atom_site_type_symbol
_atom_site_label
_atom_site_fract_x
_atom_site_fract_y
_atom_site_fract_z
Si Si1 0.827731 0.883607 0.853379
Si Si2 0.881145 0.330407 0.408902
Si Si3 0.789578 0.226968 0.781915
Si Si4 0.591296 0.490471 0.455716
Si Si5 0.365688 0.666544 0.575816
Si Si6 0.547411 0.982709 0.249602
Si Si7 0.792818 0.989056 0.605455
Si Si8 0.822839 0.835343 0.128935
O O1 0.616945 0.681844 0.762136
O O2 0.725731 0.025004 0.771847
O O3 0.015947 0.080179 0.855745
O O4 0.953805 0.719256 0.043608
O O5 0.785400 0.175276 0.468981
O O6 0.774846 0.548258 0.234576
O O7 0.155809 0.439097 0.558490
O O8 0.796523 0.159724 0.366031
O O9 0.765963 0.478756 0.631386
O O10 0.606577 0.130616 0.750285
O O11 0.670359 0.394111 0.491233
O O12 0.582947 0.765150 0.327198
O O13 0.337780 0.292540 0.383253
O O14 0.327435 0.927763 0.454147
O O15 0.420949 0.127847 0.061177
O O16 0.045257 0.006136 0.792263
#
# Coordination Sequence:
#
# PCOD8043360 Si02
#       8
#     2   2   2   2   2   2   2   2
#     4  10  19  36  61  91 116 147 203 250 291 332
#     4  11  23  38  64  88 119 156 196 249 297 348
#     4  10  20  35  60  90 117 149 195 251 287 342
#     4  12  22  38  63  86 124 159 196 243 289 362
#     4  11  21  38  62  90 117 153 201 245 291 349
#     4  11  24  39  56  90 123 162 195 235 303 356
#     4  11  21  38  64  92 112 152 203 250 295 343
#     4  10  21  38  61  91 116 151 203 252 289 346
#
# _framework density 21.150683000000001
#
# number of rings (size 3 to 8) (size 9 to 14) (size 15 to 20)
#    0.000    1.250    3.750    4.125    0.000    1.000 
#    0.000    3.750    0.000    3.750    0.000    0.000 
#    0.000    0.000    0.000    0.000    0.000    0.000 
#
# Total GULP energy -198315.663014 kJ/mol
# GULP energy per Si atom -12394.728938 kJ/mol
# Density = 2.110254 g / cm^3
# Si number density = 21.150683 Si / 1000 Ang^3
#
#
#
# Elastic Constant Matrix: (Units=GPa)
#
#
# Indices 1 2 3 4 5 6 
#
# 1 28.6453 1.5142 16.4245 -8.3183 -11.4619 -10.4420
# 2 1.5142 89.8366 34.5877 2.3688 -0.2150 -17.3863
# 3 16.4245 34.5877 102.7067 7.7890 -21.1599 -13.8777
# 4 -8.3183 2.3688 7.7890 30.0057 1.8126 -5.7714
# 5 -11.4619 -0.2150 -21.1599 1.8126 27.2905 3.9069
# 6 -10.4420 -17.3863 -13.8777 -5.7714 3.9069 17.1810
#
#
#
# Elastic Compliance Matrix: (Units=1/GPa)
#
#
# Indices 1 2 3 4 5 6 
#
# 1 0.076333 0.012488 -0.007547 0.032826 0.015473 0.060442
# 2 0.012488 0.017693 -0.006004 0.008487 -0.003306 0.024248
# 3 -0.007547 -0.006004 0.014984 -0.006622 0.009254 -0.002889
# 4 0.032826 0.008487 -0.006622 0.051303 -0.000492 0.040535
# 5 0.015473 -0.003306 0.009254 -0.000492 0.050038 0.001989
# 6 0.060442 0.024248 -0.002889 0.040535 0.001989 0.130307
#
#
# Mechanical properties :
#
#
# Convention : Reuss Voigt Hill
#
# Bulk Modulus (GPa) = 9.35590 36.24905 22.80247
# Shear Modulus (GPa) = 13.21308 26.13957 19.67633
#
# Velocity S-wave (km/s) = 2.50213 3.51931 3.05338
# Velocity P-wave (km/s) = 3.57500 5.80429 4.82029
#
# Compressibility (1/GPa) = 0.10688443
#
# Stress axis : x y z
#
# Youngs Moduli (GPa) = 13.10045 56.51805 66.73903
#
# Poissons Ratio (x) = -0.70580 0.50369
# Poissons Ratio (y) = -0.16360 0.40070
# Poissons Ratio (z) = 0.09887 0.33933
#
# Static dielectric constant tensor:
#      x y z
#    x 3.678120 -0.021370 -0.292550 
#    y -0.021370 3.825670 0.302270 
#    z -0.292550 0.302270 4.110820 
# 
# 
# High freq. dielectric constant tensor:
#      x y z
#    x 1.816020 0.002310 -0.026180 
#    y 0.002310 1.810070 0.021130 
#    z -0.026180 0.021130 1.833270 
# 
# From -- ./inp_files/279385.got.cif
#   From: 2010.06.25/outbox.cif.g09.slc.cpg/sg2_140_cif.got.tgz:279385.got - 2010.06.27 13:26:56.
