data_PCOD8043227
_publ_section_title
;
Structure prediction by ZEFSAII (Michael W. Deem and Ramdas Pophale) SiO2 
 PCOD8043227
Probable space group: P -1
;
_chemical_formula_sum "Si O2"
_cell_formula_units_Z 12
_cell_length_a 14.950844
_cell_length_b 13.862754
_cell_length_c 8.827092
_cell_angle_alpha 54.669323
_cell_angle_beta 41.043015
_cell_angle_gamma 30.887952
_cell_volume 603.658511
_symmetry_space_group_name_H-M "P -1"
_symmetry_group_IT_number 2
_symmetry_cell_setting 'triclinic'
loop_
_space_group_symop_operation_xyz
x,y,z
-x,-y,-z
loop_
_atom_site_type_symbol
_atom_site_label
_atom_site_fract_x
_atom_site_fract_y
_atom_site_fract_z
Si Si1 0.881134 0.472622 0.485622
Si Si2 0.609403 0.461022 0.242636
Si Si3 0.159234 0.741503 0.429107
Si Si4 0.481941 0.882530 0.695931
Si Si5 0.973353 0.923780 0.829871
Si Si6 0.233733 0.401912 0.161775
O O1 0.922329 0.323455 0.482107
O O2 0.636012 0.692940 0.564324
O O3 0.905814 0.439295 0.667298
O O4 0.072923 0.435526 0.227687
O O5 0.500000 0.500000 0.500000
O O6 0.428935 0.561791 0.249461
O O7 0.833357 0.230045 0.152023
O O8 0.657709 0.567695 0.100670
O O9 0.050142 0.821713 0.661184
O O10 0.077983 0.902706 0.278164
O O11 0.577186 0.811399 0.811411
O O12 0.500000 0.000000 0.500000
O O13 0.232501 0.007851 0.903863
#
# Coordination Sequence:
#
# PCOD8043227 Si02
#       6
#     2   2   2   2   2   2
#     4   9  20  37  62  80 118 154 185 241 290 332
#     4  10  20  37  59  83 115 154 187 232 291 337
#     4  10  20  41  57  87 116 152 193 237 284 340
#     4  10  19  36  60  84 115 154 192 232 287 340
#     4  10  21  35  63  83 116 152 194 235 285 340
#     4   9  19  38  60  79 119 150 188 236 287 335
#
# _framework density 19.878788
#
# number of rings (size 3 to 8) (size 9 to 14) (size 15 to 20)
#    1.000    1.333    1.667    1.000    0.000    2.667 
#    3.000   10.000    0.000    0.000    0.000    0.000 
#    0.000    0.000    0.000    0.000    0.000    0.000 
#
# Total GULP energy -148674.487069 kJ/mol
# GULP energy per Si atom -12389.540589 kJ/mol
# Density = 1.983354 g / cm^3
# Si number density = 19.878788 Si / 1000 Ang^3
#
#
#
# Elastic Constant Matrix: (Units=GPa)
#
#
# Indices 1 2 3 4 5 6 
#
# 1 71.8860 49.4627 34.9785 -9.2964 -30.9815 4.5684
# 2 49.4627 124.7084 46.0996 -18.2920 -13.4452 -17.5481
# 3 34.9785 46.0996 137.9511 -22.2110 -24.3876 -4.4395
# 4 -9.2964 -18.2920 -22.2110 37.6936 -5.3251 -7.3311
# 5 -30.9815 -13.4452 -24.3876 -5.3251 30.5163 -2.8850
# 6 4.5684 -17.5481 -4.4395 -7.3311 -2.8850 37.9071
#
#
#
# Elastic Compliance Matrix: (Units=1/GPa)
#
#
# Indices 1 2 3 4 5 6 
#
# 1 0.037587 -0.011085 0.001804 0.009048 0.035826 -0.004974
# 2 -0.011085 0.014311 -0.001983 0.003898 -0.005088 0.008095
# 3 0.001804 -0.001983 0.010788 0.007909 0.011197 0.002510
# 4 0.009048 0.003898 0.007909 0.041160 0.025497 0.011541
# 5 0.035826 -0.005088 0.011197 0.025497 0.080838 0.005722
# 6 -0.004974 0.008095 0.002510 0.011541 0.005722 0.033688
#
#
# Mechanical properties :
#
#
# Convention : Reuss Voigt Hill
#
# Bulk Modulus (GPa) = 24.90192 66.18081 45.54137
# Shear Modulus (GPa) = 19.66291 34.82373 27.24332
#
# Velocity S-wave (km/s) = 3.14847 4.19000 3.70600
# Velocity P-wave (km/s) = 5.07654 7.53476 6.42432
#
# Compressibility (1/GPa) = 0.04015754
#
# Stress axis : x y z
#
# Youngs Moduli (GPa) = 26.60488 69.87817 92.69782
#
# Poissons Ratio (x) = 0.77461 -0.16724
# Poissons Ratio (y) = 0.29492 0.18381
# Poissons Ratio (z) = -0.04800 0.13856
#
# Static dielectric constant tensor:
#      x y z
#    x 3.370660 -0.512850 -0.271250 
#    y -0.512850 4.043760 0.088070 
#    z -0.271250 0.088070 3.773550 
# 
# 
# High freq. dielectric constant tensor:
#      x y z
#    x 1.730520 -0.025560 -0.018280 
#    y -0.025560 1.775190 -0.003640 
#    z -0.018280 -0.003640 1.789410 
# 
# From -- ./inp_files/395636.got.cif
#   From: 2010.06.25/outbox.cif.g09.slc.cpg/sg2_198_cif.got.tgz:395636.got - 2010.06.27 13:26:56.
