data_PCOD8043752
_publ_section_title
;
Structure prediction by ZEFSAII (Michael W. Deem and Ramdas Pophale) SiO2 
 PCOD8043752
Probable space group: P -1
;
_chemical_formula_sum "Si O2"
_cell_formula_units_Z 16
_cell_length_a 18.073133
_cell_length_b 12.425523
_cell_length_c 11.801356
_cell_angle_alpha 140.684681
_cell_angle_beta 47.486961
_cell_angle_gamma 149.946175
_cell_volume 840.779958
_symmetry_space_group_name_H-M "P -1"
_symmetry_group_IT_number 2
_symmetry_cell_setting 'triclinic'
loop_
_space_group_symop_operation_xyz
x,y,z
-x,-y,-z
loop_
_atom_site_type_symbol
_atom_site_label
_atom_site_fract_x
_atom_site_fract_y
_atom_site_fract_z
Si Si1 0.995993 0.235075 0.762457
Si Si2 0.766825 0.949961 0.947828
Si Si3 0.097186 0.962992 0.901007
Si Si4 0.792577 0.350719 0.289014
Si Si5 0.384631 0.528724 0.431259
Si Si6 0.030019 0.535139 0.365762
Si Si7 0.275224 0.078907 0.589855
Si Si8 0.203575 0.187875 0.539053
O O1 0.122244 0.515200 0.810304
O O2 0.067515 0.147368 0.656245
O O3 0.915798 0.195348 0.927763
O O4 0.867670 0.057998 0.655785
O O5 0.664418 0.696546 0.775205
O O6 0.797926 0.877364 0.969233
O O7 0.700939 0.056927 0.135752
O O8 0.198629 0.037952 0.751839
O O9 0.981574 0.675472 0.828732
O O10 0.000000 0.000000 0.000000
O O11 0.688441 0.381487 0.453581
O O12 0.907809 0.491005 0.387979
O O13 0.558285 0.767110 0.432125
O O14 0.341921 0.438165 0.531529
O O15 0.000000 0.500000 0.500000
O O16 0.192285 0.814106 0.404035
O O17 0.264974 0.218890 0.624478
#
# Coordination Sequence:
#
# PCOD8043752 Si02
#       8
#     2   2   2   2   2   2   2   2
#     4   9  16  30  59  88 107 150 185 245 282 315
#     4  10  21  36  55  87 116 143 201 229 280 345
#     4  10  22  37  59  85 109 148 190 248 280 325
#     4  10  19  37  58  84 114 148 192 239 280 332
#     4  10  23  36  59  85 118 159 179 231 292 339
#     4   9  20  35  58  82 106 143 194 235 275 330
#     4  11  20  38  58  83 119 150 187 232 287 339
#     4   9  17  31  59  88 113 146 196 225 284 342
#
# _framework density 19.029948000000001
#
# number of rings (size 3 to 8) (size 9 to 14) (size 15 to 20)
#    0.000    2.250    1.250    2.250    3.500    0.500 
#    2.250    5.625    0.000    4.500    0.000    0.000 
#    0.000    0.000    0.000    0.000    0.000    0.000 
#
# Total GULP energy -198213.943518 kJ/mol
# GULP energy per Si atom -12388.371470 kJ/mol
# Density = 1.898664 g / cm^3
# Si number density = 19.029948 Si / 1000 Ang^3
#
#
#
# Elastic Constant Matrix: (Units=GPa)
#
#
# Indices 1 2 3 4 5 6 
#
# 1 132.5123 56.1866 48.3463 3.6969 -3.8655 -4.4249
# 2 56.1866 90.7853 41.4794 4.0577 -7.0157 15.4014
# 3 48.3463 41.4794 82.7728 9.0881 -6.6986 6.0263
# 4 3.6969 4.0577 9.0881 23.3340 -6.4220 4.6343
# 5 -3.8655 -7.0157 -6.6986 -6.4220 29.3421 -4.9611
# 6 -4.4249 15.4014 6.0263 4.6343 -4.9611 28.8892
#
#
#
# Elastic Compliance Matrix: (Units=1/GPa)
#
#
# Indices 1 2 3 4 5 6 
#
# 1 0.012104 -0.006647 -0.004154 -0.000390 0.000042 0.006334
# 2 -0.006647 0.019227 -0.005130 0.002106 0.001267 -0.010319
# 3 -0.004154 -0.005130 0.017754 -0.004940 0.001093 -0.000625
# 4 -0.000390 0.002106 -0.004940 0.048159 0.008788 -0.006368
# 5 0.000042 0.001267 0.001093 0.008788 0.037254 0.004091
# 6 0.006334 -0.010319 -0.000625 -0.006368 0.004091 0.042941
#
#
# Mechanical properties :
#
#
# Convention : Reuss Voigt Hill
#
# Bulk Modulus (GPa) = 58.05897 66.45499 62.25698
# Shear Modulus (GPa) = 23.25130 26.98359 25.11744
#
# Velocity S-wave (km/s) = 3.49926 3.76966 3.63697
# Velocity P-wave (km/s) = 6.84849 7.34467 7.10092
#
# Compressibility (1/GPa) = 0.01722387
#
# Stress axis : x y z
#
# Youngs Moduli (GPa) = 82.61753 52.00990 56.32413
#
# Poissons Ratio (x) = 0.34572 0.23394
# Poissons Ratio (y) = 0.54917 0.28895
# Poissons Ratio (z) = 0.34316 0.26682
#
# Static dielectric constant tensor:
#      x y z
#    x 3.592130 -0.236870 0.094740 
#    y -0.236870 3.486370 0.173910 
#    z 0.094740 0.173910 3.809270 
# 
# 
# High freq. dielectric constant tensor:
#      x y z
#    x 1.743280 -0.024440 0.002770 
#    y -0.024440 1.722050 0.002690 
#    z 0.002770 0.002690 1.734260 
# 
# From -- ./inp_files/176377.got.cif
#   From: 2010.06.25/outbox.cif.g09.slc.cpg/sg2_89_cif.got.tgz:176377.got - 2010.06.27 13:26:56.
