data_PCOD8043903
_publ_section_title
;
Structure prediction by ZEFSAII (Michael W. Deem and Ramdas Pophale) SiO2 
 PCOD8043903
Probable space group: P -1
;
_chemical_formula_sum "Si O2"
_cell_formula_units_Z 16
_cell_length_a 9.293640
_cell_length_b 23.984683
_cell_length_c 21.972689
_cell_angle_alpha 160.576962
_cell_angle_beta 29.228528
_cell_angle_gamma 143.526545
_cell_volume 789.901211
_symmetry_space_group_name_H-M "P -1"
_symmetry_group_IT_number 2
_symmetry_cell_setting 'triclinic'
loop_
_space_group_symop_operation_xyz
x,y,z
-x,-y,-z
loop_
_atom_site_type_symbol
_atom_site_label
_atom_site_fract_x
_atom_site_fract_y
_atom_site_fract_z
Si Si1 0.104010 0.170028 0.206098
Si Si2 0.465866 0.814534 0.489735
Si Si3 0.891046 0.595655 0.936624
Si Si4 0.682098 0.206940 0.286695
Si Si5 0.717111 0.940154 0.411344
Si Si6 0.134537 0.197505 0.559458
Si Si7 0.381016 0.543622 0.995453
Si Si8 0.454645 0.486007 0.430854
O O1 0.300626 0.319624 0.301474
O O2 0.870484 0.161770 0.338596
O O3 0.947176 0.214410 0.244958
O O4 0.300269 0.986357 0.943423
O O5 0.508341 0.939006 0.546547
O O6 0.683278 0.869397 0.517665
O O7 0.553514 0.622334 0.239478
O O8 0.693412 0.618887 0.971100
O O9 0.223363 0.530262 0.732766
O O10 0.886312 0.760111 0.148466
O O11 0.760558 0.460589 0.889166
O O12 0.365512 0.261898 0.492385
O O13 0.719936 0.342502 0.358063
O O14 0.500000 0.000000 0.500000
O O15 0.985080 0.049462 0.431019
O O16 0.867548 0.334392 0.822862
O O17 0.500000 0.500000 0.500000
#
# Coordination Sequence:
#
# PCOD8043903 Si02
#       8
#     2   2   2   2   2   2   2   2
#     4  10  23  45  64  89 127 165 212 257 306 367
#     4  10  23  38  59  90 122 154 201 250 302 361
#     4  10  21  37  57  89 119 155 200 244 303 370
#     4  10  23  43  67  89 122 170 209 258 308 364
#     4  11  22  37  60  88 123 161 194 247 311 365
#     4  11  20  39  63  89 117 156 202 250 305 363
#     4  10  19  37  61  83 122 153 190 250 302 356
#     4  12  24  39  64  95 126 163 212 255 311 370
#
# _framework density 20.255697000000001
#
# number of rings (size 3 to 8) (size 9 to 14) (size 15 to 20)
#    0.000    1.500    2.500    2.625    0.000    2.500 
#    2.250    0.000    0.000    0.000    0.000    0.000 
#    0.000    0.000    0.000    0.000    0.000    0.000 
#
# Total GULP energy -198321.939863 kJ/mol
# GULP energy per Si atom -12395.121241 kJ/mol
# Density = 2.020959 g / cm^3
# Si number density = 20.255697 Si / 1000 Ang^3
#
#
#
# Elastic Constant Matrix: (Units=GPa)
#
#
# Indices 1 2 3 4 5 6 
#
# 1 115.1193 58.2826 34.1380 5.4410 5.0514 4.1506
# 2 58.2826 71.1673 27.1822 9.1316 0.1235 4.7635
# 3 34.1380 27.1822 86.9619 -0.3471 -5.0374 1.9893
# 4 5.4410 9.1316 -0.3471 29.8332 4.9505 1.5644
# 5 5.0514 0.1235 -5.0374 4.9505 29.7323 2.9835
# 6 4.1506 4.7635 1.9893 1.5644 2.9835 44.0064
#
#
#
# Elastic Compliance Matrix: (Units=1/GPa)
#
#
# Indices 1 2 3 4 5 6 
#
# 1 0.015571 -0.011943 -0.002566 0.001321 -0.003262 0.000114
# 2 -0.011943 0.025966 -0.003271 -0.006151 0.002541 -0.001490
# 3 -0.002566 -0.003271 0.013689 0.001211 0.002591 -0.000241
# 4 0.001321 -0.006151 0.001211 0.036189 -0.005980 -0.000395
# 5 -0.003262 0.002541 0.002591 -0.005980 0.035843 -0.002302
# 6 0.000114 -0.001490 -0.000241 -0.000395 -0.002302 0.023055
#
#
# Mechanical properties :
#
#
# Convention : Reuss Voigt Hill
#
# Bulk Modulus (GPa) = 50.84852 56.93935 53.89394
# Shear Modulus (GPa) = 25.98366 30.95745 28.47055
#
# Velocity S-wave (km/s) = 3.58548 3.91363 3.75314
# Velocity P-wave (km/s) = 6.50375 6.97089 6.74137
#
# Compressibility (1/GPa) = 0.01966625
#
# Stress axis : x y z
#
# Youngs Moduli (GPa) = 64.22365 38.51143 73.04908
#
# Poissons Ratio (x) = 0.45995 0.18741
# Poissons Ratio (y) = 0.76703 0.23896
# Poissons Ratio (z) = 0.16477 0.12598
#
# Static dielectric constant tensor:
#      x y z
#    x 1.898020 -0.945850 -1.217830 
#    y -0.945850 3.253160 -0.662530 
#    z -1.217830 -0.662530 3.015620 
# 
# 
# High freq. dielectric constant tensor:
#      x y z
#    x 1.798060 0.010040 0.000760 
#    y 0.010040 1.787880 -0.001810 
#    z 0.000760 -0.001810 1.795440 
# 
# From -- ./inp_files/187640.got.cif
#   From: 2010.06.25/outbox.cif.g09.slc.cpg/sg2_94_cif.got.tgz:187640.got - 2010.06.27 13:26:56.
