data_PCOD8043374
_publ_section_title
;
Structure prediction by ZEFSAII (Michael W. Deem and Ramdas Pophale) SiO2 
 PCOD8043374
Probable space group: P -1
;
_chemical_formula_sum "Si O2"
_cell_formula_units_Z 16
_cell_length_a 9.415513
_cell_length_b 11.985881
_cell_length_c 9.080374
_cell_angle_alpha 80.687799
_cell_angle_beta 91.753785
_cell_angle_gamma 48.991437
_cell_volume 750.113158
_symmetry_space_group_name_H-M "P -1"
_symmetry_group_IT_number 2
_symmetry_cell_setting 'triclinic'
loop_
_space_group_symop_operation_xyz
x,y,z
-x,-y,-z
loop_
_atom_site_type_symbol
_atom_site_label
_atom_site_fract_x
_atom_site_fract_y
_atom_site_fract_z
Si Si1 0.221978 0.969480 0.142384
Si Si2 0.743593 0.595560 0.058079
Si Si3 0.353073 0.493020 0.420639
Si Si4 0.946537 0.712210 0.990290
Si Si5 0.525535 0.379944 0.133031
Si Si6 0.640235 0.719700 0.337389
Si Si7 0.147242 0.950896 0.810828
Si Si8 0.924447 0.769556 0.318312
O O1 0.430449 0.862279 0.243414
O O2 0.147218 0.135592 0.132395
O O3 0.225828 0.933912 0.979880
O O4 0.078835 0.958577 0.219785
O O5 0.743460 0.597512 0.234127
O O6 0.850750 0.423206 0.048848
O O7 0.822578 0.666688 0.973659
O O8 0.540378 0.692191 0.951940
O O9 0.500000 0.500000 0.500000
O O10 0.398049 0.470618 0.253697
O O11 0.379413 0.350647 0.508026
O O12 0.134865 0.643678 0.423584
O O13 0.966233 0.732701 0.155869
O O14 0.738713 0.219586 0.215250
O O15 0.500000 0.500000 0.000000
O O16 0.769001 0.760903 0.373910
O O17 0.162607 0.058401 0.691814
#
# Coordination Sequence:
#
# PCOD8043374 Si02
#       8
#     2   2   2   2   2   2   2   2
#     4  10  20  36  61  95 130 161 207 253 321 362
#     4  10  19  36  61  94 123 158 214 256 309 356
#     4  12  26  44  64  91 129 168 209 256 317 380
#     4   9  19  34  62  95 126 160 206 266 300 365
#     4  12  24  40  66  93 123 161 217 260 311 367
#     4  11  23  40  65  94 130 170 205 253 318 378
#     4  10  22  37  64  94 127 161 211 264 305 367
#     4  10  22  41  64  94 129 167 210 256 314 371
#
# _framework density 21.330113999999998
#
# number of rings (size 3 to 8) (size 9 to 14) (size 15 to 20)
#    0.000    1.500    2.500    2.625    5.250    1.500 
#    0.000    4.375    0.000    0.000    0.000    0.000 
#    0.000    0.000    0.000    0.000    0.000    0.000 
#
# Total GULP energy -198265.914249 kJ/mol
# GULP energy per Si atom -12391.619641 kJ/mol
# Density = 2.128157 g / cm^3
# Si number density = 21.330114 Si / 1000 Ang^3
#
#
#
# Elastic Constant Matrix: (Units=GPa)
#
#
# Indices 1 2 3 4 5 6 
#
# 1 150.0251 53.8611 45.6790 -24.4656 -0.9393 -3.0188
# 2 53.8611 114.4787 15.3810 -21.7994 -11.0487 7.9768
# 3 45.6790 15.3810 64.7182 -14.8616 -16.9712 8.2054
# 4 -24.4656 -21.7994 -14.8616 31.1645 -1.5499 0.0177
# 5 -0.9393 -11.0487 -16.9712 -1.5499 34.2151 -8.7551
# 6 -3.0188 7.9768 8.2054 0.0177 -8.7551 34.5286
#
#
#
# Elastic Compliance Matrix: (Units=1/GPa)
#
#
# Indices 1 2 3 4 5 6 
#
# 1 0.010868 -0.004367 -0.007705 0.001595 -0.004162 0.002734
# 2 -0.004367 0.012380 0.003508 0.007167 0.005239 -0.002751
# 3 -0.007705 0.003508 0.026301 0.009610 0.013284 -0.004371
# 4 0.001595 0.007167 0.009610 0.043368 0.008674 -0.001623
# 5 -0.004162 0.005239 0.013284 0.008674 0.039112 0.005182
# 6 0.002734 -0.002751 -0.004371 -0.001623 0.005182 0.032190
#
#
# Mechanical properties :
#
#
# Convention : Reuss Voigt Hill
#
# Bulk Modulus (GPa) = 30.84297 62.11823 46.48060
# Shear Modulus (GPa) = 26.02085 34.26838 30.14461
#
# Velocity S-wave (km/s) = 3.49651 4.01256 3.76339
# Velocity P-wave (km/s) = 5.54905 7.11709 6.38142
#
# Compressibility (1/GPa) = 0.03242230
#
# Stress axis : x y z
#
# Youngs Moduli (GPa) = 92.01135 80.77245 38.02203
#
# Poissons Ratio (x) = 0.35271 0.29295
# Poissons Ratio (y) = 0.40178 -0.13338
# Poissons Ratio (z) = 0.70894 -0.28335
#
# Static dielectric constant tensor:
#      x y z
#    x 6.839970 -1.254770 1.034360 
#    y -1.254770 4.582700 -0.565120 
#    z 1.034360 -0.565120 3.900430 
# 
# 
# High freq. dielectric constant tensor:
#      x y z
#    x 1.857020 -0.001950 -0.000820 
#    y -0.001950 1.843290 -0.013910 
#    z -0.000820 -0.013910 1.798800 
# 
# From -- ./inp_files/186697.got.cif
#   From: 2010.06.25/outbox.cif.g09.slc.cpg/sg2_94_cif.got.tgz:186697.got - 2010.06.27 13:26:56.
