data_PCOD8043309
_publ_section_title
;
Structure prediction by ZEFSAII (Michael W. Deem and Ramdas Pophale) SiO2 
 PCOD8043309
Probable space group: P -1
;
_chemical_formula_sum "Si O2"
_cell_formula_units_Z 16
_cell_length_a 12.155110
_cell_length_b 14.241702
_cell_length_c 15.082789
_cell_angle_alpha 151.870490
_cell_angle_beta 35.554530
_cell_angle_gamma 135.382525
_cell_volume 715.638074
_symmetry_space_group_name_H-M "P -1"
_symmetry_group_IT_number 2
_symmetry_cell_setting 'triclinic'
loop_
_space_group_symop_operation_xyz
x,y,z
-x,-y,-z
loop_
_atom_site_type_symbol
_atom_site_label
_atom_site_fract_x
_atom_site_fract_y
_atom_site_fract_z
Si Si1 0.622355 0.932119 0.071022
Si Si2 0.435916 0.498750 0.324748
Si Si3 0.645913 0.764476 0.102026
Si Si4 0.319377 0.659529 0.356178
Si Si5 0.825833 0.378136 0.047757
Si Si6 0.291107 0.478470 0.582968
Si Si7 0.661765 0.961762 0.789221
Si Si8 0.031964 0.988757 0.865185
O O1 0.615610 0.717662 0.853430
O O2 0.825842 0.021351 0.983168
O O3 0.599359 0.918959 0.181399
O O4 0.449054 0.063053 0.253074
O O5 0.416105 0.650491 0.382475
O O6 0.646626 0.497426 0.224071
O O7 0.286610 0.559114 0.551618
O O8 0.460820 0.765576 0.284690
O O9 0.817863 0.840748 0.114209
O O10 0.717560 0.556107 0.840302
O O11 0.120869 0.778093 0.596068
O O12 0.841469 0.392868 0.157140
O O13 0.000000 0.500000 0.000000
O O14 0.812461 0.142319 0.836059
O O15 0.500000 0.500000 0.500000
O O16 0.229861 0.245449 0.433195
O O17 0.500000 0.000000 0.000000
O O18 0.000000 0.000000 0.000000
#
# Coordination Sequence:
#
# PCOD8043309 Si02
#       8
#     2   2   2   2   2   2   2   2
#     4   9  19  36  59  86 114 147 199 237 291 346
#     4   9  19  37  59  83 112 160 196 231 293 359
#     4   9  20  37  58  82 115 157 190 237 293 355
#     4  10  20  39  59  79 122 155 189 237 301 345
#     4  10  22  39  57  89 123 147 200 257 286 349
#     4  10  19  36  61  85 112 157 202 233 290 356
#     4  11  19  39  66  82 119 163 188 244 296 350
#     4  10  21  36  56  87 115 144 198 250 280 347
#
# _framework density 22.357669999999999
#
# number of rings (size 3 to 8) (size 9 to 14) (size 15 to 20)
#    0.000    2.250    3.750    0.375    0.000    9.000 
#    2.250    7.500    0.000    0.000    0.000    0.000 
#    0.000    0.000    0.000    0.000    0.000    0.000 
#
# Total GULP energy -198236.591972 kJ/mol
# GULP energy per Si atom -12389.786998 kJ/mol
# Density = 2.230678 g / cm^3
# Si number density = 22.357670 Si / 1000 Ang^3
#
#
#
# Elastic Constant Matrix: (Units=GPa)
#
#
# Indices 1 2 3 4 5 6 
#
# 1 84.4488 48.1504 20.4546 -9.8838 9.7898 -4.1073
# 2 48.1504 109.3298 24.3007 -9.4031 2.7557 7.2361
# 3 20.4546 24.3007 84.3994 -3.1456 13.1978 -0.1361
# 4 -9.8838 -9.4031 -3.1456 30.9929 -4.0444 8.7104
# 5 9.7898 2.7557 13.1978 -4.0444 15.4595 -4.8471
# 6 -4.1073 7.2361 -0.1361 8.7104 -4.8471 37.1794
#
#
#
# Elastic Compliance Matrix: (Units=1/GPa)
#
#
# Indices 1 2 3 4 5 6 
#
# 1 0.017393 -0.007259 -0.000809 0.001687 -0.007994 0.001894
# 2 -0.007259 0.013315 -0.002613 0.003000 0.004120 -0.003569
# 3 -0.000809 -0.002613 0.014644 -0.000885 -0.012034 -0.000889
# 4 0.001687 0.003000 -0.000885 0.036736 0.006192 -0.008200
# 5 -0.007994 0.004120 -0.012034 0.006192 0.083315 0.007682
# 6 0.001894 -0.003569 -0.000889 -0.008200 0.007682 0.030720
#
#
# Mechanical properties :
#
#
# Convention : Reuss Voigt Hill
#
# Bulk Modulus (GPa) = 41.68379 51.55438 46.61909
# Shear Modulus (GPa) = 22.17488 29.07784 25.62636
#
# Velocity S-wave (km/s) = 3.15274 3.61026 3.38923
# Velocity P-wave (km/s) = 5.65133 6.36299 6.01769
#
# Compressibility (1/GPa) = 0.02399014
#
# Stress axis : x y z
#
# Youngs Moduli (GPa) = 57.49599 75.10546 68.28689
#
# Poissons Ratio (x) = 0.54518 0.05525
# Poissons Ratio (y) = 0.41735 0.17840
# Poissons Ratio (z) = 0.04652 0.19622
#
# Static dielectric constant tensor:
#      x y z
#    x 4.647710 -0.142630 0.391020 
#    y -0.142630 4.345230 0.089650 
#    z 0.391020 0.089650 6.903150 
# 
# 
# High freq. dielectric constant tensor:
#      x y z
#    x 1.869340 0.000580 0.030940 
#    y 0.000580 1.882790 0.012400 
#    z 0.030940 0.012400 1.865930 
# 
# From -- ./inp_files/522586.got.cif
#   From: 2010.06.25/outbox.cif.g09.slc.cpg/sg2_262_cif.got.tgz:522586.got - 2010.06.27 13:26:56.
