data_PCOD8043349
_publ_section_title
;
Structure prediction by ZEFSAII (Michael W. Deem and Ramdas Pophale) SiO2 
 PCOD8043349
Probable space group: P -1
;
_chemical_formula_sum "Si O2"
_cell_formula_units_Z 16
_cell_length_a 9.950395
_cell_length_b 31.167297
_cell_length_c 5.158985
_cell_angle_alpha 104.074929
_cell_angle_beta 121.781928
_cell_angle_gamma 38.861459
_cell_volume 810.476832
_symmetry_space_group_name_H-M "P -1"
_symmetry_group_IT_number 2
_symmetry_cell_setting 'triclinic'
loop_
_space_group_symop_operation_xyz
x,y,z
-x,-y,-z
loop_
_atom_site_type_symbol
_atom_site_label
_atom_site_fract_x
_atom_site_fract_y
_atom_site_fract_z
Si Si1 0.790390 0.091422 0.216848
Si Si2 0.264341 0.839898 0.223466
Si Si3 0.710278 0.939263 0.828687
Si Si4 0.295723 0.422895 0.649589
Si Si5 0.921271 0.397262 0.803671
Si Si6 0.554878 0.560133 0.683230
Si Si7 0.743340 0.670400 0.466065
Si Si8 0.341203 0.964737 0.743936
O O1 0.744780 0.136102 0.468186
O O2 0.627027 0.082797 0.094253
O O3 0.686274 0.133295 0.902363
O O4 0.092412 0.010669 0.373954
O O5 0.488633 0.755241 0.317809
O O6 0.002333 0.871268 0.922005
O O7 0.613033 0.912675 0.795957
O O8 0.500000 0.000000 0.500000
O O9 0.724931 0.973731 0.108705
O O10 0.396499 0.417356 0.468743
O O11 0.341890 0.360692 0.613753
O O12 0.000000 0.500000 0.500000
O O13 0.461581 0.409098 0.022773
O O14 0.787976 0.474133 0.811523
O O15 0.715164 0.404281 0.572058
O O16 0.107027 0.357914 0.690817
O O17 0.078294 0.351372 0.153677
#
# Coordination Sequence:
#
# PCOD8043349 Si02
#       8
#     2   2   2   2   2   2   2   2
#     4  10  21  38  61  88 115 154 205 245 293 357
#     4  11  24  40  58  85 123 163 197 242 306 370
#     4  10  19  36  61  89 120 151 198 249 300 349
#     4  12  21  38  63  96 121 156 206 258 300 363
#     4  11  22  40  63  89 120 159 201 255 303 365
#     4  11  22  38  64  94 118 150 209 260 302 343
#     4  12  24  40  62  86 126 167 201 247 316 368
#     4   9  20  34  61  91 114 149 200 258 292 340
#
# _framework density 19.741465000000002
#
# number of rings (size 3 to 8) (size 9 to 14) (size 15 to 20)
#    0.000    1.250    3.750    2.625    1.750    3.500 
#    0.000    3.750    2.750    0.000    0.000    0.000 
#    0.000    0.000    0.000    0.000    0.000    0.000 
#
# Total GULP energy -198390.680927 kJ/mol
# GULP energy per Si atom -12399.417558 kJ/mol
# Density = 1.969653 g / cm^3
# Si number density = 19.741465 Si / 1000 Ang^3
#
#
#
# Elastic Constant Matrix: (Units=GPa)
#
#
# Indices 1 2 3 4 5 6 
#
# 1 99.6287 -26.0072 22.9421 -20.5983 25.0989 47.3984
# 2 -26.0072 2.7404 2.6168 -7.2207 37.7966 49.8477
# 3 22.9421 2.6168 96.6794 -12.9391 1.3976 8.8175
# 4 -20.5983 -7.2207 -12.9391 30.4882 -1.8420 -11.0864
# 5 25.0989 37.7966 1.3976 -1.8420 24.8120 -14.6169
# 6 47.3984 49.8477 8.8175 -11.0864 -14.6169 -3.0216
#
#
#
# Elastic Compliance Matrix: (Units=1/GPa)
#
#
# Indices 1 2 3 4 5 6 
#
# 1 0.007814 -0.005208 -0.001408 0.004796 0.002410 0.003304
# 2 -0.005208 0.007624 0.000140 0.004079 0.002947 0.015274
# 3 -0.001408 0.000140 0.011230 0.003495 0.000243 -0.001010
# 4 0.004796 0.004079 0.003495 0.041957 -0.002303 0.009919
# 5 0.002410 0.002947 0.000243 -0.002303 0.023248 -0.016879
# 6 0.003304 0.015274 -0.001010 0.009919 -0.016879 0.015172
#
#
# Mechanical properties :
#
#
# Convention : Reuss Voigt Hill
#
# Bulk Modulus (GPa) = 72.90176 22.01689 47.45933
# Shear Modulus (GPa) = 40.13824 23.75551 31.94688
#
# Velocity S-wave (km/s) = 4.51399 3.47267 4.02713
# Velocity P-wave (km/s) = 8.01103 5.22073 6.76138
#
# Compressibility (1/GPa) = 0.01371709
#
# Stress axis : x y z
#
# Youngs Moduli (GPa) = 127.97018 131.16164 89.04602
#
# Poissons Ratio (x) = 0.68305 0.12535
# Poissons Ratio (y) = 0.66643 -0.01243
# Poissons Ratio (z) = 0.18015 -0.01832
#
# Static dielectric constant tensor:
#      x y z
#    x 4.076840 -0.075530 -0.017430 
#    y -0.075530 3.382020 -0.072140 
#    z -0.017430 -0.072140 3.216200 
# 
# 
# High freq. dielectric constant tensor:
#      x y z
#    x 1.791320 0.001290 -0.000310 
#    y 0.001290 1.740240 0.011030 
#    z -0.000310 0.011030 1.776010 
# 
# From -- ./inp_files/56480.got.cif
#   From: 2010.06.25/outbox.cif.g09.slc.cpg/sg2_29_cif.got.tgz:56480.got - 2010.06.27 13:26:56.
