data_PCOD8043925
_publ_section_title
;
Structure prediction by ZEFSAII (Michael W. Deem and Ramdas Pophale) SiO2 
 PCOD8043925
Probable space group: P -1
;
_chemical_formula_sum "Si O2"
_cell_formula_units_Z 16
_cell_length_a 13.674992
_cell_length_b 11.538584
_cell_length_c 11.372232
_cell_angle_alpha 110.205241
_cell_angle_beta 94.255964
_cell_angle_gamma 32.282316
_cell_volume 810.070265
_symmetry_space_group_name_H-M "P -1"
_symmetry_group_IT_number 2
_symmetry_cell_setting 'triclinic'
loop_
_space_group_symop_operation_xyz
x,y,z
-x,-y,-z
loop_
_atom_site_type_symbol
_atom_site_label
_atom_site_fract_x
_atom_site_fract_y
_atom_site_fract_z
Si Si1 0.553910 0.083773 0.896547
Si Si2 0.372348 0.556465 0.667551
Si Si3 0.959278 0.336590 0.646932
Si Si4 0.014834 0.438109 0.349202
Si Si5 0.669525 0.144424 0.357082
Si Si6 0.986819 0.215128 0.342285
Si Si7 0.485288 0.887852 0.835309
Si Si8 0.541997 0.340534 0.863265
O O1 0.451096 0.316446 0.907793
O O2 0.752272 0.839592 0.754569
O O3 0.423773 0.099996 0.884181
O O4 0.602685 0.059861 0.028930
O O5 0.533450 0.300338 0.516877
O O6 0.380293 0.690049 0.677528
O O7 0.147188 0.753682 0.694071
O O8 0.422365 0.492739 0.785856
O O9 0.063320 0.360313 0.665324
O O10 0.965891 0.263622 0.495836
O O11 0.727896 0.598393 0.760522
O O12 0.093875 0.111090 0.672639
O O13 0.000000 0.500000 0.500000
O O14 0.906129 0.423401 0.330635
O O15 0.620471 0.071063 0.262569
O O16 0.218204 0.930407 0.232764
O O17 0.500000 0.500000 0.000000
#
# Coordination Sequence:
#
# PCOD8043925 Si02
#       8
#     2   2   2   2   2   2   2   2
#     4   9  20  38  62  89 120 156 193 237 295 353
#     4  11  24  38  57  88 118 155 203 238 287 351
#     4  10  19  37  61  87 114 155 193 238 302 341
#     4   8  17  34  60  87 116 150 192 239 290 344
#     4  11  23  37  58  89 119 153 199 245 287 347
#     4  10  20  39  59  86 119 150 194 247 287 349
#     4  10  20  40  62  88 121 152 192 244 296 345
#     4  11  23  41  61  85 122 159 192 240 294 347
#
# _framework density 19.751373000000001
#
# number of rings (size 3 to 8) (size 9 to 14) (size 15 to 20)
#    0.000    2.000    2.500    0.750    0.000    4.000 
#    0.000    9.375    0.000    0.000    0.000    0.000 
#    0.000    0.000    0.000    0.000    0.000    0.000 
#
# Total GULP energy -198276.399127 kJ/mol
# GULP energy per Si atom -12392.274945 kJ/mol
# Density = 1.970642 g / cm^3
# Si number density = 19.751373 Si / 1000 Ang^3
#
#
#
# Elastic Constant Matrix: (Units=GPa)
#
#
# Indices 1 2 3 4 5 6 
#
# 1 85.2246 34.9469 41.4802 -14.0043 8.9875 7.2019
# 2 34.9469 86.5608 41.4105 -13.7407 6.0878 4.8959
# 3 41.4802 41.4105 118.0045 -8.9038 8.6841 12.7712
# 4 -14.0043 -13.7407 -8.9038 31.7523 -0.9918 -3.9200
# 5 8.9875 6.0878 8.6841 -0.9918 32.8852 -0.8995
# 6 7.2019 4.8959 12.7712 -3.9200 -0.8995 32.8032
#
#
#
# Elastic Compliance Matrix: (Units=1/GPa)
#
#
# Indices 1 2 3 4 5 6 
#
# 1 0.016177 -0.003841 -0.003707 0.004215 -0.002634 -0.001104
# 2 -0.003841 0.015589 -0.003817 0.004018 -0.000695 0.000463
# 3 -0.003707 -0.003817 0.011531 -0.000493 -0.001428 -0.003204
# 4 0.004215 0.004018 -0.000493 0.035287 -0.000623 0.002867
# 5 -0.002634 -0.000695 -0.001428 -0.000623 0.031671 0.002032
# 6 -0.001104 0.000463 -0.003204 0.002867 0.002032 0.032304
#
#
# Mechanical properties :
#
#
# Convention : Reuss Voigt Hill
#
# Bulk Modulus (GPa) = 48.61820 58.38501 53.50161
# Shear Modulus (GPa) = 29.04538 30.95162 29.99850
#
# Velocity S-wave (km/s) = 3.83894 3.96291 3.90141
# Velocity P-wave (km/s) = 6.65721 7.11081 6.88775
#
# Compressibility (1/GPa) = 0.02056843
#
# Stress axis : x y z
#
# Youngs Moduli (GPa) = 61.81797 64.14631 86.72042
#
# Poissons Ratio (x) = 0.24636 0.32149
# Poissons Ratio (y) = 0.23742 0.33097
# Poissons Ratio (z) = 0.22917 0.24482
#
# Static dielectric constant tensor:
#      x y z
#    x 3.923210 0.458040 -0.090100 
#    y 0.458040 3.510810 0.139030 
#    z -0.090100 0.139030 3.734190 
# 
# 
# High freq. dielectric constant tensor:
#      x y z
#    x 1.773630 0.025090 -0.003290 
#    y 0.025090 1.747900 0.009470 
#    z -0.003290 0.009470 1.783020 
# 
# From -- ./inp_files/308061.got.cif
#   From: 2010.06.25/outbox.cif.g09.slc.cpg/sg2_155_cif.got.tgz:308061.got - 2010.06.27 13:26:56.
