data_PCOD8043325
_publ_section_title
;
Structure prediction by ZEFSAII (Michael W. Deem and Ramdas Pophale) SiO2 
 PCOD8043325
Probable space group: P -1
;
_chemical_formula_sum "Si O2"
_cell_formula_units_Z 16
_cell_length_a 5.092028
_cell_length_b 20.445716
_cell_length_c 9.910245
_cell_angle_alpha 113.161513
_cell_angle_beta 120.607361
_cell_angle_gamma 61.659696
_cell_volume 765.758908
_symmetry_space_group_name_H-M "P -1"
_symmetry_group_IT_number 2
_symmetry_cell_setting 'triclinic'
loop_
_space_group_symop_operation_xyz
x,y,z
-x,-y,-z
loop_
_atom_site_type_symbol
_atom_site_label
_atom_site_fract_x
_atom_site_fract_y
_atom_site_fract_z
Si Si1 0.151162 0.421466 0.398391
Si Si2 0.638741 0.037168 0.257361
Si Si3 0.463544 0.436708 0.208763
Si Si4 0.377896 0.340071 0.871118
Si Si5 0.483369 0.904409 0.009429
Si Si6 0.348584 0.611791 0.284885
Si Si7 0.754411 0.168839 0.882558
Si Si8 0.349202 0.935927 0.433213
O O1 0.293417 0.433009 0.301922
O O2 0.439211 0.367865 0.524687
O O3 0.000000 0.500000 0.500000
O O4 0.854062 0.389934 0.278069
O O5 0.541591 0.092490 0.407484
O O6 0.402749 0.989128 0.121112
O O7 0.658537 0.086493 0.172711
O O8 0.968337 0.972522 0.336487
O O9 0.394653 0.523476 0.223119
O O10 0.313279 0.399359 0.024665
O O11 0.544607 0.366555 0.812880
O O12 0.610888 0.258693 0.915156
O O13 0.023760 0.338256 0.738619
O O14 0.286680 0.860496 0.002883
O O15 0.865894 0.856406 0.072435
O O16 0.543062 0.136377 0.697061
O O17 0.500000 0.000000 0.500000
#
# Coordination Sequence:
#
# PCOD8043325 Si02
#       8
#     2   2   2   2   2   2   2   2
#     4  10  20  37  62  90 119 147 195 256 301 340
#     4   9  20  34  61  90 110 146 196 246 283 344
#     4  11  21  38  63  90 118 155 203 248 293 355
#     4  12  24  39  59  87 124 161 197 245 303 349
#     4  10  21  38  60  85 114 152 196 238 290 345
#     4  11  21  39  63  88 115 156 206 247 290 354
#     4  11  24  40  57  82 124 157 190 241 296 349
#     4  10  19  36  61  87 116 146 194 241 294 339
#
# _framework density 20.894304999999999
#
# number of rings (size 3 to 8) (size 9 to 14) (size 15 to 20)
#    0.000    1.500    1.250    6.000    1.750    1.500 
#    0.000    3.750    0.000    0.000    0.000    0.000 
#    0.000    0.000    0.000    0.000    0.000    0.000 
#
# Total GULP energy -198336.370282 kJ/mol
# GULP energy per Si atom -12396.023143 kJ/mol
# Density = 2.084675 g / cm^3
# Si number density = 20.894305 Si / 1000 Ang^3
#
#
#
# Elastic Constant Matrix: (Units=GPa)
#
#
# Indices 1 2 3 4 5 6 
#
# 1 95.2178 12.4671 13.1831 -1.8286 -14.0876 8.6007
# 2 12.4671 55.2122 24.1398 -10.6804 -20.9647 1.7546
# 3 13.1831 24.1398 86.6984 -18.8850 -15.7534 14.0992
# 4 -1.8286 -10.6804 -18.8850 17.0312 1.9606 0.2363
# 5 -14.0876 -20.9647 -15.7534 1.9606 37.5545 -15.3030
# 6 8.6007 1.7546 14.0992 0.2363 -15.3030 23.5828
#
#
#
# Elastic Compliance Matrix: (Units=1/GPa)
#
#
# Indices 1 2 3 4 5 6 
#
# 1 0.011307 -0.001422 -0.000718 -0.000715 0.002344 -0.002060
# 2 -0.001422 0.029046 -0.004146 0.011151 0.018564 0.012771
# 3 -0.000718 -0.004146 0.018412 0.017907 -0.000165 -0.010724
# 4 -0.000715 0.011151 0.017907 0.084966 0.005562 -0.008517
# 5 0.002344 0.018564 -0.000165 0.005562 0.049780 0.030109
# 6 -0.002060 0.012771 -0.010724 -0.008517 0.030109 0.068240
#
#
# Mechanical properties :
#
#
# Convention : Reuss Voigt Hill
#
# Bulk Modulus (GPa) = 21.64816 37.41202 29.53009
# Shear Modulus (GPa) = 17.25795 28.12294 22.69045
#
# Velocity S-wave (km/s) = 2.87708 3.67272 3.29897
# Velocity P-wave (km/s) = 4.62818 5.99411 5.35488
#
# Compressibility (1/GPa) = 0.04619331
#
# Stress axis : x y z
#
# Youngs Moduli (GPa) = 88.44037 34.42837 54.31094
#
# Poissons Ratio (x) = 0.04895 0.03901
# Poissons Ratio (y) = 0.12575 0.22517
# Poissons Ratio (z) = 0.06352 0.14274
#
# Static dielectric constant tensor:
#      x y z
#    x 4.509890 -0.215000 0.741080 
#    y -0.215000 3.282560 -0.344550 
#    z 0.741080 -0.344550 5.262360 
# 
# 
# High freq. dielectric constant tensor:
#      x y z
#    x 1.830570 0.000220 -0.002740 
#    y 0.000220 1.775170 -0.016440 
#    z -0.002740 -0.016440 1.834850 
# 
# From -- ./inp_files/140751.got.cif
#   From: 2010.06.25/outbox.cif.g09.slc.cpg/sg2_71_cif.got.tgz:140751.got - 2010.06.27 13:26:56.
