data_PCOD8043767
_publ_section_title
;
Structure prediction by ZEFSAII (Michael W. Deem and Ramdas Pophale) SiO2 
 PCOD8043767
Probable space group: P -1
;
_chemical_formula_sum "Si O2"
_cell_formula_units_Z 12
_cell_length_a 10.260055
_cell_length_b 16.335158
_cell_length_c 10.245973
_cell_angle_alpha 145.827990
_cell_angle_beta 137.752480
_cell_angle_gamma 59.018615
_cell_volume 626.412611
_symmetry_space_group_name_H-M "P -1"
_symmetry_group_IT_number 2
_symmetry_cell_setting 'triclinic'
loop_
_space_group_symop_operation_xyz
x,y,z
-x,-y,-z
loop_
_atom_site_type_symbol
_atom_site_label
_atom_site_fract_x
_atom_site_fract_y
_atom_site_fract_z
Si Si1 0.690090 0.367334 0.366334
Si Si2 0.068094 0.382656 0.807151
Si Si3 0.458814 0.055539 0.683240
Si Si4 0.401328 0.081676 0.145963
Si Si5 0.473748 0.591146 0.419510
Si Si6 0.027007 0.055346 0.444658
O O1 0.668448 0.524347 0.494215
O O2 0.590165 0.352427 0.415313
O O3 0.922641 0.358706 0.539958
O O4 0.566956 0.231995 0.007608
O O5 0.044661 0.232899 0.678273
O O6 0.300916 0.459283 0.047564
O O7 0.000000 0.500000 0.000000
O O8 0.221170 0.020171 0.479639
O O9 0.500000 0.000000 0.500000
O O10 0.546998 0.964344 0.734559
O O11 0.474928 0.262196 0.438341
O O12 0.500000 0.000000 0.000000
O O13 0.162679 0.036925 0.897975
O O14 0.000000 0.000000 0.500000
#
# Coordination Sequence:
#
# PCOD8043767 Si02
#       6
#     2   2   2   2   2   2
#     4  10  19  37  58  89 125 165 207 259 315 373
#     4  10  20  33  60  96 124 157 203 270 327 360
#     4  12  26  43  63  94 137 175 209 261 327 387
#     4  12  22  40  65  99 128 160 221 272 307 375
#     4  10  20  34  63  94 123 159 209 272 315 364
#     4  12  23  38  67  97 126 163 223 265 310 375
#
# _framework density 19.156703
#
# number of rings (size 3 to 8) (size 9 to 14) (size 15 to 20)
#    0.000    1.000    6.667    1.000    4.667    0.667 
#    0.000    0.833    0.000    2.000    0.000    0.000 
#    0.000    0.000    0.000    0.000    0.000    0.000 
#
# Total GULP energy -148768.553878 kJ/mol
# GULP energy per Si atom -12397.379490 kJ/mol
# Density = 1.911310 g / cm^3
# Si number density = 19.156703 Si / 1000 Ang^3
#
#
#
# Elastic Constant Matrix: (Units=GPa)
#
#
# Indices 1 2 3 4 5 6 
#
# 1 90.1087 50.2136 51.7513 -15.7916 -0.7303 -2.4776
# 2 50.2136 165.7183 62.8436 3.1024 7.2172 -2.8755
# 3 51.7513 62.8436 129.4264 -3.7486 15.8307 -1.9087
# 4 -15.7916 3.1024 -3.7486 43.9285 0.1512 7.9390
# 5 -0.7303 7.2172 15.8307 0.1512 28.9618 -7.7877
# 6 -2.4776 -2.8755 -1.9087 7.9390 -7.7877 22.6913
#
#
#
# Elastic Compliance Matrix: (Units=1/GPa)
#
#
# Indices 1 2 3 4 5 6 
#
# 1 0.017313 -0.003404 -0.005638 0.005885 0.004458 0.000456
# 2 -0.003404 0.008123 -0.002582 -0.002211 -0.000397 0.001078
# 3 -0.005638 -0.002582 0.012000 -0.000427 -0.006607 -0.002052
# 4 0.005885 -0.002211 -0.000427 0.026750 -0.001802 -0.009651
# 5 0.004458 -0.000397 -0.006607 -0.001802 0.042412 0.015067
# 6 0.000456 0.001078 -0.002052 -0.009651 0.015067 0.052631
#
#
# Mechanical properties :
#
#
# Convention : Reuss Voigt Hill
#
# Bulk Modulus (GPa) = 70.48863 79.43006 74.95935
# Shear Modulus (GPa) = 26.70852 33.81264 30.26058
#
# Velocity S-wave (km/s) = 3.73797 4.20581 3.97877
# Velocity P-wave (km/s) = 7.45020 8.07084 7.76673
#
# Compressibility (1/GPa) = 0.01418668
#
# Stress axis : x y z
#
# Youngs Moduli (GPa) = 57.76113 123.11454 83.33337
#
# Poissons Ratio (x) = 0.41913 0.46980
# Poissons Ratio (y) = 0.19664 0.21519
# Poissons Ratio (z) = 0.32564 0.31791
#
# Static dielectric constant tensor:
#      x y z
#    x 3.136390 -0.429840 0.556800 
#    y -0.429840 3.746960 -0.094930 
#    z 0.556800 -0.094930 3.858080 
# 
# 
# High freq. dielectric constant tensor:
#      x y z
#    x 1.688170 -0.024090 0.024390 
#    y -0.024090 1.770530 0.000210 
#    z 0.024390 0.000210 1.756650 
# 
# From -- ./inp_files/160313.got.cif
#   From: 2010.06.25/outbox.cif.g09.slc.cpg/sg2_81_cif.got.tgz:160313.got - 2010.06.27 13:26:56.
