data_PCOD8043547
_publ_section_title
;
Structure prediction by ZEFSAII (Michael W. Deem and Ramdas Pophale) SiO2 
 PCOD8043547
Probable space group: P -1
;
_chemical_formula_sum "Si O2"
_cell_formula_units_Z 16
_cell_length_a 10.623817
_cell_length_b 11.576838
_cell_length_c 14.307834
_cell_angle_alpha 65.369023
_cell_angle_beta 42.967178
_cell_angle_gamma 41.679842
_cell_volume 764.176924
_symmetry_space_group_name_H-M "P -1"
_symmetry_group_IT_number 2
_symmetry_cell_setting 'triclinic'
loop_
_space_group_symop_operation_xyz
x,y,z
-x,-y,-z
loop_
_atom_site_type_symbol
_atom_site_label
_atom_site_fract_x
_atom_site_fract_y
_atom_site_fract_z
Si Si1 0.818854 0.145667 0.799881
Si Si2 0.222865 0.504379 0.711883
Si Si3 0.306070 0.557862 0.453522
Si Si4 0.932739 0.167027 0.935042
Si Si5 0.877775 0.826979 0.913938
Si Si6 0.885692 0.952132 0.509506
Si Si7 0.589617 0.446884 0.166620
Si Si8 0.308289 0.188737 0.807475
O O1 0.914650 0.168476 0.833274
O O2 0.552951 0.345781 0.839608
O O3 0.053160 0.039045 0.633336
O O4 0.772809 0.019610 0.887373
O O5 0.282214 0.469979 0.579998
O O6 0.487323 0.429388 0.641087
O O7 0.150138 0.399570 0.820900
O O8 0.966800 0.717015 0.805545
O O9 0.411541 0.447893 0.334438
O O10 0.016444 0.753791 0.529295
O O11 0.161958 0.154334 0.837789
O O12 0.644335 0.351999 0.069660
O O13 0.000000 0.000000 0.000000
O O14 0.120297 0.687720 0.900819
O O15 0.648118 0.872247 0.085651
O O16 0.578326 0.086603 0.643493
O O17 0.000000 0.000000 0.500000
#
# Coordination Sequence:
#
# PCOD8043547 Si02
#       8
#     2   2   2   2   2   2   2   2
#     4  11  22  41  71  91 126 178 210 256 330 369
#     4  10  19  36  64  90 128 168 208 255 327 376
#     4   9  19  36  60  91 124 167 201 259 319 382
#     4  11  22  44  66  91 127 173 215 265 315 374
#     4  10  21  40  61  96 129 167 211 265 317 381
#     4  11  22  40  61  96 131 162 211 264 316 385
#     4   9  20  37  66  92 119 165 218 256 312 378
#     4  11  23  38  64  93 131 167 213 262 318 377
#
# _framework density 20.937560000000001
#
# number of rings (size 3 to 8) (size 9 to 14) (size 15 to 20)
#    0.000    1.750    3.750    1.500    3.500    0.500 
#    4.500    1.250    0.000    3.000    0.000    0.000 
#    0.000    0.000    0.000    0.000    0.000    0.000 
#
# Total GULP energy -198246.736110 kJ/mol
# GULP energy per Si atom -12390.421007 kJ/mol
# Density = 2.088991 g / cm^3
# Si number density = 20.937560 Si / 1000 Ang^3
#
#
#
# Elastic Constant Matrix: (Units=GPa)
#
#
# Indices 1 2 3 4 5 6 
#
# 1 63.3481 23.1216 46.0857 2.7796 18.2858 9.9886
# 2 23.1216 122.4626 62.2288 -6.6478 3.7717 8.9684
# 3 46.0857 62.2288 156.9839 -1.4826 38.0651 14.2216
# 4 2.7796 -6.6478 -1.4826 39.7536 4.7875 2.0535
# 5 18.2858 3.7717 38.0651 4.7875 34.5463 -2.2319
# 6 9.9886 8.9684 14.2216 2.0535 -2.2319 29.3069
#
#
#
# Elastic Compliance Matrix: (Units=1/GPa)
#
#
# Indices 1 2 3 4 5 6 
#
# 1 0.022185 -0.001898 -0.003213 -0.000680 -0.008289 -0.006005
# 2 -0.001898 0.010994 -0.005062 0.001150 0.005227 0.000057
# 3 -0.003213 -0.005062 0.012728 0.001569 -0.012285 -0.004578
# 4 -0.000680 0.001150 0.001569 0.026257 -0.005335 -0.003127
# 5 -0.008289 0.005227 -0.012285 -0.005335 0.047762 0.011198
# 6 -0.006005 0.000057 -0.004578 -0.003127 0.011198 0.039444
#
#
# Mechanical properties :
#
#
# Convention : Reuss Voigt Hill
#
# Bulk Modulus (GPa) = 39.12241 67.29631 53.20936
# Shear Modulus (GPa) = 26.56202 34.81194 30.68698
#
# Velocity S-wave (km/s) = 3.56565 4.08199 3.83252
# Velocity P-wave (km/s) = 5.97308 7.37754 6.71214
#
# Compressibility (1/GPa) = 0.02556080
#
# Stress axis : x y z
#
# Youngs Moduli (GPa) = 45.07460 90.95994 78.56444
#
# Poissons Ratio (x) = 0.17263 0.25244
# Poissons Ratio (y) = 0.08554 0.39773
# Poissons Ratio (z) = 0.14483 0.46048
#
# Static dielectric constant tensor:
#      x y z
#    x 3.605540 0.054200 0.468520 
#    y 0.054200 4.005890 0.435850 
#    z 0.468520 0.435850 4.691130 
# 
# 
# High freq. dielectric constant tensor:
#      x y z
#    x 1.777380 -0.006160 0.032640 
#    y -0.006160 1.827800 0.007020 
#    z 0.032640 0.007020 1.840960 
# 
# From -- ./inp_files/495734.got.cif
#   From: 2010.06.25/outbox.cif.g09.slc.cpg/sg2_248_cif.got.tgz:495734.got - 2010.06.27 13:26:56.
