data_PCOD8043350
_publ_section_title
;
Structure prediction by ZEFSAII (Michael W. Deem and Ramdas Pophale) SiO2 
 PCOD8043350
Probable space group: P -1
;
_chemical_formula_sum "Si O2"
_cell_formula_units_Z 16
_cell_length_a 7.783094
_cell_length_b 8.523188
_cell_length_c 16.620705
_cell_angle_alpha 133.232488
_cell_angle_beta 73.319913
_cell_angle_gamma 116.851132
_cell_volume 716.272605
_symmetry_space_group_name_H-M "P -1"
_symmetry_group_IT_number 2
_symmetry_cell_setting 'triclinic'
loop_
_space_group_symop_operation_xyz
x,y,z
-x,-y,-z
loop_
_atom_site_type_symbol
_atom_site_label
_atom_site_fract_x
_atom_site_fract_y
_atom_site_fract_z
Si Si1 0.838876 0.623364 0.892226
Si Si2 0.552929 0.363871 0.085427
Si Si3 0.926633 0.126451 0.348511
Si Si4 0.716909 0.432233 0.515932
Si Si5 0.375722 0.550116 0.646634
Si Si6 0.395335 0.035708 0.141495
Si Si7 0.896191 0.654178 0.240985
Si Si8 0.987358 0.999561 0.132904
O O1 0.609888 0.526865 0.871328
O O2 0.957383 0.792752 0.865326
O O3 0.914801 0.413080 0.815504
O O4 0.872856 0.760077 0.019724
O O5 0.496022 0.194893 0.109242
O O6 0.756296 0.561952 0.149841
O O7 0.569931 0.207649 0.952399
O O8 0.766020 0.201640 0.441783
O O9 0.122381 0.346274 0.388575
O O10 0.857094 0.042978 0.236835
O O11 0.963714 0.930725 0.328328
O O12 0.515555 0.401592 0.574718
O O13 0.721852 0.473472 0.434428
O O14 0.504653 0.820419 0.742183
O O15 0.209755 0.442021 0.695543
O O16 0.168229 0.977153 0.148124
#
# Coordination Sequence:
#
# PCOD8043350 Si02
#       8
#     2   2   2   2   2   2   2   2
#     4  10  21  36  63  93 123 165 207 232 295 380
#     4   9  19  34  56  95 123 156 200 238 294 372
#     4  11  24  41  61  89 123 160 200 261 312 350
#     4  10  23  43  63  86 114 159 220 252 298 366
#     4  10  21  40  66  90 114 159 210 256 297 359
#     4   9  16  33  61  86 122 158 199 245 290 358
#     4  11  23  41  61  94 129 158 193 257 315 355
#     4  10  19  36  61  89 120 168 202 242 289 369
#
# _framework density 22.337862000000001
#
# number of rings (size 3 to 8) (size 9 to 14) (size 15 to 20)
#    0.000    2.000    2.500    0.750    7.000    1.500 
#    4.500    0.625    0.000    0.000    0.000    0.000 
#    0.000    0.000    0.000    0.000    0.000    0.000 
#
# Total GULP energy -198376.947254 kJ/mol
# GULP energy per Si atom -12398.559203 kJ/mol
# Density = 2.228702 g / cm^3
# Si number density = 22.337862 Si / 1000 Ang^3
#
#
#
# Elastic Constant Matrix: (Units=GPa)
#
#
# Indices 1 2 3 4 5 6 
#
# 1 100.2395 15.3176 42.6980 14.2720 -25.1019 -17.4643
# 2 15.3176 21.2666 28.2929 14.1232 -7.9691 -12.2600
# 3 42.6980 28.2929 126.6655 8.4167 -19.2825 -13.9386
# 4 14.2720 14.1232 8.4167 33.1299 -17.2726 -5.8862
# 5 -25.1019 -7.9691 -19.2825 -17.2726 38.1505 2.8092
# 6 -17.4643 -12.2600 -13.9386 -5.8862 2.8092 20.2658
#
#
#
# Elastic Compliance Matrix: (Units=1/GPa)
#
#
# Indices 1 2 3 4 5 6 
#
# 1 0.014886 0.004357 -0.003485 -0.001445 0.007433 0.011617
# 2 0.004357 0.138340 -0.023734 -0.047674 -0.006096 0.058119
# 3 -0.003485 -0.023734 0.013781 0.009380 0.004386 -0.005767
# 4 -0.001445 -0.047674 0.009380 0.057829 0.020729 -0.009711
# 5 0.007433 -0.006096 0.004386 0.020729 0.040984 0.006074
# 6 0.011617 0.058119 -0.005767 -0.009711 0.006074 0.086886
#
#
# Mechanical properties :
#
#
# Convention : Reuss Voigt Hill
#
# Bulk Modulus (GPa) = 8.24519 46.75431 27.49975
# Shear Modulus (GPa) = 11.39322 29.10013 20.24667
#
# Velocity S-wave (km/s) = 2.26086 3.61325 3.01389
# Velocity P-wave (km/s) = 3.24260 6.19543 4.94458
#
# Compressibility (1/GPa) = 0.12128286
#
# Stress axis : x y z
#
# Youngs Moduli (GPa) = 67.17698 7.22855 72.56456
#
# Poissons Ratio (x) = -0.03149 0.25290
# Poissons Ratio (y) = -0.29269 1.72224
# Poissons Ratio (z) = 0.23413 0.17156
#
# Static dielectric constant tensor:
#      x y z
#    x 4.072950 -0.056420 -0.082650 
#    y -0.056420 3.483950 0.029660 
#    z -0.082650 0.029660 4.427150 
# 
# 
# High freq. dielectric constant tensor:
#      x y z
#    x 1.880630 -0.006470 -0.009000 
#    y -0.006470 1.837570 -0.004550 
#    z -0.009000 -0.004550 1.895350 
# 
# From -- ./inp_files/527672.got.cif
#   From: 2010.06.25/outbox.cif.g09.slc.cpg/sg2_264_cif.got.tgz:527672.got - 2010.06.27 13:26:56.
