data_PCOD8043556
_publ_section_title
;
Structure prediction by ZEFSAII (Michael W. Deem and Ramdas Pophale) SiO2 
 PCOD8043556
Probable space group: P -1
;
_chemical_formula_sum "Si O2"
_cell_formula_units_Z 14
_cell_length_a 11.159939
_cell_length_b 6.475552
_cell_length_c 9.006402
_cell_angle_alpha 79.054348
_cell_angle_beta 108.567234
_cell_angle_gamma 98.808222
_cell_volume 602.752038
_symmetry_space_group_name_H-M "P -1"
_symmetry_group_IT_number 2
_symmetry_cell_setting 'triclinic'
loop_
_space_group_symop_operation_xyz
x,y,z
-x,-y,-z
loop_
_atom_site_type_symbol
_atom_site_label
_atom_site_fract_x
_atom_site_fract_y
_atom_site_fract_z
Si Si1 0.178390 0.151504 0.344211
Si Si2 0.879328 0.627634 0.407055
Si Si3 0.472673 0.784705 0.840959
Si Si4 0.665296 0.168392 0.931152
Si Si5 0.768847 0.191396 0.396437
Si Si6 0.585926 0.531827 0.677829
Si Si7 0.906000 0.045033 0.196688
O O1 0.154858 0.243545 0.482528
O O2 0.300938 0.278621 0.304741
O O3 0.050252 0.137571 0.194691
O O4 0.204368 0.907544 0.418810
O O5 0.763338 0.445161 0.363485
O O6 0.000000 0.500000 0.500000
O O7 0.894627 0.788577 0.249986
O O8 0.370167 0.913366 0.695414
O O9 0.501381 0.585852 0.778590
O O10 0.597128 0.937319 0.904735
O O11 0.399258 0.713679 0.974272
O O12 0.652255 0.317217 0.762912
O O13 0.811216 0.124931 0.024728
O O14 0.878914 0.146024 0.330882
O O15 0.500000 0.500000 0.500000
#
# Coordination Sequence:
#
# PCOD8043556 Si02
#       7
#     2   2   2   2   2   2   2
#     4  11  22  36  59  96 132 162 208 264 321 379
#     4  11  18  35  63  94 124 165 214 257 314 378
#     4  10  23  44  68  92 124 175 219 264 317 378
#     4  10  24  45  67  92 132 171 218 266 313 386
#     4  10  19  36  64  92 126 162 211 268 305 373
#     4  12  26  43  65  97 132 171 215 265 326 383
#     4  10  21  38  60  94 126 162 213 262 316 376
#
# _framework density 23.226797999999999
#
# number of rings (size 3 to 8) (size 9 to 14) (size 15 to 20)
#    0.000    1.429    2.857    3.000    0.000   10.857 
#    0.000    0.714    0.000    0.000    0.000    0.000 
#    0.000    0.000    0.000    0.000    0.000    0.000 
#
# Total GULP energy -173463.068378 kJ/mol
# GULP energy per Si atom -12390.219170 kJ/mol
# Density = 2.317393 g / cm^3
# Si number density = 23.226798 Si / 1000 Ang^3
#
#
#
# Elastic Constant Matrix: (Units=GPa)
#
#
# Indices 1 2 3 4 5 6 
#
# 1 114.0290 32.6675 46.2841 -4.4284 32.2893 19.9356
# 2 32.6675 98.7340 41.0474 -15.3193 14.9198 4.3997
# 3 46.2841 41.0474 101.4133 -16.2656 39.1041 -3.9959
# 4 -4.4284 -15.3193 -16.2656 40.9191 -7.1888 1.6164
# 5 32.2893 14.9198 39.1041 -7.1888 33.3851 9.3877
# 6 19.9356 4.3997 -3.9959 1.6164 9.3877 36.8731
#
#
#
# Elastic Compliance Matrix: (Units=1/GPa)
#
#
# Indices 1 2 3 4 5 6 
#
# 1 0.013596 -0.002170 -0.002822 -0.001606 -0.007712 -0.005364
# 2 -0.002170 0.013089 -0.005310 0.003297 0.003759 -0.002066
# 3 -0.002822 -0.005310 0.024004 0.002297 -0.025667 0.011195
# 4 -0.001606 0.003297 0.002297 0.027102 0.003614 -0.001384
# 5 -0.007712 0.003759 -0.025667 0.003614 0.071472 -0.017415
# 6 -0.005364 -0.002066 0.011195 -0.001384 -0.017415 0.035974
#
#
# Mechanical properties :
#
#
# Convention : Reuss Voigt Hill
#
# Bulk Modulus (GPa) = 33.23773 61.57493 47.40633
# Shear Modulus (GPa) = 23.16219 35.18061 29.17140
#
# Velocity S-wave (km/s) = 3.16130 3.89608 3.54777
# Velocity P-wave (km/s) = 5.25987 6.84157 6.10219
#
# Compressibility (1/GPa) = 0.03008629
#
# Stress axis : x y z
#
# Youngs Moduli (GPa) = 73.55118 76.39929 41.65929
#
# Poissons Ratio (x) = 0.16578 0.11756
# Poissons Ratio (y) = 0.15960 0.22119
# Poissons Ratio (z) = 0.20756 0.40565
#
# Static dielectric constant tensor:
#      x y z
#    x 4.301960 0.075920 0.241810 
#    y 0.075920 4.428790 -0.003880 
#    z 0.241810 -0.003880 4.021630 
# 
# 
# High freq. dielectric constant tensor:
#      x y z
#    x 1.925770 0.000230 0.024460 
#    y 0.000230 1.917270 0.001220 
#    z 0.024460 0.001220 1.895950 
# 
# From -- ./inp_files/229652.got.cif
#   From: 2010.06.25/outbox.cif.g09.slc.cpg/sg2_115_cif.got.tgz:229652.got - 2010.06.27 13:26:56.
