data_PCOD8043504
_publ_section_title
;
Structure prediction by ZEFSAII (Michael W. Deem and Ramdas Pophale) SiO2 
 PCOD8043504
Probable space group: P -1
;
_chemical_formula_sum "Si O2"
_cell_formula_units_Z 16
_cell_length_a 18.716819
_cell_length_b 12.111162
_cell_length_c 9.100991
_cell_angle_alpha 131.049995
_cell_angle_beta 148.645442
_cell_angle_gamma 59.416765
_cell_volume 802.392788
_symmetry_space_group_name_H-M "P -1"
_symmetry_group_IT_number 2
_symmetry_cell_setting 'triclinic'
loop_
_space_group_symop_operation_xyz
x,y,z
-x,-y,-z
loop_
_atom_site_type_symbol
_atom_site_label
_atom_site_fract_x
_atom_site_fract_y
_atom_site_fract_z
Si Si1 0.296985 0.262129 0.603180
Si Si2 0.281394 0.584656 0.760525
Si Si3 0.002447 0.403850 0.563068
Si Si4 0.104249 0.181595 0.933462
Si Si5 0.892931 0.884189 0.615694
Si Si6 0.816090 0.052206 0.346173
Si Si7 0.860615 0.517056 0.852212
Si Si8 0.552988 0.140209 0.814147
O O1 0.332030 0.440261 0.798548
O O2 0.235685 0.209980 0.607986
O O3 0.432581 0.187157 0.744988
O O4 0.172613 0.197144 0.224836
O O5 0.263369 0.571696 0.537690
O O6 0.141695 0.614062 0.619717
O O7 0.395204 0.729146 0.098147
O O8 0.023574 0.236317 0.418559
O O9 0.000000 0.500000 0.500000
O O10 0.121888 0.503043 0.959204
O O11 0.940627 0.188268 0.684657
O O12 0.143563 0.035045 0.802085
O O13 0.164672 0.312485 0.048145
O O14 0.818829 0.968463 0.432395
O O15 0.000000 0.000000 0.000000
O O16 0.669398 0.106397 0.105820
O O17 0.000000 0.500000 0.000000
O O18 0.500000 0.000000 0.500000
#
# Coordination Sequence:
#
# PCOD8043504 Si02
#       8
#     2   2   2   2   2   2   2   2
#     4  11  23  44  64  97 131 172 215 268 325 385
#     4  10  23  41  68  92 127 169 220 272 317 379
#     4  11  21  38  64 100 130 165 212 271 335 378
#     4  10  19  36  63  92 122 161 219 269 309 370
#     4  12  25  39  65 101 141 167 209 272 330 390
#     4  11  22  38  64  93 129 171 211 263 327 371
#     4   9  18  33  60  90 123 157 212 261 314 372
#     4  12  26  42  68  95 130 175 222 266 320 390
#
# _framework density 19.940358
#
# number of rings (size 3 to 8) (size 9 to 14) (size 15 to 20)
#    0.000    1.250    5.000    1.875    3.500    1.500 
#    0.000    0.000    2.750    1.500    0.000    0.000 
#    0.000    0.000    0.000    0.000    0.000    0.000 
#
# Total GULP energy -198213.006945 kJ/mol
# GULP energy per Si atom -12388.312934 kJ/mol
# Density = 1.989497 g / cm^3
# Si number density = 19.940358 Si / 1000 Ang^3
#
#
#
# Elastic Constant Matrix: (Units=GPa)
#
#
# Indices 1 2 3 4 5 6 
#
# 1 96.7668 51.5953 37.6252 3.0077 -1.2666 4.7292
# 2 51.5953 117.0216 56.5035 -4.2471 0.4487 -1.3412
# 3 37.6252 56.5035 91.6546 5.1391 5.2493 1.7809
# 4 3.0077 -4.2471 5.1391 34.0754 -2.1724 3.8800
# 5 -1.2666 0.4487 5.2493 -2.1724 29.7657 -6.6925
# 6 4.7292 -1.3412 1.7809 3.8800 -6.6925 43.5520
#
#
#
# Elastic Compliance Matrix: (Units=1/GPa)
#
#
# Indices 1 2 3 4 5 6 
#
# 1 0.014164 -0.005024 -0.002663 -0.001273 0.000750 -0.001355
# 2 -0.005024 0.014274 -0.007017 0.003229 0.001311 0.001186
# 3 -0.002663 -0.007017 0.016723 -0.003282 -0.003385 -0.000839
# 4 -0.001273 0.003229 -0.003282 0.030731 0.002265 -0.002018
# 5 0.000750 0.001311 -0.003385 0.002265 0.035576 0.005362
# 6 -0.001355 0.001186 -0.000839 -0.002018 0.005362 0.024183
#
#
# Mechanical properties :
#
#
# Convention : Reuss Voigt Hill
#
# Bulk Modulus (GPa) = 63.47109 66.32122 64.89615
# Shear Modulus (GPa) = 29.35857 32.12655 30.74256
#
# Velocity S-wave (km/s) = 3.84124 4.01825 3.93074
# Velocity P-wave (km/s) = 7.18144 7.40678 7.29498
#
# Compressibility (1/GPa) = 0.01575520
#
# Stress axis : x y z
#
# Youngs Moduli (GPa) = 70.60330 70.05659 59.79672
#
# Poissons Ratio (x) = 0.35195 0.15921
# Poissons Ratio (y) = 0.35470 0.41957
# Poissons Ratio (z) = 0.18798 0.49156
#
# Static dielectric constant tensor:
#      x y z
#    x 3.679890 -0.091760 -0.294290 
#    y -0.091760 3.713710 0.052640 
#    z -0.294290 0.052640 3.850540 
# 
# 
# High freq. dielectric constant tensor:
#      x y z
#    x 1.763240 -0.002630 -0.012820 
#    y -0.002630 1.797520 0.006910 
#    z -0.012820 0.006910 1.769010 
# 
# From -- ./inp_files/244224.got.cif
#   From: 2010.06.25/outbox.cif.g09.slc.cpg/sg2_123_cif.got.tgz:244224.got - 2010.06.27 13:26:56.
