data_PCOD8043345
_publ_section_title
;
Structure prediction by ZEFSAII (Michael W. Deem and Ramdas Pophale) SiO2 
 PCOD8043345
Probable space group: P -1
;
_chemical_formula_sum "Si O2"
_cell_formula_units_Z 16
_cell_length_a 9.608559
_cell_length_b 11.257421
_cell_length_c 15.074856
_cell_angle_alpha 41.398813
_cell_angle_beta 42.918446
_cell_angle_gamma 57.349668
_cell_volume 734.112413
_symmetry_space_group_name_H-M "P -1"
_symmetry_group_IT_number 2
_symmetry_cell_setting 'triclinic'
loop_
_space_group_symop_operation_xyz
x,y,z
-x,-y,-z
loop_
_atom_site_type_symbol
_atom_site_label
_atom_site_fract_x
_atom_site_fract_y
_atom_site_fract_z
Si Si1 0.750769 0.905414 0.069678
Si Si2 0.984414 0.730271 0.413941
Si Si3 0.370465 0.740717 0.670929
Si Si4 0.514661 0.064884 0.318331
Si Si5 0.569282 0.830703 0.890251
Si Si6 0.335966 0.545715 0.269569
Si Si7 0.937335 0.859537 0.824317
Si Si8 0.876464 0.849427 0.220266
O O1 0.804471 0.822248 0.996314
O O2 0.793431 0.768933 0.209382
O O3 0.889043 0.081823 0.930797
O O4 0.521075 0.980395 0.136639
O O5 0.837639 0.592903 0.614768
O O6 0.866471 0.708879 0.384510
O O7 0.219756 0.671492 0.325490
O O8 0.976901 0.934176 0.337877
O O9 0.493878 0.812465 0.659664
O O10 0.473525 0.547831 0.715884
O O11 0.127303 0.725234 0.810386
O O12 0.404629 0.871634 0.497590
O O13 0.409065 0.164411 0.229249
O O14 0.748487 0.026682 0.205448
O O15 0.796922 0.814486 0.831252
O O16 0.429196 0.661326 0.080517
#
# Coordination Sequence:
#
# PCOD8043345 Si02
#       8
#     2   2   2   2   2   2   2   2
#     4   9  17  30  57  87 110 139 199 243 272 325
#     4  10  19  36  61  89 115 151 201 234 289 342
#     4  11  21  37  61  83 120 154 197 235 291 348
#     4  10  20  38  60  88 110 158 203 234 276 357
#     4  11  23  36  61  89 120 149 196 246 288 338
#     4  11  22  35  58  92 122 148 183 256 296 330
#     4  11  21  38  61  88 113 162 196 231 285 363
#     4   9  14  31  58  86 105 142 200 244 263 329
#
# _framework density 21.795027000000001
#
# number of rings (size 3 to 8) (size 9 to 14) (size 15 to 20)
#    0.000    1.750    6.250    1.125    0.000    1.500 
#    0.000    0.000    0.000    6.000    0.000    0.000 
#    0.000    0.000    0.000    0.000    0.000    0.000 
#
# Total GULP energy -198242.698562 kJ/mol
# GULP energy per Si atom -12390.168660 kJ/mol
# Density = 2.174542 g / cm^3
# Si number density = 21.795027 Si / 1000 Ang^3
#
#
#
# Elastic Constant Matrix: (Units=GPa)
#
#
# Indices 1 2 3 4 5 6 
#
# 1 109.2728 33.0990 41.1145 1.5001 17.4326 -18.2471
# 2 33.0990 65.5568 13.4432 4.9426 0.9513 -28.4854
# 3 41.1145 13.4432 96.7057 -4.1969 22.3166 4.1547
# 4 1.5001 4.9426 -4.1969 20.2502 -4.6552 -3.8327
# 5 17.4326 0.9513 22.3166 -4.6552 27.3074 2.4226
# 6 -18.2471 -28.4854 4.1547 -3.8327 2.4226 28.5899
#
#
#
# Elastic Compliance Matrix: (Units=1/GPa)
#
#
# Indices 1 2 3 4 5 6 
#
# 1 0.013819 -0.002858 -0.004470 -0.001295 -0.005907 0.006949
# 2 -0.002858 0.030186 -0.004695 -0.002353 0.001682 0.028476
# 3 -0.004470 -0.004695 0.015284 0.001004 -0.008513 -0.008895
# 4 -0.001295 -0.002353 0.001004 0.052863 0.008832 0.003022
# 5 -0.005907 0.001682 -0.008513 0.008832 0.049136 -0.003836
# 6 0.006949 0.028476 -0.008895 0.003022 -0.003836 0.069807
#
#
# Mechanical properties :
#
#
# Convention : Reuss Voigt Hill
#
# Bulk Modulus (GPa) = 28.37340 49.64985 39.01162
# Shear Modulus (GPa) = 18.73448 27.48806 23.11127
#
# Velocity S-wave (km/s) = 2.93503 3.55520 3.25990
# Velocity P-wave (km/s) = 4.95302 6.29940 5.66634
#
# Compressibility (1/GPa) = 0.03524428
#
# Stress axis : x y z
#
# Youngs Moduli (GPa) = 72.36251 33.12819 65.42831
#
# Poissons Ratio (x) = 0.09468 0.29244
# Poissons Ratio (y) = 0.20680 0.30718
# Poissons Ratio (z) = 0.32343 0.15553
#
# Static dielectric constant tensor:
#      x y z
#    x 3.853620 -0.425040 0.295820 
#    y -0.425040 3.688360 0.132500 
#    z 0.295820 0.132500 4.068400 
# 
# 
# High freq. dielectric constant tensor:
#      x y z
#    x 1.831870 -0.042530 0.007770 
#    y -0.042530 1.827780 0.019040 
#    z 0.007770 0.019040 1.854890 
# 
# From -- ./inp_files/497607.got.cif
#   From: 2010.06.25/outbox.cif.g09.slc.cpg/sg2_249_cif.got.tgz:497607.got - 2010.06.27 13:26:56.
