data_PCOD8043991
_publ_section_title
;
Structure prediction by ZEFSAII (Michael W. Deem and Ramdas Pophale) SiO2 
 PCOD8043991
Probable space group: P -1
;
_chemical_formula_sum "Si O2"
_cell_formula_units_Z 16
_cell_length_a 19.898812
_cell_length_b 17.535362
_cell_length_c 6.018158
_cell_angle_alpha 111.120958
_cell_angle_beta 110.028822
_cell_angle_gamma 20.433895
_cell_volume 683.815873
_symmetry_space_group_name_H-M "P -1"
_symmetry_group_IT_number 2
_symmetry_cell_setting 'triclinic'
loop_
_space_group_symop_operation_xyz
x,y,z
-x,-y,-z
loop_
_atom_site_type_symbol
_atom_site_label
_atom_site_fract_x
_atom_site_fract_y
_atom_site_fract_z
Si Si1 0.200426 0.832994 0.137533
Si Si2 0.257480 0.063423 0.461582
Si Si3 0.040565 0.392720 0.245430
Si Si4 0.638367 0.576570 0.249877
Si Si5 0.595858 0.459674 0.318845
Si Si6 0.982749 0.822654 0.507980
Si Si7 0.291358 0.185826 0.930118
Si Si8 0.161598 0.716091 0.210677
O O1 0.381753 0.651884 0.325145
O O2 0.085223 0.871680 0.125281
O O3 0.064423 0.056418 0.239062
O O4 0.276525 0.744321 0.877476
O O5 0.099392 0.245051 0.276290
O O6 0.175394 0.081411 0.555574
O O7 0.292445 0.108969 0.682834
O O8 0.457822 0.828603 0.323471
O O9 0.000000 0.500000 0.500000
O O10 0.849627 0.591268 0.083357
O O11 0.221972 0.230249 0.137881
O O12 0.563648 0.566591 0.218828
O O13 0.804176 0.434918 0.455185
O O14 0.724648 0.476148 0.993192
O O15 0.692674 0.393003 0.575038
O O16 0.989646 0.854914 0.301399
O O17 0.500000 0.000000 0.000000
#
# Coordination Sequence:
#
# PCOD8043991 Si02
#       8
#     2   2   2   2   2   2   2   2
#     4  10  19  37  62  87 122 173 224 280 321 373
#     4  11  24  44  67  93 139 177 204 264 331 388
#     4   9  22  43  69 103 131 164 209 250 319 390
#     4  10  23  41  58  90 130 171 217 269 324 381
#     4   9  19  37  61  88 119 167 228 275 325 377
#     4  11  24  40  60  90 131 171 220 270 326 384
#     4  10  23  45  75 104 129 164 214 262 311 395
#     4  10  22  38  60  91 122 172 231 273 317 377
#
# _framework density 23.398111
#
# number of rings (size 3 to 8) (size 9 to 14) (size 15 to 20)
#    0.000    2.000    1.250    0.750    0.000   14.500 
#    2.250    0.000    0.000    0.000    0.000    0.000 
#    0.000    0.000    0.000    0.000    0.000    0.000 
#
# Total GULP energy -198342.841680 kJ/mol
# GULP energy per Si atom -12396.427605 kJ/mol
# Density = 2.334486 g / cm^3
# Si number density = 23.398111 Si / 1000 Ang^3
#
#
#
# Elastic Constant Matrix: (Units=GPa)
#
#
# Indices 1 2 3 4 5 6 
#
# 1 111.5819 52.8309 34.6943 2.4785 -6.0495 -12.2622
# 2 52.8309 127.6049 22.8945 18.7574 -1.8783 -3.3353
# 3 34.6943 22.8945 79.6927 19.4781 -6.9994 2.3373
# 4 2.4785 18.7574 19.4781 35.5915 -4.7568 2.6320
# 5 -6.0495 -1.8783 -6.9994 -4.7568 34.0061 -2.7615
# 6 -12.2622 -3.3353 2.3373 2.6320 -2.7615 38.1963
#
#
#
# Elastic Compliance Matrix: (Units=1/GPa)
#
#
# Indices 1 2 3 4 5 6 
#
# 1 0.013597 -0.005204 -0.005540 0.004794 0.001992 0.004063
# 2 -0.005204 0.010707 0.000493 -0.005659 -0.001061 -0.000453
# 3 -0.005540 0.000493 0.017172 -0.008963 0.001153 -0.002085
# 4 0.004794 -0.005659 -0.008963 0.036192 0.003707 -0.000633
# 5 0.001992 -0.001061 0.001153 0.003707 0.030656 0.002437
# 6 0.004063 -0.000453 -0.002085 -0.000633 0.002437 0.027793
#
#
# Mechanical properties :
#
#
# Convention : Reuss Voigt Hill
#
# Bulk Modulus (GPa) = 47.68190 59.96878 53.82534
# Shear Modulus (GPa) = 30.56026 35.45609 33.00817
#
# Velocity S-wave (km/s) = 3.61792 3.89696 3.76003
# Velocity P-wave (km/s) = 6.15429 6.77745 6.47337
#
# Compressibility (1/GPa) = 0.02097232
#
# Stress axis : x y z
#
# Youngs Moduli (GPa) = 73.54665 93.39378 58.23549
#
# Poissons Ratio (x) = 0.48607 0.32263
# Poissons Ratio (y) = 0.38277 -0.02870
# Poissons Ratio (z) = 0.40746 -0.04603
#
# Static dielectric constant tensor:
#      x y z
#    x 4.210930 0.065610 -0.332330 
#    y 0.065610 4.502160 -0.009250 
#    z -0.332330 -0.009250 4.287860 
# 
# 
# High freq. dielectric constant tensor:
#      x y z
#    x 1.907780 -0.010250 -0.010700 
#    y -0.010250 1.933520 0.002850 
#    z -0.010700 0.002850 1.930100 
# 
# From -- ./inp_files/120132.got.cif
#   From: 2010.06.25/outbox.cif.g09.slc.cpg/sg2_61_cif.got.tgz:120132.got - 2010.06.27 13:26:56.
