data_PCOD8043432
_publ_section_title
;
Structure prediction by ZEFSAII (Michael W. Deem and Ramdas Pophale) SiO2 
 PCOD8043432
Probable space group: P -1
;
_chemical_formula_sum "Si O2"
_cell_formula_units_Z 14
_cell_length_a 10.681868
_cell_length_b 10.880888
_cell_length_c 11.045193
_cell_angle_alpha 60.255930
_cell_angle_beta 106.935517
_cell_angle_gamma 141.519449
_cell_volume 682.286240
_symmetry_space_group_name_H-M "P -1"
_symmetry_group_IT_number 2
_symmetry_cell_setting 'triclinic'
loop_
_space_group_symop_operation_xyz
x,y,z
-x,-y,-z
loop_
_atom_site_type_symbol
_atom_site_label
_atom_site_fract_x
_atom_site_fract_y
_atom_site_fract_z
Si Si1 0.028065 0.663762 0.086678
Si Si2 0.972056 0.624575 0.368186
Si Si3 0.231842 0.558238 0.112952
Si Si4 0.716491 0.876929 0.771386
Si Si5 0.405639 0.522811 0.681410
Si Si6 0.316002 0.158225 0.942080
Si Si7 0.834481 0.793177 0.640674
O O1 0.186595 0.665762 0.117406
O O2 0.936426 0.581348 0.235682
O O3 0.849501 0.501114 0.018048
O O4 0.139273 0.904830 0.976224
O O5 0.766106 0.527766 0.411982
O O6 0.000000 0.500000 0.500000
O O7 0.177638 0.882223 0.329190
O O8 0.472457 0.738187 0.085162
O O9 0.132811 0.348012 0.266989
O O10 0.491685 0.687872 0.738360
O O11 0.855786 0.876165 0.741285
O O12 0.694043 0.812921 0.933919
O O13 0.286035 0.282990 0.807597
O O14 0.604854 0.642386 0.598641
O O15 0.000000 0.000000 0.500000
#
# Coordination Sequence:
#
# PCOD8043432 Si02
#       7
#     2   2   2   2   2   2   2
#     4  10  23  36  59  89 120 157 193 241 296 351
#     4  11  24  39  59  89 122 157 201 242 293 356
#     4  10  21  39  61  85 123 157 189 244 297 350
#     4   9  21  36  62  87 117 150 197 250 289 345
#     4   9  21  36  62  86 115 155 195 245 296 342
#     4  10  19  36  62  92 113 147 202 247 290 347
#     4   9  21  39  61  87 117 157 198 241 293 353
#
# _framework density 20.519247
#
# number of rings (size 3 to 8) (size 9 to 14) (size 15 to 20)
#    0.857    1.429    0.000    1.714    6.000    1.714 
#    0.000    7.857    0.000    0.000    0.000    0.000 
#    0.000    0.000    0.000    0.000    0.000    0.000 
#
# Total GULP energy -173508.377628 kJ/mol
# GULP energy per Si atom -12393.455545 kJ/mol
# Density = 2.047254 g / cm^3
# Si number density = 20.519247 Si / 1000 Ang^3
#
#
#
# Elastic Constant Matrix: (Units=GPa)
#
#
# Indices 1 2 3 4 5 6 
#
# 1 87.0298 11.9819 37.1738 -8.9830 20.2258 9.5216
# 2 11.9819 55.7275 17.6207 -12.2517 13.9486 -3.3549
# 3 37.1738 17.6207 90.4457 -30.3187 13.2638 12.0973
# 4 -8.9830 -12.2517 -30.3187 22.2264 -0.1922 2.7687
# 5 20.2258 13.9486 13.2638 -0.1922 36.4141 1.4633
# 6 9.5216 -3.3549 12.0973 2.7687 1.4633 25.4658
#
#
#
# Elastic Compliance Matrix: (Units=1/GPa)
#
#
# Indices 1 2 3 4 5 6 
#
# 1 0.015514 -0.000418 -0.005216 -0.000767 -0.006444 -0.002925
# 2 -0.000418 0.023109 0.001833 0.014834 -0.009259 0.001249
# 3 -0.005216 0.001833 0.030406 0.042353 -0.007998 -0.016398
# 4 -0.000767 0.014834 0.042353 0.114105 -0.018908 -0.029198
# 5 -0.006444 -0.009259 -0.007998 -0.018908 0.037204 0.004907
# 6 -0.002925 0.001249 -0.016398 -0.029198 0.004907 0.051208
#
#
# Mechanical properties :
#
#
# Convention : Reuss Voigt Hill
#
# Bulk Modulus (GPa) = 16.27936 40.75065 28.51500
# Shear Modulus (GPa) = 16.68759 27.91637 22.30198
#
# Velocity S-wave (km/s) = 2.85487 3.69249 3.30036
# Velocity P-wave (km/s) = 4.33797 6.17108 5.33386
#
# Compressibility (1/GPa) = 0.06142748
#
# Stress axis : x y z
#
# Youngs Moduli (GPa) = 64.45754 43.27358 32.88791
#
# Poissons Ratio (x) = 0.01810 0.17154
# Poissons Ratio (y) = 0.02696 -0.06029
# Poissons Ratio (z) = 0.33620 -0.07933
#
# Static dielectric constant tensor:
#      x y z
#    x 3.799040 -0.057260 0.028410 
#    y -0.057260 3.748920 -0.196190 
#    z 0.028410 -0.196190 3.442480 
# 
# 
# High freq. dielectric constant tensor:
#      x y z
#    x 1.805630 -0.002920 0.001600 
#    y -0.002920 1.803450 -0.015750 
#    z 0.001600 -0.015750 1.784260 
# 
# From -- ./inp_files/423050.got.cif
#   From: 2010.06.25/outbox.cif.g09.slc.cpg/sg2_212_cif.got.tgz:423050.got - 2010.06.27 13:26:56.
