data_PCOD8043604
_publ_section_title
;
Structure prediction by ZEFSAII (Michael W. Deem and Ramdas Pophale) SiO2 
 PCOD8043604
Probable space group: P -1
;
_chemical_formula_sum "Si O2"
_cell_formula_units_Z 16
_cell_length_a 12.349583
_cell_length_b 8.336048
_cell_length_c 14.499051
_cell_angle_alpha 97.014793
_cell_angle_beta 36.491757
_cell_angle_gamma 77.348767
_cell_volume 743.004599
_symmetry_space_group_name_H-M "P -1"
_symmetry_group_IT_number 2
_symmetry_cell_setting 'triclinic'
loop_
_space_group_symop_operation_xyz
x,y,z
-x,-y,-z
loop_
_atom_site_type_symbol
_atom_site_label
_atom_site_fract_x
_atom_site_fract_y
_atom_site_fract_z
Si Si1 0.551578 0.148185 0.749848
Si Si2 0.105482 0.781974 0.010027
Si Si3 0.279981 0.111318 0.213749
Si Si4 0.168922 0.728529 0.513852
Si Si5 0.713334 0.436740 0.953829
Si Si6 0.274649 0.482039 0.246943
Si Si7 0.707653 0.007473 0.182614
Si Si8 0.496295 0.579050 0.607948
O O1 0.706561 0.160068 0.569249
O O2 0.388081 0.350840 0.922638
O O3 0.413775 0.077233 0.790056
O O4 0.704621 0.999400 0.712002
O O5 0.108608 0.717222 0.108117
O O6 0.296718 0.601856 0.807240
O O7 0.149214 0.955676 0.986345
O O8 0.869668 0.853926 0.136421
O O9 0.223839 0.321732 0.294400
O O10 0.087485 0.129956 0.282158
O O11 0.500000 0.000000 0.000000
O O12 0.278257 0.565729 0.505676
O O13 0.172858 0.643454 0.404968
O O14 0.533247 0.383814 0.060397
O O15 0.824303 0.422180 0.778554
O O16 0.535141 0.211433 0.363751
O O17 0.500000 0.500000 0.500000
#
# Coordination Sequence:
#
# PCOD8043604 Si02
#       8
#     2   2   2   2   2   2   2   2
#     4  11  20  40  62  94 131 164 213 263 317 371
#     4   9  18  40  63  93 125 172 213 257 314 369
#     4  12  24  39  63  95 123 168 220 260 312 384
#     4  11  24  43  63  88 131 175 204 266 323 371
#     4  10  19  36  65  92 130 165 206 263 311 379
#     4  10  20  40  62  89 127 169 209 254 318 380
#     4   9  20  37  66  90 124 168 213 261 312 365
#     4  10  20  42  62  87 125 171 214 257 312 376
#
# _framework density 21.534185999999998
#
# number of rings (size 3 to 8) (size 9 to 14) (size 15 to 20)
#    0.750    1.000    3.750    2.250    0.000    1.500 
#    2.250    0.625    0.000    0.000    0.000    0.000 
#    0.000    0.000    0.000    0.000    0.000    0.000 
#
# Total GULP energy -198359.715648 kJ/mol
# GULP energy per Si atom -12397.482228 kJ/mol
# Density = 2.148517 g / cm^3
# Si number density = 21.534186 Si / 1000 Ang^3
#
#
#
# Elastic Constant Matrix: (Units=GPa)
#
#
# Indices 1 2 3 4 5 6 
#
# 1 151.5268 65.9456 45.1781 12.6058 -14.5630 -21.1466
# 2 65.9456 100.3761 15.5149 4.1217 -12.4049 -23.7616
# 3 45.1781 15.5149 65.0048 6.3208 -16.4033 -12.1819
# 4 12.6058 4.1217 6.3208 14.1681 -8.5201 -11.3148
# 5 -14.5630 -12.4049 -16.4033 -8.5201 39.1975 1.9544
# 6 -21.1466 -23.7616 -12.1819 -11.3148 1.9544 53.4341
#
#
#
# Elastic Compliance Matrix: (Units=1/GPa)
#
#
# Indices 1 2 3 4 5 6 
#
# 1 0.011938 -0.007149 -0.006685 -0.008284 -0.002343 -0.001647
# 2 -0.007149 0.016077 0.002831 0.008868 0.005212 0.006653
# 3 -0.006685 0.002831 0.021813 0.003477 0.008096 0.004027
# 4 -0.008284 0.008868 0.003477 0.106158 0.023107 0.023092
# 5 -0.002343 0.005212 0.008096 0.023107 0.034359 0.006872
# 6 -0.001647 0.006653 0.004027 0.023092 0.006872 0.026577
#
#
# Mechanical properties :
#
#
# Convention : Reuss Voigt Hill
#
# Bulk Modulus (GPa) = 35.94282 63.35389 49.64835
# Shear Modulus (GPa) = 20.14487 34.04455 27.09471
#
# Velocity S-wave (km/s) = 3.06189 3.98043 3.55099
# Velocity P-wave (km/s) = 5.40624 7.11401 6.31809
#
# Compressibility (1/GPa) = 0.02782197
#
# Stress axis : x y z
#
# Youngs Moduli (GPa) = 83.76470 62.20169 45.84374
#
# Poissons Ratio (x) = 0.44470 0.30647
# Poissons Ratio (y) = 0.59886 -0.12980
# Poissons Ratio (z) = 0.55998 -0.17612
#
# Static dielectric constant tensor:
#      x y z
#    x 3.786980 -0.099000 -0.144040 
#    y -0.099000 4.036110 -0.013330 
#    z -0.144040 -0.013330 3.750410 
# 
# 
# High freq. dielectric constant tensor:
#      x y z
#    x 1.841320 -0.010050 -0.009030 
#    y -0.010050 1.849670 0.005420 
#    z -0.009030 0.005420 1.818410 
# 
# From -- ./inp_files/515631.got.cif
#   From: 2010.06.25/outbox.cif.g09.slc.cpg/sg2_258_cif.got.tgz:515631.got - 2010.06.27 13:26:56.
