data_PCOD8043049
_publ_section_title
;
Structure prediction by ZEFSAII (Michael W. Deem and Ramdas Pophale) SiO2 
 PCOD8043049
Probable space group: P -1
;
_chemical_formula_sum "Si O2"
_cell_formula_units_Z 14
_cell_length_a 23.546647
_cell_length_b 5.137290
_cell_length_c 6.781956
_cell_angle_alpha 112.363475
_cell_angle_beta 110.834109
_cell_angle_gamma 53.879315
_cell_volume 603.295672
_symmetry_space_group_name_H-M "P -1"
_symmetry_group_IT_number 2
_symmetry_cell_setting 'triclinic'
loop_
_space_group_symop_operation_xyz
x,y,z
-x,-y,-z
loop_
_atom_site_type_symbol
_atom_site_label
_atom_site_fract_x
_atom_site_fract_y
_atom_site_fract_z
Si Si1 0.163252 0.045571 0.894692
Si Si2 0.952945 0.885455 0.516543
Si Si3 0.302194 0.410650 0.320035
Si Si4 0.682840 0.260313 0.939484
Si Si5 0.467607 0.422575 0.124957
Si Si6 0.556718 0.028482 0.452662
Si Si7 0.852887 0.275502 0.837667
O O1 0.147507 0.415130 0.979667
O O2 0.247484 0.784120 0.875768
O O3 0.142107 0.969696 0.057221
O O4 0.117590 0.009567 0.661956
O O5 0.000000 0.500000 0.500000
O O6 0.924664 0.076213 0.742123
O O7 0.000000 0.000000 0.500000
O O8 0.313169 0.646157 0.255110
O O9 0.219491 0.607103 0.347451
O O10 0.314944 0.082912 0.131876
O O11 0.362539 0.295882 0.533259
O O12 0.606934 0.547497 0.022092
O O13 0.528999 0.076536 0.201924
O O14 0.442764 0.667690 0.355657
O O15 0.500000 0.500000 0.000000
O O16 0.500000 0.000000 0.500000
#
# Coordination Sequence:
#
# PCOD8043049 Si02
#       7
#     2   2   2   2   2   2   2
#     4  10  22  42  65  90 126 167 207 255 314 367
#     4  12  26  42  65  99 128 156 206 259 310 385
#     4   9  18  36  61  84 118 164 207 249 303 366
#     4   9  18  37  59  83 120 161 203 257 301 363
#     4  10  21  36  54  86 120 159 209 255 310 364
#     4  10  19  36  57  81 120 159 201 258 307 348
#     4  10  22  42  65  92 125 169 209 249 314 376
#
# _framework density 23.205867999999999
#
# number of rings (size 3 to 8) (size 9 to 14) (size 15 to 20)
#    0.000    2.000    1.429    1.714    0.000    4.000 
#    2.571    5.714    0.000    0.000    0.000    0.000 
#    0.000    0.000    0.000    0.000    0.000    0.000 
#
# Total GULP energy -173469.240492 kJ/mol
# GULP energy per Si atom -12390.660035 kJ/mol
# Density = 2.315305 g / cm^3
# Si number density = 23.205868 Si / 1000 Ang^3
#
#
#
# Elastic Constant Matrix: (Units=GPa)
#
#
# Indices 1 2 3 4 5 6 
#
# 1 142.9344 33.0271 28.3291 -10.2125 1.3865 -5.9414
# 2 33.0271 89.1320 13.3713 -17.2551 0.8834 -6.1590
# 3 28.3291 13.3713 78.0293 -30.6844 13.7208 -13.2343
# 4 -10.2125 -17.2551 -30.6844 32.4610 -4.3764 -1.1814
# 5 1.3865 0.8834 13.7208 -4.3764 36.9631 -7.7979
# 6 -5.9414 -6.1590 -13.2343 -1.1814 -7.7979 38.5111
#
#
#
# Elastic Compliance Matrix: (Units=1/GPa)
#
#
# Indices 1 2 3 4 5 6 
#
# 1 0.008204 -0.002979 -0.003551 -0.002272 0.000739 -0.000351
# 2 -0.002979 0.013909 0.002780 0.009265 0.000499 0.003106
# 3 -0.003551 0.002780 0.025290 0.023934 -0.004722 0.008366
# 4 -0.002272 0.009265 0.023934 0.058076 0.000214 0.011181
# 5 0.000739 0.000499 -0.004722 0.000214 0.029764 0.004604
# 6 -0.000351 0.003106 0.008366 0.011181 0.004604 0.030559
#
#
# Mechanical properties :
#
#
# Convention : Reuss Voigt Hill
#
# Bulk Modulus (GPa) = 25.06030 51.06118 38.06074
# Shear Modulus (GPa) = 26.79488 37.27826 32.03657
#
# Velocity S-wave (km/s) = 3.40171 4.01236 3.71959
# Velocity P-wave (km/s) = 5.12362 6.59672 5.90627
#
# Compressibility (1/GPa) = 0.03990375
#
# Stress axis : x y z
#
# Youngs Moduli (GPa) = 121.88880 71.89459 39.54202
#
# Poissons Ratio (x) = 0.21416 0.14042
# Poissons Ratio (y) = 0.36307 -0.10994
# Poissons Ratio (z) = 0.43284 -0.19988
#
# Static dielectric constant tensor:
#      x y z
#    x 4.782050 -0.070650 0.843530 
#    y -0.070650 4.539030 -0.172190 
#    z 0.843530 -0.172190 4.774980 
# 
# 
# High freq. dielectric constant tensor:
#      x y z
#    x 1.936220 -0.005160 0.016020 
#    y -0.005160 1.928800 -0.024020 
#    z 0.016020 -0.024020 1.892730 
# 
# From -- ./inp_files/10286.got.cif
#   From: 2010.06.25/outbox.cif.g09.slc.cpg/sg2_6_cif.got.tgz:10286.got - 2010.06.27 13:26:56.
