data_PCOD8043199
_publ_section_title
;
Structure prediction by ZEFSAII (Michael W. Deem and Ramdas Pophale) SiO2 
 PCOD8043199
Probable space group: P -1
;
_chemical_formula_sum "Si O2"
_cell_formula_units_Z 14
_cell_length_a 15.647479
_cell_length_b 6.470278
_cell_length_c 11.928979
_cell_angle_alpha 125.170725
_cell_angle_beta 48.849569
_cell_angle_gamma 132.519356
_cell_volume 651.250788
_symmetry_space_group_name_H-M "P -1"
_symmetry_group_IT_number 2
_symmetry_cell_setting 'triclinic'
loop_
_space_group_symop_operation_xyz
x,y,z
-x,-y,-z
loop_
_atom_site_type_symbol
_atom_site_label
_atom_site_fract_x
_atom_site_fract_y
_atom_site_fract_z
Si Si1 0.992341 0.294643 0.036907
Si Si2 0.578584 0.345470 0.020708
Si Si3 0.182177 0.118049 0.441214
Si Si4 0.227584 0.222559 0.847579
Si Si5 0.370267 0.546522 0.242308
Si Si6 0.030002 0.434457 0.645124
Si Si7 0.277866 0.962359 0.517060
O O1 0.029018 0.448467 0.173558
O O2 0.103179 0.209211 0.887598
O O3 0.842741 0.036868 0.082975
O O4 0.000000 0.500000 0.000000
O O5 0.681703 0.478299 0.074124
O O6 0.496732 0.516803 0.149086
O O7 0.650124 0.422423 0.862795
O O8 0.500000 0.000000 0.000000
O O9 0.252316 0.260683 0.307706
O O10 0.098822 0.271817 0.598031
O O11 0.284392 0.151156 0.460723
O O12 0.088017 0.780065 0.397427
O O13 0.310135 0.157396 0.662390
O O14 0.379097 0.836174 0.381871
O O15 0.132563 0.695899 0.562993
#
# Coordination Sequence:
#
# PCOD8043199 Si02
#       7
#     2   2   2   2   2   2   2
#     4  10  21  37  60  92 128 164 197 252 312 371
#     4  11  25  45  63  90 123 163 214 262 302 366
#     4  10  19  36  59  91 124 160 203 253 301 370
#     4  10  24  40  62  92 126 163 206 250 314 368
#     4  10  24  40  64  90 117 162 216 253 311 358
#     4   9  20  32  56  92 123 164 201 238 311 366
#     4  10  20  40  60  90 125 159 201 257 307 375
#
# _framework density 21.497095999999999
#
# number of rings (size 3 to 8) (size 9 to 14) (size 15 to 20)
#    0.000    2.000    0.000    2.143    6.000    1.714 
#    5.143    2.857    0.000    0.000    0.000    0.000 
#    0.000    0.000    0.000    0.000    0.000    0.000 
#
# Total GULP energy -173521.979868 kJ/mol
# GULP energy per Si atom -12394.427133 kJ/mol
# Density = 2.144817 g / cm^3
# Si number density = 21.497096 Si / 1000 Ang^3
#
#
#
# Elastic Constant Matrix: (Units=GPa)
#
#
# Indices 1 2 3 4 5 6 
#
# 1 68.8460 39.8616 37.2090 1.3425 10.2368 -8.5535
# 2 39.8616 112.2060 43.2202 0.8491 25.5201 -5.1137
# 3 37.2090 43.2202 125.1479 11.2236 -1.2527 -7.1891
# 4 1.3425 0.8491 11.2236 32.6735 -6.8907 6.8367
# 5 10.2368 25.5201 -1.2527 -6.8907 28.8095 2.0984
# 6 -8.5535 -5.1137 -7.1891 6.8367 2.0984 38.1302
#
#
#
# Elastic Compliance Matrix: (Units=1/GPa)
#
#
# Indices 1 2 3 4 5 6 
#
# 1 0.020530 -0.004601 -0.004278 -0.000808 -0.003856 0.003539
# 2 -0.004601 0.014769 -0.003624 -0.001767 -0.012119 0.001249
# 3 -0.004278 -0.003624 0.010847 -0.002681 0.004500 0.000833
# 4 -0.000808 -0.001767 -0.002681 0.035537 0.010811 -0.007891
# 5 -0.003856 -0.012119 0.004500 0.010811 0.050059 -0.006335
# 6 0.003539 0.001249 0.000833 -0.007891 -0.006335 0.029108
#
#
# Mechanical properties :
#
#
# Convention : Reuss Voigt Hill
#
# Bulk Modulus (GPa) = 47.30082 60.75350 54.02716
# Shear Modulus (GPa) = 25.91978 32.31658 29.11818
#
# Velocity S-wave (km/s) = 3.47614 3.88145 3.68437
# Velocity P-wave (km/s) = 6.17758 6.95774 6.57923
#
# Compressibility (1/GPa) = 0.02114128
#
# Stress axis : x y z
#
# Youngs Moduli (GPa) = 48.70907 67.70834 92.18960
#
# Poissons Ratio (x) = 0.31154 0.39437
# Poissons Ratio (y) = 0.22412 0.33406
# Poissons Ratio (z) = 0.20837 0.24535
#
# Static dielectric constant tensor:
#      x y z
#    x 3.410570 -0.307490 -0.260790 
#    y -0.307490 3.892610 0.014310 
#    z -0.260790 0.014310 3.947700 
# 
# 
# High freq. dielectric constant tensor:
#      x y z
#    x 1.815780 -0.024150 -0.005230 
#    y -0.024150 1.841260 0.005060 
#    z -0.005230 0.005060 1.859120 
# 
# From -- ./inp_files/68344.got.cif
#   From: 2010.06.25/outbox.cif.g09.slc.cpg/sg2_35_cif.got.tgz:68344.got - 2010.06.27 13:26:56.
