data_PCOD8043398
_publ_section_title
;
Structure prediction by ZEFSAII (Michael W. Deem and Ramdas Pophale) SiO2 
 PCOD8043398
Probable space group: P -1
;
_chemical_formula_sum "Si O2"
_cell_formula_units_Z 16
_cell_length_a 9.785835
_cell_length_b 11.949409
_cell_length_c 12.921775
_cell_angle_alpha 116.684419
_cell_angle_beta 135.761611
_cell_angle_gamma 49.960466
_cell_volume 806.857918
_symmetry_space_group_name_H-M "P -1"
_symmetry_group_IT_number 2
_symmetry_cell_setting 'triclinic'
loop_
_space_group_symop_operation_xyz
x,y,z
-x,-y,-z
loop_
_atom_site_type_symbol
_atom_site_label
_atom_site_fract_x
_atom_site_fract_y
_atom_site_fract_z
Si Si1 0.693992 0.608071 0.681682
Si Si2 0.961812 0.050286 0.663897
Si Si3 0.567649 0.344498 0.848269
Si Si4 0.363248 0.927474 0.688077
Si Si5 0.866570 0.412257 0.177035
Si Si6 0.501715 0.085970 0.692325
Si Si7 0.361278 0.627449 0.331986
Si Si8 0.847664 0.849127 0.635155
O O1 0.573095 0.761271 0.741739
O O2 0.555269 0.619024 0.507977
O O3 0.710497 0.487016 0.719059
O O4 0.948147 0.560126 0.764972
O O5 0.803268 0.062377 0.488555
O O6 0.865610 0.211508 0.724866
O O7 0.961138 0.943877 0.706543
O O8 0.224212 0.980564 0.741782
O O9 0.338881 0.435280 0.829131
O O10 0.625054 0.177909 0.809611
O O11 0.535272 0.410008 0.742703
O O12 0.780575 0.342468 0.015985
O O13 0.450259 0.039300 0.755953
O O14 0.962383 0.306636 0.283852
O O15 0.269093 0.179926 0.538765
O O16 0.659706 0.932451 0.656366
#
# Coordination Sequence:
#
# PCOD8043398 Si02
#       8
#     2   2   2   2   2   2   2   2
#     4  10  21  38  61  88 116 149 193 241 291 345
#     4   9  18  33  55  87 118 142 178 236 296 342
#     4  11  25  41  57  82 120 161 199 238 285 345
#     4   9  18  33  55  87 118 142 178 236 296 342
#     4  11  25  41  57  82 120 161 199 238 285 345
#     4  10  19  36  62  87 113 145 191 247 293 339
#     4  10  21  38  61  88 116 149 193 241 291 345
#     4  10  19  36  62  87 113 145 191 247 293 339
#
# _framework density 19.830010000000001
#
# number of rings (size 3 to 8) (size 9 to 14) (size 15 to 20)
#    0.000    2.000    2.500    0.750    3.500    3.000 
#    0.000    0.000    0.000    1.500    0.000    0.000 
#    0.000    0.000    0.000    0.000    0.000    0.000 
#
# Total GULP energy -198438.412677 kJ/mol
# GULP energy per Si atom -12402.400792 kJ/mol
# Density = 1.978488 g / cm^3
# Si number density = 19.830010 Si / 1000 Ang^3
#
#
#
# Elastic Constant Matrix: (Units=GPa)
#
#
# Indices 1 2 3 4 5 6 
#
# 1 148.1437 35.7529 27.2003 5.9708 16.8092 9.4782
# 2 35.7529 69.3865 19.3694 9.2122 12.3371 13.0979
# 3 27.2003 19.3694 43.6516 10.1604 10.4504 4.5375
# 4 5.9708 9.2122 10.1604 19.4802 -2.3469 2.6097
# 5 16.8092 12.3371 10.4504 -2.3469 20.2339 0.9638
# 6 9.4782 13.0979 4.5375 2.6097 0.9638 36.1068
#
#
#
# Elastic Compliance Matrix: (Units=1/GPa)
#
#
# Indices 1 2 3 4 5 6 
#
# 1 0.008437 -0.002667 -0.003077 -0.000073 -0.003767 -0.000755
# 2 -0.002667 0.020281 -0.002714 -0.007751 -0.009385 -0.005505
# 3 -0.003077 -0.002714 0.033714 -0.017074 -0.015143 -0.000806
# 4 -0.000073 -0.007751 -0.017074 0.066553 0.021343 -0.000403
# 5 -0.003767 -0.009385 -0.015143 0.021343 0.068431 0.002927
# 6 -0.000755 -0.005505 -0.000806 -0.000403 0.002927 0.029943
#
#
# Mechanical properties :
#
#
# Convention : Reuss Voigt Hill
#
# Bulk Modulus (GPa) = 21.97036 47.31410 34.64223
# Shear Modulus (GPa) = 19.27182 27.08813 23.17997
#
# Velocity S-wave (km/s) = 3.12083 3.69998 3.42268
# Velocity P-wave (km/s) = 4.90811 6.49344 5.75562
#
# Compressibility (1/GPa) = 0.04551588
#
# Stress axis : x y z
#
# Youngs Moduli (GPa) = 118.52037 49.30793 29.66144
#
# Poissons Ratio (x) = 0.13149 0.09127
# Poissons Ratio (y) = 0.31606 0.08051
# Poissons Ratio (z) = 0.36470 0.13383
#
# Static dielectric constant tensor:
#      x y z
#    x 3.776010 0.013100 0.034620 
#    y 0.013100 3.562560 0.001940 
#    z 0.034620 0.001940 3.267850 
# 
# 
# High freq. dielectric constant tensor:
#      x y z
#    x 1.789000 0.006200 0.002350 
#    y 0.006200 1.774360 -0.000460 
#    z 0.002350 -0.000460 1.732790 
# 
# From -- ./inp_files/180376.got.cif
#   From: 2010.06.25/outbox.cif.g09.slc.cpg/sg2_91_cif.got.tgz:180376.got - 2010.06.27 13:26:56.
