data_PCOD8043708
_publ_section_title
;
Structure prediction by ZEFSAII (Michael W. Deem and Ramdas Pophale) SiO2 
 PCOD8043708
Probable space group: P -1
;
_chemical_formula_sum "Si O2"
_cell_formula_units_Z 16
_cell_length_a 8.263568
_cell_length_b 20.480855
_cell_length_c 11.509080
_cell_angle_alpha 132.435779
_cell_angle_beta 142.058129
_cell_angle_gamma 56.880392
_cell_volume 883.478607
_symmetry_space_group_name_H-M "P -1"
_symmetry_group_IT_number 2
_symmetry_cell_setting 'triclinic'
loop_
_space_group_symop_operation_xyz
x,y,z
-x,-y,-z
loop_
_atom_site_type_symbol
_atom_site_label
_atom_site_fract_x
_atom_site_fract_y
_atom_site_fract_z
Si Si1 0.637477 0.691826 0.071078
Si Si2 0.291665 0.952616 0.744889
Si Si3 0.285838 0.968634 0.497977
Si Si4 0.641180 0.459813 0.143689
Si Si5 0.548230 0.864773 0.335235
Si Si6 0.082191 0.784132 0.533884
Si Si7 0.238105 0.462317 0.454552
Si Si8 0.416326 0.634651 0.647890
O O1 0.535321 0.621700 0.020867
O O2 0.623982 0.655622 0.890317
O O3 0.462651 0.782071 0.107550
O O4 0.946793 0.712342 0.286102
O O5 0.385022 0.947937 0.659080
O O6 0.264290 0.851484 0.649170
O O7 0.023062 0.011005 0.664900
O O8 0.500000 0.000000 0.000000
O O9 0.352165 0.882395 0.352863
O O10 0.453650 0.050343 0.647556
O O11 0.653414 0.528154 0.341171
O O12 0.940904 0.428415 0.245892
O O13 0.500000 0.500000 0.000000
O O14 0.842813 0.842209 0.527541
O O15 0.248422 0.725871 0.649316
O O16 0.236046 0.555281 0.494405
O O17 0.428385 0.390613 0.412098
#
# Coordination Sequence:
#
# PCOD8043708 Si02
#       8
#     2   2   2   2   2   2   2   2
#     4   9  20  36  55  79 104 144 182 211 280 307
#     4  10  21  35  56  82 106 144 176 218 277 316
#     4   9  18  39  56  74 114 136 176 227 256 327
#     4  10  19  37  57  78 109 142 177 227 264 318
#     4   8  18  38  56  77 103 145 176 215 268 312
#     4   9  20  36  51  83 110 134 183 220 262 320
#     4   9  21  36  55  84 106 142 186 210 272 323
#     4  10  19  37  58  77 113 143 173 228 261 321
#
# _framework density 18.110229
#
# number of rings (size 3 to 8) (size 9 to 14) (size 15 to 20)
#    0.750    2.000    0.000    0.750    1.750    1.000 
#    9.000    5.625    0.000    0.000    0.000    0.000 
#    0.000    0.000    0.000    0.000    0.000    0.000 
#
# Total GULP energy -198261.189348 kJ/mol
# GULP energy per Si atom -12391.324334 kJ/mol
# Density = 1.806901 g / cm^3
# Si number density = 18.110229 Si / 1000 Ang^3
#
#
#
# Elastic Constant Matrix: (Units=GPa)
#
#
# Indices 1 2 3 4 5 6 
#
# 1 97.6299 31.9866 40.4580 0.4383 -14.6763 5.3322
# 2 31.9866 84.5746 28.3014 -0.5774 -2.9048 12.6089
# 3 40.4580 28.3014 104.2612 4.5290 5.3123 17.8195
# 4 0.4383 -0.5774 4.5290 25.6749 2.2833 -2.2032
# 5 -14.6763 -2.9048 5.3123 2.2833 27.3264 5.5498
# 6 5.3322 12.6089 17.8195 -2.2032 5.5498 22.4528
#
#
#
# Elastic Compliance Matrix: (Units=1/GPa)
#
#
# Indices 1 2 3 4 5 6 
#
# 1 0.014894 -0.003652 -0.005325 -0.000102 0.008529 0.000621
# 2 -0.003652 0.014727 -0.001534 -0.000001 0.001220 -0.006488
# 3 -0.005325 -0.001534 0.013777 -0.002732 -0.003821 -0.008132
# 4 -0.000102 -0.000001 -0.002732 0.040443 -0.004374 0.007243
# 5 0.008529 0.001220 -0.003821 -0.004374 0.044678 -0.011150
# 6 0.000621 -0.006488 -0.008132 0.007243 -0.011150 0.057954
#
#
# Mechanical properties :
#
#
# Convention : Reuss Voigt Hill
#
# Bulk Modulus (GPa) = 44.68679 54.21752 49.45216
# Shear Modulus (GPa) = 23.26082 27.47212 25.36647
#
# Velocity S-wave (km/s) = 3.58774 3.89902 3.74661
# Velocity P-wave (km/s) = 6.47233 7.09029 6.78835
#
# Compressibility (1/GPa) = 0.02237798
#
# Stress axis : x y z
#
# Youngs Moduli (GPa) = 67.13954 67.90057 72.58416
#
# Poissons Ratio (x) = 0.24795 0.38649
# Poissons Ratio (y) = 0.24517 0.11134
# Poissons Ratio (z) = 0.35750 0.10416
#
# Static dielectric constant tensor:
#      x y z
#    x 3.349420 0.077820 -0.020880 
#    y 0.077820 3.237020 0.129420 
#    z -0.020880 0.129420 3.241310 
# 
# 
# High freq. dielectric constant tensor:
#      x y z
#    x 1.697640 0.008820 -0.001200 
#    y 0.008820 1.693890 0.006370 
#    z -0.001200 0.006370 1.693760 
# 
# From -- ./inp_files/404242.got.cif
#   From: 2010.06.25/outbox.cif.g09.slc.cpg/sg2_203_cif.got.tgz:404242.got - 2010.06.27 13:26:56.
