data_PCOD8043594
_publ_section_title
;
Structure prediction by ZEFSAII (Michael W. Deem and Ramdas Pophale) SiO2 
 PCOD8043594
Probable space group: P -1
;
_chemical_formula_sum "Si O2"
_cell_formula_units_Z 16
_cell_length_a 12.360477
_cell_length_b 9.409438
_cell_length_c 16.846361
_cell_angle_alpha 76.933590
_cell_angle_beta 43.058939
_cell_angle_gamma 44.421199
_cell_volume 735.437876
_symmetry_space_group_name_H-M "P -1"
_symmetry_group_IT_number 2
_symmetry_cell_setting 'triclinic'
loop_
_space_group_symop_operation_xyz
x,y,z
-x,-y,-z
loop_
_atom_site_type_symbol
_atom_site_label
_atom_site_fract_x
_atom_site_fract_y
_atom_site_fract_z
Si Si1 0.201981 0.060348 0.647631
Si Si2 0.911847 0.984797 0.787417
Si Si3 0.633195 0.597842 0.380137
Si Si4 0.818519 0.021646 0.551352
Si Si5 0.065032 0.576904 0.393361
Si Si6 0.496898 0.813433 0.150378
Si Si7 0.535663 0.822131 0.897154
Si Si8 0.006929 0.581584 0.163406
O O1 0.159189 0.221438 0.583554
O O2 0.188425 0.137905 0.734305
O O3 0.512897 0.753810 0.508523
O O4 0.962567 0.117760 0.757738
O O5 0.207593 0.675004 0.659189
O O6 0.737964 0.093324 0.786305
O O7 0.747253 0.047551 0.944105
O O8 0.352304 0.782053 0.455707
O O9 0.830954 0.570789 0.238545
O O10 0.579373 0.138979 0.722724
O O11 0.000000 0.000000 0.500000
O O12 0.055605 0.727516 0.433693
O O13 0.365465 0.312101 0.225255
O O14 0.000000 0.500000 0.500000
O O15 0.515714 0.967739 0.098297
O O16 0.809400 0.511924 0.000988
O O17 0.774504 0.611968 0.859290
#
# Coordination Sequence:
#
# PCOD8043594 Si02
#       8
#     2   2   2   2   2   2   2   2
#     4  10  23  35  58  94 120 151 201 254 292 343
#     4  11  21  39  64  90 120 157 199 246 301 345
#     4  11  21  40  59  86 122 159 197 239 300 359
#     4  11  25  40  59  91 121 157 200 244 300 355
#     4  10  20  38  59  85 120 158 194 238 297 353
#     4  11  19  37  64  87 119 158 201 242 292 359
#     4  10  19  36  65  90 115 156 204 243 290 356
#     4  10  20  37  60  90 115 152 202 248 295 345
#
# _framework density 21.755748000000001
#
# number of rings (size 3 to 8) (size 9 to 14) (size 15 to 20)
#    0.000    1.500    3.750    3.000    0.000    6.000 
#    0.000    2.500    0.000    1.500    0.000    0.000 
#    0.000    0.000    0.000    0.000    0.000    0.000 
#
# Total GULP energy -198287.442021 kJ/mol
# GULP energy per Si atom -12392.965126 kJ/mol
# Density = 2.170623 g / cm^3
# Si number density = 21.755748 Si / 1000 Ang^3
#
#
#
# Elastic Constant Matrix: (Units=GPa)
#
#
# Indices 1 2 3 4 5 6 
#
# 1 61.1447 3.8943 4.4361 4.5859 5.0686 20.5416
# 2 3.8943 47.2381 -1.1887 -0.8084 1.9628 11.4256
# 3 4.4361 -1.1887 82.8344 8.4973 24.3733 2.6150
# 4 4.5859 -0.8084 8.4973 34.4055 5.6533 2.8561
# 5 5.0686 1.9628 24.3733 5.6533 48.0260 2.3378
# 6 20.5416 11.4256 2.6150 2.8561 2.3378 19.7574
#
#
#
# Elastic Compliance Matrix: (Units=1/GPa)
#
#
# Indices 1 2 3 4 5 6 
#
# 1 0.026290 0.005157 0.000128 -0.000672 -0.001508 -0.030057
# 2 0.005157 0.025804 0.000952 0.001594 -0.001272 -0.020490
# 3 0.000128 0.000952 0.014429 -0.002283 -0.007037 -0.001430
# 4 -0.000672 0.001594 -0.002283 0.030458 -0.002223 -0.004061
# 5 -0.001508 -0.001272 -0.007037 -0.002223 0.024836 0.000617
# 6 -0.030057 -0.020490 -0.001430 -0.004061 0.000617 0.094417
#
#
# Mechanical properties :
#
#
# Convention : Reuss Voigt Hill
#
# Bulk Modulus (GPa) = 12.65891 22.83341 17.74616
# Shear Modulus (GPa) = 21.73030 32.70948 27.21989
#
# Velocity S-wave (km/s) = 3.16386 3.88169 3.54101
# Velocity P-wave (km/s) = 4.37926 5.53246 4.98929
#
# Compressibility (1/GPa) = 0.07899572
#
# Stress axis : x y z
#
# Youngs Moduli (GPa) = 38.03732 38.75332 69.30500
#
# Poissons Ratio (x) = -0.19985 -0.00884
# Poissons Ratio (y) = -0.19616 -0.06596
# Poissons Ratio (z) = -0.00485 -0.03688
#
# Static dielectric constant tensor:
#      x y z
#    x 4.433150 0.543230 1.391030 
#    y 0.543230 3.918650 0.500850 
#    z 1.391030 0.500850 5.960840 
# 
# 
# High freq. dielectric constant tensor:
#      x y z
#    x 1.835140 0.029050 0.018670 
#    y 0.029050 1.830810 0.002360 
#    z 0.018670 0.002360 1.881310 
# 
# From -- ./inp_files/176372.got.cif
#   From: 2010.06.25/outbox.cif.g09.slc.cpg/sg2_89_cif.got.tgz:176372.got - 2010.06.27 13:26:56.
