data_PCOD8043592
_publ_section_title
;
Structure prediction by ZEFSAII (Michael W. Deem and Ramdas Pophale) SiO2 
 PCOD8043592
Probable space group: P -1
;
_chemical_formula_sum "Si O2"
_cell_formula_units_Z 16
_cell_length_a 12.674543
_cell_length_b 20.867638
_cell_length_c 16.275602
_cell_angle_alpha 154.060108
_cell_angle_beta 23.163432
_cell_angle_gamma 154.185326
_cell_volume 669.819053
_symmetry_space_group_name_H-M "P -1"
_symmetry_group_IT_number 2
_symmetry_cell_setting 'triclinic'
loop_
_space_group_symop_operation_xyz
x,y,z
-x,-y,-z
loop_
_atom_site_type_symbol
_atom_site_label
_atom_site_fract_x
_atom_site_fract_y
_atom_site_fract_z
Si Si1 0.144968 0.671133 0.992483
Si Si2 0.671292 0.003537 0.041331
Si Si3 0.249827 0.388377 0.640158
Si Si4 0.868915 0.060713 0.450279
Si Si5 0.227919 0.924773 0.762176
Si Si6 0.722050 0.738863 0.271233
Si Si7 0.838531 0.413665 0.597060
Si Si8 0.689990 0.318999 0.341844
O O1 0.881683 0.593883 0.157657
O O2 0.987005 0.680872 0.029858
O O3 0.361135 0.851799 0.073086
O O4 0.317448 0.553986 0.730694
O O5 0.937733 0.950435 0.777704
O O6 0.689377 0.074268 0.200453
O O7 0.713474 0.149254 0.115981
O O8 0.547479 0.360641 0.410412
O O9 0.009964 0.239008 0.591154
O O10 0.543299 0.028228 0.611222
O O11 0.858953 0.931219 0.377654
O O12 0.090459 0.741473 0.616471
O O13 0.000000 0.000000 0.000000
O O14 0.516284 0.645263 0.231636
O O15 0.525997 0.700897 0.449719
O O16 0.000000 0.500000 0.500000
O O17 0.979125 0.537483 0.714542
#
# Coordination Sequence:
#
# PCOD8043592 Si02
#       8
#     2   2   2   2   2   2   2   2
#     4  10  21  36  62  92 125 165 209 256 320 360
#     4  12  23  40  64  92 123 164 209 253 308 373
#     4  10  21  37  61  94 127 162 209 260 310 370
#     4  11  23  41  63  93 122 161 214 249 309 373
#     4  11  24  42  68  87 127 166 200 258 314 363
#     4   9  18  37  60  88 124 161 210 253 300 371
#     4   9  17  36  62  91 114 163 209 248 302 366
#     4  10  19  36  65  89 124 167 209 255 305 367
#
# _framework density 23.887049000000001
#
# number of rings (size 3 to 8) (size 9 to 14) (size 15 to 20)
#    0.000    1.750    5.000    0.750    1.750    7.000 
#    0.000    2.500    0.000    0.000    0.000    0.000 
#    0.000    0.000    0.000    0.000    0.000    0.000 
#
# Total GULP energy -198365.475022 kJ/mol
# GULP energy per Si atom -12397.842189 kJ/mol
# Density = 2.383268 g / cm^3
# Si number density = 23.887049 Si / 1000 Ang^3
#
#
#
# Elastic Constant Matrix: (Units=GPa)
#
#
# Indices 1 2 3 4 5 6 
#
# 1 53.1420 42.2321 19.2899 10.9342 -29.6241 5.4006
# 2 42.2321 132.8517 34.3270 36.6573 -28.2253 19.0136
# 3 19.2899 34.3270 110.1140 6.3480 -52.6805 11.0349
# 4 10.9342 36.6573 6.3480 44.1428 -3.9668 -2.1202
# 5 -29.6241 -28.2253 -52.6805 -3.9668 44.0989 -5.3181
# 6 5.4006 19.0136 11.0349 -2.1202 -5.3181 20.6789
#
#
#
# Elastic Compliance Matrix: (Units=1/GPa)
#
#
# Indices 1 2 3 4 5 6 
#
# 1 0.043826 -0.007890 0.015329 -0.002799 0.042235 -0.001796
# 2 -0.007890 0.015301 -0.001286 -0.011118 0.000469 -0.012342
# 3 0.015329 -0.001286 0.027269 -0.003323 0.040884 -0.007199
# 4 -0.002799 -0.011118 -0.003323 0.032981 -0.008314 0.013970
# 5 0.042235 0.000469 0.040884 -0.008314 0.098375 -0.008831
# 6 -0.001796 -0.012342 -0.007199 0.013970 -0.008831 0.063178
#
#
# Mechanical properties :
#
#
# Convention : Reuss Voigt Hill
#
# Bulk Modulus (GPa) = 10.13140 54.20063 32.16602
# Shear Modulus (GPa) = 16.58237 35.13472 25.85854
#
# Velocity S-wave (km/s) = 2.63762 3.83935 3.29376
# Velocity P-wave (km/s) = 3.67786 6.51105 5.28774
#
# Compressibility (1/GPa) = 0.09870305
#
# Stress axis : x y z
#
# Youngs Moduli (GPa) = 22.81769 65.35426 36.67109
#
# Poissons Ratio (x) = 0.51566 -0.56215
# Poissons Ratio (y) = 0.18004 0.04715
# Poissons Ratio (z) = -0.34978 0.08404
#
# Static dielectric constant tensor:
#      x y z
#    x 4.303140 0.043330 -0.425030 
#    y 0.043330 3.345000 -0.991190 
#    z -0.425030 -0.991190 3.856500 
# 
# 
# High freq. dielectric constant tensor:
#      x y z
#    x 1.928720 -0.004790 -0.007100 
#    y -0.004790 1.951790 -0.005710 
#    z -0.007100 -0.005710 1.958300 
# 
# From -- ./inp_files/307835.got.cif
#   From: 2010.06.25/outbox.cif.g09.slc.cpg/sg2_154_cif.got.tgz:307835.got - 2010.06.27 13:26:56.
