data_PCOD8043640
_publ_section_title
;
Structure prediction by ZEFSAII (Michael W. Deem and Ramdas Pophale) SiO2 
 PCOD8043640
Probable space group: P -1
;
_chemical_formula_sum "Si O2"
_cell_formula_units_Z 16
_cell_length_a 8.159621
_cell_length_b 15.024648
_cell_length_c 9.263082
_cell_angle_alpha 73.705413
_cell_angle_beta 58.733887
_cell_angle_gamma 110.781191
_cell_volume 738.308991
_symmetry_space_group_name_H-M "P -1"
_symmetry_group_IT_number 2
_symmetry_cell_setting 'triclinic'
loop_
_space_group_symop_operation_xyz
x,y,z
-x,-y,-z
loop_
_atom_site_type_symbol
_atom_site_label
_atom_site_fract_x
_atom_site_fract_y
_atom_site_fract_z
Si Si1 0.472440 0.502013 0.260914
Si Si2 0.798519 0.676528 0.780322
Si Si3 0.179184 0.014739 0.738948
Si Si4 0.411734 0.871021 0.082861
Si Si5 0.984164 0.843453 0.164872
Si Si6 0.541205 0.379023 0.528978
Si Si7 0.666186 0.214115 0.524529
Si Si8 0.829651 0.886668 0.724883
O O1 0.261728 0.395033 0.307957
O O2 0.588366 0.461654 0.335771
O O3 0.365899 0.551634 0.391177
O O4 0.673387 0.597861 0.014756
O O5 0.729603 0.764257 0.749212
O O6 0.082863 0.757898 0.640268
O O7 0.471517 0.109421 0.551080
O O8 0.085670 0.093840 0.722292
O O9 0.021482 0.908646 0.747946
O O10 0.139059 0.949126 0.934739
O O11 0.138693 0.802989 0.177089
O O12 0.415177 0.821169 0.256507
O O13 0.589293 0.868586 0.895689
O O14 0.500000 0.000000 0.000000
O O15 0.742261 0.725861 0.267086
O O16 0.688329 0.331045 0.440673
O O17 0.000000 0.000000 0.500000
#
# Coordination Sequence:
#
# PCOD8043640 Si02
#       8
#     2   2   2   2   2   2   2   2
#     4  10  23  46  68  87 129 174 219 276 320 373
#     4  11  25  44  63  95 136 171 212 270 332 379
#     4  10  20  37  59  93 130 166 201 260 316 380
#     4  12  20  38  63  94 129 175 215 251 316 390
#     4  10  19  36  67  93 125 159 214 267 305 376
#     4  10  22  42  70  96 118 171 228 269 318 373
#     4  11  23  38  68  96 128 167 215 268 317 394
#     4  12  26  40  61  95 138 173 206 262 327 392
#
# _framework density 21.671143000000001
#
# number of rings (size 3 to 8) (size 9 to 14) (size 15 to 20)
#    0.000    1.250    2.500    4.500    3.500    1.500 
#    2.250    5.000    0.000    0.000    0.000    0.000 
#    0.000    0.000    0.000    0.000    0.000    0.000 
#
# Total GULP energy -198242.576642 kJ/mol
# GULP energy per Si atom -12390.161040 kJ/mol
# Density = 2.162182 g / cm^3
# Si number density = 21.671143 Si / 1000 Ang^3
#
#
#
# Elastic Constant Matrix: (Units=GPa)
#
#
# Indices 1 2 3 4 5 6 
#
# 1 81.4213 20.8398 21.7863 2.5179 -8.9725 2.5514
# 2 20.8398 106.5075 21.3835 -6.8668 -1.4503 -2.3240
# 3 21.7863 21.3835 79.8918 -7.9815 -1.9990 -2.9683
# 4 2.5179 -6.8668 -7.9815 23.3654 -2.5394 5.1222
# 5 -8.9725 -1.4503 -1.9990 -2.5394 37.0443 -0.7736
# 6 2.5514 -2.3240 -2.9683 5.1222 -0.7736 33.2866
#
#
#
# Elastic Compliance Matrix: (Units=1/GPa)
#
#
# Indices 1 2 3 4 5 6 
#
# 1 0.014249 -0.002245 -0.003535 -0.002850 0.002955 -0.001057
# 2 -0.002245 0.010381 -0.001899 0.002565 -0.000057 0.000331
# 3 -0.003535 -0.001899 0.014483 0.004632 0.000184 0.000721
# 4 -0.002850 0.002565 0.004632 0.047140 0.002758 -0.006379
# 5 0.002955 -0.000057 0.000184 0.002758 0.027907 0.000010
# 6 -0.001057 0.000331 0.000721 -0.006379 0.000010 0.031192
#
#
# Mechanical properties :
#
#
# Convention : Reuss Voigt Hill
#
# Bulk Modulus (GPa) = 42.09505 43.98219 43.03862
# Shear Modulus (GPa) = 29.65062 32.32666 30.98864
#
# Velocity S-wave (km/s) = 3.70294 3.86643 3.78557
# Velocity P-wave (km/s) = 6.14402 6.34600 6.24583
#
# Compressibility (1/GPa) = 0.02375576
#
# Stress axis : x y z
#
# Youngs Moduli (GPa) = 70.17968 96.32585 69.04466
#
# Poissons Ratio (x) = 0.21624 0.24406
# Poissons Ratio (y) = 0.15755 0.13114
# Poissons Ratio (z) = 0.24808 0.18295
#
# Static dielectric constant tensor:
#      x y z
#    x 5.197380 0.007830 0.041220 
#    y 0.007830 3.985170 -0.190360 
#    z 0.041220 -0.190360 3.807590 
# 
# 
# High freq. dielectric constant tensor:
#      x y z
#    x 1.849390 -0.000670 0.008800 
#    y -0.000670 1.857650 -0.012750 
#    z 0.008800 -0.012750 1.843030 
# 
# From -- ./inp_files/206733.got.cif
#   From: 2010.06.25/outbox.cif.g09.slc.cpg/sg2_104_cif.got.tgz:206733.got - 2010.06.27 13:26:56.
