data_PCOD8043472
_publ_section_title
;
Structure prediction by ZEFSAII (Michael W. Deem and Ramdas Pophale) SiO2 
 PCOD8043472
Probable space group: P -1
;
_chemical_formula_sum "Si O2"
_cell_formula_units_Z 16
_cell_length_a 6.782380
_cell_length_b 9.194626
_cell_length_c 17.138609
_cell_angle_alpha 119.275679
_cell_angle_beta 108.007408
_cell_angle_gamma 55.563207
_cell_volume 768.107931
_symmetry_space_group_name_H-M "P -1"
_symmetry_group_IT_number 2
_symmetry_cell_setting 'triclinic'
loop_
_space_group_symop_operation_xyz
x,y,z
-x,-y,-z
loop_
_atom_site_type_symbol
_atom_site_label
_atom_site_fract_x
_atom_site_fract_y
_atom_site_fract_z
Si Si1 0.317266 0.438331 0.098261
Si Si2 0.652458 0.083386 0.266040
Si Si3 0.005020 0.751421 0.614497
Si Si4 0.190760 0.254472 0.913263
Si Si5 0.525084 0.898104 0.332242
Si Si6 0.817089 0.579582 0.752893
Si Si7 0.687081 0.551957 0.158144
Si Si8 0.060556 0.364432 0.586596
O O1 0.307638 0.447279 0.193235
O O2 0.563121 0.423832 0.096424
O O3 0.096245 0.632436 0.086922
O O4 0.302989 0.255752 0.012347
O O5 0.369681 0.227391 0.262826
O O6 0.803397 0.190919 0.318930
O O7 0.727886 0.957662 0.163163
O O8 0.685397 0.959784 0.315160
O O9 0.055845 0.564092 0.620123
O O10 0.047654 0.697101 0.513923
O O11 0.736850 0.926623 0.637544
O O12 0.277438 0.368336 0.897557
O O13 0.512139 0.729313 0.239606
O O14 0.670105 0.808028 0.406988
O O15 0.896513 0.403809 0.654434
O O16 0.055343 0.585647 0.806888
#
# Coordination Sequence:
#
# PCOD8043472 Si02
#       8
#     2   2   2   2   2   2   2   2
#     4  10  19  36  63  85 116 164 199 245 306 353
#     4  11  23  39  60  88 125 158 195 256 301 355
#     4  11  23  42  64  89 120 163 201 249 310 351
#     4   9  20  37  57  91 121 149 209 250 289 366
#     4  10  21  40  60  89 123 155 202 253 294 360
#     4  10  22  37  56  86 124 150 203 247 293 361
#     4   9  19  36  61  86 119 164 197 244 303 352
#     4  10  23  43  62  90 123 156 207 252 293 370
#
# _framework density 20.830407999999998
#
# number of rings (size 3 to 8) (size 9 to 14) (size 15 to 20)
#    0.000    2.000    1.250    2.250    3.500    1.500 
#    0.000    0.625    0.000    0.000    0.000    0.000 
#    0.000    0.000    0.000    0.000    0.000    0.000 
#
# Total GULP energy -198340.303391 kJ/mol
# GULP energy per Si atom -12396.268962 kJ/mol
# Density = 2.078300 g / cm^3
# Si number density = 20.830408 Si / 1000 Ang^3
#
#
#
# Elastic Constant Matrix: (Units=GPa)
#
#
# Indices 1 2 3 4 5 6 
#
# 1 93.7069 32.4208 46.3062 6.5921 10.6489 -9.1123
# 2 32.4208 101.3182 31.9108 2.6517 7.1257 -15.9216
# 3 46.3062 31.9108 117.3277 9.1014 -3.1960 1.2078
# 4 6.5921 2.6517 9.1014 27.7287 7.2065 -5.1600
# 5 10.6489 7.1257 -3.1960 7.2065 25.8700 3.2375
# 6 -9.1123 -15.9216 1.2078 -5.1600 3.2375 24.8190
#
#
#
# Elastic Compliance Matrix: (Units=1/GPa)
#
#
# Indices 1 2 3 4 5 6 
#
# 1 0.015697 -0.001518 -0.006208 0.001775 -0.008120 0.006519
# 2 -0.001518 0.013285 -0.003539 0.003508 -0.005650 0.009604
# 3 -0.006208 -0.003539 0.012659 -0.005680 0.007594 -0.007337
# 4 0.001775 0.003508 -0.005680 0.044164 -0.016518 0.014515
# 5 -0.008120 -0.005650 0.007594 -0.016518 0.051232 -0.017093
# 6 0.006519 0.009604 -0.007337 0.014515 -0.017093 0.054450
#
#
# Mechanical properties :
#
#
# Convention : Reuss Voigt Hill
#
# Bulk Modulus (GPa) = 52.32909 59.29206 55.81058
# Shear Modulus (GPa) = 22.68727 29.13121 25.90924
#
# Velocity S-wave (km/s) = 3.30380 3.74370 3.53061
# Velocity P-wave (km/s) = 6.30313 6.87118 6.59327
#
# Compressibility (1/GPa) = 0.01910983
#
# Stress axis : x y z
#
# Youngs Moduli (GPa) = 63.70832 75.27234 78.99648
#
# Poissons Ratio (x) = 0.11429 0.49041
# Poissons Ratio (y) = 0.09673 0.27956
# Poissons Ratio (z) = 0.39550 0.26638
#
# Static dielectric constant tensor:
#      x y z
#    x 3.493350 -0.159470 -0.176920 
#    y -0.159470 3.715270 -0.075120 
#    z -0.176920 -0.075120 4.006110 
# 
# 
# High freq. dielectric constant tensor:
#      x y z
#    x 1.799900 -0.015090 -0.012540 
#    y -0.015090 1.805200 -0.007390 
#    z -0.012540 -0.007390 1.827090 
# 
# From -- ./inp_files/124834.got.cif
#   From: 2010.06.25/outbox.cif.g09.slc.cpg/sg2_63_cif.got.tgz:124834.got - 2010.06.27 13:26:56.
