data_PCOD8043964
_publ_section_title
;
Structure prediction by ZEFSAII (Michael W. Deem and Ramdas Pophale) SiO2 
 PCOD8043964
Probable space group: P -1
;
_chemical_formula_sum "Si O2"
_cell_formula_units_Z 16
_cell_length_a 9.083403
_cell_length_b 14.689892
_cell_length_c 11.692264
_cell_angle_alpha 148.489552
_cell_angle_beta 63.315708
_cell_angle_gamma 107.272920
_cell_volume 716.129926
_symmetry_space_group_name_H-M "P -1"
_symmetry_group_IT_number 2
_symmetry_cell_setting 'triclinic'
loop_
_space_group_symop_operation_xyz
x,y,z
-x,-y,-z
loop_
_atom_site_type_symbol
_atom_site_label
_atom_site_fract_x
_atom_site_fract_y
_atom_site_fract_z
Si Si1 0.548354 0.901342 0.635337
Si Si2 0.298670 0.642000 0.411927
Si Si3 0.899873 0.402254 0.017550
Si Si4 0.332462 0.256916 0.019202
Si Si5 0.818422 0.232932 0.654147
Si Si6 0.821744 0.753392 0.539899
Si Si7 0.778454 0.844063 0.282968
Si Si8 0.050019 0.189879 0.203606
O O1 0.398914 0.791746 0.576664
O O2 0.651678 0.880337 0.694359
O O3 0.681242 0.817061 0.403371
O O4 0.475926 0.108083 0.863297
O O5 0.385636 0.448631 0.220748
O O6 0.272739 0.645504 0.286612
O O7 0.119707 0.671930 0.568999
O O8 0.809553 0.546057 0.295718
O O9 0.773025 0.319495 0.889238
O O10 0.000000 0.500000 0.000000
O O11 0.026460 0.247613 0.873489
O O12 0.148996 0.243182 0.117054
O O13 0.318830 0.241100 0.871281
O O14 0.018452 0.196916 0.527787
O O15 0.757517 0.048142 0.474456
O O16 0.827970 0.798533 0.719262
O O17 0.000000 0.000000 0.000000
#
# Coordination Sequence:
#
# PCOD8043964 Si02
#       8
#     2   2   2   2   2   2   2   2
#     4  12  25  43  62 105 145 167 218 279 345 394
#     4  11  25  44  69 100 132 179 228 274 333 395
#     4  10  19  37  61  94 132 173 223 267 321 392
#     4  12  25  43  69  99 134 183 221 273 335 397
#     4  10  20  40  64  95 135 179 227 265 323 401
#     4  10  23  42  68  98 132 177 221 281 330 390
#     4  12  22  40  66 102 138 175 227 271 334 403
#     4  11  22  49  77  92 126 177 236 274 321 404
#
# _framework density 22.342316
#
# number of rings (size 3 to 8) (size 9 to 14) (size 15 to 20)
#    0.000    1.000    5.000    4.125    0.000    2.000 
#    0.000    0.625    0.000    0.000    0.000    0.000 
#    0.000    0.000    0.000    0.000    0.000    0.000 
#
# Total GULP energy -198380.251975 kJ/mol
# GULP energy per Si atom -12398.765748 kJ/mol
# Density = 2.229146 g / cm^3
# Si number density = 22.342316 Si / 1000 Ang^3
#
#
#
# Elastic Constant Matrix: (Units=GPa)
#
#
# Indices 1 2 3 4 5 6 
#
# 1 94.4749 21.5252 27.8890 7.7473 -11.0184 -22.6360
# 2 21.5252 55.6418 35.2103 22.1163 -9.9473 -3.7974
# 3 27.8890 35.2103 104.1224 21.8123 2.8497 -24.9792
# 4 7.7473 22.1163 21.8123 40.3091 -3.6539 -3.4581
# 5 -11.0184 -9.9473 2.8497 -3.6539 29.7492 1.5126
# 6 -22.6360 -3.7974 -24.9792 -3.4581 1.5126 25.4541
#
#
#
# Elastic Compliance Matrix: (Units=1/GPa)
#
#
# Indices 1 2 3 4 5 6 
#
# 1 0.015010 -0.005067 0.000517 0.001032 0.003279 0.013045
# 2 -0.005067 0.031436 -0.009991 -0.011067 0.008825 -0.011649
# 3 0.000517 -0.009991 0.017566 -0.003289 -0.006056 0.016121
# 4 0.001032 -0.011067 -0.003289 0.032586 0.000978 0.000408
# 5 0.003279 0.008825 -0.006056 0.000978 0.038677 -0.003876
# 6 0.013045 -0.011649 0.016121 0.000408 -0.003876 0.065255
#
#
# Mechanical properties :
#
#
# Convention : Reuss Voigt Hill
#
# Bulk Modulus (GPa) = 28.62925 47.05422 37.84174
# Shear Modulus (GPa) = 20.72484 30.41012 25.56748
#
# Velocity S-wave (km/s) = 3.04896 3.69331 3.38650
# Velocity P-wave (km/s) = 5.02361 6.26847 5.68024
#
# Compressibility (1/GPa) = 0.03492932
#
# Stress axis : x y z
#
# Youngs Moduli (GPa) = 66.62165 31.81040 56.92696
#
# Poissons Ratio (x) = 0.16120 -0.02941
# Poissons Ratio (y) = 0.33760 0.56875
# Poissons Ratio (z) = -0.03442 0.31782
#
# Static dielectric constant tensor:
#      x y z
#    x 4.378020 -0.123750 0.498280 
#    y -0.123750 3.840250 -0.044580 
#    z 0.498280 -0.044580 4.708400 
# 
# 
# High freq. dielectric constant tensor:
#      x y z
#    x 1.875510 -0.008140 0.006890 
#    y -0.008140 1.862340 0.011830 
#    z 0.006890 0.011830 1.884770 
# 
# From -- ./inp_files/398069.got.cif
#   From: 2010.06.25/outbox.cif.g09.slc.cpg/sg2_200_cif.got.tgz:398069.got - 2010.06.27 13:26:56.
