data_PCOD8043561
_publ_section_title
;
Structure prediction by ZEFSAII (Michael W. Deem and Ramdas Pophale) SiO2 
 PCOD8043561
Probable space group: P -1
;
_chemical_formula_sum "Si O2"
_cell_formula_units_Z 14
_cell_length_a 22.028620
_cell_length_b 8.506219
_cell_length_c 10.072893
_cell_angle_alpha 132.564554
_cell_angle_beta 35.102487
_cell_angle_gamma 146.550851
_cell_volume 598.136250
_symmetry_space_group_name_H-M "P -1"
_symmetry_group_IT_number 2
_symmetry_cell_setting 'triclinic'
loop_
_space_group_symop_operation_xyz
x,y,z
-x,-y,-z
loop_
_atom_site_type_symbol
_atom_site_label
_atom_site_fract_x
_atom_site_fract_y
_atom_site_fract_z
Si Si1 0.681410 0.804345 0.330327
Si Si2 0.355941 0.717858 0.947374
Si Si3 0.616375 0.332566 0.836947
Si Si4 0.789281 0.703041 0.499769
Si Si5 0.886985 0.308696 0.706348
Si Si6 0.999500 0.207973 0.023333
Si Si7 0.542709 0.532563 0.671261
O O1 0.616139 0.798127 0.585376
O O2 0.588119 0.753869 0.340801
O O3 0.671781 0.536023 0.227608
O O4 0.844767 0.075125 0.175360
O O5 0.313440 0.609786 0.113162
O O6 0.262153 0.788420 0.112582
O O7 0.517101 0.999315 0.790617
O O8 0.738054 0.509201 0.610801
O O9 0.523278 0.423480 0.063613
O O10 0.911761 0.727372 0.228929
O O11 0.659246 0.537454 0.532790
O O12 0.856088 0.016292 0.607088
O O13 0.000000 0.500000 0.500000
O O14 0.941574 0.496937 0.848674
O O15 0.000000 0.000000 0.000000
#
# Coordination Sequence:
#
# PCOD8043561 Si02
#       7
#     2   2   2   2   2   2   2
#     4  10  20  38  63  95 123 171 213 263 318 387
#     4  10  20  40  63  94 124 170 215 259 335 388
#     4  10  23  39  64  96 131 163 211 275 330 378
#     4  12  23  42  68  99 132 166 218 277 316 380
#     4  12  22  38  70  98 123 175 222 256 322 393
#     4  12  22  41  65  95 136 173 213 261 325 391
#     4  10  19  36  64  93 124 160 212 269 320 369
#
# _framework density 23.406037999999999
#
# number of rings (size 3 to 8) (size 9 to 14) (size 15 to 20)
#    0.000    1.143    5.714    0.429    0.000    0.000 
#    2.571    7.857    0.000    4.286    3.714    0.000 
#    0.000    0.000    0.000    0.000    0.000    0.000 
#
# Total GULP energy -173493.024028 kJ/mol
# GULP energy per Si atom -12392.358859 kJ/mol
# Density = 2.335276 g / cm^3
# Si number density = 23.406038 Si / 1000 Ang^3
#
#
#
# Elastic Constant Matrix: (Units=GPa)
#
#
# Indices 1 2 3 4 5 6 
#
# 1 64.5148 53.6881 17.9738 -14.0640 3.7566 26.1447
# 2 53.6881 113.2507 66.4440 -7.9967 14.8969 11.6329
# 3 17.9738 66.4440 136.1739 -19.0557 16.4347 2.3182
# 4 -14.0640 -7.9967 -19.0557 44.4910 -1.9773 -1.8316
# 5 3.7566 14.8969 16.4347 -1.9773 30.1255 -10.3349
# 6 26.1447 11.6329 2.3182 -1.8316 -10.3349 31.7986
#
#
#
# Elastic Compliance Matrix: (Units=1/GPa)
#
#
# Indices 1 2 3 4 5 6 
#
# 1 0.050380 -0.022476 0.008184 0.013375 -0.011350 -0.036715
# 2 -0.022476 0.023747 -0.009621 -0.006583 -0.000736 0.009875
# 3 0.008184 -0.009621 0.012387 0.005751 -0.004434 -0.005222
# 4 0.013375 -0.006583 0.005751 0.027530 -0.002576 -0.008259
# 5 -0.011350 -0.000736 -0.004434 -0.002576 0.045670 0.024619
# 6 -0.036715 0.009875 -0.005222 -0.008259 0.024619 0.065929
#
#
# Mechanical properties :
#
#
# Convention : Reuss Voigt Hill
#
# Bulk Modulus (GPa) = 25.84849 65.57236 45.71042
# Shear Modulus (GPa) = 17.46030 33.00525 25.23277
#
# Velocity S-wave (km/s) = 2.73422 3.75923 3.28692
# Velocity P-wave (km/s) = 4.58644 6.84970 5.82897
#
# Compressibility (1/GPa) = 0.03868699
#
# Stress axis : x y z
#
# Youngs Moduli (GPa) = 19.84924 42.11033 80.73210
#
# Poissons Ratio (x) = 0.94646 -0.66068
# Poissons Ratio (y) = 0.44613 0.77673
# Poissons Ratio (z) = -0.16244 0.40514
#
# Static dielectric constant tensor:
#      x y z
#    x 4.099760 0.304470 -0.321670 
#    y 0.304470 4.169580 0.134930 
#    z -0.321670 0.134930 4.730640 
# 
# 
# High freq. dielectric constant tensor:
#      x y z
#    x 1.903880 0.025520 -0.012450 
#    y 0.025520 1.911690 0.009600 
#    z -0.012450 0.009600 1.946190 
# 
# From -- ./inp_files/352397.got.cif
#   From: 2010.06.25/outbox.cif.g09.slc.cpg/sg2_177_cif.got.tgz:352397.got - 2010.06.27 13:26:56.
