data_PCOD8043607
_publ_section_title
;
Structure prediction by ZEFSAII (Michael W. Deem and Ramdas Pophale) SiO2 
 PCOD8043607
Probable space group: P -1
;
_chemical_formula_sum "Si O2"
_cell_formula_units_Z 16
_cell_length_a 9.831560
_cell_length_b 10.984221
_cell_length_c 9.831633
_cell_angle_alpha 88.390726
_cell_angle_beta 136.596445
_cell_angle_gamma 88.394918
_cell_volume 727.453190
_symmetry_space_group_name_H-M "P -1"
_symmetry_group_IT_number 2
_symmetry_cell_setting 'triclinic'
loop_
_space_group_symop_operation_xyz
x,y,z
-x,-y,-z
loop_
_atom_site_type_symbol
_atom_site_label
_atom_site_fract_x
_atom_site_fract_y
_atom_site_fract_z
Si Si1 0.374637 0.516481 0.542002
Si Si2 0.041985 0.516487 0.874621
Si Si3 0.913942 0.775261 0.747716
Si Si4 0.634647 0.722110 0.306879
Si Si5 0.738869 0.132526 0.873847
Si Si6 0.247713 0.775238 0.413916
Si Si7 0.193137 0.277912 0.865395
Si Si8 0.626125 0.867466 0.761083
O O1 0.500000 0.500000 0.500000
O O2 0.439206 0.412018 0.702066
O O3 0.379077 0.658585 0.579343
O O4 0.147487 0.500030 0.352507
O O5 0.202088 0.412045 0.939227
O O6 0.079313 0.658590 0.879044
O O7 0.000000 0.500000 0.000000
O O8 0.806132 0.775360 0.524127
O O9 0.738663 0.777718 0.733638
O O10 0.061139 0.881437 0.885989
O O11 0.446647 0.818748 0.171485
O O12 0.715984 0.711283 0.215974
O O13 0.766314 0.222299 0.761326
O O14 0.704702 0.000004 0.795234
O O15 0.385962 0.881425 0.561098
O O16 0.024106 0.775349 0.306052
O O17 0.328542 0.181282 0.053407
#
# Coordination Sequence:
#
# PCOD8043607 Si02
#       8
#     2   2   2   2   2   2   2   2
#     4  10  19  36  65  94 125 163 214 259 325 392
#     4  10  19  36  65  94 125 163 214 259 325 392
#     4  11  22  40  69  96 126 171 223 270 324 382
#     4  11  26  43  64 100 139 168 210 275 332 385
#     4  12  24  41  70  99 127 175 233 267 310 389
#     4  11  22  40  69  96 126 171 223 270 324 382
#     4  11  26  43  64 100 139 168 210 275 332 385
#     4  12  24  41  70  99 127 175 233 267 310 389
#
# _framework density 21.994541999999999
#
# number of rings (size 3 to 8) (size 9 to 14) (size 15 to 20)
#    0.000    1.000    5.000    2.250    0.000    6.000 
#    0.000    2.500    0.000    0.000    0.000    0.000 
#    0.000    0.000    0.000    0.000    0.000    0.000 
#
# Total GULP energy -198221.434649 kJ/mol
# GULP energy per Si atom -12388.839666 kJ/mol
# Density = 2.194448 g / cm^3
# Si number density = 21.994542 Si / 1000 Ang^3
#
#
#
# Elastic Constant Matrix: (Units=GPa)
#
#
# Indices 1 2 3 4 5 6 
#
# 1 135.1618 28.3617 39.2457 -3.3062 -24.6633 -8.8478
# 2 28.3617 64.9226 6.3165 2.4808 -12.8062 0.5234
# 3 39.2457 6.3165 76.3405 2.2700 -11.9808 -1.0576
# 4 -3.3062 2.4808 2.2700 28.7754 4.5933 5.1898
# 5 -24.6633 -12.8062 -11.9808 4.5933 36.9459 3.0212
# 6 -8.8478 0.5234 -1.0576 5.1898 3.0212 22.7157
#
#
#
# Elastic Compliance Matrix: (Units=1/GPa)
#
#
# Indices 1 2 3 4 5 6 
#
# 1 0.010324 -0.003350 -0.004380 0.000604 0.003971 0.003228
# 2 -0.003350 0.017803 0.001038 -0.002441 0.004717 -0.001736
# 3 -0.004380 0.001038 0.015770 -0.002137 0.002888 -0.000892
# 4 0.000604 -0.002441 -0.002137 0.037407 -0.005159 -0.007668
# 5 0.003971 0.004717 0.002888 -0.005159 0.033065 -0.001646
# 6 0.003228 -0.001736 -0.000892 -0.007668 -0.001646 0.047249
#
#
# Mechanical properties :
#
#
# Convention : Reuss Voigt Hill
#
# Bulk Modulus (GPa) = 32.77373 47.14138 39.95756
# Shear Modulus (GPa) = 27.00178 31.18747 29.09462
#
# Velocity S-wave (km/s) = 3.50760 3.76967 3.64099
# Velocity P-wave (km/s) = 5.59799 6.35822 5.99018
#
# Compressibility (1/GPa) = 0.03051224
#
# Stress axis : x y z
#
# Youngs Moduli (GPa) = 96.86135 56.17021 63.41302
#
# Poissons Ratio (x) = 0.18815 0.27777
# Poissons Ratio (y) = 0.32446 -0.06581
# Poissons Ratio (z) = 0.42428 -0.05829
#
# Static dielectric constant tensor:
#      x y z
#    x 3.673040 0.074830 0.285800 
#    y 0.074830 3.922340 0.093030 
#    z 0.285800 0.093030 4.122030 
# 
# 
# High freq. dielectric constant tensor:
#      x y z
#    x 1.835560 0.003510 0.020640 
#    y 0.003510 1.870940 -0.000140 
#    z 0.020640 -0.000140 1.869290 
# 
# From -- ./inp_files/188869.got.cif
#   From: 2010.06.25/outbox.cif.g09.slc.cpg/sg2_95_cif.got.tgz:188869.got - 2010.06.27 13:26:56.
