data_PCOD8043108
_publ_section_title
;
Structure prediction by ZEFSAII (Michael W. Deem and Ramdas Pophale) SiO2 
 PCOD8043108
Probable space group: P -1
;
_chemical_formula_sum "Si O2"
_cell_formula_units_Z 14
_cell_length_a 10.709921
_cell_length_b 9.659127
_cell_length_c 13.489066
_cell_angle_alpha 42.903442
_cell_angle_beta 131.066891
_cell_angle_gamma 127.282966
_cell_volume 694.807409
_symmetry_space_group_name_H-M "P -1"
_symmetry_group_IT_number 2
_symmetry_cell_setting 'triclinic'
loop_
_space_group_symop_operation_xyz
x,y,z
-x,-y,-z
loop_
_atom_site_type_symbol
_atom_site_label
_atom_site_fract_x
_atom_site_fract_y
_atom_site_fract_z
Si Si1 0.470330 0.169950 0.612404
Si Si2 0.025058 0.489302 0.357727
Si Si3 0.381971 0.395041 0.623553
Si Si4 0.784255 0.061833 0.744447
Si Si5 0.442082 0.468242 0.838134
Si Si6 0.717142 0.164515 0.446150
Si Si7 0.774071 0.623001 0.035887
O O1 0.432927 0.206723 0.689122
O O2 0.485095 0.385309 0.446352
O O3 0.643641 0.091044 0.736365
O O4 0.311235 0.996134 0.576314
O O5 0.196013 0.409186 0.479482
O O6 0.062567 0.729161 0.290277
O O7 0.900037 0.331749 0.449158
O O8 0.924528 0.500512 0.195011
O O9 0.389591 0.348874 0.768910
O O10 0.698430 0.033271 0.606293
O O11 0.852781 0.857616 0.912957
O O12 0.430303 0.709136 0.697340
O O13 0.315649 0.352002 0.918636
O O14 0.638293 0.481133 0.963714
#
# Coordination Sequence:
#
# PCOD8043108 Si02
#       7
#     2   2   2   2   2   2   2
#     4  10  20  34  60  86 109 146 194 229 266 334
#     4  10  22  35  56  86 119 140 181 238 286 321
#     4  10  21  38  58  83 114 150 187 226 275 336
#     4  11  19  35  58  89 108 146 189 236 271 328
#     4  10  19  36  58  85 110 147 189 227 275 330
#     4  11  19  34  63  86 107 142 195 236 268 323
#     4  10  21  32  58  87 116 141 183 236 284 321
#
# _framework density 20.149469
#
# number of rings (size 3 to 8) (size 9 to 14) (size 15 to 20)
#    0.000    1.714    4.286    2.143    2.000    0.571 
#    0.000    0.714    0.000   13.714    0.000    0.000 
#    0.000    0.000    0.000    0.000    0.000    0.000 
#
# Total GULP energy -173533.288208 kJ/mol
# GULP energy per Si atom -12395.234872 kJ/mol
# Density = 2.010361 g / cm^3
# Si number density = 20.149469 Si / 1000 Ang^3
#
#
#
# Elastic Constant Matrix: (Units=GPa)
#
#
# Indices 1 2 3 4 5 6 
#
# 1 67.8619 45.8385 40.2396 16.4171 1.1246 -4.6448
# 2 45.8385 97.3524 34.6059 21.0828 -0.6902 -0.6969
# 3 40.2396 34.6059 116.4709 15.8453 -1.3336 -3.4632
# 4 16.4171 21.0828 15.8453 29.7859 4.2296 -3.7798
# 5 1.1246 -0.6902 -1.3336 4.2296 23.9879 6.6321
# 6 -4.6448 -0.6969 -3.4632 -3.7798 6.6321 33.0171
#
#
#
# Elastic Compliance Matrix: (Units=1/GPa)
#
#
# Indices 1 2 3 4 5 6 
#
# 1 0.025286 -0.009101 -0.005426 -0.004012 -0.001787 0.002696
# 2 -0.009101 0.016319 -0.000821 -0.006777 0.002692 -0.002339
# 3 -0.005426 -0.000821 0.011058 -0.002524 0.001340 -0.000179
# 4 -0.004012 -0.006777 -0.002524 0.044043 -0.009569 0.005992
# 5 -0.001787 0.002692 0.001340 -0.009569 0.046512 -0.010492
# 6 0.002696 -0.002339 -0.000179 0.005992 -0.010492 0.033392
#
#
# Mechanical properties :
#
#
# Convention : Reuss Voigt Hill
#
# Bulk Modulus (GPa) = 45.52632 58.11701 51.82167
# Shear Modulus (GPa) = 23.29608 28.09161 25.69384
#
# Velocity S-wave (km/s) = 3.40393 3.73790 3.57482
# Velocity P-wave (km/s) = 6.17190 6.89454 6.54321
#
# Compressibility (1/GPa) = 0.02196531
#
# Stress axis : x y z
#
# Youngs Moduli (GPa) = 39.54779 61.27763 90.43348
#
# Poissons Ratio (x) = 0.55772 0.49072
# Poissons Ratio (y) = 0.35994 0.07425
# Poissons Ratio (z) = 0.21460 0.05031
#
# Static dielectric constant tensor:
#      x y z
#    x 3.385400 0.155650 -0.011860 
#    y 0.155650 3.637100 0.134980 
#    z -0.011860 0.134980 3.777390 
# 
# 
# High freq. dielectric constant tensor:
#      x y z
#    x 1.749410 0.026770 -0.006480 
#    y 0.026770 1.783430 0.007730 
#    z -0.006480 0.007730 1.786890 
# 
# From -- ./inp_files/159764.got.cif
#   From: 2010.06.25/outbox.cif.g09.slc.cpg/sg2_80_cif.got.tgz:159764.got - 2010.06.27 13:26:56.
