data_PCOD8043697
_publ_section_title
;
Structure prediction by ZEFSAII (Michael W. Deem and Ramdas Pophale) SiO2 
 PCOD8043697
Probable space group: P -1
;
_chemical_formula_sum "Si O2"
_cell_formula_units_Z 16
_cell_length_a 9.014480
_cell_length_b 31.638593
_cell_length_c 9.804485
_cell_angle_alpha 143.301822
_cell_angle_beta 149.403841
_cell_angle_gamma 40.810136
_cell_volume 829.833703
_symmetry_space_group_name_H-M "P -1"
_symmetry_group_IT_number 2
_symmetry_cell_setting 'triclinic'
loop_
_space_group_symop_operation_xyz
x,y,z
-x,-y,-z
loop_
_atom_site_type_symbol
_atom_site_label
_atom_site_fract_x
_atom_site_fract_y
_atom_site_fract_z
Si Si1 0.621947 0.036605 0.563332
Si Si2 0.684060 0.020211 0.073036
Si Si3 0.850820 0.539713 0.782184
Si Si4 0.528922 0.330019 0.665675
Si Si5 0.744221 0.167986 0.409667
Si Si6 0.598111 0.824671 0.108678
Si Si7 0.419936 0.448461 0.110280
Si Si8 0.182798 0.337530 0.142071
O O1 0.498226 0.123576 0.703269
O O2 0.500000 0.000000 0.500000
O O3 0.975050 0.022296 0.781646
O O4 0.487296 0.002125 0.245175
O O5 0.666351 0.106507 0.286713
O O6 0.500000 0.000000 0.000000
O O7 0.725931 0.473329 0.447905
O O8 0.714380 0.567156 0.891446
O O9 0.761112 0.604755 0.773683
O O10 0.203732 0.511017 0.012084
O O11 0.550223 0.246097 0.505683
O O12 0.276485 0.355788 0.416811
O O13 0.467549 0.374886 0.872101
O O14 0.834817 0.339469 0.865659
O O15 0.095739 0.164532 0.689523
O O16 0.665165 0.153031 0.152560
O O17 0.629213 0.741072 0.960541
#
# Coordination Sequence:
#
# PCOD8043697 Si02
#       8
#     2   2   2   2   2   2   2   2
#     4  12  21  38  65  84 109 159 198 231 278 352
#     4  12  24  38  58  88 122 147 190 246 290 329
#     4  10  21  37  57  78 114 143 180 229 273 321
#     4  10  21  35  58  81 110 145 187 224 281 333
#     4  10  19  37  56  81 115 150 180 237 285 334
#     4  10  20  35  60  84 109 145 197 231 277 332
#     4  10  21  37  56  80 109 151 180 215 277 346
#     4  10  21  36  56  85 112 140 181 244 271 314
#
# _framework density 19.280971000000001
#
# number of rings (size 3 to 8) (size 9 to 14) (size 15 to 20)
#    0.000    1.500    2.500    3.000    0.000    3.000 
#    2.250    0.000    5.500    0.000    0.000    0.000 
#    0.000    0.000    0.000    0.000    0.000    0.000 
#
# Total GULP energy -198363.989242 kJ/mol
# GULP energy per Si atom -12397.749328 kJ/mol
# Density = 1.923709 g / cm^3
# Si number density = 19.280971 Si / 1000 Ang^3
#
#
#
# Elastic Constant Matrix: (Units=GPa)
#
#
# Indices 1 2 3 4 5 6 
#
# 1 93.1611 53.0075 33.0850 10.9985 -5.6067 2.6378
# 2 53.0075 104.5364 34.6755 18.3485 -12.5767 2.2157
# 3 33.0850 34.6755 106.3589 4.0948 -10.1449 -4.3197
# 4 10.9985 18.3485 4.0948 37.6630 -9.9151 0.4146
# 5 -5.6067 -12.5767 -10.1449 -9.9151 30.7534 -1.1419
# 6 2.6378 2.2157 -4.3197 0.4146 -1.1419 23.2583
#
#
#
# Elastic Compliance Matrix: (Units=1/GPa)
#
#
# Indices 1 2 3 4 5 6 
#
# 1 0.015825 -0.007010 -0.002788 -0.001244 -0.001365 -0.001690
# 2 -0.007010 0.014981 -0.002319 -0.004287 0.002670 -0.000855
# 3 -0.002788 -0.002319 0.011355 0.001430 0.002853 0.002761
# 4 -0.001244 -0.004287 0.001430 0.031088 0.008540 0.000680
# 5 -0.001365 0.002670 0.002853 0.008540 0.037132 0.002101
# 6 -0.001690 -0.000855 0.002761 0.000680 0.002101 0.043872
#
#
# Mechanical properties :
#
#
# Convention : Reuss Voigt Hill
#
# Bulk Modulus (GPa) = 55.77991 60.62137 58.20064
# Shear Modulus (GPa) = 27.10556 30.55419 28.82987
#
# Velocity S-wave (km/s) = 3.75349 3.98512 3.87104
# Velocity P-wave (km/s) = 6.91215 7.25839 7.08738
#
# Compressibility (1/GPa) = 0.01792760
#
# Stress axis : x y z
#
# Youngs Moduli (GPa) = 63.18974 66.74907 88.06963
#
# Poissons Ratio (x) = 0.46789 0.24557
# Poissons Ratio (y) = 0.44294 0.20422
# Poissons Ratio (z) = 0.17620 0.15478
#
# Static dielectric constant tensor:
#      x y z
#    x 3.173050 -0.117760 0.040620 
#    y -0.117760 3.708090 0.061960 
#    z 0.040620 0.061960 3.861520 
# 
# 
# High freq. dielectric constant tensor:
#      x y z
#    x 1.719660 -0.008470 0.002200 
#    y -0.008470 1.755090 -0.001350 
#    z 0.002200 -0.001350 1.779090 
# 
# From -- ./inp_files/53199.got.cif
#   From: 2010.06.25/outbox.cif.g09.slc.cpg/sg2_27_cif.got.tgz:53199.got - 2010.06.27 13:26:56.
