data_PCOD8043852
_publ_section_title
;
Structure prediction by ZEFSAII (Michael W. Deem and Ramdas Pophale) SiO2 
 PCOD8043852
Probable space group: P -1
;
_chemical_formula_sum "Si O2"
_cell_formula_units_Z 16
_cell_length_a 13.069478
_cell_length_b 13.865307
_cell_length_c 9.338730
_cell_angle_alpha 47.468602
_cell_angle_beta 87.259579
_cell_angle_gamma 123.475749
_cell_volume 758.416713
_symmetry_space_group_name_H-M "P -1"
_symmetry_group_IT_number 2
_symmetry_cell_setting 'triclinic'
loop_
_space_group_symop_operation_xyz
x,y,z
-x,-y,-z
loop_
_atom_site_type_symbol
_atom_site_label
_atom_site_fract_x
_atom_site_fract_y
_atom_site_fract_z
Si Si1 0.613175 0.996788 0.167212
Si Si2 0.652316 0.259775 0.325410
Si Si3 0.652093 0.757924 0.398130
Si Si4 0.382499 0.730463 0.188533
Si Si5 0.244029 0.155476 0.379898
Si Si6 0.132113 0.279577 0.085012
Si Si7 0.578310 0.902817 0.729010
Si Si8 0.725883 0.623140 0.313166
O O1 0.526608 0.895230 0.429241
O O2 0.726805 0.982163 0.154316
O O3 0.458149 0.845638 0.220281
O O4 0.712580 0.235855 0.902391
O O5 0.603709 0.248044 0.178144
O O6 0.700976 0.155130 0.447456
O O7 0.800142 0.503482 0.125866
O O8 0.668730 0.725909 0.592516
O O9 0.756736 0.778764 0.256946
O O10 0.455902 0.558722 0.569218
O O11 0.254753 0.482005 0.476109
O O12 0.533513 0.836456 0.966026
O O13 0.244081 0.293140 0.157768
O O14 0.341238 0.147459 0.286839
O O15 0.057511 0.911455 0.657565
O O16 0.134675 0.237840 0.960104
#
# Coordination Sequence:
#
# PCOD8043852 Si02
#       8
#     2   2   2   2   2   2   2   2
#     4   9  16  33  54  86 110 133 173 235 287 321
#     4  10  19  37  60  86 111 141 187 243 277 330
#     4  10  20  36  58  86 107 142 190 237 282 321
#     4   9  18  30  56  88 110 133 173 236 286 327
#     4  11  25  39  55  80 117 161 186 227 277 337
#     4  11  24  41  55  77 120 156 193 225 275 339
#     4  10  21  34  61  90 109 140 187 236 290 327
#     4  10  21  36  59  87 105 145 189 237 283 323
#
# _framework density 21.096581
#
# number of rings (size 3 to 8) (size 9 to 14) (size 15 to 20)
#    0.000    2.000    3.750    0.000    7.000    2.000 
#    0.000    0.000    0.000    0.750    0.000    0.000 
#    0.000    0.000    0.000    0.000    0.000    0.000 
#
# Total GULP energy -198267.095671 kJ/mol
# GULP energy per Si atom -12391.693479 kJ/mol
# Density = 2.104856 g / cm^3
# Si number density = 21.096581 Si / 1000 Ang^3
#
#
#
# Elastic Constant Matrix: (Units=GPa)
#
#
# Indices 1 2 3 4 5 6 
#
# 1 69.5885 29.9088 25.3949 5.6424 18.7417 -17.8745
# 2 29.9088 69.4526 16.2828 9.6039 7.6009 -22.5530
# 3 25.3949 16.2828 72.5934 11.7198 18.6470 -4.3254
# 4 5.6424 9.6039 11.7198 23.6433 -1.4812 1.5531
# 5 18.7417 7.6009 18.6470 -1.4812 27.3035 3.1386
# 6 -17.8745 -22.5530 -4.3254 1.5531 3.1386 27.7534
#
#
#
# Elastic Compliance Matrix: (Units=1/GPa)
#
#
# Indices 1 2 3 4 5 6 
#
# 1 0.025748 -0.002313 -0.001772 -0.006568 -0.018112 0.016843
# 2 -0.002313 0.024213 0.000572 -0.011401 -0.008446 0.019869
# 3 -0.001772 0.000572 0.019748 -0.010744 -0.013534 0.004533
# 4 -0.006568 -0.011401 -0.010744 0.056457 0.020455 -0.020642
# 5 -0.018112 -0.008446 -0.013534 0.020455 0.065112 -0.029146
# 6 0.016843 0.019869 0.004533 -0.020642 -0.029146 0.068183
#
#
# Mechanical properties :
#
#
# Convention : Reuss Voigt Hill
#
# Bulk Modulus (GPa) = 15.95321 39.42307 27.68814
# Shear Modulus (GPa) = 17.39856 25.07658 21.23757
#
# Velocity S-wave (km/s) = 2.87489 3.45143 3.17627
# Velocity P-wave (km/s) = 4.31259 5.88308 5.15796
#
# Compressibility (1/GPa) = 0.06268330
#
# Stress axis : x y z
#
# Youngs Moduli (GPa) = 38.83847 41.30026 50.63801
#
# Poissons Ratio (x) = 0.09552 0.08973
# Poissons Ratio (y) = 0.08982 -0.02897
# Poissons Ratio (z) = 0.06882 -0.02363
#
# Static dielectric constant tensor:
#      x y z
#    x 3.963530 -0.339060 0.559060 
#    y -0.339060 3.819450 0.285510 
#    z 0.559060 0.285510 3.779880 
# 
# 
# High freq. dielectric constant tensor:
#      x y z
#    x 1.813150 -0.032970 0.041050 
#    y -0.032970 1.826630 0.032410 
#    z 0.041050 0.032410 1.807720 
# 
# From -- ./inp_files/314672.got.cif
#   From: 2010.06.25/outbox.cif.g09.slc.cpg/sg2_158_cif.got.tgz:314672.got - 2010.06.27 13:26:56.
