data_PCOD8043503
_publ_section_title
;
Structure prediction by ZEFSAII (Michael W. Deem and Ramdas Pophale) SiO2 
 PCOD8043503
Probable space group: P -1
;
_chemical_formula_sum "Si O2"
_cell_formula_units_Z 16
_cell_length_a 11.947595
_cell_length_b 8.806674
_cell_length_c 17.740380
_cell_angle_alpha 141.132514
_cell_angle_beta 142.129331
_cell_angle_gamma 39.855345
_cell_volume 659.885611
_symmetry_space_group_name_H-M "P -1"
_symmetry_group_IT_number 2
_symmetry_cell_setting 'triclinic'
loop_
_space_group_symop_operation_xyz
x,y,z
-x,-y,-z
loop_
_atom_site_type_symbol
_atom_site_label
_atom_site_fract_x
_atom_site_fract_y
_atom_site_fract_z
Si Si1 0.980975 0.243507 0.795004
Si Si2 0.690512 0.997414 0.238088
Si Si3 0.272097 0.299042 0.070098
Si Si4 0.673033 0.114797 0.508749
Si Si5 0.273898 0.566701 0.481771
Si Si6 0.368284 0.312641 0.772915
Si Si7 0.220018 0.716035 0.072815
Si Si8 0.015291 0.701236 0.807387
O O1 0.821340 0.547032 0.841827
O O2 0.849018 0.071107 0.646218
O O3 0.122953 0.219907 0.789283
O O4 0.129950 0.149488 0.910443
O O5 0.499670 0.104713 0.123418
O O6 0.756339 0.233156 0.387573
O O7 0.621568 0.869800 0.220806
O O8 0.255173 0.507898 0.076711
O O9 0.456053 0.293514 0.494965
O O10 0.699218 0.288450 0.521970
O O11 0.684241 0.827157 0.381198
O O12 0.080579 0.508493 0.342759
O O13 0.575860 0.334887 0.881184
O O14 0.206205 0.606878 0.816739
O O15 0.070342 0.690153 0.920680
O O16 0.133245 0.002940 0.176756
#
# Coordination Sequence:
#
# PCOD8043503 Si02
#       8
#     2   2   2   2   2   2   2   2
#     4  11  23  40  63  93 125 165 210 256 311 365
#     4  11  23  40  68  97 124 159 208 266 313 366
#     4  11  25  42  63  92 132 170 204 252 309 379
#     4  10  19  36  63  92 122 158 206 264 312 357
#     4  10  19  36  63  92 122 158 206 264 312 357
#     4  11  23  40  68  97 124 159 208 266 313 366
#     4  11  25  42  63  92 132 170 204 252 309 379
#     4  11  23  40  63  93 125 165 210 256 311 365
#
# _framework density 24.246625999999999
#
# number of rings (size 3 to 8) (size 9 to 14) (size 15 to 20)
#    0.000    1.250    2.500    3.750    0.000    8.000 
#    0.000    2.500    0.000    3.000    0.000    0.000 
#    0.000    0.000    0.000    0.000    0.000    0.000 
#
# Total GULP energy -198334.460442 kJ/mol
# GULP energy per Si atom -12395.903778 kJ/mol
# Density = 2.419144 g / cm^3
# Si number density = 24.246626 Si / 1000 Ang^3
#
#
#
# Elastic Constant Matrix: (Units=GPa)
#
#
# Indices 1 2 3 4 5 6 
#
# 1 92.4778 43.6387 22.9164 -0.7989 1.0748 -26.6381
# 2 43.6387 81.4621 17.5657 -0.4696 3.7451 -26.4703
# 3 22.9164 17.5657 129.8886 -18.0417 1.1014 -4.9924
# 4 -0.7989 -0.4696 -18.0417 34.7315 -13.9557 -1.9102
# 5 1.0748 3.7451 1.1014 -13.9557 33.3428 2.9299
# 6 -26.6381 -26.4703 -4.9924 -1.9102 2.9299 35.3086
#
#
#
# Elastic Compliance Matrix: (Units=1/GPa)
#
#
# Indices 1 2 3 4 5 6 
#
# 1 0.016204 -0.005756 -0.001853 -0.000531 -0.000712 0.007678
# 2 -0.005756 0.019021 -0.001337 -0.001371 -0.003353 0.009932
# 3 -0.001853 -0.001337 0.008900 0.005420 0.002276 -0.001038
# 4 -0.000531 -0.001371 0.005420 0.037959 0.015874 0.000074
# 5 -0.000712 -0.003353 0.002276 0.015874 0.037397 -0.004974
# 6 0.007678 0.009932 -0.001038 0.000074 -0.004974 0.041830
#
#
# Mechanical properties :
#
#
# Convention : Reuss Voigt Hill
#
# Bulk Modulus (GPa) = 38.12035 52.45224 45.28630
# Shear Modulus (GPa) = 26.60290 35.32376 30.96333
#
# Velocity S-wave (km/s) = 3.31596 3.82101 3.57741
# Velocity P-wave (km/s) = 5.51515 6.41456 5.98178
#
# Compressibility (1/GPa) = 0.02623271
#
# Stress axis : x y z
#
# Youngs Moduli (GPa) = 61.71223 52.57285 112.35532
#
# Poissons Ratio (x) = 0.30263 0.20821
# Poissons Ratio (y) = 0.35524 0.15022
# Poissons Ratio (z) = 0.11436 0.07029
#
# Static dielectric constant tensor:
#      x y z
#    x 4.207760 -0.519890 -0.067120 
#    y -0.519890 4.251870 0.054840 
#    z -0.067120 0.054840 4.927970 
# 
# 
# High freq. dielectric constant tensor:
#      x y z
#    x 1.945730 -0.037860 -0.000380 
#    y -0.037860 1.944730 0.001830 
#    z -0.000380 0.001830 1.987220 
# 
# From -- ./inp_files/567073.got.cif
#   From: 2010.06.25/outbox.cif.g09.slc.cpg/sg2_284_cif.got.tgz:567073.got - 2010.06.27 13:26:56.
