data_PCOD8043331
_publ_section_title
;
Structure prediction by ZEFSAII (Michael W. Deem and Ramdas Pophale) SiO2 
 PCOD8043331
Probable space group: P -1
;
_chemical_formula_sum "Si O2"
_cell_formula_units_Z 16
_cell_length_a 14.156530
_cell_length_b 18.732417
_cell_length_c 9.615377
_cell_angle_alpha 67.024698
_cell_angle_beta 124.101927
_cell_angle_gamma 157.178300
_cell_volume 752.799347
_symmetry_space_group_name_H-M "P -1"
_symmetry_group_IT_number 2
_symmetry_cell_setting 'triclinic'
loop_
_space_group_symop_operation_xyz
x,y,z
-x,-y,-z
loop_
_atom_site_type_symbol
_atom_site_label
_atom_site_fract_x
_atom_site_fract_y
_atom_site_fract_z
Si Si1 0.610323 0.233351 0.749738
Si Si2 0.283602 0.531587 0.699763
Si Si3 0.268811 0.639213 0.970321
Si Si4 0.764388 0.551069 0.960620
Si Si5 0.688347 0.620809 0.202358
Si Si6 0.398144 0.944873 0.115698
Si Si7 0.680745 0.910253 0.649408
Si Si8 0.294639 0.751058 0.657116
O O1 0.615480 0.149509 0.761990
O O2 0.399124 0.147496 0.536392
O O3 0.943862 0.474499 0.838567
O O4 0.516116 0.183300 0.873920
O O5 0.260387 0.436433 0.661985
O O6 0.595034 0.772319 0.750549
O O7 0.038020 0.441202 0.521215
O O8 0.225725 0.467100 0.856413
O O9 0.350454 0.706824 0.825534
O O10 0.293946 0.564274 0.085580
O O11 0.510834 0.455940 0.792657
O O12 0.075467 0.781734 0.990800
O O13 0.500000 0.500000 0.000000
O O14 0.978198 0.853805 0.234779
O O15 0.626118 0.130887 0.261225
O O16 0.500000 0.000000 0.000000
O O17 0.502640 0.870148 0.604617
#
# Coordination Sequence:
#
# PCOD8043331 Si02
#       8
#     2   2   2   2   2   2   2   2
#     4  10  21  37  58  94 127 160 201 260 323 373
#     4  11  22  38  64  97 130 161 207 270 321 365
#     4  10  19  36  61  87 128 162 198 252 317 377
#     4  10  22  41  59  87 130 165 212 261 310 378
#     4  10  24  43  59  92 130 170 213 261 310 375
#     4  11  22  36  61  92 124 163 205 259 320 377
#     4  12  23  39  66  97 128 164 213 263 320 371
#     4  12  20  36  62  98 122 158 205 264 321 370
#
# _framework density 21.254003999999998
#
# number of rings (size 3 to 8) (size 9 to 14) (size 15 to 20)
#    0.000    1.250    3.750    4.125    0.000    3.500 
#    2.250    0.625    0.000    5.250    0.000    0.000 
#    0.000    0.000    0.000    0.000    0.000    0.000 
#
# Total GULP energy -198241.294781 kJ/mol
# GULP energy per Si atom -12390.080924 kJ/mol
# Density = 2.120563 g / cm^3
# Si number density = 21.254004 Si / 1000 Ang^3
#
#
#
# Elastic Constant Matrix: (Units=GPa)
#
#
# Indices 1 2 3 4 5 6 
#
# 1 85.2122 31.0096 20.3227 8.4683 13.1978 0.6091
# 2 31.0096 122.6105 31.5938 17.1605 5.0768 1.6309
# 3 20.3227 31.5938 79.6278 1.3512 -12.5171 10.2242
# 4 8.4683 17.1605 1.3512 29.1744 -0.9912 -3.3697
# 5 13.1978 5.0768 -12.5171 -0.9912 32.5643 2.3754
# 6 0.6091 1.6309 10.2242 -3.3697 2.3754 32.6357
#
#
#
# Elastic Compliance Matrix: (Units=1/GPa)
#
#
# Indices 1 2 3 4 5 6 
#
# 1 0.014965 -0.001921 -0.004391 -0.003106 -0.007652 0.001429
# 2 -0.001921 0.010567 -0.004075 -0.005512 -0.002633 0.000407
# 3 -0.004391 -0.004075 0.017489 0.002538 0.009625 -0.005632
# 4 -0.003106 -0.005512 0.002538 0.038815 0.004038 0.003252
# 5 -0.007652 -0.002633 0.009625 0.004038 0.038416 -0.005120
# 6 0.001429 0.000407 -0.005632 0.003252 -0.005120 0.033067
#
#
# Mechanical properties :
#
#
# Convention : Reuss Voigt Hill
#
# Bulk Modulus (GPa) = 44.94868 50.36697 47.65783
# Shear Modulus (GPa) = 27.54686 32.50985 30.02836
#
# Velocity S-wave (km/s) = 3.60402 3.91524 3.76284
# Velocity P-wave (km/s) = 6.20587 6.64739 6.43042
#
# Compressibility (1/GPa) = 0.02224760
#
# Stress axis : x y z
#
# Youngs Moduli (GPa) = 66.82138 94.63688 57.17891
#
# Poissons Ratio (x) = 0.18179 0.25107
# Poissons Ratio (y) = 0.12836 0.23299
# Poissons Ratio (z) = 0.29341 0.38563
#
# Static dielectric constant tensor:
#      x y z
#    x 4.623690 -0.207220 0.142410 
#    y -0.207220 4.056520 -0.124010 
#    z 0.142410 -0.124010 3.736440 
# 
# 
# High freq. dielectric constant tensor:
#      x y z
#    x 1.839060 -0.016310 -0.015410 
#    y -0.016310 1.826710 -0.000990 
#    z -0.015410 -0.000990 1.805170 
# 
# From -- ./inp_files/319332.got.cif
#   From: 2010.06.25/outbox.cif.g09.slc.cpg/sg2_160_cif.got.tgz:319332.got - 2010.06.27 13:26:56.
