data_PCOD8043486
_publ_section_title
;
Structure prediction by ZEFSAII (Michael W. Deem and Ramdas Pophale) SiO2 
 PCOD8043486
Probable space group: P -1
;
_chemical_formula_sum "Si O2"
_cell_formula_units_Z 14
_cell_length_a 8.420655
_cell_length_b 12.322213
_cell_length_c 12.394970
_cell_angle_alpha 138.381752
_cell_angle_beta 125.259483
_cell_angle_gamma 58.366718
_cell_volume 687.174531
_symmetry_space_group_name_H-M "P -1"
_symmetry_group_IT_number 2
_symmetry_cell_setting 'triclinic'
loop_
_space_group_symop_operation_xyz
x,y,z
-x,-y,-z
loop_
_atom_site_type_symbol
_atom_site_label
_atom_site_fract_x
_atom_site_fract_y
_atom_site_fract_z
Si Si1 0.754256 0.696514 0.751548
Si Si2 0.230173 0.322519 0.019007
Si Si3 0.460735 0.968907 0.156723
Si Si4 0.498891 0.864878 0.489552
Si Si5 0.222809 0.637599 0.117610
Si Si6 0.229467 0.439971 0.560785
Si Si7 0.789604 0.296850 0.082864
O O1 0.682319 0.581190 0.543003
O O2 0.975613 0.724534 0.832444
O O3 0.621799 0.878021 0.839076
O O4 0.738616 0.610752 0.797690
O O5 0.368186 0.147650 0.926256
O O6 0.006462 0.293240 0.900175
O O7 0.280629 0.450472 0.044781
O O8 0.558527 0.035734 0.349640
O O9 0.281110 0.876569 0.052979
O O10 0.334175 0.755428 0.318725
O O11 0.711582 0.741362 0.493648
O O12 0.500000 0.000000 0.500000
O O13 0.281821 0.634681 0.012606
O O14 0.312557 0.573967 0.768436
O O15 0.000000 0.500000 0.500000
#
# Coordination Sequence:
#
# PCOD8043486 Si02
#       7
#     2   2   2   2   2   2   2
#     4   9  20  39  57  85 122 151 194 244 293 346
#     4  10  22  39  60  82 120 160 195 231 290 366
#     4  11  21  35  60  88 117 151 198 244 296 343
#     4  11  22  37  59  90 122 147 193 253 296 339
#     4  10  22  40  59  86 118 157 194 239 294 349
#     4   9  20  37  59  87 117 152 197 241 293 344
#     4  10  19  36  63  88 113 153 200 245 288 345
#
# _framework density 20.373283000000001
#
# number of rings (size 3 to 8) (size 9 to 14) (size 15 to 20)
#    0.000    2.000    1.429    1.714    2.000    1.714 
#    0.000    7.857    0.000    0.000    0.000    0.000 
#    0.000    0.000    0.000    0.000    0.000    0.000 
#
# Total GULP energy -173537.662801 kJ/mol
# GULP energy per Si atom -12395.547343 kJ/mol
# Density = 2.032691 g / cm^3
# Si number density = 20.373283 Si / 1000 Ang^3
#
#
#
# Elastic Constant Matrix: (Units=GPa)
#
#
# Indices 1 2 3 4 5 6 
#
# 1 51.7250 29.6187 35.7478 -3.9709 -9.7557 -3.6327
# 2 29.6187 104.4172 25.6908 -8.9438 -13.5597 -3.4777
# 3 35.7478 25.6908 133.6181 -11.3942 -14.2116 -0.3215
# 4 -3.9709 -8.9438 -11.3942 29.2165 -0.6965 -7.0415
# 5 -9.7557 -13.5597 -14.2116 -0.6965 27.5641 3.7462
# 6 -3.6327 -3.4777 -0.3215 -7.0415 3.7462 27.8755
#
#
#
# Elastic Compliance Matrix: (Units=1/GPa)
#
#
# Indices 1 2 3 4 5 6 
#
# 1 0.027566 -0.005808 -0.005843 0.000356 0.003568 0.002411
# 2 -0.005808 0.012044 -0.000086 0.003207 0.003764 0.001049
# 3 -0.005843 -0.000086 0.009629 0.002928 0.002972 -0.000321
# 4 0.000356 0.003207 0.002928 0.038856 0.002848 0.009913
# 5 0.003568 0.003764 0.002972 0.002848 0.041527 -0.003893
# 6 0.002411 0.001049 -0.000321 0.009913 -0.003893 0.039342
#
#
# Mechanical properties :
#
#
# Convention : Reuss Voigt Hill
#
# Bulk Modulus (GPa) = 38.80963 52.43055 45.62009
# Shear Modulus (GPa) = 24.87258 30.17809 27.52533
#
# Velocity S-wave (km/s) = 3.49785 3.85289 3.67965
# Velocity P-wave (km/s) = 5.95012 6.75158 6.36348
#
# Compressibility (1/GPa) = 0.02576680
#
# Stress axis : x y z
#
# Youngs Moduli (GPa) = 36.27637 83.03073 103.85680
#
# Poissons Ratio (x) = 0.48221 0.60680
# Poissons Ratio (y) = 0.21068 0.00890
# Poissons Ratio (z) = 0.21195 0.00711
#
# Static dielectric constant tensor:
#      x y z
#    x 3.522420 -0.025440 -0.076360 
#    y -0.025440 3.906830 -0.169580 
#    z -0.076360 -0.169580 4.204720 
# 
# 
# High freq. dielectric constant tensor:
#      x y z
#    x 1.775150 -0.010680 -0.012530 
#    y -0.010680 1.810660 -0.015490 
#    z -0.012530 -0.015490 1.806220 
# 
# From -- ./inp_files/165581.got.cif
#   From: 2010.06.25/outbox.cif.g09.slc.cpg/sg2_83_cif.got.tgz:165581.got - 2010.06.27 13:26:56.
