data_PCOD8043661
_publ_section_title
;
Structure prediction by ZEFSAII (Michael W. Deem and Ramdas Pophale) SiO2 
 PCOD8043661
Probable space group: P -1
;
_chemical_formula_sum "Si O2"
_cell_formula_units_Z 16
_cell_length_a 10.142028
_cell_length_b 15.891943
_cell_length_c 14.313371
_cell_angle_alpha 63.095120
_cell_angle_beta 90.544397
_cell_angle_gamma 145.880288
_cell_volume 788.764936
_symmetry_space_group_name_H-M "P -1"
_symmetry_group_IT_number 2
_symmetry_cell_setting 'triclinic'
loop_
_space_group_symop_operation_xyz
x,y,z
-x,-y,-z
loop_
_atom_site_type_symbol
_atom_site_label
_atom_site_fract_x
_atom_site_fract_y
_atom_site_fract_z
Si Si1 0.066139 0.069471 0.336340
Si Si2 0.324064 0.876983 0.839057
Si Si3 0.206724 0.846326 0.140518
Si Si4 0.182888 0.271300 0.405650
Si Si5 0.513723 0.929084 0.612661
Si Si6 0.111482 0.228041 0.100750
Si Si7 0.787935 0.462266 0.192473
Si Si8 0.099468 0.175278 0.912687
O O1 0.052153 0.152330 0.361946
O O2 0.976353 0.044387 0.243765
O O3 0.448092 0.279068 0.234658
O O4 0.785732 0.805226 0.495779
O O5 0.369902 0.863462 0.744963
O O6 0.153482 0.865269 0.827474
O O7 0.701200 0.126907 0.767041
O O8 0.082493 0.656058 0.017617
O O9 0.861271 0.572392 0.231399
O O10 0.173678 0.939261 0.087576
O O11 0.500000 0.000000 0.000000
O O12 0.528878 0.561157 0.262704
O O13 0.907065 0.156756 0.510123
O O14 0.271561 0.683508 0.700140
O O15 0.500000 0.000000 0.500000
O O16 0.500000 0.500000 0.000000
O O17 0.105908 0.215576 0.997265
O O18 0.000000 0.000000 0.000000
#
# Coordination Sequence:
#
# PCOD8043661 Si02
#       8
#     2   2   2   2   2   2   2   2
#     4  10  19  36  70  92 120 163 222 265 312 380
#     4  11  22  40  65  95 129 171 216 259 325 389
#     4  10  20  43  63  91 130 168 213 258 329 390
#     4  10  21  40  61  90 129 170 207 256 337 376
#     4  11  25  38  59  99 134 162 211 273 324 377
#     4  12  20  40  67  98 121 162 229 277 309 378
#     4  10  19  40  69  88 122 173 214 264 318 378
#     4  12  25  42  70  98 127 169 219 276 322 380
#
# _framework density 20.284877000000002
#
# number of rings (size 3 to 8) (size 9 to 14) (size 15 to 20)
#    0.000    1.250    6.250    1.125    0.000    4.000 
#    0.000    3.125    0.000    0.000    0.000    0.000 
#    0.000    0.000    0.000    0.000    0.000    0.000 
#
# Total GULP energy -198303.650077 kJ/mol
# GULP energy per Si atom -12393.978130 kJ/mol
# Density = 2.023871 g / cm^3
# Si number density = 20.284877 Si / 1000 Ang^3
#
#
#
# Elastic Constant Matrix: (Units=GPa)
#
#
# Indices 1 2 3 4 5 6 
#
# 1 142.7859 46.5313 47.6658 -8.8266 12.7826 5.2526
# 2 46.5313 69.3945 28.8977 1.9734 11.9566 7.7826
# 3 47.6658 28.8977 112.5798 -7.5206 13.3806 0.2419
# 4 -8.8266 1.9734 -7.5206 29.9312 -3.0681 5.6896
# 5 12.7826 11.9566 13.3806 -3.0681 42.7276 5.9037
# 6 5.2526 7.7826 0.2419 5.6896 5.9037 31.7439
#
#
#
# Elastic Compliance Matrix: (Units=1/GPa)
#
#
# Indices 1 2 3 4 5 6 
#
# 1 0.009869 -0.005502 -0.002544 0.002733 -0.000324 -0.000694
# 2 -0.005502 0.020161 -0.002710 -0.003399 -0.002998 -0.002845
# 3 -0.002544 -0.002710 0.011004 0.001797 -0.001941 0.001040
# 4 0.002733 -0.003399 0.001797 0.036496 0.003125 -0.006755
# 5 -0.000324 -0.002998 -0.001941 0.003125 0.025802 -0.004555
# 6 -0.000694 -0.002845 0.001040 -0.006755 -0.004555 0.034364
#
#
# Mechanical properties :
#
#
# Convention : Reuss Voigt Hill
#
# Bulk Modulus (GPa) = 51.22530 63.43885 57.33208
# Shear Modulus (GPa) = 30.17234 34.32490 32.24862
#
# Velocity S-wave (km/s) = 3.86091 4.11803 3.99154
# Velocity P-wave (km/s) = 6.72185 7.34525 7.04045
#
# Compressibility (1/GPa) = 0.01952160
#
# Stress axis : x y z
#
# Youngs Moduli (GPa) = 101.32477 49.60157 90.87880
#
# Poissons Ratio (x) = 0.27293 0.23116
# Poissons Ratio (y) = 0.55753 0.24627
# Poissons Ratio (z) = 0.25773 0.13442
#
# Static dielectric constant tensor:
#      x y z
#    x 4.157130 0.113940 0.175600 
#    y 0.113940 3.520130 0.132490 
#    z 0.175600 0.132490 3.883430 
# 
# 
# High freq. dielectric constant tensor:
#      x y z
#    x 1.805560 0.009260 -0.001780 
#    y 0.009260 1.764230 0.005730 
#    z -0.001780 0.005730 1.796800 
# 
# From -- ./inp_files/392533.got.cif
#   From: 2010.06.25/outbox.cif.g09.slc.cpg/sg2_197_cif.got.tgz:392533.got - 2010.06.27 13:26:56.
