data_PCOD8043355
_publ_section_title
;
Structure prediction by ZEFSAII (Michael W. Deem and Ramdas Pophale) SiO2 
 PCOD8043355
Probable space group: P -1
;
_chemical_formula_sum "Si O2"
_cell_formula_units_Z 16
_cell_length_a 12.155619
_cell_length_b 12.988180
_cell_length_c 9.305806
_cell_angle_alpha 128.309205
_cell_angle_beta 99.087674
_cell_angle_gamma 46.641604
_cell_volume 740.232873
_symmetry_space_group_name_H-M "P -1"
_symmetry_group_IT_number 2
_symmetry_cell_setting 'triclinic'
loop_
_space_group_symop_operation_xyz
x,y,z
-x,-y,-z
loop_
_atom_site_type_symbol
_atom_site_label
_atom_site_fract_x
_atom_site_fract_y
_atom_site_fract_z
Si Si1 0.584649 0.283721 0.000529
Si Si2 0.930829 0.439863 0.340903
Si Si3 0.391968 0.209339 0.819450
Si Si4 0.256576 0.718456 0.221518
Si Si5 0.120530 0.008875 0.988777
Si Si6 0.451242 0.201048 0.488145
Si Si7 0.785800 0.040682 0.363025
Si Si8 0.929791 0.383723 0.966819
O O1 0.511091 0.203849 0.920532
O O2 0.711724 0.199461 0.821581
O O3 0.691736 0.193649 0.090223
O O4 0.432970 0.524232 0.171010
O O5 0.724545 0.614880 0.475971
O O6 0.000000 0.500000 0.500000
O O7 0.034264 0.217612 0.219486
O O8 0.958158 0.428879 0.165486
O O9 0.414166 0.219102 0.663831
O O10 0.452378 0.017585 0.729327
O O11 0.186861 0.416541 0.985142
O O12 0.151399 0.889451 0.471946
O O13 0.169644 0.669293 0.088624
O O14 0.144565 0.999048 0.816001
O O15 0.000000 0.000000 0.000000
O O16 0.582139 0.201771 0.479244
O O17 0.887987 0.816186 0.242155
#
# Coordination Sequence:
#
# PCOD8043355 Si02
#       8
#     2   2   2   2   2   2   2   2
#     4  10  19  36  61  90 118 163 208 253 312 369
#     4  10  21  41  63  87 125 173 205 248 320 378
#     4   9  18  36  60  88 117 158 210 257 304 373
#     4  10  20  36  66  91 125 159 205 260 315 367
#     4  11  25  41  62  90 131 167 209 258 314 381
#     4  10  20  36  63  90 118 162 214 254 306 366
#     4  11  22  38  62  93 129 163 203 262 315 365
#     4   9  20  36  59  89 125 157 204 260 311 365
#
# _framework density 21.614820000000002
#
# number of rings (size 3 to 8) (size 9 to 14) (size 15 to 20)
#    0.000    2.000    1.250    2.625    3.500    1.000 
#    0.000    5.625    5.500    0.000    0.000    0.000 
#    0.000    0.000    0.000    0.000    0.000    0.000 
#
# Total GULP energy -198231.031818 kJ/mol
# GULP energy per Si atom -12389.439489 kJ/mol
# Density = 2.156562 g / cm^3
# Si number density = 21.614820 Si / 1000 Ang^3
#
#
#
# Elastic Constant Matrix: (Units=GPa)
#
#
# Indices 1 2 3 4 5 6 
#
# 1 60.0811 17.1489 26.2672 -5.2097 13.4914 -14.9996
# 2 17.1489 83.4014 30.8549 9.8269 2.8183 -15.7390
# 3 26.2672 30.8549 105.9225 5.6920 23.7987 -5.8499
# 4 -5.2097 9.8269 5.6920 20.8868 -5.1140 0.6819
# 5 13.4914 2.8183 23.7987 -5.1140 34.1549 4.8236
# 6 -14.9996 -15.7390 -5.8499 0.6819 4.8236 39.3443
#
#
#
# Elastic Compliance Matrix: (Units=1/GPa)
#
#
# Indices 1 2 3 4 5 6 
#
# 1 0.022784 -0.002418 -0.003301 0.005807 -0.006754 0.007955
# 2 -0.002418 0.015454 -0.003307 -0.007073 0.000239 0.004862
# 3 -0.003301 -0.003307 0.013470 -0.005075 -0.008650 0.000570
# 4 0.005807 -0.007073 -0.005075 0.056814 0.010853 -0.003686
# 5 -0.006754 0.000239 -0.008650 0.010853 0.040844 -0.008961
# 6 0.007955 0.004862 0.000570 -0.003686 -0.008961 0.031642
#
#
# Mechanical properties :
#
#
# Convention : Reuss Voigt Hill
#
# Bulk Modulus (GPa) = 29.71250 44.21633 36.96441
# Shear Modulus (GPa) = 23.77807 30.55280 27.16543
#
# Velocity S-wave (km/s) = 3.32035 3.76375 3.54898
# Velocity P-wave (km/s) = 5.33627 6.27604 5.82514
#
# Compressibility (1/GPa) = 0.03365587
#
# Stress axis : x y z
#
# Youngs Moduli (GPa) = 43.89079 64.70959 74.23765
#
# Poissons Ratio (x) = 0.15649 0.24503
# Poissons Ratio (y) = 0.10614 0.24550
# Poissons Ratio (z) = 0.14487 0.21399
#
# Static dielectric constant tensor:
#      x y z
#    x 3.180300 0.301600 0.241420 
#    y 0.301600 3.524800 0.409770 
#    z 0.241420 0.409770 3.974020 
# 
# 
# High freq. dielectric constant tensor:
#      x y z
#    x 1.847200 -0.021530 0.013660 
#    y -0.021530 1.846000 0.033180 
#    z 0.013660 0.033180 1.841370 
# 
# From -- ./inp_files/240946.got.cif
#   From: 2010.06.25/outbox.cif.g09.slc.cpg/sg2_121_cif.got.tgz:240946.got - 2010.06.27 13:26:56.
