data_PCOD8043313
_publ_section_title
;
Structure prediction by ZEFSAII (Michael W. Deem and Ramdas Pophale) SiO2 
 PCOD8043313
Probable space group: P -1
;
_chemical_formula_sum "Si O2"
_cell_formula_units_Z 16
_cell_length_a 9.093812
_cell_length_b 20.436556
_cell_length_c 9.104898
_cell_angle_alpha 41.072498
_cell_angle_beta 45.838332
_cell_angle_gamma 57.742780
_cell_volume 797.406341
_symmetry_space_group_name_H-M "P -1"
_symmetry_group_IT_number 2
_symmetry_cell_setting 'triclinic'
loop_
_space_group_symop_operation_xyz
x,y,z
-x,-y,-z
loop_
_atom_site_type_symbol
_atom_site_label
_atom_site_fract_x
_atom_site_fract_y
_atom_site_fract_z
Si Si1 0.010762 0.221274 0.881548
Si Si2 0.995049 0.889084 0.630550
Si Si3 0.375317 0.881956 0.176261
Si Si4 0.644571 0.762851 0.999683
Si Si5 0.880920 0.610165 0.288941
Si Si6 0.376997 0.099832 0.735763
Si Si7 0.326325 0.554975 0.121035
Si Si8 0.566859 0.247586 0.133967
O O1 0.118629 0.326389 0.664968
O O2 0.150228 0.149903 0.804359
O O3 0.953944 0.181789 0.149495
O O4 0.793620 0.233655 0.928933
O O5 0.156448 0.867667 0.426067
O O6 0.775287 0.863873 0.756139
O O7 0.000000 0.000000 0.500000
O O8 0.549178 0.886324 0.172341
O O9 0.433520 0.786756 0.195112
O O10 0.369371 0.981866 0.910630
O O11 0.598760 0.741805 0.897807
O O12 0.771160 0.668249 0.133601
O O13 0.747353 0.512657 0.576723
O O14 0.118273 0.582934 0.126312
O O15 0.518356 0.151659 0.430005
O O16 0.500000 0.500000 0.000000
O O17 0.438334 0.652925 0.934495
#
# Coordination Sequence:
#
# PCOD8043313 Si02
#       8
#     2   2   2   2   2   2   2   2
#     4  10  19  36  61  85 122 155 203 254 292 354
#     4  11  19  37  61  86 113 165 218 248 287 350
#     4  11  21  35  63  88 114 170 214 246 294 357
#     4  11  25  40  57  93 132 158 198 256 309 358
#     4   9  20  39  62  89 118 152 197 248 299 368
#     4  11  20  36  61  89 116 163 217 246 286 361
#     4  10  21  40  69  92 110 155 207 246 303 376
#     4  11  25  39  59  91 129 159 193 261 319 347
#
# _framework density 20.065052000000001
#
# number of rings (size 3 to 8) (size 9 to 14) (size 15 to 20)
#    0.000    1.500    5.000    1.500    0.000    2.000 
#    0.000    1.875    0.000    0.000    0.000    0.000 
#    0.000    0.000    0.000    0.000    0.000    0.000 
#
# Total GULP energy -198357.768172 kJ/mol
# GULP energy per Si atom -12397.360511 kJ/mol
# Density = 2.001938 g / cm^3
# Si number density = 20.065052 Si / 1000 Ang^3
#
#
#
# Elastic Constant Matrix: (Units=GPa)
#
#
# Indices 1 2 3 4 5 6 
#
# 1 86.4215 26.1111 18.7215 -0.4211 -2.6700 -8.1183
# 2 26.1111 95.3760 15.8378 12.0166 -1.1251 -27.8340
# 3 18.7215 15.8378 74.4208 -4.1126 -4.6034 -1.0303
# 4 -0.4211 12.0166 -4.1126 29.4636 -8.9619 -3.0654
# 5 -2.6700 -1.1251 -4.6034 -8.9619 18.8269 1.0282
# 6 -8.1183 -27.8340 -1.0303 -3.0654 1.0282 26.7270
#
#
#
# Elastic Compliance Matrix: (Units=1/GPa)
#
#
# Indices 1 2 3 4 5 6 
#
# 1 0.013198 -0.003215 -0.002407 0.001821 0.001920 0.000703
# 2 -0.003215 0.017661 -0.003419 -0.007420 -0.004676 0.016613
# 3 -0.002407 -0.003419 0.015348 0.004892 0.005719 -0.003359
# 4 0.001821 -0.007420 0.004892 0.044130 0.022169 -0.002777
# 5 0.001920 -0.004676 0.005719 0.022169 0.065280 -0.004035
# 6 0.000703 0.016613 -0.003359 -0.002777 -0.004035 0.054637
#
#
# Mechanical properties :
#
#
# Convention : Reuss Voigt Hill
#
# Bulk Modulus (GPa) = 35.55597 41.95100 38.75348
# Shear Modulus (GPa) = 21.03404 28.04002 24.53703
#
# Velocity S-wave (km/s) = 3.24125 3.74231 3.50076
# Velocity P-wave (km/s) = 5.63617 6.29492 5.97463
#
# Compressibility (1/GPa) = 0.02812467
#
# Stress axis : x y z
#
# Youngs Moduli (GPa) = 75.76772 56.62313 65.15590
#
# Poissons Ratio (x) = 0.18206 0.15682
# Poissons Ratio (y) = 0.24362 0.22276
# Poissons Ratio (z) = 0.18236 0.19359
#
# Static dielectric constant tensor:
#      x y z
#    x 3.478100 -0.273060 -0.221080 
#    y -0.273060 3.718390 -0.269750 
#    z -0.221080 -0.269750 3.941700 
# 
# 
# High freq. dielectric constant tensor:
#      x y z
#    x 1.759760 -0.030180 -0.014690 
#    y -0.030180 1.781420 -0.008410 
#    z -0.014690 -0.008410 1.782480 
# 
# From -- ./inp_files/201777.got.cif
#   From: 2010.06.25/outbox.cif.g09.slc.cpg/sg2_101_cif.got.tgz:201777.got - 2010.06.27 13:26:56.
