data_PCOD8043908
_publ_section_title
;
Structure prediction by ZEFSAII (Michael W. Deem and Ramdas Pophale) SiO2 
 PCOD8043908
Probable space group: P -1
;
_chemical_formula_sum "Si O2"
_cell_formula_units_Z 16
_cell_length_a 9.624105
_cell_length_b 16.221018
_cell_length_c 9.960713
_cell_angle_alpha 88.504278
_cell_angle_beta 44.063658
_cell_angle_gamma 62.274123
_cell_volume 828.655633
_symmetry_space_group_name_H-M "P -1"
_symmetry_group_IT_number 2
_symmetry_cell_setting 'triclinic'
loop_
_space_group_symop_operation_xyz
x,y,z
-x,-y,-z
loop_
_atom_site_type_symbol
_atom_site_label
_atom_site_fract_x
_atom_site_fract_y
_atom_site_fract_z
Si Si1 0.385989 0.452500 0.004328
Si Si2 0.482863 0.277095 0.103239
Si Si3 0.930163 0.671136 0.204119
Si Si4 0.249318 0.192883 0.413958
Si Si5 0.224298 0.774008 0.348322
Si Si6 0.355130 0.804448 0.538687
Si Si7 0.106628 0.784760 0.959395
Si Si8 0.248657 0.980533 0.773258
O O1 0.313707 0.401429 0.167584
O O2 0.133200 0.542987 0.089263
O O3 0.500000 0.500000 0.000000
O O4 0.605506 0.356019 0.755966
O O5 0.293002 0.252725 0.271348
O O6 0.644313 0.257980 0.123728
O O7 0.677803 0.199014 0.849793
O O8 0.908510 0.728267 0.354391
O O9 0.660742 0.700442 0.343839
O O10 0.042338 0.704624 0.012416
O O11 0.522452 0.080625 0.273313
O O12 0.078860 0.167537 0.462965
O O13 0.255882 0.819883 0.456749
O O14 0.178983 0.793296 0.757743
O O15 0.335190 0.907436 0.583557
O O16 0.844918 0.900908 0.193009
O O17 0.000000 0.000000 0.000000
#
# Coordination Sequence:
#
# PCOD8043908 Si02
#       8
#     2   2   2   2   2   2   2   2
#     4  10  19  37  61  84 117 148 194 242 272 342
#     4  10  20  36  62  83 114 151 190 238 277 340
#     4  11  20  37  62  86 112 154 199 230 286 340
#     4  11  19  36  63  84 111 159 190 231 287 344
#     4  10  23  40  55  88 125 143 193 245 283 336
#     4  10  23  39  58  87 121 149 188 246 287 337
#     4  11  19  39  63  84 115 151 196 238 276 347
#     4   9  19  36  63  86 113 148 199 233 280 344
#
# _framework density 19.308382999999999
#
# number of rings (size 3 to 8) (size 9 to 14) (size 15 to 20)
#    0.750    1.000    7.500    0.000    0.000    4.000 
#    2.250    3.750    0.000    0.000    0.000    0.000 
#    0.000    0.000    0.000    0.000    0.000    0.000 
#
# Total GULP energy -198324.217970 kJ/mol
# GULP energy per Si atom -12395.263623 kJ/mol
# Density = 1.926444 g / cm^3
# Si number density = 19.308383 Si / 1000 Ang^3
#
#
#
# Elastic Constant Matrix: (Units=GPa)
#
#
# Indices 1 2 3 4 5 6 
#
# 1 98.6422 -0.7808 22.6663 3.0345 -3.9961 -8.0741
# 2 -0.7808 61.1530 4.6978 3.2371 -9.4025 -1.8382
# 3 22.6663 4.6978 58.4749 -8.7127 -8.8635 0.4698
# 4 3.0345 3.2371 -8.7127 39.6437 -7.0904 -9.4219
# 5 -3.9961 -9.4025 -8.8635 -7.0904 29.6584 1.9628
# 6 -8.0741 -1.8382 0.4698 -9.4219 1.9628 16.4756
#
#
#
# Elastic Compliance Matrix: (Units=1/GPa)
#
#
# Indices 1 2 3 4 5 6 
#
# 1 0.011710 0.000695 -0.004770 -0.000708 -0.000165 0.005567
# 2 0.000695 0.017283 -0.000961 -0.000421 0.005089 0.001449
# 3 -0.004770 -0.000961 0.020990 0.006205 0.006829 -0.000309
# 4 -0.000708 -0.000421 0.006205 0.032144 0.008196 0.016835
# 5 -0.000165 0.005089 0.006829 0.008196 0.039289 0.000299
# 6 0.005567 0.001449 -0.000309 0.016835 0.000299 0.073187
#
#
# Mechanical properties :
#
#
# Convention : Reuss Voigt Hill
#
# Bulk Modulus (GPa) = 25.05539 30.15963 27.60751
# Shear Modulus (GPa) = 22.93808 29.93466 26.43637
#
# Velocity S-wave (km/s) = 3.45046 3.94171 3.70424
# Velocity P-wave (km/s) = 5.37390 6.03076 5.71178
#
# Compressibility (1/GPa) = 0.03991158
#
# Stress axis : x y z
#
# Youngs Moduli (GPa) = 85.39686 57.85875 47.64240
#
# Poissons Ratio (x) = -0.04024 0.22726
# Poissons Ratio (y) = -0.05939 0.04579
# Poissons Ratio (z) = 0.40736 0.05561
#
# Static dielectric constant tensor:
#      x y z
#    x 3.220330 -0.129790 -0.173460 
#    y -0.129790 4.002560 0.160450 
#    z -0.173460 0.160450 3.547010 
# 
# 
# High freq. dielectric constant tensor:
#      x y z
#    x 1.729450 -0.011130 -0.020590 
#    y -0.011130 1.747280 -0.002900 
#    z -0.020590 -0.002900 1.743100 
# 
# From -- ./inp_files/217616.got.cif
#   From: 2010.06.25/outbox.cif.g09.slc.cpg/sg2_109_cif.got.tgz:217616.got - 2010.06.27 13:26:56.
