data_PCOD8043494
_publ_section_title
;
Structure prediction by ZEFSAII (Michael W. Deem and Ramdas Pophale) SiO2 
 PCOD8043494
Probable space group: P -1
;
_chemical_formula_sum "Si O2"
_cell_formula_units_Z 14
_cell_length_a 7.076493
_cell_length_b 14.644137
_cell_length_c 8.498698
_cell_angle_alpha 55.034333
_cell_angle_beta 110.390769
_cell_angle_gamma 124.947131
_cell_volume 591.330558
_symmetry_space_group_name_H-M "P -1"
_symmetry_group_IT_number 2
_symmetry_cell_setting 'triclinic'
loop_
_space_group_symop_operation_xyz
x,y,z
-x,-y,-z
loop_
_atom_site_type_symbol
_atom_site_label
_atom_site_fract_x
_atom_site_fract_y
_atom_site_fract_z
Si Si1 0.042718 0.865066 0.365126
Si Si2 0.525584 0.693399 0.331561
Si Si3 0.581661 0.108909 0.786952
Si Si4 0.865037 0.564676 0.048849
Si Si5 0.805599 0.302035 0.233757
Si Si6 0.522126 0.522302 0.235733
Si Si7 0.375392 0.078750 0.433643
O O1 0.195632 0.886918 0.232172
O O2 0.058750 0.758970 0.579310
O O3 0.782168 0.813489 0.289748
O O4 0.122570 0.996364 0.362303
O O5 0.358381 0.755448 0.248136
O O6 0.481785 0.625014 0.218232
O O7 0.478114 0.588909 0.552084
O O8 0.384693 0.086557 0.618858
O O9 0.500000 0.000000 0.000000
O O10 0.681365 0.542682 0.881995
O O11 0.111889 0.678294 0.945780
O O12 0.887145 0.438043 0.205139
O O13 0.774434 0.597071 0.150598
O O14 0.526810 0.217773 0.257602
O O15 0.500000 0.000000 0.500000
#
# Coordination Sequence:
#
# PCOD8043494 Si02
#       7
#     2   2   2   2   2   2   2
#     4  10  21  42  61  88 121 165 200 246 306 371
#     4  11  23  42  60  86 132 161 195 253 314 359
#     4  10  22  41  62  89 121 158 207 254 297 360
#     4  10  19  36  63  90 119 156 208 249 298 360
#     4   9  17  35  63  90 118 153 202 255 296 358
#     4  10  22  39  57  92 124 161 199 249 304 368
#     4   8  18  37  63  83 118 157 199 245 299 358
#
# _framework density 23.675422000000001
#
# number of rings (size 3 to 8) (size 9 to 14) (size 15 to 20)
#    0.000    2.571    1.429    1.714    0.000    4.571 
#   12.857    2.143    0.000    0.000    0.000    0.000 
#    0.000    0.000    0.000    0.000    0.000    0.000 
#
# Total GULP energy -173458.367262 kJ/mol
# GULP energy per Si atom -12389.883376 kJ/mol
# Density = 2.362154 g / cm^3
# Si number density = 23.675422 Si / 1000 Ang^3
#
#
#
# Elastic Constant Matrix: (Units=GPa)
#
#
# Indices 1 2 3 4 5 6 
#
# 1 55.0756 15.3015 41.5580 8.2322 -23.8117 -12.5125
# 2 15.3015 66.4533 55.7463 0.4059 -19.1590 -17.4845
# 3 41.5580 55.7463 123.3029 -18.6350 -41.2749 -5.2009
# 4 8.2322 0.4059 -18.6350 29.4649 -7.7175 -2.8061
# 5 -23.8117 -19.1590 -41.2749 -7.7175 34.5028 0.7614
# 6 -12.5125 -17.4845 -5.2009 -2.8061 0.7614 37.8538
#
#
#
# Elastic Compliance Matrix: (Units=1/GPa)
#
#
# Indices 1 2 3 4 5 6 
#
# 1 0.037412 0.012604 -0.018847 -0.019758 0.005543 0.014023
# 2 0.012604 0.035127 -0.024133 -0.019154 -0.005297 0.015762
# 3 -0.018847 -0.024133 0.042132 0.040044 0.033156 -0.009286
# 4 -0.019758 -0.019154 0.040044 0.075185 0.040562 -0.005119
# 5 0.005543 -0.005297 0.033156 0.040562 0.078485 0.005369
# 6 0.014023 0.015762 -0.009286 -0.005119 0.005369 0.036570
#
#
# Mechanical properties :
#
#
# Convention : Reuss Voigt Hill
#
# Bulk Modulus (GPa) = 18.54601 52.22706 35.38653
# Shear Modulus (GPa) = 13.03323 29.17936 21.10630
#
# Velocity S-wave (km/s) = 2.34881 3.51447 2.98901
# Velocity P-wave (km/s) = 3.89953 6.21097 5.18568
#
# Compressibility (1/GPa) = 0.05391996
#
# Stress axis : x y z
#
# Youngs Moduli (GPa) = 26.72949 28.46778 23.73505
#
# Poissons Ratio (x) = -0.35881 0.44733
# Poissons Ratio (y) = -0.33690 0.57279
# Poissons Ratio (z) = 0.50377 0.68701
#
# Static dielectric constant tensor:
#      x y z
#    x 4.627030 0.242970 -0.641730 
#    y 0.242970 5.347210 -0.245800 
#    z -0.641730 -0.245800 4.452960 
# 
# 
# High freq. dielectric constant tensor:
#      x y z
#    x 1.929020 -0.011060 -0.020030 
#    y -0.011060 1.924380 -0.007930 
#    z -0.020030 -0.007930 1.939730 
# 
# From -- ./inp_files/195816.got.cif
#   From: 2010.06.25/outbox.cif.g09.slc.cpg/sg2_98_cif.got.tgz:195816.got - 2010.06.27 13:26:56.
