data_PCOD8043435
_publ_section_title
;
Structure prediction by ZEFSAII (Michael W. Deem and Ramdas Pophale) SiO2 
 PCOD8043435
Probable space group: P -1
;
_chemical_formula_sum "Si O2"
_cell_formula_units_Z 16
_cell_length_a 8.286860
_cell_length_b 5.141907
_cell_length_c 22.211433
_cell_angle_alpha 62.624157
_cell_angle_beta 119.933370
_cell_angle_gamma 91.952979
_cell_volume 704.471051
_symmetry_space_group_name_H-M "P -1"
_symmetry_group_IT_number 2
_symmetry_cell_setting 'triclinic'
loop_
_space_group_symop_operation_xyz
x,y,z
-x,-y,-z
loop_
_atom_site_type_symbol
_atom_site_label
_atom_site_fract_x
_atom_site_fract_y
_atom_site_fract_z
Si Si1 0.593877 0.389140 0.938327
Si Si2 0.626598 0.132814 0.241655
Si Si3 0.746508 0.708435 0.034041
Si Si4 0.091190 0.543929 0.202627
Si Si5 0.024375 0.909875 0.272046
Si Si6 0.355550 0.903902 0.530206
Si Si7 0.516649 0.514147 0.291252
Si Si8 0.727938 0.460696 0.540308
O O1 0.544129 0.639351 0.850502
O O2 0.397611 0.366862 0.935746
O O3 0.743544 0.489659 0.000243
O O4 0.690289 0.057654 0.964787
O O5 0.656546 0.308620 0.289659
O O6 0.815992 0.051184 0.245574
O O7 0.572129 0.825081 0.281186
O O8 0.956927 0.640222 0.109369
O O9 0.297318 0.596425 0.219213
O O10 0.000446 0.749288 0.221415
O O11 0.124765 0.184785 0.256619
O O12 0.157892 0.658360 0.365499
O O13 0.471741 0.666595 0.625029
O O14 0.204561 0.761726 0.480133
O O15 0.500000 0.000000 0.500000
O O16 0.232830 0.215253 0.504054
O O17 0.500000 0.500000 0.500000
#
# Coordination Sequence:
#
# PCOD8043435 Si02
#       8
#     2   2   2   2   2   2   2   2
#     4  10  21  40  63  94 133 173 212 274 330 387
#     4  12  26  45  63  99 141 180 206 272 354 396
#     4  10  21  37  68  98 122 169 234 273 308 381
#     4  12  23  42  67 103 127 172 237 280 305 393
#     4  12  24  41  70  99 131 173 231 271 324 397
#     4  10  20  39  64  89 121 170 216 259 321 383
#     4  12  26  44  67  97 141 174 215 275 343 396
#     4  10  19  36  62  92 119 158 212 273 321 362
#
# _framework density 22.712074999999999
#
# number of rings (size 3 to 8) (size 9 to 14) (size 15 to 20)
#    0.000    1.000    1.250    7.500    3.500    0.000 
#    0.000    7.500    0.000    0.000    0.000    0.000 
#    0.000    0.000    0.000    0.000    0.000    0.000 
#
# Total GULP energy -198381.334220 kJ/mol
# GULP energy per Si atom -12398.833389 kJ/mol
# Density = 2.266038 g / cm^3
# Si number density = 22.712075 Si / 1000 Ang^3
#
#
#
# Elastic Constant Matrix: (Units=GPa)
#
#
# Indices 1 2 3 4 5 6 
#
# 1 31.3811 7.5175 2.7199 0.7624 4.6021 -9.4491
# 2 7.5175 168.1872 37.6166 -16.5714 -7.6297 -8.6926
# 3 2.7199 37.6166 111.8375 -11.4386 1.2341 -1.7360
# 4 0.7624 -16.5714 -11.4386 44.4318 1.9045 -1.6723
# 5 4.6021 -7.6297 1.2341 1.9045 26.8281 3.7292
# 6 -9.4491 -8.6926 -1.7360 -1.6723 3.7292 21.0226
#
#
#
# Elastic Compliance Matrix: (Units=1/GPa)
#
#
# Indices 1 2 3 4 5 6 
#
# 1 0.039264 -0.001187 -0.000159 -0.000033 -0.009685 0.018860
# 2 -0.001187 0.006844 -0.002054 0.002040 0.001827 0.001965
# 3 -0.000159 -0.002054 0.009840 0.001829 -0.001173 0.000245
# 4 -0.000033 0.002040 0.001829 0.023928 -0.001638 0.003174
# 5 -0.009685 0.001827 -0.001173 -0.001638 0.041172 -0.011129
# 6 0.018860 0.001965 0.000245 0.003174 -0.011129 0.059104
#
#
# Mechanical properties :
#
#
# Convention : Reuss Voigt Hill
#
# Bulk Modulus (GPa) = 20.34708 45.23487 32.79098
# Shear Modulus (GPa) = 24.58982 36.02662 30.30822
#
# Velocity S-wave (km/s) = 3.29397 3.98707 3.65698
# Velocity P-wave (km/s) = 4.84202 6.41526 5.68334
#
# Compressibility (1/GPa) = 0.04914709
#
# Stress axis : x y z
#
# Youngs Moduli (GPa) = 25.46838 146.12208 101.62432
#
# Poissons Ratio (x) = 0.17348 0.01619
# Poissons Ratio (y) = 0.03024 0.20874
# Poissons Ratio (z) = 0.00406 0.30014
#
# Static dielectric constant tensor:
#      x y z
#    x 3.638140 0.160190 0.002750 
#    y 0.160190 3.584320 -0.014430 
#    z 0.002750 -0.014430 4.048290 
# 
# 
# High freq. dielectric constant tensor:
#      x y z
#    x 1.856250 -0.004500 0.002630 
#    y -0.004500 1.931360 -0.006170 
#    z 0.002630 -0.006170 1.902720 
# 
# From -- ./inp_files/605803.got.cif
#   From: 2010.06.25/outbox.cif.g09.slc.cpg/sg2_303_cif.got.tgz:605803.got - 2010.06.27 13:26:56.
