data_PCOD8043495
_publ_section_title
;
Structure prediction by ZEFSAII (Michael W. Deem and Ramdas Pophale) SiO2 
 PCOD8043495
Probable space group: P -1
;
_chemical_formula_sum "Si O2"
_cell_formula_units_Z 16
_cell_length_a 13.040590
_cell_length_b 9.207775
_cell_length_c 16.108187
_cell_angle_alpha 142.841958
_cell_angle_beta 134.754511
_cell_angle_gamma 64.761968
_cell_volume 787.630940
_symmetry_space_group_name_H-M "P -1"
_symmetry_group_IT_number 2
_symmetry_cell_setting 'triclinic'
loop_
_space_group_symop_operation_xyz
x,y,z
-x,-y,-z
loop_
_atom_site_type_symbol
_atom_site_label
_atom_site_fract_x
_atom_site_fract_y
_atom_site_fract_z
Si Si1 0.779127 0.710018 0.047885
Si Si2 0.539025 0.914498 0.072674
Si Si3 0.658050 0.560563 0.660490
Si Si4 0.963189 0.560033 0.415081
Si Si5 0.876545 0.029546 0.588343
Si Si6 0.345367 0.787087 0.346161
Si Si7 0.758073 0.052514 0.035689
Si Si8 0.224862 0.753667 0.528355
O O1 0.645027 0.731926 0.044214
O O2 0.946593 0.793187 0.222564
O O3 0.783913 0.902915 0.063604
O O4 0.733005 0.413185 0.862363
O O5 0.615159 0.137659 0.283422
O O6 0.370742 0.805738 0.965357
O O7 0.500000 0.000000 0.000000
O O8 0.500000 0.500000 0.500000
O O9 0.620627 0.382133 0.638497
O O10 0.777270 0.499328 0.637542
O O11 0.729067 0.857692 0.854698
O O12 0.901838 0.295691 0.210056
O O13 0.000000 0.500000 0.500000
O O14 0.108610 0.722222 0.522377
O O15 0.853484 0.731335 0.440998
O O16 0.777574 0.083130 0.632716
O O17 0.808835 0.062754 0.475678
O O18 0.500000 0.000000 0.500000
#
# Coordination Sequence:
#
# PCOD8043495 Si02
#       8
#     2   2   2   2   2   2   2   2
#     4  10  20  40  63  88 128 168 205 248 322 376
#     4  10  19  36  63  90 119 165 209 247 315 369
#     4  10  21  42  64  86 129 165 204 255 317 368
#     4  12  23  40  65  95 126 159 218 258 303 378
#     4  11  23  42  63  90 133 166 202 260 322 372
#     4  10  24  41  63  94 123 165 213 258 307 373
#     4  10  21  38  62  95 122 163 213 260 302 369
#     4  11  23  41  64  91 126 171 203 260 322 368
#
# _framework density 20.314083
#
# number of rings (size 3 to 8) (size 9 to 14) (size 15 to 20)
#    0.000    1.500    3.750    1.500    1.750    1.500 
#    2.250    0.625    0.000    0.000    0.000    0.000 
#    0.000    0.000    0.000    0.000    0.000    0.000 
#
# Total GULP energy -198209.907508 kJ/mol
# GULP energy per Si atom -12388.119219 kJ/mol
# Density = 2.026785 g / cm^3
# Si number density = 20.314083 Si / 1000 Ang^3
#
#
#
# Elastic Constant Matrix: (Units=GPa)
#
#
# Indices 1 2 3 4 5 6 
#
# 1 93.6700 37.2952 17.6242 2.0907 -12.8443 -8.0702
# 2 37.2952 78.0345 51.0254 2.5279 -9.8819 -16.5651
# 3 17.6242 51.0254 134.6177 2.8030 -13.8913 -0.0609
# 4 2.0907 2.5279 2.8030 36.9794 -2.4720 -0.1875
# 5 -12.8443 -9.8819 -13.8913 -2.4720 33.9295 -1.1064
# 6 -8.0702 -16.5651 -0.0609 -0.1875 -1.1064 22.1285
#
#
#
# Elastic Compliance Matrix: (Units=1/GPa)
#
#
# Indices 1 2 3 4 5 6 
#
# 1 0.013684 -0.006827 0.001178 -0.000151 0.003665 0.000065
# 2 -0.006827 0.025439 -0.008541 -0.000499 0.001833 0.016617
# 3 0.001178 -0.008541 0.010735 -0.000182 0.002150 -0.005829
# 4 -0.000151 -0.000499 -0.000182 0.027212 0.001702 -0.000113
# 5 0.003665 0.001833 0.002150 0.001702 0.032540 0.004356
# 6 0.000065 0.016617 -0.005829 -0.000113 0.004356 0.057854
#
#
# Mechanical properties :
#
#
# Convention : Reuss Voigt Hill
#
# Bulk Modulus (GPa) = 46.56480 57.57906 52.07193
# Shear Modulus (GPa) = 24.62999 31.96596 28.29798
#
# Velocity S-wave (km/s) = 3.48582 3.97115 3.73637
# Velocity P-wave (km/s) = 6.25887 7.03083 6.65605
#
# Compressibility (1/GPa) = 0.02147545
#
# Stress axis : x y z
#
# Youngs Moduli (GPa) = 73.07774 39.31029 93.15519
#
# Poissons Ratio (x) = 0.26838 -0.10971
# Poissons Ratio (y) = 0.49893 0.79567
# Poissons Ratio (z) = -0.08606 0.33576
#
# Static dielectric constant tensor:
#      x y z
#    x 3.654560 -0.346980 -0.220960 
#    y -0.346980 3.485870 -0.276860 
#    z -0.220960 -0.276860 3.534330 
# 
# 
# High freq. dielectric constant tensor:
#      x y z
#    x 1.795840 -0.024270 -0.015200 
#    y -0.024270 1.777990 -0.010900 
#    z -0.015200 -0.010900 1.805610 
# 
# From -- ./inp_files/389723.got.cif
#   From: 2010.06.25/outbox.cif.g09.slc.cpg/sg2_195_cif.got.tgz:389723.got - 2010.06.27 13:26:56.
