data_PCOD8043112
_publ_section_title
;
Structure prediction by ZEFSAII (Michael W. Deem and Ramdas Pophale) SiO2 
 PCOD8043112
Probable space group: P -1
;
_chemical_formula_sum "Si O2"
_cell_formula_units_Z 16
_cell_length_a 11.083870
_cell_length_b 12.006150
_cell_length_c 7.621807
_cell_angle_alpha 115.872572
_cell_angle_beta 54.662029
_cell_angle_gamma 96.049579
_cell_volume 729.377401
_symmetry_space_group_name_H-M "P -1"
_symmetry_group_IT_number 2
_symmetry_cell_setting 'triclinic'
loop_
_space_group_symop_operation_xyz
x,y,z
-x,-y,-z
loop_
_atom_site_type_symbol
_atom_site_label
_atom_site_fract_x
_atom_site_fract_y
_atom_site_fract_z
Si Si1 0.829248 0.516408 0.928381
Si Si2 0.861554 0.655074 0.339238
Si Si3 0.939399 0.909920 0.295574
Si Si4 0.699119 0.078578 0.454037
Si Si5 0.637101 0.312613 0.872736
Si Si6 0.575113 0.970096 0.169704
Si Si7 0.698322 0.690167 0.861657
Si Si8 0.753754 0.092549 0.854880
O O1 0.786943 0.588564 0.198459
O O2 0.708991 0.433582 0.919260
O O3 0.823421 0.613396 0.836484
O O4 0.995391 0.434379 0.753454
O O5 0.907569 0.779251 0.306178
O O6 0.742894 0.684212 0.615708
O O7 0.118735 0.895282 0.095457
O O8 0.849575 0.967178 0.233819
O O9 0.865760 0.026340 0.563964
O O10 0.715297 0.222924 0.581509
O O11 0.600886 0.041824 0.682631
O O12 0.600181 0.076247 0.362295
O O13 0.667426 0.231980 0.970925
O O14 0.458644 0.358814 0.022607
O O15 0.676185 0.834870 0.040517
O O16 0.627468 0.016045 0.971310
#
# Coordination Sequence:
#
# PCOD8043112 Si02
#       8
#     2   2   2   2   2   2   2   2
#     4  11  24  44  61  86 125 160 209 255 295 355
#     4  11  23  41  65  88 119 164 208 253 297 361
#     4  10  19  36  58  85 117 157 192 247 304 351
#     4   9  21  35  60  90 125 156 190 253 309 359
#     4  10  22  41  59  89 123 159 197 252 306 356
#     4  10  20  38  58  95 120 153 201 244 308 370
#     4  11  23  40  66  89 119 165 203 250 304 362
#     4  10  20  35  61  86 121 149 193 248 299 369
#
# _framework density 21.936518
#
# number of rings (size 3 to 8) (size 9 to 14) (size 15 to 20)
#    0.000    1.750    2.500    1.500    1.750    2.500 
#    2.250    1.250    0.000    0.000    0.000    0.000 
#    0.000    0.000    0.000    0.000    0.000    0.000 
#
# Total GULP energy -198254.568102 kJ/mol
# GULP energy per Si atom -12390.910506 kJ/mol
# Density = 2.188659 g / cm^3
# Si number density = 21.936518 Si / 1000 Ang^3
#
#
#
# Elastic Constant Matrix: (Units=GPa)
#
#
# Indices 1 2 3 4 5 6 
#
# 1 64.0927 3.7192 17.5949 13.0914 -4.5256 5.6175
# 2 3.7192 69.4455 6.3690 14.6269 -1.9969 9.3161
# 3 17.5949 6.3690 54.7051 7.8724 2.5588 9.7603
# 4 13.0914 14.6269 7.8724 26.9438 -1.9418 -1.4674
# 5 -4.5256 -1.9969 2.5588 -1.9418 32.5844 10.5256
# 6 5.6175 9.3161 9.7603 -1.4674 10.5256 32.6214
#
#
#
# Elastic Compliance Matrix: (Units=1/GPa)
#
#
# Indices 1 2 3 4 5 6 
#
# 1 0.019229 0.001965 -0.004552 -0.009022 0.003966 -0.004196
# 2 0.001965 0.017520 -0.000081 -0.010600 0.002895 -0.006728
# 3 -0.004552 -0.000081 0.021405 -0.004357 -0.000789 -0.005539
# 4 -0.009022 -0.010600 -0.004357 0.048889 -0.001405 0.008537
# 5 0.003966 0.002895 -0.000789 -0.001405 0.035531 -0.012801
# 6 -0.004196 -0.006728 -0.005539 0.008537 -0.012801 0.039471
#
#
# Mechanical properties :
#
#
# Convention : Reuss Voigt Hill
#
# Bulk Modulus (GPa) = 18.93292 27.06772 23.00032
# Shear Modulus (GPa) = 24.39168 29.13394 26.76281
#
# Velocity S-wave (km/s) = 3.33817 3.64827 3.49666
# Velocity P-wave (km/s) = 4.84843 5.48747 5.17782
#
# Compressibility (1/GPa) = 0.05281805
#
# Stress axis : x y z
#
# Youngs Moduli (GPa) = 52.00580 57.07601 46.71718
#
# Poissons Ratio (x) = -0.11215 0.21265
# Poissons Ratio (y) = -0.10219 0.00380
# Poissons Ratio (z) = 0.23672 0.00464
#
# Static dielectric constant tensor:
#      x y z
#    x 4.506310 0.018050 -0.176130 
#    y 0.018050 3.727230 0.153270 
#    z -0.176130 0.153270 3.851210 
# 
# 
# High freq. dielectric constant tensor:
#      x y z
#    x 1.887510 -0.004640 -0.004220 
#    y -0.004640 1.850970 0.012520 
#    z -0.004220 0.012520 1.841680 
# 
# From -- ./inp_files/262941.got.cif
#   From: 2010.06.25/outbox.cif.g09.slc.cpg/sg2_132_cif.got.tgz:262941.got - 2010.06.27 13:26:56.
