data_PCOD8043496
_publ_section_title
;
Structure prediction by ZEFSAII (Michael W. Deem and Ramdas Pophale) SiO2 
 PCOD8043496
Probable space group: P -1
;
_chemical_formula_sum "Si O2"
_cell_formula_units_Z 16
_cell_length_a 12.690519
_cell_length_b 16.502199
_cell_length_c 9.820800
_cell_angle_alpha 110.189563
_cell_angle_beta 58.902639
_cell_angle_gamma 152.504567
_cell_volume 779.131500
_symmetry_space_group_name_H-M "P -1"
_symmetry_group_IT_number 2
_symmetry_cell_setting 'triclinic'
loop_
_space_group_symop_operation_xyz
x,y,z
-x,-y,-z
loop_
_atom_site_type_symbol
_atom_site_label
_atom_site_fract_x
_atom_site_fract_y
_atom_site_fract_z
Si Si1 0.551648 0.921121 0.127324
Si Si2 0.692539 0.305439 0.096603
Si Si3 0.546747 0.404476 0.285504
Si Si4 0.593530 0.733198 0.421051
Si Si5 0.972507 0.104183 0.509590
Si Si6 0.520744 0.929679 0.646132
Si Si7 0.926120 0.788346 0.189464
Si Si8 0.692640 0.302100 0.579150
O O1 0.432337 0.782789 0.237794
O O2 0.523565 0.001390 0.239460
O O3 0.396614 0.816608 0.029613
O O4 0.853755 0.085016 0.998660
O O5 0.570370 0.324017 0.157814
O O6 0.602831 0.216369 0.251871
O O7 0.000000 0.500000 0.000000
O O8 0.585767 0.423340 0.434597
O O9 0.777631 0.605625 0.189960
O O10 0.269346 0.277575 0.361144
O O11 0.730752 0.743460 0.245895
O O12 0.422060 0.683801 0.406522
O O13 0.814901 0.920189 0.468936
O O14 0.949718 0.107969 0.688325
O O15 0.830046 0.097300 0.525617
O O16 0.381762 0.828626 0.534863
O O17 0.000000 0.500000 0.500000
#
# Coordination Sequence:
#
# PCOD8043496 Si02
#       8
#     2   2   2   2   2   2   2   2
#     4  12  25  41  63  93 132 163 206 264 316 372
#     4  12  23  38  63  94 126 162 207 268 315 360
#     4  11  21  37  63  95 127 159 210 264 310 372
#     4  10  20  40  64  88 124 168 213 251 313 375
#     4  10  19  36  63  90 125 161 208 260 308 368
#     4  11  23  42  64  92 125 167 212 253 314 377
#     4  11  22  36  61  98 126 159 206 266 319 360
#     4  11  25  44  65  89 127 172 210 251 310 390
#
# _framework density 20.535686999999999
#
# number of rings (size 3 to 8) (size 9 to 14) (size 15 to 20)
#    0.000    1.000    3.750    6.000    1.750    1.500 
#    0.000    0.000    0.000    4.500    0.000    0.000 
#    0.000    0.000    0.000    0.000    0.000    0.000 
#
# Total GULP energy -198430.534399 kJ/mol
# GULP energy per Si atom -12401.908400 kJ/mol
# Density = 2.048895 g / cm^3
# Si number density = 20.535687 Si / 1000 Ang^3
#
#
#
# Elastic Constant Matrix: (Units=GPa)
#
#
# Indices 1 2 3 4 5 6 
#
# 1 106.4546 46.4226 37.5002 -6.6582 -25.2381 5.5016
# 2 46.4226 78.2760 38.8564 -17.7669 -6.9888 5.8489
# 3 37.5002 38.8564 96.2569 -19.1937 -14.5573 7.0514
# 4 -6.6582 -17.7669 -19.1937 40.1193 -3.8454 -4.8975
# 5 -25.2381 -6.9888 -14.5573 -3.8454 36.2458 4.5307
# 6 5.5016 5.8489 7.0514 -4.8975 4.5307 30.0209
#
#
#
# Elastic Compliance Matrix: (Units=1/GPa)
#
#
# Indices 1 2 3 4 5 6 
#
# 1 0.015444 -0.007612 -0.001637 -0.001046 0.008826 -0.002465
# 2 -0.007612 0.020604 -0.004659 0.005352 -0.002598 -0.000260
# 3 -0.001637 -0.004659 0.014752 0.004907 0.004677 -0.002163
# 4 -0.001046 0.005352 0.004907 0.030231 0.005214 0.002141
# 5 0.008826 -0.002598 0.004677 0.005214 0.036524 -0.006871
# 6 -0.002465 -0.000260 -0.002163 0.002141 -0.006871 0.035707
#
#
# Mechanical properties :
#
#
# Convention : Reuss Voigt Hill
#
# Bulk Modulus (GPa) = 43.50792 58.50511 51.00651
# Shear Modulus (GPa) = 26.49155 31.82443 29.15799
#
# Velocity S-wave (km/s) = 3.59559 3.94091 3.77220
# Velocity P-wave (km/s) = 6.20243 7.01848 6.62304
#
# Compressibility (1/GPa) = 0.02298432
#
# Stress axis : x y z
#
# Youngs Moduli (GPa) = 64.74920 48.53335 67.78955
#
# Poissons Ratio (x) = 0.36943 0.11100
# Poissons Ratio (y) = 0.49286 0.31581
# Poissons Ratio (z) = 0.10602 0.22610
#
# Static dielectric constant tensor:
#      x y z
#    x 3.884040 0.032930 -0.253400 
#    y 0.032930 3.714540 -0.019210 
#    z -0.253400 -0.019210 3.757520 
# 
# 
# High freq. dielectric constant tensor:
#      x y z
#    x 1.805690 -0.002370 -0.027090 
#    y -0.002370 1.806550 -0.003260 
#    z -0.027090 -0.003260 1.791000 
# 
# From -- ./inp_files/273367.got.cif
#   From: 2010.06.25/outbox.cif.g09.slc.cpg/sg2_137_cif.got.tgz:273367.got - 2010.06.27 13:26:56.
