data_PCOD8043019
_publ_section_title
;
Structure prediction by ZEFSAII (Michael W. Deem and Ramdas Pophale) SiO2 
 PCOD8043019
Probable space group: P -1
;
_chemical_formula_sum "Si O2"
_cell_formula_units_Z 14
_cell_length_a 20.464114
_cell_length_b 13.874902
_cell_length_c 9.320404
_cell_angle_alpha 80.606329
_cell_angle_beta 63.355865
_cell_angle_gamma 25.282672
_cell_volume 780.679359
_symmetry_space_group_name_H-M "P -1"
_symmetry_group_IT_number 2
_symmetry_cell_setting 'triclinic'
loop_
_space_group_symop_operation_xyz
x,y,z
-x,-y,-z
loop_
_atom_site_type_symbol
_atom_site_label
_atom_site_fract_x
_atom_site_fract_y
_atom_site_fract_z
Si Si1 0.476703 0.256096 0.486787
Si Si2 0.202865 0.290583 0.186606
Si Si3 0.249415 0.234960 0.480307
Si Si4 0.606644 0.737152 0.720657
Si Si5 0.195697 0.678198 0.890919
Si Si6 0.080621 0.669092 0.244006
Si Si7 0.594117 0.282774 0.523391
O O1 0.453651 0.266542 0.338472
O O2 0.237853 0.577212 0.716138
O O3 0.625687 0.165576 0.388444
O O4 0.585316 0.028088 0.515137
O O5 0.291890 0.152758 0.291681
O O6 0.130618 0.493941 0.201902
O O7 0.999881 0.476557 0.302238
O O8 0.392022 0.035431 0.948363
O O9 0.290752 0.297398 0.449051
O O10 0.789287 0.460504 0.711539
O O11 0.418365 0.457655 0.766160
O O12 0.154584 0.642976 0.047810
O O13 0.000000 0.000000 0.000000
O O14 0.823448 0.008913 0.444223
O O15 0.500000 0.500000 0.500000
#
# Coordination Sequence:
#
# PCOD8043019 Si02
#       7
#     2   2   2   2   2   2   2
#     4  10  21  38  55  84 118 142 184 241 279 317
#     4  10  20  34  57  85 115 155 190 215 266 343
#     4  10  19  36  56  82 118 154 189 216 264 344
#     4  11  23  34  54  89 121 147 178 231 282 328
#     4  10  20  36  62  81 100 144 197 234 272 335
#     4  11  19  37  60  80 113 153 186 223 277 333
#     4  10  21  39  61  82 102 142 198 237 272 333
#
# _framework density 17.933098999999999
#
# number of rings (size 3 to 8) (size 9 to 14) (size 15 to 20)
#    0.857    0.857    2.857    3.857    0.000    0.571 
#    2.571    2.857    0.000    1.714    0.000    0.000 
#    0.000    0.000    0.000    0.000    0.000    0.000 
#
# Total GULP energy -173510.716158 kJ/mol
# GULP energy per Si atom -12393.622583 kJ/mol
# Density = 1.789228 g / cm^3
# Si number density = 17.933099 Si / 1000 Ang^3
#
#
#
# Elastic Constant Matrix: (Units=GPa)
#
#
# Indices 1 2 3 4 5 6 
#
# 1 48.0167 30.8318 22.1991 -4.3548 -5.7549 -5.7754
# 2 30.8318 105.5654 51.9200 11.1674 11.8151 -4.3937
# 3 22.1991 51.9200 86.9074 10.4317 -15.6996 -7.3948
# 4 -4.3548 11.1674 10.4317 27.6746 -1.0819 -4.7980
# 5 -5.7549 11.8151 -15.6996 -1.0819 31.5644 -4.1157
# 6 -5.7754 -4.3937 -7.3948 -4.7980 -4.1157 22.6257
#
#
#
# Elastic Compliance Matrix: (Units=1/GPa)
#
#
# Indices 1 2 3 4 5 6 
#
# 1 0.032042 -0.011886 0.000655 0.011965 0.012446 0.010886
# 2 -0.011886 0.021913 -0.013078 -0.007887 -0.018192 -0.008035
# 3 0.000655 -0.013078 0.023166 -0.001257 0.017553 0.008125
# 4 0.011965 -0.007887 -0.001257 0.044018 0.007559 0.011822
# 5 0.012446 -0.018192 0.017553 0.007559 0.051892 0.016424
# 6 0.010886 -0.008035 0.008125 0.011822 0.016424 0.053566
#
#
# Mechanical properties :
#
#
# Convention : Reuss Voigt Hill
#
# Bulk Modulus (GPa) = 35.08639 50.04348 42.56494
# Shear Modulus (GPa) = 17.56138 25.40884 21.48511
#
# Velocity S-wave (km/s) = 3.13273 3.76821 3.46507
# Velocity P-wave (km/s) = 5.71777 6.84827 6.30840
#
# Compressibility (1/GPa) = 0.02850108
#
# Stress axis : x y z
#
# Youngs Moduli (GPa) = 31.20928 45.63585 43.16745
#
# Poissons Ratio (x) = 0.54243 -0.02827
# Poissons Ratio (y) = 0.37095 0.56455
# Poissons Ratio (z) = -0.02044 0.59684
#
# Static dielectric constant tensor:
#      x y z
#    x 3.300240 -0.003130 -0.269700 
#    y -0.003130 3.238660 0.071990 
#    z -0.269700 0.071990 3.338730 
# 
# 
# High freq. dielectric constant tensor:
#      x y z
#    x 1.680810 0.008980 -0.025680 
#    y 0.008980 1.696990 0.009430 
#    z -0.025680 0.009430 1.686820 
# 
# From -- ./inp_files/214797.got.cif
#   From: 2010.06.25/outbox.cif.g09.slc.cpg/sg2_108_cif.got.tgz:214797.got - 2010.06.27 13:26:56.
