data_PCOD8043423
_publ_section_title
;
Structure prediction by ZEFSAII (Michael W. Deem and Ramdas Pophale) SiO2 
 PCOD8043423
Probable space group: P -1
;
_chemical_formula_sum "Si O2"
_cell_formula_units_Z 16
_cell_length_a 13.538222
_cell_length_b 15.519942
_cell_length_c 9.619180
_cell_angle_alpha 39.135335
_cell_angle_beta 80.390727
_cell_angle_gamma 51.136611
_cell_volume 754.242089
_symmetry_space_group_name_H-M "P -1"
_symmetry_group_IT_number 2
_symmetry_cell_setting 'triclinic'
loop_
_space_group_symop_operation_xyz
x,y,z
-x,-y,-z
loop_
_atom_site_type_symbol
_atom_site_label
_atom_site_fract_x
_atom_site_fract_y
_atom_site_fract_z
Si Si1 0.166661 0.264214 0.686439
Si Si2 0.157485 0.812709 0.891256
Si Si3 0.147473 0.101717 0.631591
Si Si4 0.204841 0.516437 0.913027
Si Si5 0.327778 0.962964 0.288066
Si Si6 0.219007 0.793358 0.581785
Si Si7 0.185257 0.253716 0.212089
Si Si8 0.299106 0.384478 0.358981
O O1 0.121704 0.198083 0.666215
O O2 0.264963 0.285022 0.576007
O O3 0.000000 0.500000 0.500000
O O4 0.286370 0.060642 0.022705
O O5 0.211411 0.804123 0.736491
O O6 0.212879 0.873934 0.909032
O O7 0.253238 0.571594 0.222555
O O8 0.961359 0.991908 0.715119
O O9 0.263514 0.073825 0.541650
O O10 0.977014 0.268743 0.377532
O O11 0.299528 0.557573 0.811311
O O12 0.288995 0.283817 0.127953
O O13 0.184497 0.515944 0.084234
O O14 0.333688 0.791636 0.503115
O O15 0.506429 0.825072 0.465714
O O16 0.187969 0.170848 0.169126
O O17 0.000000 0.500000 0.000000
#
# Coordination Sequence:
#
# PCOD8043423 Si02
#       8
#     2   2   2   2   2   2   2   2
#     4  12  25  42  65  88 121 169 207 252 306 369
#     4   9  18  35  64  90 121 153 209 259 299 350
#     4  10  19  38  65  95 116 153 214 262 295 348
#     4   9  19  35  64  93 122 147 206 259 301 345
#     4  12  25  40  60  92 130 165 198 247 316 375
#     4   9  18  35  61  92 116 159 203 253 296 356
#     4  10  19  36  62  90 120 152 206 254 292 350
#     4  11  24  40  60  92 129 162 199 253 316 370
#
# _framework density 21.213349000000001
#
# number of rings (size 3 to 8) (size 9 to 14) (size 15 to 20)
#    0.000    1.750    2.500    3.375    5.250    2.500 
#    0.000    7.500    0.000    0.000    0.000    0.000 
#    0.000    0.000    0.000    0.000    0.000    0.000 
#
# Total GULP energy -198217.305191 kJ/mol
# GULP energy per Si atom -12388.581574 kJ/mol
# Density = 2.116507 g / cm^3
# Si number density = 21.213349 Si / 1000 Ang^3
#
#
#
# Elastic Constant Matrix: (Units=GPa)
#
#
# Indices 1 2 3 4 5 6 
#
# 1 126.0665 53.5530 48.7689 -3.4541 -34.2915 15.9093
# 2 53.5530 75.1279 39.4825 9.2765 -6.1778 21.9515
# 3 48.7689 39.4825 60.2997 9.2351 -17.0551 15.2914
# 4 -3.4541 9.2765 9.2351 26.1849 2.5033 -5.4973
# 5 -34.2915 -6.1778 -17.0551 2.5033 42.3850 -8.4840
# 6 15.9093 21.9515 15.2914 -5.4973 -8.4840 37.3661
#
#
#
# Elastic Compliance Matrix: (Units=1/GPa)
#
#
# Indices 1 2 3 4 5 6 
#
# 1 0.017502 -0.010555 -0.006954 0.008604 0.010358 0.005212
# 2 -0.010555 0.029818 -0.008741 -0.010721 -0.009726 -0.013232
# 3 -0.006954 -0.008741 0.032683 -0.011075 0.005785 -0.005595
# 4 0.008604 -0.010721 -0.011075 0.050034 0.000938 0.014741
# 5 0.010358 -0.009726 0.005785 0.000938 0.034197 0.006838
# 6 0.005212 -0.013232 -0.005595 0.014741 0.006838 0.038327
#
#
# Mechanical properties :
#
#
# Convention : Reuss Voigt Hill
#
# Bulk Modulus (GPa) = 36.35955 60.56700 48.46328
# Shear Modulus (GPa) = 18.92303 29.16651 24.04477
#
# Velocity S-wave (km/s) = 2.98993 3.71200 3.37036
# Velocity P-wave (km/s) = 5.39414 6.85458 6.16774
#
# Compressibility (1/GPa) = 0.02750309
#
# Stress axis : x y z
#
# Youngs Moduli (GPa) = 57.13771 33.53637 30.59740
#
# Poissons Ratio (x) = 0.35397 0.21277
# Poissons Ratio (y) = 0.60307 0.26746
# Poissons Ratio (z) = 0.39732 0.29315
#
# Static dielectric constant tensor:
#      x y z
#    x 4.431570 0.412530 -0.742810 
#    y 0.412530 3.584520 -0.141140 
#    z -0.742810 -0.141140 4.026510 
# 
# 
# High freq. dielectric constant tensor:
#      x y z
#    x 1.843090 0.024300 -0.034770 
#    y 0.024300 1.791100 -0.007700 
#    z -0.034770 -0.007700 1.824130 
# 
# From -- ./inp_files/314479.got.cif
#   From: 2010.06.25/outbox.cif.g09.slc.cpg/sg2_158_cif.got.tgz:314479.got - 2010.06.27 13:26:56.
