data_PCOD8043520
_publ_section_title
;
Structure prediction by ZEFSAII (Michael W. Deem and Ramdas Pophale) SiO2 
 PCOD8043520
Probable space group: P -1
;
_chemical_formula_sum "Si O2"
_cell_formula_units_Z 16
_cell_length_a 15.801593
_cell_length_b 16.367051
_cell_length_c 12.478564
_cell_angle_alpha 141.878481
_cell_angle_beta 37.031613
_cell_angle_gamma 154.502949
_cell_volume 808.976576
_symmetry_space_group_name_H-M "P -1"
_symmetry_group_IT_number 2
_symmetry_cell_setting 'triclinic'
loop_
_space_group_symop_operation_xyz
x,y,z
-x,-y,-z
loop_
_atom_site_type_symbol
_atom_site_label
_atom_site_fract_x
_atom_site_fract_y
_atom_site_fract_z
Si Si1 0.681447 0.728215 0.263600
Si Si2 0.051524 0.795226 0.018240
Si Si3 0.010380 0.360065 0.303762
Si Si4 0.555113 0.390036 0.942234
Si Si5 0.180975 0.026125 0.812456
Si Si6 0.849728 0.513151 0.130495
Si Si7 0.388920 0.467741 0.472347
Si Si8 0.459145 0.234187 0.098172
O O1 0.900291 0.810374 0.154832
O O2 0.738378 0.899066 0.314335
O O3 0.546809 0.664158 0.440371
O O4 0.538541 0.536339 0.132140
O O5 0.966038 0.671324 0.083651
O O6 0.065198 0.704422 0.809984
O O7 0.285161 0.001820 0.023754
O O8 0.251294 0.491662 0.210098
O O9 0.000000 0.500000 0.500000
O O10 0.880016 0.169643 0.314687
O O11 0.355107 0.182273 0.883032
O O12 0.600999 0.347066 0.964667
O O13 0.000000 0.000000 0.000000
O O14 0.810976 0.581508 0.344249
O O15 0.619030 0.308841 0.110344
O O16 0.000000 0.500000 0.000000
O O17 0.500000 0.500000 0.500000
O O18 0.334557 0.288824 0.288737
#
# Coordination Sequence:
#
# PCOD8043520 Si02
#       8
#     2   2   2   2   2   2   2   2
#     4  10  19  36  63  96 124 155 212 277 314 359
#     4  11  20  41  67  86 122 169 214 258 323 382
#     4  11  24  41  61  90 130 174 208 253 326 391
#     4  10  19  38  62  88 124 166 206 259 317 374
#     4  12  21  36  64  98 121 161 217 263 308 376
#     4  11  23  42  62  89 130 167 207 266 326 382
#     4   9  18  39  64  91 121 162 210 265 320 370
#     4  10  19  38  69  90 116 166 216 260 317 381
#
# _framework density 19.778075000000001
#
# number of rings (size 3 to 8) (size 9 to 14) (size 15 to 20)
#    0.000    1.500    8.750    0.375    0.000    1.500 
#    2.250    0.000    0.000    0.000    0.000    0.000 
#    0.000    0.000    0.000    0.000    0.000    0.000 
#
# Total GULP energy -198251.829688 kJ/mol
# GULP energy per Si atom -12390.739356 kJ/mol
# Density = 1.973306 g / cm^3
# Si number density = 19.778075 Si / 1000 Ang^3
#
#
#
# Elastic Constant Matrix: (Units=GPa)
#
#
# Indices 1 2 3 4 5 6 
#
# 1 86.7611 50.8183 53.6041 -1.5437 -2.3265 -8.9544
# 2 50.8183 139.8227 64.6423 6.6167 7.3607 -11.0031
# 3 53.6041 64.6423 107.1303 -6.7925 -0.7919 -12.7624
# 4 -1.5437 6.6167 -6.7925 27.5675 -5.1917 10.2010
# 5 -2.3265 7.3607 -0.7919 -5.1917 23.5349 -8.5437
# 6 -8.9544 -11.0031 -12.7624 10.2010 -8.5437 42.5780
#
#
#
# Elastic Compliance Matrix: (Units=1/GPa)
#
#
# Indices 1 2 3 4 5 6 
#
# 1 0.017926 -0.003520 -0.006630 0.000287 0.003241 0.001455
# 2 -0.003520 0.011587 -0.005514 -0.005636 -0.005061 0.000936
# 3 -0.006630 -0.005514 0.016513 0.005059 0.003316 0.001584
# 4 0.000287 -0.005636 0.005059 0.043683 0.008458 -0.008648
# 5 0.003241 -0.005061 0.003316 0.008458 0.049364 0.008247
# 6 0.001455 0.000936 0.001584 -0.008648 0.008247 0.028236
#
#
# Mechanical properties :
#
#
# Convention : Reuss Voigt Hill
#
# Bulk Modulus (GPa) = 68.03384 74.64928 71.34156
# Shear Modulus (GPa) = 24.56565 29.71269 27.13917
#
# Velocity S-wave (km/s) = 3.52812 3.88016 3.70832
# Velocity P-wave (km/s) = 7.14634 7.60918 7.38139
#
# Compressibility (1/GPa) = 0.01469857
#
# Stress axis : x y z
#
# Youngs Moduli (GPa) = 55.78468 86.30348 60.55847
#
# Poissons Ratio (x) = 0.30375 0.40153
# Poissons Ratio (y) = 0.19634 0.33390
# Poissons Ratio (z) = 0.36987 0.47586
#
# Static dielectric constant tensor:
#      x y z
#    x 4.969110 -0.238250 1.048910 
#    y -0.238250 3.910240 -0.384140 
#    z 1.048910 -0.384140 4.611580 
# 
# 
# High freq. dielectric constant tensor:
#      x y z
#    x 1.760720 -0.007150 0.021450 
#    y -0.007150 1.783650 -0.012020 
#    z 0.021450 -0.012020 1.743290 
# 
# From -- ./inp_files/294055.got.cif
#   From: 2010.06.25/outbox.cif.g09.slc.cpg/sg2_148_cif.got.tgz:294055.got - 2010.06.27 13:26:56.
