data_PCOD8043815
_publ_section_title
;
Structure prediction by ZEFSAII (Michael W. Deem and Ramdas Pophale) SiO2 
 PCOD8043815
Probable space group: P -1
;
_chemical_formula_sum "Si O2"
_cell_formula_units_Z 14
_cell_length_a 13.293825
_cell_length_b 9.634687
_cell_length_c 11.137639
_cell_angle_alpha 134.394513
_cell_angle_beta 134.289631
_cell_angle_gamma 72.974054
_cell_volume 674.115674
_symmetry_space_group_name_H-M "P -1"
_symmetry_group_IT_number 2
_symmetry_cell_setting 'triclinic'
loop_
_space_group_symop_operation_xyz
x,y,z
-x,-y,-z
loop_
_atom_site_type_symbol
_atom_site_label
_atom_site_fract_x
_atom_site_fract_y
_atom_site_fract_z
Si Si1 0.721581 0.753297 0.345713
Si Si2 0.303873 0.751166 0.774629
Si Si3 0.746118 0.087243 0.919754
Si Si4 0.629280 0.019071 0.265134
Si Si5 0.419728 0.652195 0.173415
Si Si6 0.059451 0.347530 0.383680
Si Si7 0.499850 0.681717 0.520320
O O1 0.593504 0.732923 0.324869
O O2 0.881791 0.796167 0.569270
O O3 0.743017 0.951869 0.399144
O O4 0.683741 0.543774 0.109811
O O5 0.279250 0.870490 0.709477
O O6 0.208512 0.501006 0.525898
O O7 0.241906 0.831707 0.885439
O O8 0.484462 0.805046 0.978153
O O9 0.642855 0.163435 0.791693
O O10 0.670354 0.833103 0.709842
O O11 0.924859 0.187142 0.089323
O O12 0.572305 0.176334 0.383852
O O13 0.404350 0.589144 0.263383
O O14 0.000000 0.500000 0.500000
O O15 0.500000 0.500000 0.500000
#
# Coordination Sequence:
#
# PCOD8043815 Si02
#       7
#     2   2   2   2   2   2   2
#     4  11  20  35  64  93 110 154 200 245 286 345
#     4   9  17  34  60  87 120 146 194 246 286 340
#     4  10  20  40  59  89 118 156 192 240 298 348
#     4  10  21  35  58  92 119 152 198 244 291 338
#     4  11  21  37  63  90 116 150 204 242 287 346
#     4  10  19  37  59  91 121 148 194 242 299 348
#     4  11  25  38  60  87 123 155 195 245 296 341
#
# _framework density 20.767948000000001
#
# number of rings (size 3 to 8) (size 9 to 14) (size 15 to 20)
#    0.000    1.714    5.714    1.286    8.000    0.000 
#    0.000    5.000    0.000    1.714    0.000    0.000 
#    0.000    0.000    0.000    0.000    0.000    0.000 
#
# Total GULP energy -173499.190152 kJ/mol
# GULP energy per Si atom -12392.799297 kJ/mol
# Density = 2.072068 g / cm^3
# Si number density = 20.767948 Si / 1000 Ang^3
#
#
#
# Elastic Constant Matrix: (Units=GPa)
#
#
# Indices 1 2 3 4 5 6 
#
# 1 38.9971 39.4141 28.6760 -13.2806 0.3994 16.6452
# 2 39.4141 180.4564 54.5732 -15.2790 12.2687 10.1601
# 3 28.6760 54.5732 90.1508 -8.0690 20.9526 3.7556
# 4 -13.2806 -15.2790 -8.0690 32.7777 3.7918 2.8693
# 5 0.3994 12.2687 20.9526 3.7918 24.3775 -8.0000
# 6 16.6452 10.1601 3.7556 2.8693 -8.0000 33.0627
#
#
#
# Elastic Compliance Matrix: (Units=1/GPa)
#
#
# Indices 1 2 3 4 5 6 
#
# 1 0.060524 -0.006005 -0.012493 0.021199 -0.000066 -0.029061
# 2 -0.006005 0.007709 -0.002286 0.000770 -0.001801 0.000411
# 3 -0.012493 -0.002286 0.020130 0.000577 -0.015760 0.000842
# 4 0.021199 0.000770 0.000577 0.042773 -0.013800 -0.018026
# 5 -0.000066 -0.001801 -0.015760 -0.013800 0.063866 0.019028
# 6 -0.029061 0.000411 0.000842 -0.018026 0.019028 0.050823
#
#
# Mechanical properties :
#
#
# Convention : Reuss Voigt Hill
#
# Bulk Modulus (GPa) = 21.37052 61.65900 41.51476
# Shear Modulus (GPa) = 16.50216 30.50632 23.50424
#
# Velocity S-wave (km/s) = 2.82192 3.83680 3.36781
# Velocity P-wave (km/s) = 4.57494 7.02723 5.92925
#
# Compressibility (1/GPa) = 0.04679344
#
# Stress axis : x y z
#
# Youngs Moduli (GPa) = 16.52247 129.71882 49.67777
#
# Poissons Ratio (x) = 0.77902 0.62062
# Poissons Ratio (y) = 0.09923 0.11356
# Poissons Ratio (z) = 0.20642 0.29654
#
# Static dielectric constant tensor:
#      x y z
#    x 3.686210 0.201010 0.248260 
#    y 0.201010 3.904820 0.095720 
#    z 0.248260 0.095720 4.185340 
# 
# 
# High freq. dielectric constant tensor:
#      x y z
#    x 1.784470 0.006940 -0.005870 
#    y 0.006940 1.819210 -0.001770 
#    z -0.005870 -0.001770 1.801220 
# 
# From -- ./inp_files/208307.got.cif
#   From: 2010.06.25/outbox.cif.g09.slc.cpg/sg2_105_cif.got.tgz:208307.got - 2010.06.27 13:26:56.
