data_PCOD8043759
_publ_section_title
;
Structure prediction by ZEFSAII (Michael W. Deem and Ramdas Pophale) SiO2 
 PCOD8043759
Probable space group: P -1
;
_chemical_formula_sum "Si O2"
_cell_formula_units_Z 16
_cell_length_a 9.459160
_cell_length_b 8.922906
_cell_length_c 15.092011
_cell_angle_alpha 48.561690
_cell_angle_beta 110.196358
_cell_angle_gamma 86.246648
_cell_volume 814.259698
_symmetry_space_group_name_H-M "P -1"
_symmetry_group_IT_number 2
_symmetry_cell_setting 'triclinic'
loop_
_space_group_symop_operation_xyz
x,y,z
-x,-y,-z
loop_
_atom_site_type_symbol
_atom_site_label
_atom_site_fract_x
_atom_site_fract_y
_atom_site_fract_z
Si Si1 0.079152 0.648912 0.060425
Si Si2 0.615584 0.001758 0.263320
Si Si3 0.190816 0.913684 0.385187
Si Si4 0.869234 0.897959 0.518854
Si Si5 0.744124 0.775280 0.842376
Si Si6 0.941335 0.416452 0.718282
Si Si7 0.133869 0.995614 0.819101
Si Si8 0.351286 0.466800 0.522802
O O1 0.205125 0.405300 0.153704
O O2 0.082896 0.673925 0.156584
O O3 0.889855 0.696093 0.977510
O O4 0.144054 0.815259 0.964049
O O5 0.731289 0.980799 0.380782
O O6 0.690404 0.068075 0.166599
O O7 0.603956 0.771096 0.332121
O O8 0.430711 0.190769 0.164772
O O9 0.272696 0.648752 0.511909
O O10 0.996150 0.993524 0.290042
O O11 0.223375 0.017639 0.441106
O O12 0.277013 0.992107 0.294454
O O13 0.976115 0.634047 0.647504
O O14 0.000000 0.000000 0.500000
O O15 0.770722 0.487796 0.603151
O O16 0.085630 0.227467 0.767988
O O17 0.500000 0.500000 0.500000
#
# Coordination Sequence:
#
# PCOD8043759 Si02
#       8
#     2   2   2   2   2   2   2   2
#     4  10  21  41  63  83 113 159 209 243 285 341
#     4  11  23  38  59  93 122 153 195 239 308 349
#     4  10  19  37  58  86 119 159 193 232 302 346
#     4  11  22  35  61  92 124 150 190 248 295 355
#     4  10  21  37  63  87 115 156 201 249 284 352
#     4  10  22  38  64  87 114 160 204 233 290 359
#     4  10  22  38  59  86 120 158 193 244 292 350
#     4  10  21  36  61  89 123 151 184 245 298 356
#
# _framework density 19.649750000000001
#
# number of rings (size 3 to 8) (size 9 to 14) (size 15 to 20)
#    0.000    1.750    3.750    0.375    1.750    3.500 
#    0.000    0.625    0.000    0.000    0.000    0.000 
#    0.000    0.000    0.000    0.000    0.000    0.000 
#
# Total GULP energy -198383.372730 kJ/mol
# GULP energy per Si atom -12398.960796 kJ/mol
# Density = 1.960503 g / cm^3
# Si number density = 19.649750 Si / 1000 Ang^3
#
#
#
# Elastic Constant Matrix: (Units=GPa)
#
#
# Indices 1 2 3 4 5 6 
#
# 1 136.8023 34.5354 36.3173 -7.8893 -9.7347 -13.7459
# 2 34.5354 111.7207 38.1754 -3.3639 -6.3236 -1.1641
# 3 36.3173 38.1754 67.7350 -8.5181 -6.3652 -8.8896
# 4 -7.8893 -3.3639 -8.5181 23.6216 -3.9327 -11.3508
# 5 -9.7347 -6.3236 -6.3652 -3.9327 19.2235 -4.9405
# 6 -13.7459 -1.1641 -8.8896 -11.3508 -4.9405 28.2486
#
#
#
# Elastic Compliance Matrix: (Units=1/GPa)
#
#
# Indices 1 2 3 4 5 6 
#
# 1 0.010135 -0.001862 -0.001337 0.008451 0.008187 0.009262
# 2 -0.001862 0.011574 -0.006612 -0.003519 -0.001103 -0.004117
# 3 -0.001337 -0.006612 0.024762 0.017500 0.013088 0.016190
# 4 0.008451 -0.003519 0.017500 0.080556 0.037852 0.048464
# 5 0.008187 -0.001103 0.013088 0.037852 0.077336 0.036792
# 6 0.009262 -0.004117 0.016190 0.048464 0.036792 0.070740
#
#
# Mechanical properties :
#
#
# Convention : Reuss Voigt Hill
#
# Bulk Modulus (GPa) = 37.24291 59.36823 48.30557
# Shear Modulus (GPa) = 16.46495 28.03407 22.24951
#
# Velocity S-wave (km/s) = 2.89783 3.78125 3.36862
# Velocity P-wave (km/s) = 5.49464 7.02443 6.30610
#
# Compressibility (1/GPa) = 0.02685075
#
# Stress axis : x y z
#
# Youngs Moduli (GPa) = 98.66384 86.39816 40.38426
#
# Poissons Ratio (x) = 0.16085 0.05401
# Poissons Ratio (y) = 0.18369 0.26700
# Poissons Ratio (z) = 0.13194 0.57122
#
# Static dielectric constant tensor:
#      x y z
#    x 3.468440 0.086770 -0.103950 
#    y 0.086770 3.967780 -0.149190 
#    z -0.103950 -0.149190 3.497320 
# 
# 
# High freq. dielectric constant tensor:
#      x y z
#    x 1.757740 0.000110 -0.011730 
#    y 0.000110 1.778680 -0.010970 
#    z -0.011730 -0.010970 1.750360 
# 
# From -- ./inp_files/177867.got.cif
#   From: 2010.06.25/outbox.cif.g09.slc.cpg/sg2_89_cif.got.tgz:177867.got - 2010.06.27 13:26:56.
