data_PCOD8043539
_publ_section_title
;
Structure prediction by ZEFSAII (Michael W. Deem and Ramdas Pophale) SiO2 
 PCOD8043539
Probable space group: P -1
;
_chemical_formula_sum "Si O2"
_cell_formula_units_Z 12
_cell_length_a 11.361146
_cell_length_b 10.392600
_cell_length_c 12.800928
_cell_angle_alpha 146.997559
_cell_angle_beta 40.148882
_cell_angle_gamma 138.743999
_cell_volume 503.727807
_symmetry_space_group_name_H-M "P -1"
_symmetry_group_IT_number 2
_symmetry_cell_setting 'triclinic'
loop_
_space_group_symop_operation_xyz
x,y,z
-x,-y,-z
loop_
_atom_site_type_symbol
_atom_site_label
_atom_site_fract_x
_atom_site_fract_y
_atom_site_fract_z
Si Si1 0.616393 0.763491 0.148225
Si Si2 0.004132 0.860856 0.511652
Si Si3 0.587700 0.867245 0.480890
Si Si4 0.045196 0.349497 0.084941
Si Si5 0.725840 0.013228 0.949195
Si Si6 0.365877 0.607387 0.875026
O O1 0.563586 0.795910 0.326029
O O2 0.563111 0.991397 0.282470
O O3 0.500000 0.500000 0.000000
O O4 0.836957 0.765288 0.990740
O O5 0.972097 0.567813 0.326106
O O6 0.198010 0.970574 0.521424
O O7 0.000000 0.000000 0.500000
O O8 0.822218 0.879643 0.710044
O O9 0.545412 0.594499 0.375919
O O10 0.179323 0.461174 0.969587
O O11 0.862504 0.109256 0.020474
O O12 0.522499 0.808736 0.978825
O O13 0.694956 0.257194 0.087338
#
# Coordination Sequence:
#
# PCOD8043539 Si02
#       6
#     2   2   2   2   2   2
#     4  10  19  36  64  88 113 163 205 244 298 354
#     4  12  21  35  64  92 119 158 200 244 303 361
#     4  10  21  37  60  89 120 156 204 248 296 355
#     4  11  21  39  62  85 121 160 202 247 301 355
#     4  11  22  40  58  90 125 160 199 248 301 358
#     4  10  21  40  61  84 126 163 193 253 302 353
#
# _framework density 23.822389000000001
#
# number of rings (size 3 to 8) (size 9 to 14) (size 15 to 20)
#    0.000    1.333    6.667    1.500    0.000    0.000 
#    3.000    3.333    0.000    5.000    0.000    0.000 
#    0.000    0.000    0.000    0.000    0.000    0.000 
#
# Total GULP energy -148658.860552 kJ/mol
# GULP energy per Si atom -12388.238379 kJ/mol
# Density = 2.376817 g / cm^3
# Si number density = 23.822389 Si / 1000 Ang^3
#
#
#
# Elastic Constant Matrix: (Units=GPa)
#
#
# Indices 1 2 3 4 5 6 
#
# 1 103.3485 13.7670 50.9110 8.8782 -11.1011 33.2452
# 2 13.7670 34.4374 7.5622 6.6041 -0.6824 20.9215
# 3 50.9110 7.5622 171.0256 36.5978 -35.5183 -5.2335
# 4 8.8782 6.6041 36.5978 26.1564 -3.7079 4.9587
# 5 -11.1011 -0.6824 -35.5183 -3.7079 55.7725 12.5257
# 6 33.2452 20.9215 -5.2335 4.9587 12.5257 38.2550
#
#
#
# Elastic Compliance Matrix: (Units=1/GPa)
#
#
# Indices 1 2 3 4 5 6 
#
# 1 0.021027 0.008200 -0.007893 0.007722 0.005776 -0.026730
# 2 0.008200 0.049725 -0.003659 -0.002007 0.008137 -0.037225
# 3 -0.007893 -0.003659 0.012730 -0.016046 0.002781 0.011772
# 4 0.007722 -0.002007 -0.016046 0.061316 -0.001178 -0.015371
# 5 0.005776 0.008137 0.002781 -0.001178 0.024694 -0.017022
# 6 -0.026730 -0.037225 0.011772 -0.015371 -0.017022 0.078904
#
#
# Mechanical properties :
#
#
# Convention : Reuss Voigt Hill
#
# Bulk Modulus (GPa) = 13.02474 50.36577 31.69525
# Shear Modulus (GPa) = 17.81302 39.80820 28.81061
#
# Velocity S-wave (km/s) = 2.73746 4.09227 3.48140
# Velocity P-wave (km/s) = 3.93330 6.59674 5.43083
#
# Compressibility (1/GPa) = 0.07677698
#
# Stress axis : x y z
#
# Youngs Moduli (GPa) = 47.55683 20.11068 78.55549
#
# Poissons Ratio (x) = -0.16490 0.62004
# Poissons Ratio (y) = -0.38995 0.28746
# Poissons Ratio (z) = 0.37537 0.07359
#
# Static dielectric constant tensor:
#      x y z
#    x 4.714720 0.144120 -0.642950 
#    y 0.144120 3.934950 0.424740 
#    z -0.642950 0.424740 5.228850 
# 
# 
# High freq. dielectric constant tensor:
#      x y z
#    x 1.958050 0.022190 -0.019220 
#    y 0.022190 1.911910 0.026940 
#    z -0.019220 0.026940 1.967160 
# 
# From -- ./inp_files/251405.got.cif
#   From: 2010.06.25/outbox.cif.g09.slc.cpg/sg2_126_cif.got.tgz:251405.got - 2010.06.27 13:26:56.
