data_PCOD8043768
_publ_section_title
;
Structure prediction by ZEFSAII (Michael W. Deem and Ramdas Pophale) SiO2 
 PCOD8043768
Probable space group: P -1
;
_chemical_formula_sum "Si O2"
_cell_formula_units_Z 14
_cell_length_a 13.808840
_cell_length_b 13.690406
_cell_length_c 11.034966
_cell_angle_alpha 42.109858
_cell_angle_beta 117.192019
_cell_angle_gamma 148.982298
_cell_volume 616.826050
_symmetry_space_group_name_H-M "P -1"
_symmetry_group_IT_number 2
_symmetry_cell_setting 'triclinic'
loop_
_space_group_symop_operation_xyz
x,y,z
-x,-y,-z
loop_
_atom_site_type_symbol
_atom_site_label
_atom_site_fract_x
_atom_site_fract_y
_atom_site_fract_z
Si Si1 0.681266 0.039093 0.517561
Si Si2 0.748080 0.739268 0.443661
Si Si3 0.853835 0.924790 0.074705
Si Si4 0.502843 0.078586 0.232958
Si Si5 0.594676 0.621567 0.809316
Si Si6 0.076549 0.654136 0.275785
Si Si7 0.155934 0.333340 0.218695
O O1 0.516199 0.932410 0.430316
O O2 0.917117 0.396288 0.321911
O O3 0.572922 0.904168 0.714578
O O4 0.709397 0.912448 0.595109
O O5 0.500000 0.500000 0.500000
O O6 0.867886 0.862258 0.269956
O O7 0.761627 0.606239 0.652727
O O8 0.888907 0.024401 0.339742
O O9 0.600931 0.629765 0.165444
O O10 0.944321 0.195431 0.883143
O O11 0.000000 0.000000 0.000000
O O12 0.329819 0.894665 0.191766
O O13 0.737614 0.394309 0.019326
O O14 0.774729 0.712454 0.794672
O O15 0.500000 0.500000 0.000000
O O16 0.000000 0.500000 0.500000
#
# Coordination Sequence:
#
# PCOD8043768 Si02
#       7
#     2   2   2   2   2   2   2
#     4  10  22  33  60  90 137 162 206 259 325 376
#     4  11  23  42  63  96 128 170 212 266 326 381
#     4  12  25  39  68  99 130 162 221 273 316 376
#     4  10  19  37  58  90 121 177 208 253 318 389
#     4  12  21  39  60 100 132 160 210 276 312 366
#     4  10  20  38  56  88 131 168 203 256 322 381
#     4  11  22  40  68  89 126 172 219 262 316 384
#
# _framework density 22.696836999999999
#
# number of rings (size 3 to 8) (size 9 to 14) (size 15 to 20)
#    0.000    1.143    4.286    2.571    6.000    0.000 
#    0.000    0.000    0.000   10.286    0.000    0.000 
#    0.000    0.000    0.000    0.000    0.000    0.000 
#
# Total GULP energy -173494.048454 kJ/mol
# GULP energy per Si atom -12392.432032 kJ/mol
# Density = 2.264518 g / cm^3
# Si number density = 22.696837 Si / 1000 Ang^3
#
#
#
# Elastic Constant Matrix: (Units=GPa)
#
#
# Indices 1 2 3 4 5 6 
#
# 1 56.1246 17.4561 21.2039 2.2736 11.3260 -5.0124
# 2 17.4561 117.7703 42.7308 -6.7888 -4.0262 11.1367
# 3 21.2039 42.7308 124.7341 0.7268 2.1849 -10.3966
# 4 2.2736 -6.7888 0.7268 51.9143 -12.1126 -5.8188
# 5 11.3260 -4.0262 2.1849 -12.1126 29.6059 -5.6113
# 6 -5.0124 11.1367 -10.3966 -5.8188 -5.6113 29.4875
#
#
#
# Elastic Compliance Matrix: (Units=1/GPa)
#
#
# Indices 1 2 3 4 5 6 
#
# 1 0.021900 -0.003066 -0.002355 -0.003428 -0.009735 0.001521
# 2 -0.003066 0.010968 -0.003721 0.001661 0.002643 -0.005145
# 3 -0.002355 -0.003721 0.010072 0.000142 0.000600 0.004699
# 4 -0.003428 0.001661 0.000142 0.023076 0.012045 0.005686
# 5 -0.009735 0.002643 0.000600 0.012045 0.044331 0.008371
# 6 0.001521 -0.005145 0.004699 0.005686 0.008371 0.040486
#
#
# Mechanical properties :
#
#
# Convention : Reuss Voigt Hill
#
# Bulk Modulus (GPa) = 40.55718 51.26786 45.91252
# Shear Modulus (GPa) = 28.19491 36.68408 32.43950
#
# Velocity S-wave (km/s) = 3.52837 4.02464 3.78465
# Velocity P-wave (km/s) = 5.87427 6.65087 6.27460
#
# Compressibility (1/GPa) = 0.02465655
#
# Stress axis : x y z
#
# Youngs Moduli (GPa) = 45.66170 91.17215 99.28033
#
# Poissons Ratio (x) = 0.27951 0.23384
# Poissons Ratio (y) = 0.13999 0.36943
# Poissons Ratio (z) = 0.10755 0.33926
#
# Static dielectric constant tensor:
#      x y z
#    x 3.647500 0.431210 -0.162440 
#    y 0.431210 4.277400 -0.352090 
#    z -0.162440 -0.352090 4.425920 
# 
# 
# High freq. dielectric constant tensor:
#      x y z
#    x 1.835850 0.016940 -0.001390 
#    y 0.016940 1.917630 -0.002370 
#    z -0.001390 -0.002370 1.910330 
# 
# From -- ./inp_files/455481.got.cif
#   From: 2010.06.25/outbox.cif.g09.slc.cpg/sg2_228_cif.got.tgz:455481.got - 2010.06.27 13:26:56.
