data_PCOD8043771
_publ_section_title
;
Structure prediction by ZEFSAII (Michael W. Deem and Ramdas Pophale) SiO2 
 PCOD8043771
Probable space group: P -1
;
_chemical_formula_sum "Si O2"
_cell_formula_units_Z 16
_cell_length_a 10.879185
_cell_length_b 9.492711
_cell_length_c 10.415169
_cell_angle_alpha 57.516386
_cell_angle_beta 67.399075
_cell_angle_gamma 65.987295
_cell_volume 809.393191
_symmetry_space_group_name_H-M "P -1"
_symmetry_group_IT_number 2
_symmetry_cell_setting 'triclinic'
loop_
_space_group_symop_operation_xyz
x,y,z
-x,-y,-z
loop_
_atom_site_type_symbol
_atom_site_label
_atom_site_fract_x
_atom_site_fract_y
_atom_site_fract_z
Si Si1 0.397156 0.568206 0.390864
Si Si2 0.932914 0.447089 0.810890
Si Si3 0.503306 0.595968 0.818381
Si Si4 0.244382 0.350123 0.428101
Si Si5 0.796408 0.226570 0.137159
Si Si6 0.857644 0.136214 0.642179
Si Si7 0.918501 0.848778 0.257960
Si Si8 0.010128 0.769774 0.707708
O O1 0.500000 0.500000 0.500000
O O2 0.483049 0.544966 0.233897
O O3 0.286727 0.450991 0.484256
O O4 0.306102 0.767399 0.341176
O O5 0.884125 0.527137 0.653308
O O6 0.061874 0.283241 0.806045
O O7 0.971252 0.587189 0.821080
O O8 0.815368 0.378524 0.962330
O O9 0.627522 0.692538 0.704973
O O10 0.364232 0.745678 0.784300
O O11 0.500000 0.500000 0.000000
O O12 0.195485 0.185873 0.578501
O O13 0.870368 0.228974 0.241283
O O14 0.856182 0.041658 0.135217
O O15 0.934518 0.213206 0.463480
O O16 0.932171 0.166795 0.729357
O O17 0.877234 0.930395 0.712112
#
# Coordination Sequence:
#
# PCOD8043771 Si02
#       8
#     2   2   2   2   2   2   2   2
#     4  10  20  36  61  87 123 165 205 245 300 369
#     4  12  20  39  61  90 122 156 195 252 314 367
#     4  10  21  39  59  86 122 167 201 244 308 366
#     4  10  21  36  63  85 115 161 203 246 296 368
#     4  11  23  38  58  89 123 158 197 250 307 363
#     4  10  19  37  58  93 117 155 199 253 301 353
#     4  11  21  37  62  92 115 150 208 260 294 354
#     4  10  22  34  61  89 125 151 196 252 311 357
#
# _framework density 19.767897000000001
#
# number of rings (size 3 to 8) (size 9 to 14) (size 15 to 20)
#    0.750    0.750    3.750    2.625    0.000    0.500 
#    0.000    0.000    0.000    0.750    0.000    0.000 
#    0.000    0.000    0.000    0.000    0.000    0.000 
#
# Total GULP energy -198283.468829 kJ/mol
# GULP energy per Si atom -12392.716802 kJ/mol
# Density = 1.972290 g / cm^3
# Si number density = 19.767897 Si / 1000 Ang^3
#
#
#
# Elastic Constant Matrix: (Units=GPa)
#
#
# Indices 1 2 3 4 5 6 
#
# 1 74.5644 45.1379 8.2738 -12.0577 9.8317 -12.3817
# 2 45.1379 135.5056 25.0903 -14.8042 1.8045 -13.7673
# 3 8.2738 25.0903 54.7062 -6.5936 -2.1795 0.1860
# 4 -12.0577 -14.8042 -6.5936 31.4315 2.6043 -0.8893
# 5 9.8317 1.8045 -2.1795 2.6043 32.9530 -1.3017
# 6 -12.3817 -13.7673 0.1860 -0.8893 -1.3017 32.6733
#
#
#
# Elastic Compliance Matrix: (Units=1/GPa)
#
#
# Indices 1 2 3 4 5 6 
#
# 1 0.018971 -0.005127 -0.000102 0.005447 -0.005621 0.004954
# 2 -0.005127 0.010236 -0.003647 0.002104 0.000659 0.002474
# 3 -0.000102 -0.003647 0.020309 0.002349 0.001325 -0.001574
# 4 0.005447 0.002104 0.002349 0.035848 -0.004270 0.003743
# 5 -0.005621 0.000659 0.001325 -0.004270 0.032385 -0.000686
# 6 0.004954 0.002474 -0.001574 0.003743 -0.000686 0.033609
#
#
# Mechanical properties :
#
#
# Convention : Reuss Voigt Hill
#
# Bulk Modulus (GPa) = 31.48389 46.86449 39.17419
# Shear Modulus (GPa) = 27.82432 31.82984 29.82708
#
# Velocity S-wave (km/s) = 3.75580 4.01706 3.88862
# Velocity P-wave (km/s) = 5.89656 6.72863 6.32629
#
# Compressibility (1/GPa) = 0.03176228
#
# Stress axis : x y z
#
# Youngs Moduli (GPa) = 52.71240 97.69880 49.23920
#
# Poissons Ratio (x) = 0.50092 0.00502
# Poissons Ratio (y) = 0.27027 0.17960
# Poissons Ratio (z) = 0.00537 0.35635
#
# Static dielectric constant tensor:
#      x y z
#    x 3.516570 -0.115050 0.046380 
#    y -0.115050 3.722270 -0.098330 
#    z 0.046380 -0.098330 3.492570 
# 
# 
# High freq. dielectric constant tensor:
#      x y z
#    x 1.751860 -0.006810 0.009500 
#    y -0.006810 1.770830 0.002860 
#    z 0.009500 0.002860 1.761970 
# 
# From -- ./inp_files/418892.got.cif
#   From: 2010.06.25/outbox.cif.g09.slc.cpg/sg2_210_cif.got.tgz:418892.got - 2010.06.27 13:26:56.
