data_PCOD8043311
_publ_section_title
;
Structure prediction by ZEFSAII (Michael W. Deem and Ramdas Pophale) SiO2 
 PCOD8043311
Probable space group: P -1
;
_chemical_formula_sum "Si O2"
_cell_formula_units_Z 16
_cell_length_a 9.077935
_cell_length_b 8.857395
_cell_length_c 12.183928
_cell_angle_alpha 60.604700
_cell_angle_beta 90.878985
_cell_angle_gamma 103.183792
_cell_volume 825.639541
_symmetry_space_group_name_H-M "P -1"
_symmetry_group_IT_number 2
_symmetry_cell_setting 'triclinic'
loop_
_space_group_symop_operation_xyz
x,y,z
-x,-y,-z
loop_
_atom_site_type_symbol
_atom_site_label
_atom_site_fract_x
_atom_site_fract_y
_atom_site_fract_z
Si Si1 0.617265 0.785417 0.373812
Si Si2 0.479365 0.167785 0.873140
Si Si3 0.082486 0.972144 0.623520
Si Si4 0.950187 0.043198 0.820081
Si Si5 0.811139 0.745062 0.088871
Si Si6 0.207519 0.652336 0.267562
Si Si7 0.103961 0.586322 0.723832
Si Si8 0.309556 0.578616 0.525696
O O1 0.582841 0.895965 0.227834
O O2 0.468145 0.731830 0.468919
O O3 0.655349 0.611045 0.381708
O O4 0.751287 0.892660 0.414897
O O5 0.364852 0.255052 0.908732
O O6 0.638502 0.319504 0.811704
O O7 0.500000 0.000000 0.000000
O O8 0.108378 0.775485 0.710607
O O9 0.000000 0.000000 0.500000
O O10 0.976422 0.010355 0.705368
O O11 0.821945 0.151778 0.788408
O O12 0.106522 0.160524 0.833189
O O13 0.893892 0.852220 0.946601
O O14 0.821612 0.539308 0.153011
O O15 0.223117 0.563033 0.415360
O O16 0.072276 0.514527 0.254882
O O17 0.196967 0.623659 0.598279
#
# Coordination Sequence:
#
# PCOD8043311 Si02
#       8
#     2   2   2   2   2   2   2   2
#     4  10  21  37  60  91 117 154 200 251 296 348
#     4  11  19  36  65  93 113 147 203 262 301 335
#     4  12  24  39  60  87 128 166 194 236 297 371
#     4  10  20  38  61  88 119 150 205 249 292 350
#     4  10  20  38  63  88 114 154 201 259 294 339
#     4  10  20  33  62  90 114 152 203 250 295 348
#     4  11  22  36  57  88 122 162 195 239 300 361
#     4  10  19  36  61  85 117 150 201 255 293 337
#
# _framework density 19.378917000000001
#
# number of rings (size 3 to 8) (size 9 to 14) (size 15 to 20)
#    0.000    1.500    3.750    2.625    0.000    1.000 
#    0.000    0.000    0.000    1.500    0.000    0.000 
#    0.000    0.000    0.000    0.000    0.000    0.000 
#
# Total GULP energy -198425.058220 kJ/mol
# GULP energy per Si atom -12401.566139 kJ/mol
# Density = 1.933481 g / cm^3
# Si number density = 19.378917 Si / 1000 Ang^3
#
#
#
# Elastic Constant Matrix: (Units=GPa)
#
#
# Indices 1 2 3 4 5 6 
#
# 1 119.8087 30.9766 29.5653 -3.6592 -1.1635 9.1837
# 2 30.9766 74.3138 25.1090 -9.2965 1.6392 1.9403
# 3 29.5653 25.1090 106.6367 -8.3675 9.4180 5.9846
# 4 -3.6592 -9.2965 -8.3675 27.5149 -4.4290 4.6900
# 5 -1.1635 1.6392 9.4180 -4.4290 33.8471 -3.7798
# 6 9.1837 1.9403 5.9846 4.6900 -3.7798 26.9154
#
#
#
# Elastic Compliance Matrix: (Units=1/GPa)
#
#
# Indices 1 2 3 4 5 6 
#
# 1 0.009904 -0.003432 -0.001842 0.000169 0.000746 -0.002647
# 2 -0.003432 0.016295 -0.002568 0.004350 0.000361 -0.000140
# 3 -0.001842 -0.002568 0.011068 0.002187 -0.003006 -0.002451
# 4 0.000169 0.004350 0.002187 0.040345 0.003642 -0.007376
# 5 0.000746 0.000361 -0.003006 0.003642 0.031330 0.004153
# 6 -0.002647 -0.000140 -0.002451 -0.007376 0.004153 0.040480
#
#
# Mechanical properties :
#
#
# Convention : Reuss Voigt Hill
#
# Bulk Modulus (GPa) = 46.33439 52.45120 49.39280
# Shear Modulus (GPa) = 29.01947 31.99603 30.50775
#
# Velocity S-wave (km/s) = 3.87392 4.06775 3.97202
# Velocity P-wave (km/s) = 6.63108 7.01334 6.82489
#
# Compressibility (1/GPa) = 0.02158224
#
# Stress axis : x y z
#
# Youngs Moduli (GPa) = 100.97108 61.36997 90.35438
#
# Poissons Ratio (x) = 0.21063 0.16641
# Poissons Ratio (y) = 0.34655 0.23202
# Poissons Ratio (z) = 0.18597 0.15759
#
# Static dielectric constant tensor:
#      x y z
#    x 3.806630 -0.053440 0.020590 
#    y -0.053440 3.185700 -0.244950 
#    z 0.020590 -0.244950 3.630100 
# 
# 
# High freq. dielectric constant tensor:
#      x y z
#    x 1.775300 -0.005440 -0.002950 
#    y -0.005440 1.708950 -0.023090 
#    z -0.002950 -0.023090 1.768020 
# 
# From -- ./inp_files/169427.got.cif
#   From: 2010.06.25/outbox.cif.g09.slc.cpg/sg2_85_cif.got.tgz:169427.got - 2010.06.27 13:26:56.
