data_PCOD8043664
_publ_section_title
;
Structure prediction by ZEFSAII (Michael W. Deem and Ramdas Pophale) SiO2 
 PCOD8043664
Probable space group: P -1
;
_chemical_formula_sum "Si O2"
_cell_formula_units_Z 16
_cell_length_a 13.951016
_cell_length_b 9.159728
_cell_length_c 13.625439
_cell_angle_alpha 109.548562
_cell_angle_beta 33.822734
_cell_angle_gamma 111.637334
_cell_volume 899.536255
_symmetry_space_group_name_H-M "P -1"
_symmetry_group_IT_number 2
_symmetry_cell_setting 'triclinic'
loop_
_space_group_symop_operation_xyz
x,y,z
-x,-y,-z
loop_
_atom_site_type_symbol
_atom_site_label
_atom_site_fract_x
_atom_site_fract_y
_atom_site_fract_z
Si Si1 0.879732 0.192554 0.522493
Si Si2 0.170966 0.627143 0.768490
Si Si3 0.002359 0.891866 0.288431
Si Si4 0.185512 0.289658 0.419236
Si Si5 0.719528 0.373853 0.533686
Si Si6 0.488419 0.183302 0.544175
Si Si7 0.305160 0.990666 0.187717
Si Si8 0.123241 0.291360 0.830846
O O1 0.791961 0.295360 0.546556
O O2 0.015851 0.305969 0.501573
O O3 0.965953 0.069554 0.357226
O O4 0.735524 0.093254 0.692623
O O5 0.141333 0.600761 0.670180
O O6 0.362343 0.740011 0.644913
O O7 0.184588 0.465897 0.776368
O O8 0.006728 0.702570 0.964697
O O9 0.861814 0.780426 0.448837
O O10 0.996114 0.821011 0.169478
O O11 0.192010 0.895654 0.175930
O O12 0.312117 0.456209 0.363622
O O13 0.281026 0.170898 0.251663
O O14 0.538970 0.267656 0.625805
O O15 0.293942 0.213287 0.691237
O O16 0.500000 0.000000 0.500000
O O17 0.500000 0.000000 0.000000
#
# Coordination Sequence:
#
# PCOD8043664 Si02
#       8
#     2   2   2   2   2   2   2   2
#     4   9  18  33  58  75 111 142 177 229 280 334
#     4   9  23  36  58  85 115 152 201 231 284 339
#     4   9  17  34  55  79 102 145 183 217 284 325
#     4   9  17  34  58  77 106 144 182 225 273 342
#     4  10  19  37  51  87 106 148 189 222 295 335
#     4  10  22  38  56  82 121 148 195 241 285 335
#     4   9  19  36  52  85 108 137 187 231 268 345
#     4  11  19  41  59  82 118 151 197 243 274 343
#
# _framework density 17.786942
#
# number of rings (size 3 to 8) (size 9 to 14) (size 15 to 20)
#    0.750    1.750    1.250    3.000    0.000    0.500 
#   11.250    1.875    0.000    0.000    0.000    0.000 
#    0.000    0.000    0.000    0.000    0.000    0.000 
#
# Total GULP energy -198228.784815 kJ/mol
# GULP energy per Si atom -12389.299051 kJ/mol
# Density = 1.774646 g / cm^3
# Si number density = 17.786942 Si / 1000 Ang^3
#
#
#
# Elastic Constant Matrix: (Units=GPa)
#
#
# Indices 1 2 3 4 5 6 
#
# 1 92.1140 44.2290 40.1797 9.9680 -0.4631 0.1783
# 2 44.2290 116.8470 32.9390 8.8697 -4.7621 9.3894
# 3 40.1797 32.9390 101.6396 0.0925 -14.1929 0.0749
# 4 9.9680 8.8697 0.0925 16.9288 1.3569 -0.3544
# 5 -0.4631 -4.7621 -14.1929 1.3569 23.8378 5.4657
# 6 0.1783 9.3894 0.0749 -0.3544 5.4657 28.6456
#
#
#
# Elastic Compliance Matrix: (Units=1/GPa)
#
#
# Indices 1 2 3 4 5 6 
#
# 1 0.016033 -0.004329 -0.005473 -0.006790 -0.003881 0.001990
# 2 -0.004329 0.011371 -0.001634 -0.003679 0.002386 -0.004197
# 3 -0.005473 -0.001634 0.013601 0.003370 0.007677 -0.000889
# 4 -0.006790 -0.003679 0.003370 0.065289 -0.003185 0.002655
# 5 -0.003881 0.002386 0.007677 -0.003185 0.049455 -0.010254
# 6 0.001990 -0.004197 -0.000889 0.002655 -0.010254 0.038264
#
#
# Mechanical properties :
#
#
# Convention : Reuss Voigt Hill
#
# Bulk Modulus (GPa) = 55.14378 60.58845 57.86612
# Shear Modulus (GPa) = 22.42857 26.76597 24.59727
#
# Velocity S-wave (km/s) = 3.55485 3.88340 3.72275
# Velocity P-wave (km/s) = 6.92235 7.36513 7.14717
#
# Compressibility (1/GPa) = 0.01813441
#
# Stress axis : x y z
#
# Youngs Moduli (GPa) = 62.37085 87.94124 73.52216
#
# Poissons Ratio (x) = 0.38069 0.40235
# Poissons Ratio (y) = 0.26999 0.12015
# Poissons Ratio (z) = 0.34133 0.14372
#
# Static dielectric constant tensor:
#      x y z
#    x 3.147610 0.120840 0.059730 
#    y 0.120840 3.137680 -0.119840 
#    z 0.059730 -0.119840 2.922660 
# 
# 
# High freq. dielectric constant tensor:
#      x y z
#    x 1.685130 0.004780 0.002490 
#    y 0.004780 1.697250 0.007770 
#    z 0.002490 0.007770 1.661530 
# 
# From -- ./inp_files/310789.got.cif
#   From: 2010.06.25/outbox.cif.g09.slc.cpg/sg2_156_cif.got.tgz:310789.got - 2010.06.27 13:26:56.
