data_PCOD8043861
_publ_section_title
;
Structure prediction by ZEFSAII (Michael W. Deem and Ramdas Pophale) SiO2 
 PCOD8043861
Probable space group: P -1
;
_chemical_formula_sum "Si O2"
_cell_formula_units_Z 16
_cell_length_a 17.928290
_cell_length_b 11.785874
_cell_length_c 16.971704
_cell_angle_alpha 52.654208
_cell_angle_beta 30.424941
_cell_angle_gamma 30.023882
_cell_volume 757.473551
_symmetry_space_group_name_H-M "P -1"
_symmetry_group_IT_number 2
_symmetry_cell_setting 'triclinic'
loop_
_space_group_symop_operation_xyz
x,y,z
-x,-y,-z
loop_
_atom_site_type_symbol
_atom_site_label
_atom_site_fract_x
_atom_site_fract_y
_atom_site_fract_z
Si Si1 0.375321 0.046055 0.918759
Si Si2 0.275717 0.037623 0.467846
Si Si3 0.393367 0.670252 0.449242
Si Si4 0.004851 0.741669 0.961782
Si Si5 0.797405 0.495355 0.834172
Si Si6 0.024870 0.933125 0.093772
Si Si7 0.411691 0.358232 0.520060
Si Si8 0.976113 0.497914 0.827632
O O1 0.625651 0.921977 0.698682
O O2 0.507775 0.788469 0.936714
O O3 0.265783 0.226883 0.016391
O O4 0.113383 0.230052 0.022469
O O5 0.038871 0.297275 0.630678
O O6 0.167019 0.982933 0.542578
O O7 0.555745 0.743861 0.380437
O O8 0.500000 0.500000 0.500000
O O9 0.656929 0.532114 0.226114
O O10 0.273379 0.632983 0.524987
O O11 0.893759 0.996092 0.958718
O O12 0.904612 0.734746 0.132612
O O13 0.870981 0.538811 0.820884
O O14 0.746082 0.378116 0.964813
O O15 0.729272 0.103137 0.309282
O O16 0.000000 0.000000 0.000000
O O17 0.221066 0.409507 0.621288
#
# Coordination Sequence:
#
# PCOD8043861 Si02
#       8
#     2   2   2   2   2   2   2   2
#     4  12  23  39  62  92 124 163 205 248 300 369
#     4  10  19  37  60  87 122 159 200 249 305 358
#     4   9  17  34  59  93 114 149 207 261 288 344
#     4  11  21  37  68  90 114 162 214 249 292 362
#     4  11  26  39  58  90 132 162 194 249 321 361
#     4  10  21  41  62  91 126 162 196 256 311 360
#     4   9  20  34  62  95 115 151 212 254 294 348
#     4  12  22  40  63  92 123 160 206 256 299 358
#
# _framework density 21.122848000000001
#
# number of rings (size 3 to 8) (size 9 to 14) (size 15 to 20)
#    0.000    1.500    3.750    3.375    0.000    3.500 
#    0.000    0.000    0.000    1.500    0.000    0.000 
#    0.000    0.000    0.000    0.000    0.000    0.000 
#
# Total GULP energy -198223.130343 kJ/mol
# GULP energy per Si atom -12388.945646 kJ/mol
# Density = 2.107477 g / cm^3
# Si number density = 21.122848 Si / 1000 Ang^3
#
#
#
# Elastic Constant Matrix: (Units=GPa)
#
#
# Indices 1 2 3 4 5 6 
#
# 1 72.0630 31.2744 23.7631 0.0133 -2.1704 18.8518
# 2 31.2744 117.2758 35.0698 -10.3167 4.2491 11.1615
# 3 23.7631 35.0698 68.2624 -17.7932 -4.9629 9.1372
# 4 0.0133 -10.3167 -17.7932 26.7901 3.9509 1.2928
# 5 -2.1704 4.2491 -4.9629 3.9509 22.2672 -1.4462
# 6 18.8518 11.1615 9.1372 1.2928 -1.4462 29.7629
#
#
#
# Elastic Compliance Matrix: (Units=1/GPa)
#
#
# Indices 1 2 3 4 5 6 
#
# 1 0.019364 -0.003273 -0.004806 -0.004248 0.001590 -0.009300
# 2 -0.003273 0.011060 -0.004115 0.002140 -0.003797 -0.001089
# 3 -0.004806 -0.004115 0.022396 0.013007 0.002824 -0.002716
# 4 -0.004248 0.002140 0.013007 0.048003 -0.006734 -0.004517
# 5 0.001590 -0.003797 0.002824 -0.006734 0.047753 0.002162
# 6 -0.009300 -0.001089 -0.002716 -0.004517 0.002162 0.041033
#
#
# Mechanical properties :
#
#
# Convention : Reuss Voigt Hill
#
# Bulk Modulus (GPa) = 35.17274 48.64621 41.90947
# Shear Modulus (GPa) = 22.37400 26.93030 24.65215
#
# Velocity S-wave (km/s) = 3.25812 3.57450 3.41997
# Velocity P-wave (km/s) = 5.55351 6.33374 5.95641
#
# Compressibility (1/GPa) = 0.02843111
#
# Stress axis : x y z
#
# Youngs Moduli (GPa) = 51.64336 90.41861 44.65126
#
# Poissons Ratio (x) = 0.29591 0.21460
# Poissons Ratio (y) = 0.16901 0.18375
# Poissons Ratio (z) = 0.24820 0.37209
#
# Static dielectric constant tensor:
#      x y z
#    x 3.963840 0.767070 -0.064410 
#    y 0.767070 3.527030 0.116160 
#    z -0.064410 0.116160 3.283650 
# 
# 
# High freq. dielectric constant tensor:
#      x y z
#    x 1.815520 0.036640 0.015980 
#    y 0.036640 1.823360 -0.030060 
#    z 0.015980 -0.030060 1.814730 
# 
# From -- ./inp_files/254515.got.cif
#   From: 2010.06.25/outbox.cif.g09.slc.cpg/sg2_128_cif.got.tgz:254515.got - 2010.06.27 13:26:56.
