data_PCOD8043803
_publ_section_title
;
Structure prediction by ZEFSAII (Michael W. Deem and Ramdas Pophale) SiO2 
 PCOD8043803
Probable space group: P -1
;
_chemical_formula_sum "Si O2"
_cell_formula_units_Z 14
_cell_length_a 9.483819
_cell_length_b 6.224147
_cell_length_c 15.505164
_cell_angle_alpha 113.946898
_cell_angle_beta 54.430926
_cell_angle_gamma 94.020734
_cell_volume 663.218141
_symmetry_space_group_name_H-M "P -1"
_symmetry_group_IT_number 2
_symmetry_cell_setting 'triclinic'
loop_
_space_group_symop_operation_xyz
x,y,z
-x,-y,-z
loop_
_atom_site_type_symbol
_atom_site_label
_atom_site_fract_x
_atom_site_fract_y
_atom_site_fract_z
Si Si1 0.960994 0.136181 0.945552
Si Si2 0.727508 0.597475 0.153711
Si Si3 0.695460 0.197980 0.514663
Si Si4 0.184150 0.400831 0.372847
Si Si5 0.449175 0.042104 0.328377
Si Si6 0.639238 0.462214 0.350600
Si Si7 0.968491 0.230637 0.290817
O O1 0.111065 0.275527 0.894275
O O2 0.772455 0.335330 0.048433
O O3 0.949910 0.949983 0.843234
O O4 0.000000 0.000000 0.000000
O O5 0.704404 0.562390 0.256785
O O6 0.548684 0.779488 0.212564
O O7 0.706586 0.390926 0.619663
O O8 0.541761 0.341205 0.525272
O O9 0.879652 0.105632 0.381373
O O10 0.636619 0.979232 0.549095
O O11 0.292854 0.154475 0.336774
O O12 0.000000 0.500000 0.500000
O O13 0.133705 0.340292 0.283306
O O14 0.598398 0.198445 0.309276
O O15 0.805465 0.445734 0.353273
#
# Coordination Sequence:
#
# PCOD8043803 Si02
#       7
#     2   2   2   2   2   2   2
#     4  11  21  38  58  87 117 147 191 245 288 333
#     4  10  20  37  60  84 113 154 190 235 296 328
#     4   9  21  37  58  84 119 155 188 226 292 345
#     4   9  21  39  55  82 122 155 188 229 285 346
#     4  10  19  39  60  81 117 161 185 232 283 347
#     4  10  19  37  59  87 116 148 189 240 288 338
#     4  11  20  37  56  89 117 149 191 241 281 339
#
# _framework density 21.109193999999999
#
# number of rings (size 3 to 8) (size 9 to 14) (size 15 to 20)
#    0.000    2.000    2.857    0.429    0.000    2.857 
#   10.286    0.714    0.000   12.000    0.000    0.000 
#    0.000    0.000    0.000    0.000    0.000    0.000 
#
# Total GULP energy -173469.161150 kJ/mol
# GULP energy per Si atom -12390.654368 kJ/mol
# Density = 2.106115 g / cm^3
# Si number density = 21.109194 Si / 1000 Ang^3
#
#
#
# Elastic Constant Matrix: (Units=GPa)
#
#
# Indices 1 2 3 4 5 6 
#
# 1 116.1641 34.9433 14.4680 17.9722 9.6158 -24.8640
# 2 34.9433 93.9734 22.7334 0.3198 -1.8040 -10.2588
# 3 14.4680 22.7334 92.1313 20.5623 4.6901 -11.7791
# 4 17.9722 0.3198 20.5623 24.6121 2.5280 -7.9438
# 5 9.6158 -1.8040 4.6901 2.5280 32.9963 7.4567
# 6 -24.8640 -10.2588 -11.7791 -7.9438 7.4567 22.8772
#
#
#
# Elastic Compliance Matrix: (Units=1/GPa)
#
#
# Indices 1 2 3 4 5 6 
#
# 1 0.014716 -0.004595 0.002814 -0.007248 -0.007872 0.015432
# 2 -0.004595 0.013413 -0.004087 0.006559 0.002031 0.000532
# 3 0.002814 -0.004087 0.015114 -0.012364 -0.003573 0.005879
# 4 -0.007248 0.006559 -0.012364 0.059778 -0.002686 0.010330
# 5 -0.007872 0.002031 -0.003573 -0.002686 0.038624 -0.023007
# 6 0.015432 0.000532 0.005879 0.010330 -0.023007 0.074835
#
#
# Mechanical properties :
#
#
# Convention : Reuss Voigt Hill
#
# Bulk Modulus (GPa) = 31.73861 49.61760 40.67811
# Shear Modulus (GPa) = 20.94517 31.43873 26.19195
#
# Velocity S-wave (km/s) = 3.15339 3.86338 3.52630
# Velocity P-wave (km/s) = 5.32227 6.59221 5.99098
#
# Compressibility (1/GPa) = 0.03150736
#
# Stress axis : x y z
#
# Youngs Moduli (GPa) = 67.95248 74.55246 66.16506
#
# Poissons Ratio (x) = 0.34255 -0.18620
# Poissons Ratio (y) = 0.31222 0.27044
# Poissons Ratio (z) = -0.19123 0.30472
#
# Static dielectric constant tensor:
#      x y z
#    x 4.438580 0.092070 0.009000 
#    y 0.092070 4.101490 0.227590 
#    z 0.009000 0.227590 4.161100 
# 
# 
# High freq. dielectric constant tensor:
#      x y z
#    x 1.804940 -0.005720 -0.016270 
#    y -0.005720 1.834600 0.000890 
#    z -0.016270 0.000890 1.822110 
# 
# From -- ./inp_files/39919.got.cif
#   From: 2010.06.25/outbox.cif.g09.slc.cpg/sg2_20_cif.got.tgz:39919.got - 2010.06.27 13:26:56.
