data_PCOD8043681
_publ_section_title
;
Structure prediction by ZEFSAII (Michael W. Deem and Ramdas Pophale) SiO2 
 PCOD8043681
Probable space group: P -1
;
_chemical_formula_sum "Si O2"
_cell_formula_units_Z 14
_cell_length_a 7.067736
_cell_length_b 14.756919
_cell_length_c 11.479332
_cell_angle_alpha 30.494521
_cell_angle_beta 87.063007
_cell_angle_gamma 79.111059
_cell_volume 581.486240
_symmetry_space_group_name_H-M "P -1"
_symmetry_group_IT_number 2
_symmetry_cell_setting 'triclinic'
loop_
_space_group_symop_operation_xyz
x,y,z
-x,-y,-z
loop_
_atom_site_type_symbol
_atom_site_label
_atom_site_fract_x
_atom_site_fract_y
_atom_site_fract_z
Si Si1 0.774775 0.830691 0.374150
Si Si2 0.237693 0.977593 0.394057
Si Si3 0.556774 0.735315 0.289800
Si Si4 0.231541 0.901186 0.732246
Si Si5 0.220801 0.740190 0.448350
Si Si6 0.804857 0.439095 0.761050
Si Si7 0.748496 0.675800 0.112875
O O1 0.643000 0.879049 0.205808
O O2 0.795056 0.616959 0.648192
O O3 0.992019 0.848808 0.317388
O O4 0.681370 0.965174 0.335603
O O5 0.325997 0.894134 0.608562
O O6 0.318511 0.827096 0.455288
O O7 0.002577 0.018023 0.359061
O O8 0.297119 0.169281 0.159295
O O9 0.327947 0.767636 0.294270
O O10 0.677147 0.519669 0.560229
O O11 0.588117 0.757274 0.128474
O O12 0.294019 0.697313 0.014830
O O13 0.262581 0.521048 0.718602
O O14 0.031525 0.340882 0.825270
#
# Coordination Sequence:
#
# PCOD8043681 Si02
#       7
#     2   2   2   2   2   2   2
#     4   8  19  35  57  83 109 143 181 225 276 317
#     4   9  20  34  58  83 108 144 191 224 264 334
#     4  10  20  37  56  83 116 138 184 226 268 337
#     4   9  16  37  58  80 109 145 186 226 272 319
#     4  10  20  37  54  83 112 147 180 220 280 320
#     4   8  18  33  56  81 109 142 182 221 271 324
#     4  10  19  37  55  81 113 147 178 226 276 318
#
# _framework density 24.076238
#
# number of rings (size 3 to 8) (size 9 to 14) (size 15 to 20)
#    0.857    2.000    0.000    0.857    0.000    1.714 
#    5.143    9.286    0.000    0.000    0.000    0.000 
#    0.000    0.000    0.000    0.000    0.000    0.000 
#
# Total GULP energy -173537.771860 kJ/mol
# GULP energy per Si atom -12395.555133 kJ/mol
# Density = 2.402144 g / cm^3
# Si number density = 24.076238 Si / 1000 Ang^3
#
#
#
# Elastic Constant Matrix: (Units=GPa)
#
#
# Indices 1 2 3 4 5 6 
#
# 1 25.3545 10.7081 6.0393 1.8573 0.4643 0.2306
# 2 10.7081 91.9339 16.6219 1.1499 -15.9514 8.0509
# 3 6.0393 16.6219 79.4802 6.0602 -27.2753 12.4107
# 4 1.8573 1.1499 6.0602 38.6697 8.0866 -7.7777
# 5 0.4643 -15.9514 -27.2753 8.0866 24.9906 -1.7104
# 6 0.2306 8.0509 12.4107 -7.7777 -1.7104 28.4194
#
#
#
# Elastic Compliance Matrix: (Units=1/GPa)
#
#
# Indices 1 2 3 4 5 6 
#
# 1 0.044163 -0.006722 -0.008032 0.003426 -0.014636 0.005110
# 2 -0.006722 0.014081 0.003900 -0.004984 0.014563 -0.006125
# 3 -0.008032 0.003900 0.029219 -0.015519 0.038474 -0.015731
# 4 0.003426 -0.004984 -0.015519 0.038207 -0.031401 0.016728
# 5 -0.014636 0.014563 0.038474 -0.031401 0.100135 -0.023376
# 6 0.005110 -0.006125 -0.015731 0.016728 -0.023376 0.046922
#
#
# Mechanical properties :
#
#
# Convention : Reuss Voigt Hill
#
# Bulk Modulus (GPa) = 15.20758 29.27861 22.24309
# Shear Modulus (GPa) = 15.80515 29.30924 22.55719
#
# Velocity S-wave (km/s) = 2.56493 3.49284 3.06421
# Velocity P-wave (km/s) = 3.88613 5.33421 4.66668
#
# Compressibility (1/GPa) = 0.06575668
#
# Stress axis : x y z
#
# Youngs Moduli (GPa) = 22.64332 71.01945 34.22376
#
# Poissons Ratio (x) = 0.47736 0.27487
# Poissons Ratio (y) = 0.15220 -0.13347
# Poissons Ratio (z) = 0.18186 -0.27697
#
# Static dielectric constant tensor:
#      x y z
#    x 4.259940 -0.000310 -0.164830 
#    y -0.000310 4.227940 -0.147290 
#    z -0.164830 -0.147290 4.179310 
# 
# 
# High freq. dielectric constant tensor:
#      x y z
#    x 1.961250 -0.005680 -0.014100 
#    y -0.005680 1.936340 -0.018180 
#    z -0.014100 -0.018180 1.944310 
# 
# From -- ./inp_files/398063.got.cif
#   From: 2010.06.25/outbox.cif.g09.slc.cpg/sg2_200_cif.got.tgz:398063.got - 2010.06.27 13:26:56.
