data_PCOD8043030
_publ_section_title
;
Structure prediction by ZEFSAII (Michael W. Deem and Ramdas Pophale) SiO2 
 PCOD8043030
Probable space group: P -1
;
_chemical_formula_sum "Si O2"
_cell_formula_units_Z 16
_cell_length_a 14.023267
_cell_length_b 20.098496
_cell_length_c 22.881991
_cell_angle_alpha 158.971429
_cell_angle_beta 159.988098
_cell_angle_gamma 31.731776
_cell_volume 773.256447
_symmetry_space_group_name_H-M "P -1"
_symmetry_group_IT_number 2
_symmetry_cell_setting 'triclinic'
loop_
_space_group_symop_operation_xyz
x,y,z
-x,-y,-z
loop_
_atom_site_type_symbol
_atom_site_label
_atom_site_fract_x
_atom_site_fract_y
_atom_site_fract_z
Si Si1 0.095511 0.916394 0.066916
Si Si2 0.581571 0.362497 0.147663
Si Si3 0.730998 0.374779 0.522080
Si Si4 0.420328 0.991735 0.086107
Si Si5 0.117956 0.297504 0.338409
Si Si6 0.394696 0.200838 0.684392
Si Si7 0.217577 0.859412 0.742761
Si Si8 0.352923 0.473575 0.986689
O O1 0.346125 0.907805 0.250883
O O2 0.218786 0.102910 0.251992
O O3 0.801587 0.920121 0.932567
O O4 0.016529 0.727898 0.825194
O O5 0.417357 0.151342 0.902217
O O6 0.620471 0.519770 0.351653
O O7 0.886420 0.324509 0.274464
O O8 0.429292 0.440030 0.069699
O O9 0.500000 0.500000 0.500000
O O10 0.785930 0.340510 0.456414
O O11 0.024401 0.493646 0.815135
O O12 0.648862 0.168978 0.337314
O O13 0.240334 0.849847 0.817645
O O14 0.390878 0.299850 0.825987
O O15 0.076951 0.070865 0.385147
O O16 0.447949 0.338255 0.771356
O O17 0.500000 0.000000 0.000000
#
# Coordination Sequence:
#
# PCOD8043030 Si02
#       8
#     2   2   2   2   2   2   2   2
#     4  10  19  36  56  91 116 152 196 241 291 343
#     4  10  20  36  56  84 119 155 197 239 289 357
#     4  10  21  41  61  84 118 154 195 247 292 349
#     4  10  22  36  61  84 115 167 191 231 302 347
#     4   9  20  34  56  82 124 153 186 245 294 340
#     4  10  20  34  60  87 116 150 197 241 294 342
#     4   9  21  40  57  85 116 157 191 234 298 351
#     4  10  21  35  58  90 114 152 198 244 290 343
#
# _framework density 20.69171
#
# number of rings (size 3 to 8) (size 9 to 14) (size 15 to 20)
#    0.000    2.250    1.250    0.750    5.250    3.000 
#    4.500    0.000    0.000    1.500    0.000    0.000 
#    0.000    0.000    0.000    0.000    0.000    0.000 
#
# Total GULP energy -198229.447300 kJ/mol
# GULP energy per Si atom -12389.340456 kJ/mol
# Density = 2.064462 g / cm^3
# Si number density = 20.691710 Si / 1000 Ang^3
#
#
#
# Elastic Constant Matrix: (Units=GPa)
#
#
# Indices 1 2 3 4 5 6 
#
# 1 73.0970 24.6009 34.2689 1.9058 -11.7473 5.5477
# 2 24.6009 84.2354 41.5577 -10.0123 -5.3175 9.6040
# 3 34.2689 41.5577 102.1694 -8.6227 0.4720 5.3017
# 4 1.9058 -10.0123 -8.6227 30.6865 -1.2832 -1.6823
# 5 -11.7473 -5.3175 0.4720 -1.2832 30.5904 -0.9250
# 6 5.5477 9.6040 5.3017 -1.6823 -0.9250 27.6464
#
#
#
# Elastic Compliance Matrix: (Units=1/GPa)
#
#
# Indices 1 2 3 4 5 6 
#
# 1 0.018278 -0.002485 -0.005334 -0.003271 0.006479 -0.001764
# 2 -0.002485 0.016202 -0.005243 0.003841 0.001989 -0.003824
# 3 -0.005334 -0.005243 0.013914 0.002417 -0.003065 0.000268
# 4 -0.003271 0.003841 0.002417 0.034814 0.000865 0.001006
# 5 0.006479 0.001989 -0.003065 0.000865 0.035602 -0.000159
# 6 -0.001764 -0.003824 0.000268 0.001006 -0.000159 0.037858
#
#
# Mechanical properties :
#
#
# Convention : Reuss Voigt Hill
#
# Bulk Modulus (GPa) = 44.90648 51.15078 48.02863
# Shear Modulus (GPa) = 26.28580 28.38960 27.33770
#
# Velocity S-wave (km/s) = 3.56807 3.70811 3.63876
# Velocity P-wave (km/s) = 6.22291 6.56563 6.39657
#
# Compressibility (1/GPa) = 0.02226850
#
# Stress axis : x y z
#
# Youngs Moduli (GPa) = 54.71083 61.72037 71.87103
#
# Poissons Ratio (x) = 0.15338 0.38338
# Poissons Ratio (y) = 0.13596 0.37684
# Poissons Ratio (z) = 0.29184 0.32362
#
# Static dielectric constant tensor:
#      x y z
#    x 3.884030 0.073460 -0.201860 
#    y 0.073460 3.661540 0.037350 
#    z -0.201860 0.037350 3.883460 
# 
# 
# High freq. dielectric constant tensor:
#      x y z
#    x 1.805810 0.005150 -0.011190 
#    y 0.005150 1.795040 0.000800 
#    z -0.011190 0.000800 1.800550 
# 
# From -- ./inp_files/397916.got.cif
#   From: 2010.06.25/outbox.cif.g09.slc.cpg/sg2_199_cif.got.tgz:397916.got - 2010.06.27 13:26:56.
