data_PCOD8043904
_publ_section_title
;
Structure prediction by ZEFSAII (Michael W. Deem and Ramdas Pophale) SiO2 
 PCOD8043904
Probable space group: P -1
;
_chemical_formula_sum "Si O2"
_cell_formula_units_Z 14
_cell_length_a 20.193231
_cell_length_b 7.407518
_cell_length_c 13.011642
_cell_angle_alpha 64.172746
_cell_angle_beta 20.100273
_cell_angle_gamma 65.550972
_cell_volume 601.990814
_symmetry_space_group_name_H-M "P -1"
_symmetry_group_IT_number 2
_symmetry_cell_setting 'triclinic'
loop_
_space_group_symop_operation_xyz
x,y,z
-x,-y,-z
loop_
_atom_site_type_symbol
_atom_site_label
_atom_site_fract_x
_atom_site_fract_y
_atom_site_fract_z
Si Si1 0.945433 0.237715 0.709922
Si Si2 0.701858 0.420589 0.436143
Si Si3 0.688319 0.501840 0.907708
Si Si4 0.466902 0.260498 0.097593
Si Si5 0.846797 0.231394 0.078397
Si Si6 0.215299 0.915278 0.448815
Si Si7 0.764481 0.806325 0.360225
O O1 0.771869 0.278863 0.870366
O O2 0.134135 0.352168 0.369323
O O3 0.859340 0.319359 0.923886
O O4 0.006935 0.002330 0.691952
O O5 0.730248 0.387959 0.281259
O O6 0.815474 0.239010 0.373922
O O7 0.797239 0.632055 0.272379
O O8 0.476917 0.419200 0.793367
O O9 0.606428 0.521699 0.902850
O O10 0.429678 0.246961 0.278126
O O11 0.336044 0.101670 0.267694
O O12 0.685251 0.202098 0.762416
O O13 0.736917 0.018845 0.291888
O O14 0.064643 0.192301 0.807206
#
# Coordination Sequence:
#
# PCOD8043904 Si02
#       7
#     2   2   2   2   2   2   2
#     4  10  19  37  61  83 122 156 191 236 293 343
#     4  11  22  36  62  91 117 146 201 241 286 342
#     4   9  20  36  59  88 115 156 196 237 284 349
#     4   9  16  33  58  87 113 145 194 235 287 337
#     4  11  21  37  58  89 117 155 189 237 296 348
#     4   9  16  31  58  86 109 147 188 241 277 338
#     4  11  21  36  60  90 120 150 188 248 293 337
#
# _framework density 23.256170000000001
#
# number of rings (size 3 to 8) (size 9 to 14) (size 15 to 20)
#    0.000    2.000    4.286    2.143    0.000    2.857 
#    0.000    0.714    0.000    5.143    0.000    0.000 
#    0.000    0.000    0.000    0.000    0.000    0.000 
#
# Total GULP energy -173566.511329 kJ/mol
# GULP energy per Si atom -12397.607952 kJ/mol
# Density = 2.320324 g / cm^3
# Si number density = 23.256170 Si / 1000 Ang^3
#
#
#
# Elastic Constant Matrix: (Units=GPa)
#
#
# Indices 1 2 3 4 5 6 
#
# 1 87.4638 51.7219 36.0098 22.3141 3.1574 -9.8197
# 2 51.7219 124.7093 32.0764 18.0734 -1.4113 -4.6069
# 3 36.0098 32.0764 88.8965 12.5114 20.3641 -4.0166
# 4 22.3141 18.0734 12.5114 46.3452 3.3554 -7.5184
# 5 3.1574 -1.4113 20.3641 3.3554 29.4079 13.8527
# 6 -9.8197 -4.6069 -4.0166 -7.5184 13.8527 28.9353
#
#
#
# Elastic Compliance Matrix: (Units=1/GPa)
#
#
# Indices 1 2 3 4 5 6 
#
# 1 0.018199 -0.005577 -0.004469 -0.004788 -0.000250 0.003544
# 2 -0.005577 0.011249 -0.002796 -0.001828 0.004826 -0.003275
# 3 -0.004469 -0.002796 0.018064 0.000944 -0.016325 0.008606
# 4 -0.004788 -0.001828 0.000944 0.026241 -0.007220 0.008490
# 5 -0.000250 0.004826 -0.016325 -0.007220 0.062003 -0.033143
# 6 0.003544 -0.003275 0.008606 0.008490 -0.033143 0.054509
#
#
# Mechanical properties :
#
#
# Convention : Reuss Voigt Hill
#
# Bulk Modulus (GPa) = 45.81013 60.07621 52.94317
# Shear Modulus (GPa) = 22.39894 33.02177 27.71036
#
# Velocity S-wave (km/s) = 3.10682 3.77226 3.45560
# Velocity P-wave (km/s) = 5.71057 6.69789 6.22384
#
# Compressibility (1/GPa) = 0.02182923
#
# Stress axis : x y z
#
# Youngs Moduli (GPa) = 54.94709 88.89461 55.35899
#
# Poissons Ratio (x) = 0.49573 0.24738
# Poissons Ratio (y) = 0.30642 0.15481
# Poissons Ratio (z) = 0.24554 0.24859
#
# Static dielectric constant tensor:
#      x y z
#    x 4.042390 -0.265760 0.060070 
#    y -0.265760 4.625520 0.083110 
#    z 0.060070 0.083110 4.430040 
# 
# 
# High freq. dielectric constant tensor:
#      x y z
#    x 1.883860 0.001210 0.018560 
#    y 0.001210 1.923930 -0.004520 
#    z 0.018560 -0.004520 1.934410 
# 
# From -- ./inp_files/542387.got.cif
#   From: 2010.06.25/outbox.cif.g09.slc.cpg/sg2_272_cif.got.tgz:542387.got - 2010.06.27 13:26:56.
