data_PCOD8043102
_publ_section_title
;
Structure prediction by ZEFSAII (Michael W. Deem and Ramdas Pophale) SiO2 
 PCOD8043102
Probable space group: P -1
;
_chemical_formula_sum "Si O2"
_cell_formula_units_Z 14
_cell_length_a 19.264913
_cell_length_b 20.639683
_cell_length_c 11.146708
_cell_angle_alpha 148.988471
_cell_angle_beta 27.954562
_cell_angle_gamma 158.621264
_cell_volume 741.758894
_symmetry_space_group_name_H-M "P -1"
_symmetry_group_IT_number 2
_symmetry_cell_setting 'triclinic'
loop_
_space_group_symop_operation_xyz
x,y,z
-x,-y,-z
loop_
_atom_site_type_symbol
_atom_site_label
_atom_site_fract_x
_atom_site_fract_y
_atom_site_fract_z
Si Si1 0.060052 0.596904 0.688089
Si Si2 0.207267 0.208036 0.132591
Si Si3 0.494958 0.801749 0.436360
Si Si4 0.607489 0.369505 0.105108
Si Si5 0.584920 0.009408 0.257670
Si Si6 0.772154 0.826399 0.215034
Si Si7 0.505455 0.536450 0.354808
O O1 0.240532 0.621174 0.517637
O O2 0.162015 0.799170 0.831928
O O3 0.000000 0.500000 0.500000
O O4 0.853182 0.476888 0.897748
O O5 0.300255 0.382645 0.340755
O O6 0.376121 0.195656 0.860387
O O7 0.173913 0.223525 0.066503
O O8 0.983628 0.032550 0.256702
O O9 0.540025 0.978836 0.630736
O O10 0.578598 0.805839 0.445360
O O11 0.572134 0.454900 0.196654
O O12 0.553669 0.384814 0.343872
O O13 0.449428 0.157386 0.981641
O O14 0.500000 0.000000 0.500000
O O15 0.704663 0.696787 0.221619
#
# Coordination Sequence:
#
# PCOD8043102 Si02
#       7
#     2   2   2   2   2   2   2
#     4  10  19  37  59  88 116 149 193 243 294 347
#     4   9  18  40  62  90 112 150 202 243 297 335
#     4   8  19  36  59  89 112 141 203 245 283 343
#     4  11  24  39  56  93 118 164 189 239 306 345
#     4  10  19  36  58  83 121 144 194 242 284 351
#     4   9  20  40  62  90 112 157 199 248 291 336
#     4  11  23  39  60  84 129 151 203 238 286 369
#
# _framework density 18.874058000000002
#
# number of rings (size 3 to 8) (size 9 to 14) (size 15 to 20)
#    1.714    0.571    1.429    2.143    0.000    3.429 
#    5.143    4.286    0.000    0.000    0.000    0.000 
#    0.000    0.000    0.000    0.000    0.000    0.000 
#
# Total GULP energy -173434.901395 kJ/mol
# GULP energy per Si atom -12388.207243 kJ/mol
# Density = 1.883110 g / cm^3
# Si number density = 18.874058 Si / 1000 Ang^3
#
#
#
# Elastic Constant Matrix: (Units=GPa)
#
#
# Indices 1 2 3 4 5 6 
#
# 1 52.0878 41.5334 33.9470 0.4678 6.3859 -4.7311
# 2 41.5334 151.8647 52.2566 6.6040 16.6296 7.9591
# 3 33.9470 52.2566 89.5113 17.2649 11.6175 6.6795
# 4 0.4678 6.6040 17.2649 25.7255 4.5128 -8.8137
# 5 6.3859 16.6296 11.6175 4.5128 29.4716 -3.4720
# 6 -4.7311 7.9591 6.6795 -8.8137 -3.4720 31.2161
#
#
#
# Elastic Compliance Matrix: (Units=1/GPa)
#
#
# Indices 1 2 3 4 5 6 
#
# 1 0.033547 -0.006107 -0.012993 0.014179 0.000719 0.013505
# 2 -0.006107 0.009693 -0.002337 -0.001472 -0.003435 -0.003694
# 3 -0.012993 -0.002337 0.022067 -0.017287 -0.003253 -0.011338
# 4 0.014179 -0.001472 -0.017287 0.058637 -0.001746 0.022585
# 5 0.000719 -0.003435 -0.003253 -0.001746 0.037899 0.005403
# 6 0.013505 -0.003694 -0.011338 0.022585 0.005403 0.044427
#
#
# Mechanical properties :
#
#
# Convention : Reuss Voigt Hill
#
# Bulk Modulus (GPa) = 44.58026 60.99309 52.78667
# Shear Modulus (GPa) = 19.48386 28.33110 23.90748
#
# Velocity S-wave (km/s) = 3.21644 3.87855 3.56291
# Velocity P-wave (km/s) = 6.12088 7.24179 6.70480
#
# Compressibility (1/GPa) = 0.02243145
#
# Stress axis : x y z
#
# Youngs Moduli (GPa) = 29.80892 103.16748 45.31754
#
# Poissons Ratio (x) = 0.63002 0.58882
# Poissons Ratio (y) = 0.18204 0.10593
# Poissons Ratio (z) = 0.38732 0.24115
#
# Static dielectric constant tensor:
#      x y z
#    x 3.306660 0.087870 -0.022390 
#    y 0.087870 3.539130 -0.022390 
#    z -0.022390 -0.022390 3.284110 
# 
# 
# High freq. dielectric constant tensor:
#      x y z
#    x 1.719800 0.006010 -0.002660 
#    y 0.006010 1.739050 0.001330 
#    z -0.002660 0.001330 1.703240 
# 
# From -- ./inp_files/472672.got.cif
#   From: 2010.06.25/outbox.cif.g09.slc.cpg/sg2_237_cif.got.tgz:472672.got - 2010.06.27 13:26:56.
