data_PCOD8043537
_publ_section_title
;
Structure prediction by ZEFSAII (Michael W. Deem and Ramdas Pophale) SiO2 
 PCOD8043537
Probable space group: P -1
;
_chemical_formula_sum "Si O2"
_cell_formula_units_Z 16
_cell_length_a 23.965790
_cell_length_b 8.558420
_cell_length_c 20.282032
_cell_angle_alpha 145.579550
_cell_angle_beta 157.951984
_cell_angle_gamma 31.410410
_cell_volume 801.565762
_symmetry_space_group_name_H-M "P -1"
_symmetry_group_IT_number 2
_symmetry_cell_setting 'triclinic'
loop_
_space_group_symop_operation_xyz
x,y,z
-x,-y,-z
loop_
_atom_site_type_symbol
_atom_site_label
_atom_site_fract_x
_atom_site_fract_y
_atom_site_fract_z
Si Si1 0.055314 0.707678 0.773235
Si Si2 0.489418 0.188510 0.987885
Si Si3 0.601851 0.826404 0.860174
Si Si4 0.640686 0.165188 0.896236
Si Si5 0.353939 0.125022 0.331897
Si Si6 0.852070 0.741799 0.382961
Si Si7 0.252371 0.824329 0.474036
Si Si8 0.140917 0.808558 0.039240
O O1 0.097693 0.356854 0.672770
O O2 0.189425 0.814658 0.927581
O O3 0.062711 0.688586 0.853157
O O4 0.876285 0.947722 0.638909
O O5 0.312876 0.301248 0.798998
O O6 0.616827 0.986036 0.001286
O O7 0.506324 0.497580 0.134391
O O8 0.500000 0.000000 0.000000
O O9 0.421316 0.853450 0.657708
O O10 0.719114 0.470970 0.868055
O O11 0.665529 0.965287 0.919026
O O12 0.583175 0.016387 0.720739
O O13 0.273799 0.487475 0.366386
O O14 0.500000 0.000000 0.500000
O O15 0.211042 0.035749 0.166623
O O16 0.000000 0.500000 0.500000
O O17 0.814061 0.077252 0.488078
O O18 0.000000 0.000000 0.000000
#
# Coordination Sequence:
#
# PCOD8043537 Si02
#       8
#     2   2   2   2   2   2   2   2
#     4   9  20  40  61  86 113 156 198 236 299 354
#     4  10  19  36  64  87 116 154 195 241 290 348
#     4  11  22  39  60  92 118 152 199 246 296 344
#     4  10  23  36  62  90 121 151 197 247 293 350
#     4  11  23  41  57  86 119 157 204 236 298 359
#     4   8  16  33  57  86 108 143 187 232 283 344
#     4  10  21  35  65  84 117 157 192 239 296 353
#     4  11  25  40  60  83 119 156 201 248 290 347
#
# _framework density 19.960932
#
# number of rings (size 3 to 8) (size 9 to 14) (size 15 to 20)
#    0.000    2.000    1.250    2.625    5.250    2.500 
#    0.000    0.000    0.000    0.750    0.000    0.000 
#    0.000    0.000    0.000    0.000    0.000    0.000 
#
# Total GULP energy -198219.498003 kJ/mol
# GULP energy per Si atom -12388.718625 kJ/mol
# Density = 1.991550 g / cm^3
# Si number density = 19.960932 Si / 1000 Ang^3
#
#
#
# Elastic Constant Matrix: (Units=GPa)
#
#
# Indices 1 2 3 4 5 6 
#
# 1 125.5995 31.8890 32.8873 7.4427 -17.1794 -12.7030
# 2 31.8890 105.4222 34.8071 11.3699 -4.9237 -18.0742
# 3 32.8873 34.8071 63.6247 -1.6829 -21.6277 -9.3510
# 4 7.4427 11.3699 -1.6829 41.8450 -4.0751 -5.5444
# 5 -17.1794 -4.9237 -21.6277 -4.0751 28.3253 6.9736
# 6 -12.7030 -18.0742 -9.3510 -5.5444 6.9736 35.3541
#
#
#
# Elastic Compliance Matrix: (Units=1/GPa)
#
#
# Indices 1 2 3 4 5 6 
#
# 1 0.009716 -0.001463 -0.003115 -0.001022 0.002817 0.001204
# 2 -0.001463 0.013622 -0.008323 -0.003766 -0.006636 0.004955
# 3 -0.003115 -0.008323 0.028540 0.005758 0.019472 -0.000763
# 4 -0.001022 -0.003766 0.005758 0.026232 0.006383 0.002086
# 5 0.002817 -0.006636 0.019472 0.006383 0.053305 -0.006744
# 6 0.001204 0.004955 -0.000763 0.002086 -0.006744 0.032706
#
#
# Mechanical properties :
#
#
# Convention : Reuss Voigt Hill
#
# Bulk Modulus (GPa) = 38.34812 54.86815 46.60813
# Shear Modulus (GPa) = 25.17427 34.10908 29.64167
#
# Velocity S-wave (km/s) = 3.55516 4.13824 3.85773
# Velocity P-wave (km/s) = 6.00878 7.09794 6.57595
#
# Compressibility (1/GPa) = 0.02607690
#
# Stress axis : x y z
#
# Youngs Moduli (GPa) = 102.91937 73.41103 35.03892
#
# Poissons Ratio (x) = 0.10736 0.10914
# Poissons Ratio (y) = 0.15052 0.29164
# Poissons Ratio (z) = 0.32057 0.61102
#
# Static dielectric constant tensor:
#      x y z
#    x 3.760520 -0.438190 -0.506800 
#    y -0.438190 3.645620 0.102800 
#    z -0.506800 0.102800 3.797990 
# 
# 
# High freq. dielectric constant tensor:
#      x y z
#    x 1.765040 -0.024480 -0.032600 
#    y -0.024480 1.792500 -0.002080 
#    z -0.032600 -0.002080 1.772190 
# 
# From -- ./inp_files/217842.got.cif
#   From: 2010.06.25/outbox.cif.g09.slc.cpg/sg2_109_cif.got.tgz:217842.got - 2010.06.27 13:26:56.
