data_PCOD8043006
_publ_section_title
;
Structure prediction by ZEFSAII (Michael W. Deem and Ramdas Pophale) SiO2 
 PCOD8043006
Probable space group: P -1
;
_chemical_formula_sum "Si O2"
_cell_formula_units_Z 16
_cell_length_a 11.971096
_cell_length_b 22.840556
_cell_length_c 16.105894
_cell_angle_alpha 155.304764
_cell_angle_beta 153.782095
_cell_angle_gamma 42.683700
_cell_volume 732.582538
_symmetry_space_group_name_H-M "P -1"
_symmetry_group_IT_number 2
_symmetry_cell_setting 'triclinic'
loop_
_space_group_symop_operation_xyz
x,y,z
-x,-y,-z
loop_
_atom_site_type_symbol
_atom_site_label
_atom_site_fract_x
_atom_site_fract_y
_atom_site_fract_z
Si Si1 0.584690 0.150616 0.307041
Si Si2 0.700268 0.414876 0.294729
Si Si3 0.398560 0.937198 0.610690
Si Si4 0.065802 0.734593 0.864758
Si Si5 0.784644 0.826430 0.652098
Si Si6 0.022599 0.942760 0.229219
Si Si7 0.908614 0.276197 0.393851
Si Si8 0.072753 0.282617 0.689663
O O1 0.681557 0.129115 0.435762
O O2 0.858399 0.286630 0.622669
O O3 0.306958 0.182100 0.160812
O O4 0.500000 0.000000 0.000000
O O5 0.909720 0.583451 0.621763
O O6 0.809587 0.389729 0.424679
O O7 0.697763 0.283742 0.058163
O O8 0.386993 0.399977 0.076080
O O9 0.480333 0.822814 0.459841
O O10 0.132581 0.947456 0.402710
O O11 0.656595 0.105109 0.004606
O O12 0.847963 0.760322 0.693640
O O13 0.196212 0.884459 0.206182
O O14 0.808755 0.722034 0.457628
O O15 0.000000 0.000000 0.000000
O O16 0.055940 0.111590 0.443044
O O17 0.989411 0.340075 0.622811
#
# Coordination Sequence:
#
# PCOD8043006 Si02
#       8
#     2   2   2   2   2   2   2   2
#     4  10  21  37  56  89 123 152 198 256 291 340
#     4  10  23  40  59  87 122 164 189 241 301 360
#     4  11  19  34  59  92 115 154 196 249 299 340
#     4  10  21  42  59  86 130 151 195 245 297 360
#     4   9  18  34  58  86 120 144 189 250 288 341
#     4  11  21  35  62  88 115 155 200 247 292 343
#     4  10  19  36  55  88 122 148 195 244 291 355
#     4  11  22  38  63  88 117 161 198 244 301 346
#
# _framework density 21.840543
#
# number of rings (size 3 to 8) (size 9 to 14) (size 15 to 20)
#    0.000    1.750    5.000    0.750    1.750    3.500 
#    2.250    2.500    0.000    1.500    0.000    0.000 
#    0.000    0.000    0.000    0.000    0.000    0.000 
#
# Total GULP energy -198312.888532 kJ/mol
# GULP energy per Si atom -12394.555533 kJ/mol
# Density = 2.179083 g / cm^3
# Si number density = 21.840543 Si / 1000 Ang^3
#
#
#
# Elastic Constant Matrix: (Units=GPa)
#
#
# Indices 1 2 3 4 5 6 
#
# 1 95.3959 37.3079 8.3349 -11.6868 7.2218 29.9775
# 2 37.3079 108.6784 17.7649 -24.8060 3.0481 38.5466
# 3 8.3349 17.7649 23.1574 -13.5615 9.1316 8.4874
# 4 -11.6868 -24.8060 -13.5615 26.6782 -1.7797 -2.4246
# 5 7.2218 3.0481 9.1316 -1.7797 25.8250 -1.8179
# 6 29.9775 38.5466 8.4874 -2.4246 -1.8179 37.6383
#
#
#
# Elastic Compliance Matrix: (Units=1/GPa)
#
#
# Indices 1 2 3 4 5 6 
#
# 1 0.016077 0.001343 0.008258 0.010527 -0.007957 -0.015748
# 2 0.001343 0.020423 0.005777 0.020161 -0.005004 -0.022231
# 3 0.008258 0.005777 0.089122 0.049252 -0.033294 -0.031026
# 4 0.010527 0.020161 0.049252 0.081308 -0.019659 -0.035850
# 5 -0.007957 -0.005004 -0.033294 -0.019659 0.053383 0.020282
# 6 -0.015748 -0.022231 -0.031026 -0.035850 0.020282 0.067546
#
#
# Mechanical properties :
#
#
# Convention : Reuss Voigt Hill
#
# Bulk Modulus (GPa) = 6.39480 39.33859 22.86669
# Shear Modulus (GPa) = 14.31721 28.94988 21.63355
#
# Velocity S-wave (km/s) = 2.56312 3.64471 3.15067
# Velocity P-wave (km/s) = 3.41961 5.98019 4.87116
#
# Compressibility (1/GPa) = 0.15637715
#
# Stress axis : x y z
#
# Youngs Moduli (GPa) = 62.20194 48.96342 11.22059
#
# Poissons Ratio (x) = -0.06574 -0.09266
# Poissons Ratio (y) = -0.08352 -0.06482
# Poissons Ratio (z) = -0.51365 -0.28287
#
# Static dielectric constant tensor:
#      x y z
#    x 4.437110 -0.132870 0.322260 
#    y -0.132870 4.077660 -0.219350 
#    z 0.322260 -0.219350 3.472720 
# 
# 
# High freq. dielectric constant tensor:
#      x y z
#    x 1.864330 0.009960 0.008020 
#    y 0.009960 1.864660 -0.012440 
#    z 0.008020 -0.012440 1.811800 
# 
# From -- ./inp_files/455001.got.cif
#   From: 2010.06.25/outbox.cif.g09.slc.cpg/sg2_228_cif.got.tgz:455001.got - 2010.06.27 13:26:56.
