data_PCOD8043126
_publ_section_title
;
Structure prediction by ZEFSAII (Michael W. Deem and Ramdas Pophale) SiO2 
 PCOD8043126
Probable space group: P -1
;
_chemical_formula_sum "Si O2"
_cell_formula_units_Z 16
_cell_length_a 10.229338
_cell_length_b 18.595333
_cell_length_c 12.458172
_cell_angle_alpha 152.394045
_cell_angle_beta 47.218276
_cell_angle_gamma 135.091406
_cell_volume 765.544954
_symmetry_space_group_name_H-M "P -1"
_symmetry_group_IT_number 2
_symmetry_cell_setting 'triclinic'
loop_
_space_group_symop_operation_xyz
x,y,z
-x,-y,-z
loop_
_atom_site_type_symbol
_atom_site_label
_atom_site_fract_x
_atom_site_fract_y
_atom_site_fract_z
Si Si1 0.937661 0.304729 0.276281
Si Si2 0.218500 0.894994 0.706348
Si Si3 0.525130 0.219334 0.311920
Si Si4 0.433404 0.915480 0.098629
Si Si5 0.485841 0.728633 0.249944
Si Si6 0.662489 0.633744 0.230995
Si Si7 0.945976 0.133312 0.639903
Si Si8 0.149400 0.071893 0.786457
O O1 0.933210 0.233414 0.304429
O O2 0.734703 0.243648 0.260444
O O3 0.000000 0.500000 0.500000
O O4 0.063769 0.223303 0.025550
O O5 0.308480 0.790459 0.441370
O O6 0.384502 0.022437 0.847494
O O7 0.110918 0.990608 0.818566
O O8 0.446938 0.359693 0.587988
O O9 0.397986 0.051147 0.216922
O O10 0.521104 0.217695 0.182235
O O11 0.248052 0.841915 0.177742
O O12 0.596486 0.739386 0.316118
O O13 0.628401 0.847247 0.245163
O O14 0.402227 0.549970 0.013598
O O15 0.885559 0.697168 0.212594
O O16 0.933585 0.073303 0.444416
O O17 0.000000 0.000000 0.500000
#
# Coordination Sequence:
#
# PCOD8043126 Si02
#       8
#     2   2   2   2   2   2   2   2
#     4  11  24  40  63  95 126 160 211 264 315 370
#     4  11  23  43  61  95 127 168 213 250 322 385
#     4  10  19  36  58  87 122 158 203 259 312 356
#     4  10  20  34  58  88 123 157 207 262 299 368
#     4  11  22  39  64  90 130 168 203 263 319 377
#     4  11  22  37  62  95 126 161 213 265 315 359
#     4  12  20  36  60 100 120 157 223 264 302 365
#     4  12  24  39  69  91 127 171 210 261 311 380
#
# _framework density 20.900144000000001
#
# number of rings (size 3 to 8) (size 9 to 14) (size 15 to 20)
#    0.000    1.000    6.250    2.250    5.250    0.000 
#    0.000    0.625    2.750    1.500    0.000    0.000 
#    0.000    0.000    0.000    0.000    0.000    0.000 
#
# Total GULP energy -198365.452046 kJ/mol
# GULP energy per Si atom -12397.840753 kJ/mol
# Density = 2.085257 g / cm^3
# Si number density = 20.900144 Si / 1000 Ang^3
#
#
#
# Elastic Constant Matrix: (Units=GPa)
#
#
# Indices 1 2 3 4 5 6 
#
# 1 77.1736 37.2971 35.7419 4.7385 19.1871 -1.7873
# 2 37.2971 71.9055 44.2754 -4.1959 16.1046 0.6742
# 3 35.7419 44.2754 123.8341 -18.4672 19.0520 3.6297
# 4 4.7385 -4.1959 -18.4672 32.9944 -0.8848 0.9091
# 5 19.1871 16.1046 19.0520 -0.8848 28.5007 -2.5603
# 6 -1.7873 0.6742 3.6297 0.9091 -2.5603 29.5267
#
#
#
# Elastic Compliance Matrix: (Units=1/GPa)
#
#
# Indices 1 2 3 4 5 6 
#
# 1 0.020071 -0.007273 -0.002921 -0.005678 -0.007513 0.001263
# 2 -0.007273 0.021648 -0.004833 0.001001 -0.004140 -0.000730
# 3 -0.002921 -0.004833 0.012225 0.006612 -0.003456 -0.002072
# 4 -0.005678 0.001001 0.006612 0.035007 -0.000281 -0.002282
# 5 -0.007513 -0.004140 -0.003456 -0.000281 0.045143 0.003988
# 6 0.001263 -0.000730 -0.002072 -0.002282 0.003988 0.034632
#
#
# Mechanical properties :
#
#
# Convention : Reuss Voigt Hill
#
# Bulk Modulus (GPa) = 41.85799 56.39356 49.12578
# Shear Modulus (GPa) = 24.18459 28.57760 26.38110
#
# Velocity S-wave (km/s) = 3.40538 3.70177 3.55666
# Velocity P-wave (km/s) = 5.96098 6.73140 6.35787
#
# Compressibility (1/GPa) = 0.02389030
#
# Stress axis : x y z
#
# Youngs Moduli (GPa) = 49.82244 46.19351 81.80148
#
# Poissons Ratio (x) = 0.33597 0.23892
# Poissons Ratio (y) = 0.36236 0.39536
# Poissons Ratio (z) = 0.14552 0.22326
#
# Static dielectric constant tensor:
#      x y z
#    x 3.811460 0.353310 0.312670 
#    y 0.353310 4.645460 -0.152860 
#    z 0.312670 -0.152860 4.153950 
# 
# 
# High freq. dielectric constant tensor:
#      x y z
#    x 1.798540 0.017250 0.020070 
#    y 0.017250 1.808060 -0.025330 
#    z 0.020070 -0.025330 1.825040 
# 
# From -- ./inp_files/278181.got.cif
#   From: 2010.06.25/outbox.cif.g09.slc.cpg/sg2_140_cif.got.tgz:278181.got - 2010.06.27 13:26:56.
