data_PCOD8043306
_publ_section_title
;
Structure prediction by ZEFSAII (Michael W. Deem and Ramdas Pophale) SiO2 
 PCOD8043306
Probable space group: P -1
;
_chemical_formula_sum "Si O2"
_cell_formula_units_Z 14
_cell_length_a 9.390033
_cell_length_b 13.880668
_cell_length_c 20.319938
_cell_angle_alpha 158.683829
_cell_angle_beta 147.434658
_cell_angle_gamma 38.948974
_cell_volume 517.847640
_symmetry_space_group_name_H-M "P -1"
_symmetry_group_IT_number 2
_symmetry_cell_setting 'triclinic'
loop_
_space_group_symop_operation_xyz
x,y,z
-x,-y,-z
loop_
_atom_site_type_symbol
_atom_site_label
_atom_site_fract_x
_atom_site_fract_y
_atom_site_fract_z
Si Si1 0.987342 0.479205 0.865912
Si Si2 0.016992 0.188407 0.366971
Si Si3 0.262911 0.161443 0.868329
Si Si4 0.741916 0.108223 0.434447
Si Si5 0.146217 0.690741 0.814794
Si Si6 0.573790 0.554531 0.392100
Si Si7 0.205361 0.867510 0.091659
O O1 0.989968 0.200447 0.642301
O O2 0.686402 0.513324 0.798503
O O3 0.174801 0.432059 0.971114
O O4 0.081760 0.737647 0.026844
O O5 0.757398 0.304355 0.304757
O O6 0.125823 0.387498 0.592005
O O7 0.260968 0.181145 0.404809
O O8 0.924585 0.906476 0.183910
O O9 0.198705 0.917133 0.636109
O O10 0.572732 0.176242 0.014492
O O11 0.562280 0.371860 0.544234
O O12 0.526773 0.873432 0.223537
O O13 0.111594 0.691293 0.880220
O O14 0.917539 0.843077 0.784442
#
# Coordination Sequence:
#
# PCOD8043306 Si02
#       7
#     2   2   2   2   2   2   2
#     4  10  21  38  56  88 114 155 182 234 280 347
#     4  11  21  42  58  85 114 151 186 248 268 344
#     4  11  23  35  62  87 117 144 195 226 295 328
#     4   9  20  38  59  88 107 154 188 234 274 340
#     4  10  21  35  58  92 110 148 189 240 280 332
#     4   9  22  40  60  81 114 150 199 220 295 325
#     4  10  19  36  61  84 118 143 192 237 283 323
#
# _framework density 27.034980000000001
#
# number of rings (size 3 to 8) (size 9 to 14) (size 15 to 20)
#    0.857    1.143    1.429    2.143    0.000    4.571 
#    2.571    2.857    0.000    0.000    0.000    0.000 
#    0.000    0.000    0.000    0.000    0.000    0.000 
#
# Total GULP energy -173488.047033 kJ/mol
# GULP energy per Si atom -12392.003359 kJ/mol
# Density = 2.697345 g / cm^3
# Si number density = 27.034980 Si / 1000 Ang^3
#
#
#
# Elastic Constant Matrix: (Units=GPa)
#
#
# Indices 1 2 3 4 5 6 
#
# 1 123.4093 26.6226 -5.1784 -8.3886 33.8961 9.9914
# 2 26.6226 126.3045 49.8554 -13.4803 38.6556 7.4992
# 3 -5.1784 49.8554 93.3915 -16.8963 32.6303 5.4373
# 4 -8.3886 -13.4803 -16.8963 42.9318 0.9056 9.4538
# 5 33.8961 38.6556 32.6303 0.9056 48.5990 7.2618
# 6 9.9914 7.4992 5.4373 9.4538 7.2618 30.5428
#
#
#
# Elastic Compliance Matrix: (Units=1/GPa)
#
#
# Indices 1 2 3 4 5 6 
#
# 1 0.012641 -0.000650 0.006674 0.006059 -0.012278 -0.004120
# 2 -0.000650 0.011758 -0.003538 0.002601 -0.006373 -0.001334
# 3 0.006674 -0.003538 0.020105 0.009356 -0.014878 -0.004252
# 4 0.006059 0.002601 0.009356 0.031723 -0.011467 -0.011379
# 5 -0.012278 -0.006373 -0.014878 -0.011467 0.044223 0.001265
# 6 -0.004120 -0.001334 -0.004252 -0.011379 0.001265 0.038395
#
#
# Mechanical properties :
#
#
# Convention : Reuss Voigt Hill
#
# Bulk Modulus (GPa) = 20.21213 53.96717 37.08965
# Shear Modulus (GPa) = 29.34883 42.53510 35.94196
#
# Velocity S-wave (km/s) = 3.29840 3.97083 3.65013
# Velocity P-wave (km/s) = 4.69025 6.40536 5.61369
#
# Compressibility (1/GPa) = 0.04947523
#
# Stress axis : x y z
#
# Youngs Moduli (GPa) = 79.10788 85.04787 49.73912
#
# Poissons Ratio (x) = 0.05527 -0.33194
# Poissons Ratio (y) = 0.05141 0.17598
# Poissons Ratio (z) = -0.52793 0.30091
#
# Static dielectric constant tensor:
#      x y z
#    x 5.441520 -0.287980 -0.243710 
#    y -0.287980 4.637240 -0.510330 
#    z -0.243710 -0.510330 5.041770 
# 
# 
# High freq. dielectric constant tensor:
#      x y z
#    x 2.121330 -0.017020 -0.028470 
#    y -0.017020 2.063630 -0.030890 
#    z -0.028470 -0.030890 2.107400 
# 
# From -- ./inp_files/589750.got.cif
#   From: 2010.06.25/outbox.cif.g09.slc.cpg/sg2_295_cif.got.tgz:589750.got - 2010.06.27 13:26:56.
