data_PCOD8043630
_publ_section_title
;
Structure prediction by ZEFSAII (Michael W. Deem and Ramdas Pophale) SiO2 
 PCOD8043630
Probable space group: P -1
;
_chemical_formula_sum "Si O2"
_cell_formula_units_Z 16
_cell_length_a 8.754382
_cell_length_b 14.000594
_cell_length_c 11.592052
_cell_angle_alpha 32.210336
_cell_angle_beta 97.408505
_cell_angle_gamma 108.080508
_cell_volume 694.437996
_symmetry_space_group_name_H-M "P -1"
_symmetry_group_IT_number 2
_symmetry_cell_setting 'triclinic'
loop_
_space_group_symop_operation_xyz
x,y,z
-x,-y,-z
loop_
_atom_site_type_symbol
_atom_site_label
_atom_site_fract_x
_atom_site_fract_y
_atom_site_fract_z
Si Si1 0.615882 0.577232 0.738765
Si Si2 0.304089 0.911876 0.493609
Si Si3 0.247534 0.043361 0.122092
Si Si4 0.162754 0.485611 0.976307
Si Si5 0.828333 0.334479 0.617871
Si Si6 0.634145 0.267665 0.899425
Si Si7 0.760262 0.592721 0.164551
Si Si8 0.660519 0.997341 0.354029
O O1 0.671383 0.484507 0.728436
O O2 0.420891 0.446676 0.870067
O O3 0.639678 0.798790 0.490862
O O4 0.728658 0.578155 0.858058
O O5 0.280372 0.689579 0.726009
O O6 0.237461 0.972959 0.545511
O O7 0.200464 0.956156 0.335559
O O8 0.496289 0.023718 0.362495
O O9 0.150521 0.867269 0.205422
O O10 0.442077 0.122881 0.026585
O O11 0.186280 0.223532 0.929774
O O12 0.116879 0.353315 0.990512
O O13 0.000000 0.500000 0.000000
O O14 0.698403 0.292324 0.751234
O O15 0.755810 0.405718 0.426599
O O16 0.000000 0.500000 0.500000
O O17 0.733747 0.169640 0.091202
#
# Coordination Sequence:
#
# PCOD8043630 Si02
#       8
#     2   2   2   2   2   2   2   2
#     4  11  22  40  71 103 130 173 226 276 320 404
#     4  10  19  37  64  96 135 168 210 269 342 382
#     4  10  22  43  70  96 127 175 231 279 322 404
#     4  12  24  40  67 100 145 174 206 272 350 406
#     4  12  27  45  68  94 141 178 217 286 345 387
#     4  10  23  40  67 100 133 173 230 277 328 384
#     4  11  24  44  70  98 130 179 229 271 327 399
#     4  10  19  36  66  99 129 168 219 276 316 393
#
# _framework density 23.040215
#
# number of rings (size 3 to 8) (size 9 to 14) (size 15 to 20)
#    0.000    1.250    3.750    2.250    3.500    3.500 
#    0.000    5.000    0.000    0.000    0.000    0.000 
#    0.000    0.000    0.000    0.000    0.000    0.000 
#
# Total GULP energy -198269.785319 kJ/mol
# GULP energy per Si atom -12391.861582 kJ/mol
# Density = 2.298777 g / cm^3
# Si number density = 23.040215 Si / 1000 Ang^3
#
#
#
# Elastic Constant Matrix: (Units=GPa)
#
#
# Indices 1 2 3 4 5 6 
#
# 1 70.7303 46.4752 34.3677 6.9229 0.5493 -14.8002
# 2 46.4752 153.5005 44.6696 -11.4426 -2.7103 -33.3136
# 3 34.3677 44.6696 70.1234 -1.4762 9.0377 -17.3532
# 4 6.9229 -11.4426 -1.4762 52.4740 -11.5532 5.3097
# 5 0.5493 -2.7103 9.0377 -11.5532 22.7691 -3.8240
# 6 -14.8002 -33.3136 -17.3532 5.3097 -3.8240 38.8883
#
#
#
# Elastic Compliance Matrix: (Units=1/GPa)
#
#
# Indices 1 2 3 4 5 6 
#
# 1 0.021268 -0.004199 -0.007420 -0.004073 0.000161 0.001758
# 2 -0.004199 0.010511 -0.003855 0.003379 0.005567 0.005771
# 3 -0.007420 -0.003855 0.022308 -0.001628 -0.009436 0.003122
# 4 -0.004073 0.003379 -0.001628 0.023215 0.012707 -0.001302
# 5 0.000161 0.005567 -0.009436 0.012707 0.055500 0.004342
# 6 0.001758 0.005771 0.003122 -0.001302 0.004342 0.033326
#
#
# Mechanical properties :
#
#
# Convention : Reuss Voigt Hill
#
# Bulk Modulus (GPa) = 43.22116 60.59766 51.90941
# Shear Modulus (GPa) = 24.41537 34.08241 29.24889
#
# Velocity S-wave (km/s) = 3.25881 3.85028 3.56683
# Velocity P-wave (km/s) = 5.74104 6.79148 6.28823
#
# Compressibility (1/GPa) = 0.02313682
#
# Stress axis : x y z
#
# Youngs Moduli (GPa) = 47.01892 95.14063 44.82773
#
# Poissons Ratio (x) = 0.39952 0.33262
# Poissons Ratio (y) = 0.19745 0.17283
# Poissons Ratio (z) = 0.34888 0.36681
#
# Static dielectric constant tensor:
#      x y z
#    x 3.748780 -0.217480 0.179680 
#    y -0.217480 4.408780 -0.012790 
#    z 0.179680 -0.012790 4.328360 
# 
# 
# High freq. dielectric constant tensor:
#      x y z
#    x 1.871890 -0.020520 0.010460 
#    y -0.020520 1.923390 -0.004120 
#    z 0.010460 -0.004120 1.909080 
# 
# From -- ./inp_files/398232.got.cif
#   From: 2010.06.25/outbox.cif.g09.slc.cpg/sg2_200_cif.got.tgz:398232.got - 2010.06.27 13:26:56.
