data_PCOD8043576
_publ_section_title
;
Structure prediction by ZEFSAII (Michael W. Deem and Ramdas Pophale) SiO2 
 PCOD8043576
Probable space group: P -1
;
_chemical_formula_sum "Si O2"
_cell_formula_units_Z 14
_cell_length_a 20.312357
_cell_length_b 7.900183
_cell_length_c 5.156719
_cell_angle_alpha 73.621861
_cell_angle_beta 85.402033
_cell_angle_gamma 131.511253
_cell_volume 551.916345
_symmetry_space_group_name_H-M "P -1"
_symmetry_group_IT_number 2
_symmetry_cell_setting 'triclinic'
loop_
_space_group_symop_operation_xyz
x,y,z
-x,-y,-z
loop_
_atom_site_type_symbol
_atom_site_label
_atom_site_fract_x
_atom_site_fract_y
_atom_site_fract_z
Si Si1 0.283157 0.979854 0.436040
Si Si2 0.807917 0.706392 0.419440
Si Si3 0.642460 0.180602 0.827001
Si Si4 0.912640 0.581681 0.245048
Si Si5 0.672806 0.719460 0.208503
Si Si6 0.490322 0.822571 0.386563
Si Si7 0.979631 0.164903 0.407816
O O1 0.310230 0.100101 0.658152
O O2 0.349387 0.935059 0.374151
O O3 0.173350 0.718493 0.571094
O O4 0.302518 0.164326 0.133602
O O5 0.748229 0.458065 0.734348
O O6 0.879393 0.722636 0.219250
O O7 0.738229 0.673613 0.259885
O O8 0.867042 0.961697 0.462829
O O9 0.579416 0.235209 0.789194
O O10 0.593708 0.974393 0.164418
O O11 0.990224 0.682416 0.400455
O O12 0.959749 0.635593 0.930396
O O13 0.561502 0.448035 0.359873
O O14 0.500000 0.000000 0.500000
O O15 0.000000 0.000000 0.500000
#
# Coordination Sequence:
#
# PCOD8043576 Si02
#       7
#     2   2   2   2   2   2   2
#     4  11  25  44  61  95 129 174 204 248 320 375
#     4   9  20  40  62  93 119 168 211 260 307 364
#     4   9  22  42  65  90 127 164 206 262 312 375
#     4  10  21  40  64  90 128 163 211 261 307 366
#     4  11  26  41  64  91 132 164 211 256 308 384
#     4  10  23  43  67  95 121 160 212 265 314 365
#     4  10  19  36  64  97 121 158 215 267 302 357
#
# _framework density 25.366164999999999
#
# number of rings (size 3 to 8) (size 9 to 14) (size 15 to 20)
#    0.000    2.000    0.000    2.571    8.000    4.571 
#   10.286    4.286    0.000    0.000    0.000    0.000 
#    0.000    0.000    0.000    0.000    0.000    0.000 
#
# Total GULP energy -173529.860126 kJ/mol
# GULP energy per Si atom -12394.990009 kJ/mol
# Density = 2.530843 g / cm^3
# Si number density = 25.366165 Si / 1000 Ang^3
#
#
#
# Elastic Constant Matrix: (Units=GPa)
#
#
# Indices 1 2 3 4 5 6 
#
# 1 42.9365 1.7423 5.1777 -9.3635 2.1230 1.5754
# 2 1.7423 89.0751 25.2858 -12.4110 -12.9031 -11.1407
# 3 5.1777 25.2858 118.2402 -20.5446 -2.0751 15.4159
# 4 -9.3635 -12.4110 -20.5446 48.1554 1.3737 -1.3641
# 5 2.1230 -12.9031 -2.0751 1.3737 26.6162 -5.7396
# 6 1.5754 -11.1407 15.4159 -1.3641 -5.7396 20.8700
#
#
#
# Elastic Compliance Matrix: (Units=1/GPa)
#
#
# Indices 1 2 3 4 5 6 
#
# 1 0.024583 -0.000723 0.000227 0.004696 -0.003178 -0.002976
# 2 -0.000723 0.016497 -0.004981 0.002118 0.010940 0.015688
# 3 0.000227 -0.004981 0.011641 0.003504 -0.004346 -0.012241
# 4 0.004696 0.002118 0.003504 0.023720 -0.000378 -0.000366
# 5 -0.003178 0.010940 -0.004346 -0.000378 0.047632 0.022365
# 6 -0.002976 0.015688 -0.012241 -0.000366 0.022365 0.071684
#
#
# Mechanical properties :
#
#
# Convention : Reuss Voigt Hill
#
# Bulk Modulus (GPa) = 23.94398 34.96259 29.45329
# Shear Modulus (GPa) = 22.66186 33.66473 28.16329
#
# Velocity S-wave (km/s) = 2.99220 3.64696 3.33569
# Velocity P-wave (km/s) = 4.62575 5.61666 5.14511
#
# Compressibility (1/GPa) = 0.04176415
#
# Stress axis : x y z
#
# Youngs Moduli (GPa) = 40.67889 60.61833 85.90113
#
# Poissons Ratio (x) = 0.04385 -0.01946
# Poissons Ratio (y) = 0.02942 0.42791
# Poissons Ratio (z) = -0.00921 0.30197
#
# Static dielectric constant tensor:
#      x y z
#    x 5.145110 0.568870 -0.144610 
#    y 0.568870 5.142110 -0.388820 
#    z -0.144610 -0.388820 4.650900 
# 
# 
# High freq. dielectric constant tensor:
#      x y z
#    x 1.996880 0.007620 -0.006780 
#    y 0.007620 2.016900 -0.019940 
#    z -0.006780 -0.019940 2.013840 
# 
# From -- ./inp_files/42075.got.cif
#   From: 2010.06.25/outbox.cif.g09.slc.cpg/sg2_22_cif.got.tgz:42075.got - 2010.06.27 13:26:56.
