data_PCOD8043516
_publ_section_title
;
Structure prediction by ZEFSAII (Michael W. Deem and Ramdas Pophale) SiO2 
 PCOD8043516
Probable space group: P -1
;
_chemical_formula_sum "Si O2"
_cell_formula_units_Z 16
_cell_length_a 14.599326
_cell_length_b 12.193401
_cell_length_c 8.690618
_cell_angle_alpha 71.461766
_cell_angle_beta 148.503092
_cell_angle_gamma 105.830925
_cell_volume 766.323448
_symmetry_space_group_name_H-M "P -1"
_symmetry_group_IT_number 2
_symmetry_cell_setting 'triclinic'
loop_
_space_group_symop_operation_xyz
x,y,z
-x,-y,-z
loop_
_atom_site_type_symbol
_atom_site_label
_atom_site_fract_x
_atom_site_fract_y
_atom_site_fract_z
Si Si1 0.213433 0.537487 0.389504
Si Si2 0.852893 0.513265 0.013206
Si Si3 0.238367 0.688740 0.844837
Si Si4 0.258579 0.265091 0.587856
Si Si5 0.930219 0.121309 0.288541
Si Si6 0.584032 0.709875 0.507258
Si Si7 0.400593 0.880916 0.393805
Si Si8 0.402671 0.724086 0.743547
O O1 0.199838 0.566613 0.175308
O O2 0.228862 0.401041 0.484883
O O3 0.382694 0.604836 0.669689
O O4 0.037437 0.577091 0.210326
O O5 0.706525 0.609519 0.797978
O O6 0.879102 0.425530 0.234950
O O7 0.149937 0.807881 0.716273
O O8 0.270490 0.707979 0.703066
O O9 0.413210 0.656059 0.204891
O O10 0.317804 0.222748 0.521944
O O11 0.085175 0.195203 0.405106
O O12 0.402888 0.244776 0.935377
O O13 0.781043 0.097838 0.961006
O O14 0.000000 0.000000 0.500000
O O15 0.533089 0.795989 0.532080
O O16 0.349187 0.829607 0.509625
O O17 0.500000 0.000000 0.500000
#
# Coordination Sequence:
#
# PCOD8043516 Si02
#       8
#     2   2   2   2   2   2   2   2
#     4  10  20  35  63  95 133 166 205 258 308 368
#     4  10  19  36  63  94 129 168 211 246 314 380
#     4  10  21  40  60  93 130 168 208 250 316 380
#     4  10  21  41  63  94 127 168 210 249 315 380
#     4  11  23  44  69  88 122 171 212 259 313 379
#     4   9  21  37  66  89 123 170 209 250 311 381
#     4  11  25  46  65  92 125 162 215 267 313 365
#     4  11  24  39  62  94 130 164 205 265 313 365
#
# _framework density 20.878913000000001
#
# number of rings (size 3 to 8) (size 9 to 14) (size 15 to 20)
#    0.000    1.750    1.250    3.000    3.500    4.500 
#    4.500    5.000    0.000    0.000    0.000    0.000 
#    0.000    0.000    0.000    0.000    0.000    0.000 
#
# Total GULP energy -198356.609458 kJ/mol
# GULP energy per Si atom -12397.288091 kJ/mol
# Density = 2.083139 g / cm^3
# Si number density = 20.878913 Si / 1000 Ang^3
#
#
#
# Elastic Constant Matrix: (Units=GPa)
#
#
# Indices 1 2 3 4 5 6 
#
# 1 121.8808 55.7206 49.6337 -2.7485 -8.0202 16.8660
# 2 55.7206 121.3678 55.3209 -1.8659 -8.8224 16.6010
# 3 49.6337 55.3209 104.1198 -5.2919 -0.8544 0.5516
# 4 -2.7485 -1.8659 -5.2919 41.9905 -0.1862 2.2007
# 5 -8.0202 -8.8224 -0.8544 -0.1862 29.2771 -4.6881
# 6 16.8660 16.6010 0.5516 2.2007 -4.6881 29.1997
#
#
#
# Elastic Compliance Matrix: (Units=1/GPa)
#
#
# Indices 1 2 3 4 5 6 
#
# 1 0.011988 -0.002798 -0.004168 0.000406 0.001514 -0.005042
# 2 -0.002798 0.012892 -0.005472 -0.000014 0.002115 -0.005270
# 3 -0.004168 -0.005472 0.014513 0.001049 -0.001574 0.004913
# 4 0.000406 -0.000014 0.001049 0.024081 -0.000040 -0.002068
# 5 0.001514 0.002115 -0.001574 -0.000040 0.035754 0.003696
# 6 -0.005042 -0.005270 0.004913 -0.002068 0.003696 0.040812
#
#
# Mechanical properties :
#
#
# Convention : Reuss Voigt Hill
#
# Bulk Modulus (GPa) = 68.88200 74.30208 71.59204
# Shear Modulus (GPa) = 29.45421 32.53966 30.99694
#
# Velocity S-wave (km/s) = 3.76002 3.95206 3.85724
# Velocity P-wave (km/s) = 7.20508 7.51594 7.36215
#
# Compressibility (1/GPa) = 0.01451758
#
# Stress axis : x y z
#
# Youngs Moduli (GPa) = 83.41809 77.56609 68.90402
#
# Poissons Ratio (x) = 0.21700 0.28722
# Poissons Ratio (y) = 0.23337 0.37702
# Poissons Ratio (z) = 0.34771 0.42442
#
# Static dielectric constant tensor:
#      x y z
#    x 4.822730 0.604210 0.088990 
#    y 0.604210 3.958470 0.041160 
#    z 0.088990 0.041160 3.916800 
# 
# 
# High freq. dielectric constant tensor:
#      x y z
#    x 1.829420 0.013130 0.003140 
#    y 0.013130 1.801340 0.000300 
#    z 0.003140 0.000300 1.817950 
# 
# From -- ./inp_files/205825.got.cif
#   From: 2010.06.25/outbox.cif.g09.slc.cpg/sg2_103_cif.got.tgz:205825.got - 2010.06.27 13:26:56.
