data_PCOD8043735
_publ_section_title
;
Structure prediction by ZEFSAII (Michael W. Deem and Ramdas Pophale) SiO2 
 PCOD8043735
Probable space group: P -1
;
_chemical_formula_sum "Si O2"
_cell_formula_units_Z 14
_cell_length_a 11.353010
_cell_length_b 15.317098
_cell_length_c 15.205579
_cell_angle_alpha 27.201482
_cell_angle_beta 64.360353
_cell_angle_gamma 46.770161
_cell_volume 746.907747
_symmetry_space_group_name_H-M "P -1"
_symmetry_group_IT_number 2
_symmetry_cell_setting 'triclinic'
loop_
_space_group_symop_operation_xyz
x,y,z
-x,-y,-z
loop_
_atom_site_type_symbol
_atom_site_label
_atom_site_fract_x
_atom_site_fract_y
_atom_site_fract_z
Si Si1 0.808144 0.525824 0.534927
Si Si2 0.984283 0.664277 0.535626
Si Si3 0.417770 0.856800 0.948452
Si Si4 0.353248 0.698118 0.946035
Si Si5 0.692160 0.261351 0.753360
Si Si6 0.082977 0.685833 0.120895
Si Si7 0.389819 0.298478 0.807112
O O1 0.977299 0.403588 0.521282
O O2 0.673116 0.510746 0.544011
O O3 0.895261 0.332356 0.764806
O O4 0.682476 0.840721 0.319641
O O5 0.173289 0.543027 0.629182
O O6 0.929668 0.518660 0.725636
O O7 0.814181 0.990171 0.316442
O O8 0.467756 0.683974 0.999826
O O9 0.281749 0.870898 0.041129
O O10 0.602696 0.713488 0.077156
O O11 0.500000 0.500000 0.000000
O O12 0.264624 0.592761 0.101305
O O13 0.503396 0.367937 0.673521
O O14 0.890422 0.002778 0.870651
O O15 0.500000 0.000000 0.000000
#
# Coordination Sequence:
#
# PCOD8043735 Si02
#       7
#     2   2   2   2   2   2   2
#     4  12  19  32  63  95 122 150 184 243 321 354
#     4  12  22  36  62  94 124 152 187 244 304 360
#     4  10  21  40  58  87 128 151 187 250 297 353
#     4  12  27  44  60  81 115 167 217 247 275 334
#     4  10  20  32  57  92 127 149 177 233 313 371
#     4  12  20  35  60  91 120 151 196 248 297 354
#     4  10  19  37  57  97 130 149 176 239 310 376
#
# _framework density 18.743946999999999
#
# number of rings (size 3 to 8) (size 9 to 14) (size 15 to 20)
#    0.857    0.000    8.571    1.714    0.000    1.143 
#    2.571    0.714    0.000    0.857    0.000    0.000 
#    0.000    0.000    0.000    0.000    0.000    0.000 
#
# Total GULP energy -173525.177370 kJ/mol
# GULP energy per Si atom -12394.655526 kJ/mol
# Density = 1.870128 g / cm^3
# Si number density = 18.743947 Si / 1000 Ang^3
#
#
#
# Elastic Constant Matrix: (Units=GPa)
#
#
# Indices 1 2 3 4 5 6 
#
# 1 122.0296 55.7827 40.2324 -1.5687 -3.2545 -0.1839
# 2 55.7827 104.7902 38.5152 -14.1910 -2.1704 0.5875
# 3 40.2324 38.5152 66.2186 -7.1445 -9.4584 -4.3608
# 4 -1.5687 -14.1910 -7.1445 19.5321 -6.1676 -5.2828
# 5 -3.2545 -2.1704 -9.4584 -6.1676 43.7802 6.1843
# 6 -0.1839 0.5875 -4.3608 -5.2828 6.1843 18.7105
#
#
#
# Elastic Compliance Matrix: (Units=1/GPa)
#
#
# Indices 1 2 3 4 5 6 
#
# 1 0.012287 -0.005408 -0.005230 -0.005769 -0.000982 -0.002233
# 2 -0.005408 0.015365 -0.004476 0.009529 0.000606 0.000911
# 3 -0.005230 -0.004476 0.022765 0.007732 0.004538 0.006078
# 4 -0.005769 0.009529 0.007732 0.068066 0.008795 0.017757
# 5 -0.000982 0.000606 0.004538 0.008795 0.025723 -0.004990
# 6 -0.002233 0.000911 0.006078 0.017757 -0.004990 0.061475
#
#
# Mechanical properties :
#
#
# Convention : Reuss Voigt Hill
#
# Bulk Modulus (GPa) = 49.53043 62.45544 55.99293
# Shear Modulus (GPa) = 20.60679 26.97178 23.78929
#
# Velocity S-wave (km/s) = 3.31929 3.79748 3.56641
# Velocity P-wave (km/s) = 6.41657 7.25399 6.84810
#
# Compressibility (1/GPa) = 0.02018961
#
# Stress axis : x y z
#
# Youngs Moduli (GPa) = 81.38531 65.08386 43.92664
#
# Poissons Ratio (x) = 0.35196 0.22972
# Poissons Ratio (y) = 0.44011 0.19663
# Poissons Ratio (z) = 0.42562 0.29134
#
# Static dielectric constant tensor:
#      x y z
#    x 3.813440 -0.038040 -0.112060 
#    y -0.038040 2.916580 0.217260 
#    z -0.112060 0.217260 3.409130 
# 
# 
# High freq. dielectric constant tensor:
#      x y z
#    x 1.753060 -0.001590 -0.011540 
#    y -0.001590 1.662250 0.021660 
#    z -0.011540 0.021660 1.734450 
# 
# From -- ./inp_files/522138.got.cif
#   From: 2010.06.25/outbox.cif.g09.slc.cpg/sg2_262_cif.got.tgz:522138.got - 2010.06.27 13:26:56.
