data_PCOD8043933
_publ_section_title
;
Structure prediction by ZEFSAII (Michael W. Deem and Ramdas Pophale) SiO2 
 PCOD8043933
Probable space group: P -1
;
_chemical_formula_sum "Si O2"
_cell_formula_units_Z 14
_cell_length_a 16.373158
_cell_length_b 12.439077
_cell_length_c 9.882249
_cell_angle_alpha 75.969728
_cell_angle_beta 91.088956
_cell_angle_gamma 154.160968
_cell_volume 750.703202
_symmetry_space_group_name_H-M "P -1"
_symmetry_group_IT_number 2
_symmetry_cell_setting 'triclinic'
loop_
_space_group_symop_operation_xyz
x,y,z
-x,-y,-z
loop_
_atom_site_type_symbol
_atom_site_label
_atom_site_fract_x
_atom_site_fract_y
_atom_site_fract_z
Si Si1 0.252385 0.614937 0.864563
Si Si2 0.213981 0.958735 0.880949
Si Si3 0.419595 0.687694 0.083316
Si Si4 0.787313 0.793165 0.829699
Si Si5 0.471261 0.115383 0.691813
Si Si6 0.751580 0.555076 0.328482
Si Si7 0.616597 0.604537 0.177068
O O1 0.205549 0.473420 0.784997
O O2 0.359168 0.858847 0.735966
O O3 0.410483 0.758837 0.935185
O O4 0.033853 0.372578 0.006075
O O5 0.348396 0.082709 0.978854
O O6 0.292510 0.988289 0.742357
O O7 0.268982 0.157186 0.802732
O O8 0.237809 0.366495 0.164855
O O9 0.391216 0.718368 0.214947
O O10 0.626710 0.670351 0.779428
O O11 0.753446 0.760555 0.998598
O O12 0.024549 0.126886 0.699029
O O13 0.622937 0.330172 0.506954
O O14 0.615869 0.490695 0.296133
#
# Coordination Sequence:
#
# PCOD8043933 Si02
#       7
#     2   2   2   2   2   2   2
#     4  12  20  40  66  77 113 166 195 223 276 352
#     4   9  21  39  60  85 111 151 197 236 275 342
#     4   9  21  39  60  85 111 151 197 236 275 342
#     4  10  19  37  61  88 113 145 197 237 280 346
#     4  10  25  41  51  91 125 144 192 240 284 337
#     4  12  23  36  61  91 117 148 185 246 296 325
#     4  10  19  37  61  88 113 145 197 237 280 346
#
# _framework density 18.649180000000001
#
# number of rings (size 3 to 8) (size 9 to 14) (size 15 to 20)
#    0.857    0.857    2.857    2.571    0.000    1.143 
#    2.571    0.000    0.000    3.429    0.000    0.000 
#    0.000    0.000    0.000    0.000    0.000    0.000 
#
# Total GULP energy -173578.435441 kJ/mol
# GULP energy per Si atom -12398.459674 kJ/mol
# Density = 1.860673 g / cm^3
# Si number density = 18.649180 Si / 1000 Ang^3
#
#
#
# Elastic Constant Matrix: (Units=GPa)
#
#
# Indices 1 2 3 4 5 6 
#
# 1 71.0208 35.4731 19.8210 -12.3421 8.1308 -8.1311
# 2 35.4731 59.9061 17.4194 -12.0107 8.5842 -4.6179
# 3 19.8210 17.4194 68.1423 -11.2604 2.9454 2.0063
# 4 -12.3421 -12.0107 -11.2604 22.1694 -5.4070 0.2889
# 5 8.1308 8.5842 2.9454 -5.4070 22.0044 -8.1903
# 6 -8.1311 -4.6179 2.0063 0.2889 -8.1903 20.3630
#
#
#
# Elastic Compliance Matrix: (Units=1/GPa)
#
#
# Indices 1 2 3 4 5 6 
#
# 1 0.021777 -0.010557 -0.003041 0.004800 0.000106 0.006576
# 2 -0.010557 0.025356 -0.002290 0.005644 -0.004319 -0.000057
# 3 -0.003041 -0.002290 0.017220 0.005812 -0.000197 -0.003592
# 4 0.004800 0.005644 0.005812 0.056520 0.011541 0.006464
# 5 0.000106 -0.004319 -0.000197 0.011541 0.058275 0.022358
# 6 0.006576 -0.000057 -0.003592 0.006464 0.022358 0.060976
#
#
# Mechanical properties :
#
#
# Convention : Reuss Voigt Hill
#
# Bulk Modulus (GPa) = 30.69622 38.27734 34.48678
# Shear Modulus (GPa) = 17.68301 21.33107 19.50704
#
# Velocity S-wave (km/s) = 3.08261 3.38569 3.23770
# Velocity P-wave (km/s) = 5.40052 5.98777 5.70171
#
# Compressibility (1/GPa) = 0.03257730
#
# Stress axis : x y z
#
# Youngs Moduli (GPa) = 45.92076 39.43861 58.07310
#
# Poissons Ratio (x) = 0.41634 0.17658
# Poissons Ratio (y) = 0.48477 0.13299
# Poissons Ratio (z) = 0.13963 0.09032
#
# Static dielectric constant tensor:
#      x y z
#    x 3.500910 -0.083450 -0.012610 
#    y -0.083450 3.412500 -0.007720 
#    z -0.012610 -0.007720 3.021560 
# 
# 
# High freq. dielectric constant tensor:
#      x y z
#    x 1.732540 -0.010140 0.000880 
#    y -0.010140 1.726370 -0.006670 
#    z 0.000880 -0.006670 1.691350 
# 
# From -- ./inp_files/293932.got.cif
#   From: 2010.06.25/outbox.cif.g09.slc.cpg/sg2_147_cif.got.tgz:293932.got - 2010.06.27 13:26:56.
