data_PCOD8043845
_publ_section_title
;
Structure prediction by ZEFSAII (Michael W. Deem and Ramdas Pophale) SiO2 
 PCOD8043845
Probable space group: P -1
;
_chemical_formula_sum "Si O2"
_cell_formula_units_Z 14
_cell_length_a 8.328372
_cell_length_b 12.413554
_cell_length_c 11.528447
_cell_angle_alpha 33.717834
_cell_angle_beta 98.259970
_cell_angle_gamma 105.092242
_cell_volume 632.849778
_symmetry_space_group_name_H-M "P -1"
_symmetry_group_IT_number 2
_symmetry_cell_setting 'triclinic'
loop_
_space_group_symop_operation_xyz
x,y,z
-x,-y,-z
loop_
_atom_site_type_symbol
_atom_site_label
_atom_site_fract_x
_atom_site_fract_y
_atom_site_fract_z
Si Si1 0.820168 0.674810 0.075546
Si Si2 0.683184 0.263596 0.353610
Si Si3 0.646272 0.012261 0.362296
Si Si4 0.104622 0.042149 0.752524
Si Si5 0.269622 0.818823 0.152407
Si Si6 0.917614 0.354092 0.498844
Si Si7 0.471256 0.169973 0.004785
O O1 0.736192 0.506573 0.120924
O O2 0.948965 0.583941 0.250171
O O3 0.669058 0.707308 0.110901
O O4 0.928296 0.880882 0.847176
O O5 0.744164 0.154559 0.348032
O O6 0.771365 0.217469 0.523140
O O7 0.482445 0.181649 0.421201
O O8 0.776552 0.934188 0.367476
O O9 0.547235 0.146055 0.159972
O O10 0.181736 0.967844 0.941204
O O11 0.076024 0.259466 0.584965
O O12 0.139348 0.651648 0.366254
O O13 0.395931 0.950023 0.141287
O O14 0.375716 0.715223 0.167682
#
# Coordination Sequence:
#
# PCOD8043845 Si02
#       7
#     2   2   2   2   2   2   2
#     4  10  22  39  59  92 114 155 194 241 293 341
#     4   9  21  40  60  88 114 153 202 234 293 341
#     4  10  20  40  64  84 116 158 192 243 290 346
#     4  11  22  38  62  86 120 155 190 238 301 338
#     4  10  20  36  61  85 116 163 188 237 289 349
#     4  10  21  40  55  86 124 148 191 240 287 352
#     4  10  19  37  60  85 118 154 200 232 291 343
#
# _framework density 22.122153999999998
#
# number of rings (size 3 to 8) (size 9 to 14) (size 15 to 20)
#    0.857    1.143    2.857    0.429    0.000    2.857 
#    5.143    0.000    0.000    0.000    0.000    0.000 
#    0.000    0.000    0.000    0.000    0.000    0.000 
#
# Total GULP energy -173503.813764 kJ/mol
# GULP energy per Si atom -12393.129555 kJ/mol
# Density = 2.207180 g / cm^3
# Si number density = 22.122154 Si / 1000 Ang^3
#
#
#
# Elastic Constant Matrix: (Units=GPa)
#
#
# Indices 1 2 3 4 5 6 
#
# 1 77.7387 9.2335 18.2796 -6.3192 9.5417 -33.8371
# 2 9.2335 68.1888 3.8521 10.6972 5.5025 -6.2788
# 3 18.2796 3.8521 51.1830 -5.2655 4.3120 -18.5970
# 4 -6.3192 10.6972 -5.2655 27.4374 -5.7932 1.6779
# 5 9.5417 5.5025 4.3120 -5.7932 30.0389 -1.6848
# 6 -33.8371 -6.2788 -18.5970 1.6779 -1.6848 41.7767
#
#
#
# Elastic Compliance Matrix: (Units=1/GPa)
#
#
# Indices 1 2 3 4 5 6 
#
# 1 0.021140 -0.001451 -0.000806 0.003276 -0.004792 0.016221
# 2 -0.001451 0.016553 -0.000800 -0.007834 -0.003905 0.001114
# 3 -0.000806 -0.000800 0.023930 0.003755 -0.001767 0.009657
# 4 0.003276 -0.007834 0.003755 0.042593 0.008169 0.001766
# 5 -0.004792 -0.003905 -0.001767 0.008169 0.037127 -0.004085
# 6 0.016221 0.001114 0.009657 0.001766 -0.004085 0.041305
#
#
# Mechanical properties :
#
#
# Convention : Reuss Voigt Hill
#
# Bulk Modulus (GPa) = 18.01492 28.87120 23.44306
# Shear Modulus (GPa) = 24.12349 30.90029 27.51189
#
# Velocity S-wave (km/s) = 3.30581 3.74144 3.53035
# Velocity P-wave (km/s) = 4.76783 5.63415 5.21899
#
# Compressibility (1/GPa) = 0.05550955
#
# Stress axis : x y z
#
# Youngs Moduli (GPa) = 47.30271 60.41032 41.78880
#
# Poissons Ratio (x) = 0.08764 0.03370
# Poissons Ratio (y) = 0.06862 0.03343
# Poissons Ratio (z) = 0.03815 0.04832
#
# Static dielectric constant tensor:
#      x y z
#    x 4.036080 0.019700 -0.104980 
#    y 0.019700 3.960640 0.068840 
#    z -0.104980 0.068840 3.582660 
# 
# 
# High freq. dielectric constant tensor:
#      x y z
#    x 1.872230 0.005550 -0.003320 
#    y 0.005550 1.875070 0.003650 
#    z -0.003320 0.003650 1.841730 
# 
# From -- ./inp_files/258564.got.cif
#   From: 2010.06.25/outbox.cif.g09.slc.cpg/sg2_130_cif.got.tgz:258564.got - 2010.06.27 13:26:56.
