data_PCOD8043807
_publ_section_title
;
Structure prediction by ZEFSAII (Michael W. Deem and Ramdas Pophale) SiO2 
 PCOD8043807
Probable space group: P -1
;
_chemical_formula_sum "Si O2"
_cell_formula_units_Z 14
_cell_length_a 12.217251
_cell_length_b 12.443707
_cell_length_c 9.413518
_cell_angle_alpha 138.892501
_cell_angle_beta 48.002217
_cell_angle_gamma 107.551555
_cell_volume 636.328457
_symmetry_space_group_name_H-M "P -1"
_symmetry_group_IT_number 2
_symmetry_cell_setting 'triclinic'
loop_
_space_group_symop_operation_xyz
x,y,z
-x,-y,-z
loop_
_atom_site_type_symbol
_atom_site_label
_atom_site_fract_x
_atom_site_fract_y
_atom_site_fract_z
Si Si1 0.832271 0.122381 0.973706
Si Si2 0.988506 0.494553 0.773798
Si Si3 0.179386 0.607586 0.953121
Si Si4 0.858229 0.874415 0.161930
Si Si5 0.776292 0.839171 0.891583
Si Si6 0.507953 0.728561 0.645677
Si Si7 0.424406 0.958991 0.221305
O O1 0.863687 0.185886 0.852002
O O2 0.643988 0.259473 0.309557
O O3 0.963085 0.132026 0.979898
O O4 0.826986 0.927813 0.798173
O O5 0.097757 0.524967 0.829328
O O6 0.106477 0.370717 0.426198
O O7 0.884762 0.395254 0.835612
O O8 0.865608 0.677345 0.990015
O O9 0.371269 0.480293 0.653117
O O10 0.726226 0.017745 0.523036
O O11 0.804058 0.927172 0.099668
O O12 0.590611 0.870305 0.077042
O O13 0.602087 0.843616 0.616239
O O14 0.428752 0.822324 0.957553
#
# Coordination Sequence:
#
# PCOD8043807 Si02
#       7
#     2   2   2   2   2   2   2
#     4  10  24  35  60  85 118 152 184 233 300 326
#     4  10  21  35  63  87 110 149 193 238 284 326
#     4  10  19  37  59  88 118 140 188 245 290 333
#     4  11  22  40  58  84 118 154 192 228 276 346
#     4  11  22  40  58  84 118 154 192 228 276 346
#     4  10  19  37  59  88 118 140 188 245 290 333
#     4  10  21  35  63  87 110 149 193 238 284 326
#
# _framework density 22.001214999999998
#
# number of rings (size 3 to 8) (size 9 to 14) (size 15 to 20)
#    0.000    1.714    2.857    1.714    0.000    2.286 
#    0.000    0.000    0.000    1.714    0.000    0.000 
#    0.000    0.000    0.000    0.000    0.000    0.000 
#
# Total GULP energy -173494.536986 kJ/mol
# GULP energy per Si atom -12392.466928 kJ/mol
# Density = 2.195114 g / cm^3
# Si number density = 22.001215 Si / 1000 Ang^3
#
#
#
# Elastic Constant Matrix: (Units=GPa)
#
#
# Indices 1 2 3 4 5 6 
#
# 1 106.5195 16.4736 36.1910 -9.3015 -21.7006 -0.2447
# 2 16.4736 57.7328 24.0043 -7.6643 -14.0647 1.3803
# 3 36.1910 24.0043 115.3349 -0.8586 -11.8083 -7.5594
# 4 -9.3015 -7.6643 -0.8586 25.0535 -4.3249 -6.7175
# 5 -21.7006 -14.0647 -11.8083 -4.3249 25.9497 -1.1914
# 6 -0.2447 1.3803 -7.5594 -6.7175 -1.1914 21.4245
#
#
#
# Elastic Compliance Matrix: (Units=1/GPa)
#
#
# Indices 1 2 3 4 5 6 
#
# 1 0.013334 0.001362 -0.003050 0.007889 0.011914 0.002125
# 2 0.001362 0.023130 -0.003682 0.010142 0.013744 0.001170
# 3 -0.003050 -0.003682 0.010666 -0.000837 0.000339 0.003722
# 4 0.007889 0.010142 -0.000837 0.054295 0.021560 0.017364
# 5 0.011914 0.013744 0.000339 0.021560 0.060131 0.009474
# 6 0.002125 0.001170 0.003722 0.017364 0.009474 0.053909
#
#
# Mechanical properties :
#
#
# Convention : Reuss Voigt Hill
#
# Bulk Modulus (GPa) = 27.47927 48.10278 37.79102
# Shear Modulus (GPa) = 20.97880 28.01343 24.49611
#
# Velocity S-wave (km/s) = 3.09128 3.57216 3.34038
# Velocity P-wave (km/s) = 5.02577 6.23898 5.66495
#
# Compressibility (1/GPa) = 0.03639107
#
# Stress axis : x y z
#
# Youngs Moduli (GPa) = 74.99365 43.23362 93.75381
#
# Poissons Ratio (x) = -0.05889 0.28595
# Poissons Ratio (y) = -0.10215 0.34521
# Poissons Ratio (z) = 0.22873 0.15919
#
# Static dielectric constant tensor:
#      x y z
#    x 3.814030 0.030070 -0.353850 
#    y 0.030070 4.136750 -0.017990 
#    z -0.353850 -0.017990 3.703550 
# 
# 
# High freq. dielectric constant tensor:
#      x y z
#    x 1.854880 0.003580 -0.033940 
#    y 0.003580 1.864980 0.003360 
#    z -0.033940 0.003360 1.848370 
# 
# From -- ./inp_files/158893.got.cif
#   From: 2010.06.25/outbox.cif.g09.slc.cpg/sg2_80_cif.got.tgz:158893.got - 2010.06.27 13:26:56.
