data_PCOD8043717
_publ_section_title
;
Structure prediction by ZEFSAII (Michael W. Deem and Ramdas Pophale) SiO2 
 PCOD8043717
Probable space group: P -1
;
_chemical_formula_sum "Si O2"
_cell_formula_units_Z 16
_cell_length_a 10.829230
_cell_length_b 10.146338
_cell_length_c 14.489948
_cell_angle_alpha 59.450039
_cell_angle_beta 39.064613
_cell_angle_gamma 79.382892
_cell_volume 796.484519
_symmetry_space_group_name_H-M "P -1"
_symmetry_group_IT_number 2
_symmetry_cell_setting 'triclinic'
loop_
_space_group_symop_operation_xyz
x,y,z
-x,-y,-z
loop_
_atom_site_type_symbol
_atom_site_label
_atom_site_fract_x
_atom_site_fract_y
_atom_site_fract_z
Si Si1 0.709532 0.027656 0.616599
Si Si2 0.493546 0.238041 0.322269
Si Si3 0.083153 0.077741 0.729698
Si Si4 0.461868 0.687779 0.366865
Si Si5 0.853544 0.901708 0.753220
Si Si6 0.652432 0.610918 0.101759
Si Si7 0.052528 0.735164 0.935101
Si Si8 0.163960 0.345416 0.726746
O O1 0.588812 0.150566 0.648435
O O2 0.940877 0.118150 0.403979
O O3 0.564780 0.866992 0.700027
O O4 0.730607 0.968657 0.728141
O O5 0.327404 0.155226 0.528810
O O6 0.504696 0.422636 0.228092
O O7 0.714794 0.249283 0.233600
O O8 0.035772 0.211657 0.771450
O O9 0.038737 0.914874 0.874472
O O10 0.928762 0.033805 0.746283
O O11 0.539986 0.679319 0.220916
O O12 0.249497 0.526947 0.567529
O O13 0.642621 0.698607 0.331463
O O14 0.691921 0.723572 0.947445
O O15 0.879630 0.615648 0.006007
O O16 0.000335 0.662500 0.094346
#
# Coordination Sequence:
#
# PCOD8043717 Si02
#       8
#     2   2   2   2   2   2   2   2
#     4  10  22  41  61  80 112 151 194 231 284 328
#     4  11  21  35  58  86 114 149 190 229 280 336
#     4  10  19  37  57  83 116 148 186 235 276 335
#     4  10  21  37  58  85 117 152 179 231 286 334
#     4   9  22  40  61  81 110 150 192 241 276 324
#     4  10  21  38  57  84 119 145 184 235 281 332
#     4  10  21  33  55  88 117 150 181 228 282 340
#     4  10  20  35  57  86 121 145 184 228 282 339
#
# _framework density 20.088276
#
# number of rings (size 3 to 8) (size 9 to 14) (size 15 to 20)
#    0.000    2.000    1.250    1.875    1.750    5.000 
#    0.000    0.625    0.000    0.000    0.000    0.000 
#    0.000    0.000    0.000    0.000    0.000    0.000 
#
# Total GULP energy -198455.264180 kJ/mol
# GULP energy per Si atom -12403.454011 kJ/mol
# Density = 2.004255 g / cm^3
# Si number density = 20.088276 Si / 1000 Ang^3
#
#
#
# Elastic Constant Matrix: (Units=GPa)
#
#
# Indices 1 2 3 4 5 6 
#
# 1 55.5841 29.9663 24.8624 -1.6528 14.0158 3.4334
# 2 29.9663 101.0358 19.9285 -17.4724 4.2516 10.5442
# 3 24.8624 19.9285 107.1819 -14.2165 15.8087 4.0932
# 4 -1.6528 -17.4724 -14.2165 25.8052 2.5345 -4.1885
# 5 14.0158 4.2516 15.8087 2.5345 29.9639 3.9022
# 6 3.4334 10.5442 4.0932 -4.1885 3.9022 21.1603
#
#
#
# Elastic Compliance Matrix: (Units=1/GPa)
#
#
# Indices 1 2 3 4 5 6 
#
# 1 0.025716 -0.007364 -0.003957 -0.004514 -0.008639 0.000962
# 2 -0.007364 0.013862 0.000200 0.008194 0.001247 -0.004359
# 3 -0.003957 0.000200 0.011873 0.007019 -0.005111 0.000577
# 4 -0.004514 0.008194 0.007019 0.049712 -0.007815 0.006573
# 5 -0.008639 0.001247 -0.005111 -0.007815 0.041564 -0.007443
# 6 0.000962 -0.004359 0.000577 0.006573 -0.007443 0.051836
#
#
# Mechanical properties :
#
#
# Convention : Reuss Voigt Hill
#
# Bulk Modulus (GPa) = 34.23617 45.92401 40.08009
# Shear Modulus (GPa) = 22.07103 27.98887 25.02995
#
# Velocity S-wave (km/s) = 3.31826 3.73673 3.53370
# Velocity P-wave (km/s) = 5.63569 6.44425 6.05348
#
# Compressibility (1/GPa) = 0.02920887
#
# Stress axis : x y z
#
# Youngs Moduli (GPa) = 38.88680 72.14180 84.22232
#
# Poissons Ratio (x) = 0.53126 0.33328
# Poissons Ratio (y) = 0.28636 -0.01688
# Poissons Ratio (z) = 0.15388 -0.01446
#
# Static dielectric constant tensor:
#      x y z
#    x 3.400920 0.195480 0.007940 
#    y 0.195480 3.505500 -0.121790 
#    z 0.007940 -0.121790 3.901580 
# 
# 
# High freq. dielectric constant tensor:
#      x y z
#    x 1.754230 0.016200 0.005110 
#    y 0.016200 1.779220 -0.006390 
#    z 0.005110 -0.006390 1.803810 
# 
# From -- ./inp_files/176056.got.cif
#   From: 2010.06.25/outbox.cif.g09.slc.cpg/sg2_89_cif.got.tgz:176056.got - 2010.06.27 13:26:56.
