data_PCOD8043013
_publ_section_title
;
Structure prediction by ZEFSAII (Michael W. Deem and Ramdas Pophale) SiO2 
 PCOD8043013
Probable space group: P -1
;
_chemical_formula_sum "Si O2"
_cell_formula_units_Z 16
_cell_length_a 9.178400
_cell_length_b 18.530265
_cell_length_c 6.207564
_cell_angle_alpha 53.469605
_cell_angle_beta 110.502918
_cell_angle_gamma 105.811606
_cell_volume 791.739221
_symmetry_space_group_name_H-M "P -1"
_symmetry_group_IT_number 2
_symmetry_cell_setting 'triclinic'
loop_
_space_group_symop_operation_xyz
x,y,z
-x,-y,-z
loop_
_atom_site_type_symbol
_atom_site_label
_atom_site_fract_x
_atom_site_fract_y
_atom_site_fract_z
Si Si1 0.693858 0.587114 0.873417
Si Si2 0.944409 0.725097 0.860218
Si Si3 0.541818 0.435378 0.824887
Si Si4 0.233896 0.801603 0.110927
Si Si5 0.477930 0.283113 0.761805
Si Si6 0.056123 0.848646 0.317175
Si Si7 0.768216 0.838690 0.883463
Si Si8 0.155818 0.974333 0.511816
O O1 0.872895 0.622867 0.955340
O O2 0.687375 0.486688 0.941300
O O3 0.620922 0.655713 0.548484
O O4 0.603371 0.581558 0.060737
O O5 0.806639 0.774082 0.820950
O O6 0.099442 0.728062 0.080220
O O7 0.984143 0.770689 0.573050
O O8 0.500000 0.500000 0.500000
O O9 0.574146 0.340967 0.896840
O O10 0.234461 0.896689 0.819365
O O11 0.400814 0.763506 0.241457
O O12 0.204720 0.814845 0.326021
O O13 0.365501 0.206068 0.954182
O O14 0.112666 0.938755 0.313571
O O15 0.926958 0.868227 0.041153
O O16 0.722508 0.935786 0.597136
O O17 0.000000 0.000000 0.500000
#
# Coordination Sequence:
#
# PCOD8043013 Si02
#       8
#     2   2   2   2   2   2   2   2
#     4  10  19  36  64  90 108 151 196 227 285 349
#     4  10  19  36  60  87 106 153 203 229 272 348
#     4   9  20  36  62  89 118 144 186 238 283 344
#     4  10  24  36  54  85 122 155 185 243 294 328
#     4  11  22  38  56  88 123 147 185 241 297 335
#     4  10  19  36  56  80 110 152 198 236 278 335
#     4  11  20  33  60  83 110 155 197 239 275 338
#     4  11  20  35  58  83 111 155 205 238 279 332
#
# _framework density 20.208673999999998
#
# number of rings (size 3 to 8) (size 9 to 14) (size 15 to 20)
#    0.000    1.750    6.250    0.375    0.000    2.500 
#    0.000    1.250    0.000    7.500    0.000    0.000 
#    0.000    0.000    0.000    0.000    0.000    0.000 
#
# Total GULP energy -198310.609075 kJ/mol
# GULP energy per Si atom -12394.413067 kJ/mol
# Density = 2.016268 g / cm^3
# Si number density = 20.208674 Si / 1000 Ang^3
#
#
#
# Elastic Constant Matrix: (Units=GPa)
#
#
# Indices 1 2 3 4 5 6 
#
# 1 82.2465 37.6508 22.3587 -2.6283 -25.6004 -8.2381
# 2 37.6508 100.4106 28.6309 2.2168 -24.6441 1.9934
# 3 22.3587 28.6309 72.0011 3.5407 -29.9098 3.6019
# 4 -2.6283 2.2168 3.5407 32.4163 0.0563 -14.1991
# 5 -25.6004 -24.6441 -29.9098 0.0563 31.7973 -1.2578
# 6 -8.2381 1.9934 3.6019 -14.1991 -1.2578 28.2677
#
#
#
# Elastic Compliance Matrix: (Units=1/GPa)
#
#
# Indices 1 2 3 4 5 6 
#
# 1 0.019198 -0.004508 0.000309 0.005933 0.012614 0.009415
# 2 -0.004508 0.013493 -0.001479 -0.002490 0.005319 -0.003091
# 3 0.000309 -0.001479 0.023559 -0.004234 0.021113 -0.003995
# 4 0.005933 -0.002490 -0.004234 0.042345 -0.000273 0.023702
# 5 0.012614 0.005319 0.021113 -0.000273 0.065722 0.003398
# 6 0.009415 -0.003091 -0.003995 0.023702 0.003398 0.050904
#
#
# Mechanical properties :
#
#
# Convention : Reuss Voigt Hill
#
# Bulk Modulus (GPa) = 22.27549 47.99323 35.13436
# Shear Modulus (GPa) = 20.70032 29.56410 25.13221
#
# Velocity S-wave (km/s) = 3.20399 3.82899 3.53035
# Velocity P-wave (km/s) = 4.97333 6.58397 5.83449
#
# Compressibility (1/GPa) = 0.04489238
#
# Stress axis : x y z
#
# Youngs Moduli (GPa) = 52.09010 74.11213 42.44610
#
# Poissons Ratio (x) = 0.33413 -0.01310
# Poissons Ratio (y) = 0.23484 0.06277
# Poissons Ratio (z) = -0.01607 0.10960
#
# Static dielectric constant tensor:
#      x y z
#    x 3.263480 0.070490 -0.330150 
#    y 0.070490 4.241900 0.063460 
#    z -0.330150 0.063460 3.756570 
# 
# 
# High freq. dielectric constant tensor:
#      x y z
#    x 1.747480 0.007030 -0.036380 
#    y 0.007030 1.805890 0.007890 
#    z -0.036380 0.007890 1.793060 
# 
# From -- ./inp_files/38491.got.cif
#   From: 2010.06.25/outbox.cif.g09.slc.cpg/sg2_20_cif.got.tgz:38491.got - 2010.06.27 13:26:56.
