data_PCOD8043501
_publ_section_title
;
Structure prediction by ZEFSAII (Michael W. Deem and Ramdas Pophale) SiO2 
 PCOD8043501
Probable space group: P -1
;
_chemical_formula_sum "Si O2"
_cell_formula_units_Z 14
_cell_length_a 21.071448
_cell_length_b 21.577072
_cell_length_c 8.605162
_cell_angle_alpha 45.927142
_cell_angle_beta 43.384507
_cell_angle_gamma 13.453880
_cell_volume 623.710129
_symmetry_space_group_name_H-M "P -1"
_symmetry_group_IT_number 2
_symmetry_cell_setting 'triclinic'
loop_
_space_group_symop_operation_xyz
x,y,z
-x,-y,-z
loop_
_atom_site_type_symbol
_atom_site_label
_atom_site_fract_x
_atom_site_fract_y
_atom_site_fract_z
Si Si1 0.213109 0.891695 0.298503
Si Si2 0.236923 0.336021 0.555078
Si Si3 0.891605 0.222551 0.739419
Si Si4 0.797380 0.393857 0.293861
Si Si5 0.336760 0.756257 0.970462
Si Si6 0.816288 0.568210 0.844337
Si Si7 0.338019 0.139961 0.205964
O O1 0.036498 0.134496 0.219798
O O2 0.475246 0.647781 0.379457
O O3 0.000000 0.000000 0.500000
O O4 0.343752 0.787244 0.077087
O O5 0.280355 0.360889 0.287050
O O6 0.128780 0.337196 0.684409
O O7 0.006060 0.573621 0.682028
O O8 0.541222 0.050992 0.588203
O O9 0.871867 0.311229 0.485736
O O10 0.659730 0.449438 0.886625
O O11 0.846104 0.170113 0.830969
O O12 0.196984 0.948537 0.762773
O O13 0.826855 0.469133 0.086028
O O14 0.603460 0.821183 0.875640
O O15 0.500000 0.000000 0.000000
#
# Coordination Sequence:
#
# PCOD8043501 Si02
#       7
#     2   2   2   2   2   2   2
#     4  12  25  41  62  91 122 163 211 261 310 359
#     4   9  20  38  65  86 120 164 201 234 304 378
#     4  10  21  37  62  85 112 157 199 249 308 362
#     4  12  25  39  64  92 125 159 212 266 300 356
#     4  10  21  39  60  82 115 156 204 241 308 375
#     4   9  23  38  64  89 124 158 209 243 304 364
#     4  10  19  36  63  92 119 159 203 241 298 368
#
# _framework density 22.446324000000001
#
# number of rings (size 3 to 8) (size 9 to 14) (size 15 to 20)
#    0.857    0.857    1.429    3.000    6.000    0.000 
#    0.000    4.286    0.000    0.000    0.000    0.000 
#    0.000    0.000    0.000    0.000    0.000    0.000 
#
# Total GULP energy -173502.480276 kJ/mol
# GULP energy per Si atom -12393.034305 kJ/mol
# Density = 2.239524 g / cm^3
# Si number density = 22.446324 Si / 1000 Ang^3
#
#
#
# Elastic Constant Matrix: (Units=GPa)
#
#
# Indices 1 2 3 4 5 6 
#
# 1 32.1899 22.9436 25.4772 6.6010 12.6953 14.8167
# 2 22.9436 124.6948 18.7533 -20.3301 7.7385 20.1269
# 3 25.4772 18.7533 126.4251 -23.1699 10.2079 13.3453
# 4 6.6010 -20.3301 -23.1699 36.3497 2.8111 13.1585
# 5 12.6953 7.7385 10.2079 2.8111 26.8511 7.2756
# 6 14.8167 20.1269 13.3453 13.1585 7.2756 34.1837
#
#
#
# Elastic Compliance Matrix: (Units=1/GPa)
#
#
# Indices 1 2 3 4 5 6 
#
# 1 0.064513 -0.012707 -0.014345 -0.026229 -0.018405 -0.000867
# 2 -0.012707 0.014324 0.004789 0.017553 0.001435 -0.011858
# 3 -0.014345 0.004789 0.014217 0.017573 0.000609 -0.009046
# 4 -0.026229 0.017553 0.017573 0.064370 0.002351 -0.031105
# 5 -0.018405 0.001435 0.000609 0.002351 0.046088 -0.003819
# 6 -0.000867 -0.011858 -0.009046 -0.031105 -0.003819 0.052929
#
#
# Mechanical properties :
#
#
# Convention : Reuss Voigt Hill
#
# Bulk Modulus (GPa) = 20.60726 46.40646 33.50686
# Shear Modulus (GPa) = 15.76575 33.88595 24.82585
#
# Velocity S-wave (km/s) = 2.65311 3.88963 3.32928
# Velocity P-wave (km/s) = 4.31114 6.39465 5.45333
#
# Compressibility (1/GPa) = 0.04852660
#
# Stress axis : x y z
#
# Youngs Moduli (GPa) = 15.50083 69.81205 70.34064
#
# Poissons Ratio (x) = 0.88710 1.00904
# Poissons Ratio (y) = 0.19697 -0.33684
# Poissons Ratio (z) = 0.22236 -0.33431
#
# Static dielectric constant tensor:
#      x y z
#    x 3.745000 0.089000 0.295140 
#    y 0.089000 4.189790 -0.180040 
#    z 0.295140 -0.180040 3.873160 
# 
# 
# High freq. dielectric constant tensor:
#      x y z
#    x 1.846060 0.015730 0.024480 
#    y 0.015730 1.899270 -0.010340 
#    z 0.024480 -0.010340 1.881340 
# 
# From -- ./inp_files/357946.got.cif
#   From: 2010.06.25/outbox.cif.g09.slc.cpg/sg2_179_cif.got.tgz:357946.got - 2010.06.27 13:26:56.
