data_PCOD8043150
_publ_section_title
;
Structure prediction by ZEFSAII (Michael W. Deem and Ramdas Pophale) SiO2 
 PCOD8043150
Probable space group: P -1
;
_chemical_formula_sum "Si O2"
_cell_formula_units_Z 16
_cell_length_a 19.367349
_cell_length_b 16.923212
_cell_length_c 12.283119
_cell_angle_alpha 27.275146
_cell_angle_beta 25.432898
_cell_angle_gamma 25.922267
_cell_volume 690.050011
_symmetry_space_group_name_H-M "P -1"
_symmetry_group_IT_number 2
_symmetry_cell_setting 'triclinic'
loop_
_space_group_symop_operation_xyz
x,y,z
-x,-y,-z
loop_
_atom_site_type_symbol
_atom_site_label
_atom_site_fract_x
_atom_site_fract_y
_atom_site_fract_z
Si Si1 0.055380 0.535303 0.639683
Si Si2 0.399909 0.816459 0.276536
Si Si3 0.175433 0.869226 0.333896
Si Si4 0.684669 0.409595 0.154889
Si Si5 0.159957 0.319277 0.427577
Si Si6 0.253544 0.232979 0.050263
Si Si7 0.328870 0.475382 0.484652
Si Si8 0.906000 0.831607 0.099011
O O1 0.940023 0.710205 0.501172
O O2 0.944190 0.595508 0.838149
O O3 0.255106 0.507884 0.424264
O O4 0.073934 0.334122 0.813020
O O5 0.357290 0.818291 0.207318
O O6 0.388068 0.634670 0.573957
O O7 0.252132 0.027399 0.283828
O O8 0.601290 0.794110 0.027973
O O9 0.196217 0.660640 0.524274
O O10 0.000000 0.000000 0.500000
O O11 0.178347 0.968775 0.093637
O O12 0.542316 0.427465 0.240064
O O13 0.686328 0.619106 0.900040
O O14 0.892287 0.228095 0.064912
O O15 0.227358 0.141233 0.639087
O O16 0.000000 0.500000 0.500000
O O17 0.316587 0.289259 0.778955
#
# Coordination Sequence:
#
# PCOD8043150 Si02
#       8
#     2   2   2   2   2   2   2   2
#     4  10  19  36  59  79 112 153 191 226 286 336
#     4  10  21  34  56  87 118 149 187 233 284 341
#     4  12  22  34  58  88 118 145 190 230 286 336
#     4   9  19  37  60  82 113 144 196 230 279 331
#     4   8  19  38  62  79 105 158 194 227 281 344
#     4  10  21  35  54  86 122 151 181 231 296 339
#     4  11  23  33  57  90 118 144 189 240 281 336
#     4  10  21  41  62  79 113 155 193 228 283 346
#
# _framework density 23.186724999999999
#
# number of rings (size 3 to 8) (size 9 to 14) (size 15 to 20)
#    0.000    2.250    1.250    2.625    5.250    1.000 
#    0.000    6.875    2.750    0.000    0.000    0.000 
#    0.000    0.000    0.000    0.000    0.000    0.000 
#
# Total GULP energy -198212.693086 kJ/mol
# GULP energy per Si atom -12388.293318 kJ/mol
# Density = 2.313395 g / cm^3
# Si number density = 23.186725 Si / 1000 Ang^3
#
#
#
# Elastic Constant Matrix: (Units=GPa)
#
#
# Indices 1 2 3 4 5 6 
#
# 1 156.9409 22.1547 67.8854 2.1523 -10.5554 -37.0420
# 2 22.1547 46.7668 22.7404 -2.6882 -5.3142 -10.7889
# 3 67.8854 22.7404 110.7108 -16.4909 9.0606 -24.9790
# 4 2.1523 -2.6882 -16.4909 19.5461 -12.9928 2.4819
# 5 -10.5554 -5.3142 9.0606 -12.9928 29.8232 -3.4924
# 6 -37.0420 -10.7889 -24.9790 2.4819 -3.4924 36.1027
#
#
#
# Elastic Compliance Matrix: (Units=1/GPa)
#
#
# Indices 1 2 3 4 5 6 
#
# 1 0.011356 -0.000205 -0.006114 -0.004159 0.004980 0.008127
# 2 -0.000205 0.025901 -0.003907 0.005401 0.008703 0.005298
# 3 -0.006114 -0.003907 0.016153 0.011920 -0.002259 0.002697
# 4 -0.004159 0.005401 0.011920 0.083791 0.032724 0.003000
# 5 0.004980 0.008703 -0.002259 0.032724 0.052842 0.009010
# 6 0.008127 0.005298 0.002697 0.003000 0.009010 0.040152
#
#
# Mechanical properties :
#
#
# Convention : Reuss Voigt Hill
#
# Bulk Modulus (GPa) = 30.34204 59.99774 45.16989
# Shear Modulus (GPa) = 19.11070 30.53694 24.82382
#
# Velocity S-wave (km/s) = 2.87402 3.63299 3.27556
# Velocity P-wave (km/s) = 4.91199 6.59774 5.81626
#
# Compressibility (1/GPa) = 0.03295757
#
# Stress axis : x y z
#
# Youngs Moduli (GPa) = 88.06112 38.60847 61.90669
#
# Poissons Ratio (x) = 0.00790 0.37852
# Poissons Ratio (y) = 0.01802 0.24189
# Poissons Ratio (z) = 0.53844 0.15085
#
# Static dielectric constant tensor:
#      x y z
#    x 4.573980 -0.489530 0.227880 
#    y -0.489530 3.920850 -0.203980 
#    z 0.227880 -0.203980 4.598090 
# 
# 
# High freq. dielectric constant tensor:
#      x y z
#    x 1.921850 -0.028470 -0.009170 
#    y -0.028470 1.888780 -0.007760 
#    z -0.009170 -0.007760 1.898310 
# 
# From -- ./inp_files/466408.got.cif
#   From: 2010.06.25/outbox.cif.g09.slc.cpg/sg2_234_cif.got.tgz:466408.got - 2010.06.27 13:26:56.
