data_PCOD8043377
_publ_section_title
;
Structure prediction by ZEFSAII (Michael W. Deem and Ramdas Pophale) SiO2 
 PCOD8043377
Probable space group: P -1
;
_chemical_formula_sum "Si O2"
_cell_formula_units_Z 14
_cell_length_a 10.750127
_cell_length_b 8.179333
_cell_length_c 8.901327
_cell_angle_alpha 65.808201
_cell_angle_beta 115.268465
_cell_angle_gamma 98.487863
_cell_volume 645.280904
_symmetry_space_group_name_H-M "P -1"
_symmetry_group_IT_number 2
_symmetry_cell_setting 'triclinic'
loop_
_space_group_symop_operation_xyz
x,y,z
-x,-y,-z
loop_
_atom_site_type_symbol
_atom_site_label
_atom_site_fract_x
_atom_site_fract_y
_atom_site_fract_z
Si Si1 0.056822 0.962434 0.786523
Si Si2 0.088869 0.355684 0.287507
Si Si3 0.836773 0.067246 0.847357
Si Si4 0.394472 0.351264 0.971105
Si Si5 0.874569 0.653564 0.031507
Si Si6 0.707151 0.800809 0.321970
Si Si7 0.533758 0.010095 0.686128
O O1 0.006822 0.820464 0.689024
O O2 0.924629 0.089972 0.728827
O O3 0.184138 0.067063 0.746294
O O4 0.104663 0.838073 0.005638
O O5 0.154152 0.360139 0.154880
O O6 0.207860 0.342316 0.478378
O O7 0.008789 0.544670 0.204010
O O8 0.865510 0.861173 0.998702
O O9 0.675856 0.120009 0.727102
O O10 0.382467 0.298640 0.810202
O O11 0.500000 0.500000 0.000000
O O12 0.250372 0.440679 0.915578
O O13 0.438697 0.183532 0.158713
O O14 0.595377 0.901808 0.328953
O O15 0.500000 0.000000 0.500000
#
# Coordination Sequence:
#
# PCOD8043377 Si02
#       7
#     2   2   2   2   2   2   2
#     4  10  19  36  61  95 120 156 206 259 307 372
#     4  10  22  36  64  91 122 162 205 257 316 374
#     4   9  19  38  61  89 124 164 200 255 317 369
#     4  11  25  43  63  91 130 167 212 262 319 367
#     4   9  19  42  58  83 129 165 200 252 315 375
#     4  12  23  40  65  95 127 162 213 267 307 374
#     4  11  23  43  67  91 130 170 211 259 315 382
#
# _framework density 21.695978
#
# number of rings (size 3 to 8) (size 9 to 14) (size 15 to 20)
#    0.000    1.714    2.857    3.429    2.000    0.571 
#    0.000    7.143    0.000    0.000    0.000    0.000 
#    0.000    0.000    0.000    0.000    0.000    0.000 
#
# Total GULP energy -173460.366495 kJ/mol
# GULP energy per Si atom -12390.026178 kJ/mol
# Density = 2.164660 g / cm^3
# Si number density = 21.695978 Si / 1000 Ang^3
#
#
#
# Elastic Constant Matrix: (Units=GPa)
#
#
# Indices 1 2 3 4 5 6 
#
# 1 160.0859 26.0578 35.5248 4.2413 1.1710 -16.1973
# 2 26.0578 62.1166 31.3352 9.3537 0.9739 -7.1529
# 3 35.5248 31.3352 144.8395 7.5296 7.6917 -14.7519
# 4 4.2413 9.3537 7.5296 29.6711 -2.9737 10.1600
# 5 1.1710 0.9739 7.6917 -2.9737 27.7162 4.8514
# 6 -16.1973 -7.1529 -14.7519 10.1600 4.8514 27.5104
#
#
#
# Elastic Compliance Matrix: (Units=1/GPa)
#
#
# Indices 1 2 3 4 5 6 
#
# 1 0.007199 -0.001862 -0.000802 -0.001747 -0.000927 0.004133
# 2 -0.001862 0.020113 -0.002846 -0.007447 -0.001625 0.005644
# 3 -0.000802 -0.002846 0.008613 -0.003329 -0.003534 0.005259
# 4 -0.001747 -0.007447 -0.003329 0.046291 0.010370 -0.023674
# 5 -0.000927 -0.001625 -0.003534 0.010370 0.040697 -0.013870
# 6 0.004133 0.005644 0.005259 -0.023674 -0.013870 0.054260
#
#
# Mechanical properties :
#
#
# Convention : Reuss Voigt Hill
#
# Bulk Modulus (GPa) = 40.15379 61.43085 50.79232
# Shear Modulus (GPa) = 25.44603 35.25447 30.35025
#
# Velocity S-wave (km/s) = 3.42840 4.03542 3.74423
# Velocity P-wave (km/s) = 5.84975 7.07733 6.49262
#
# Compressibility (1/GPa) = 0.02490425
#
# Stress axis : x y z
#
# Youngs Moduli (GPa) = 138.91030 49.72031 116.10368
#
# Poissons Ratio (x) = 0.09258 0.09310
# Poissons Ratio (y) = 0.25864 0.33046
# Poissons Ratio (z) = 0.11139 0.14152
#
# Static dielectric constant tensor:
#      x y z
#    x 4.529060 0.200020 0.228540 
#    y 0.200020 3.879380 0.171740 
#    z 0.228540 0.171740 3.938100 
# 
# 
# High freq. dielectric constant tensor:
#      x y z
#    x 1.872370 -0.002990 0.003290 
#    y -0.002990 1.827650 0.018220 
#    z 0.003290 0.018220 1.851090 
# 
# From -- ./inp_files/238688.got.cif
#   From: 2010.06.25/outbox.cif.g09.slc.cpg/sg2_120_cif.got.tgz:238688.got - 2010.06.27 13:26:56.
