data_PCOD8043947
_publ_section_title
;
Structure prediction by ZEFSAII (Michael W. Deem and Ramdas Pophale) SiO2 
 PCOD8043947
Probable space group: P -1
;
_chemical_formula_sum "Si O2"
_cell_formula_units_Z 14
_cell_length_a 16.418669
_cell_length_b 14.730842
_cell_length_c 9.148191
_cell_angle_alpha 141.856567
_cell_angle_beta 148.009800
_cell_angle_gamma 35.419851
_cell_volume 645.799041
_symmetry_space_group_name_H-M "P -1"
_symmetry_group_IT_number 2
_symmetry_cell_setting 'triclinic'
loop_
_space_group_symop_operation_xyz
x,y,z
-x,-y,-z
loop_
_atom_site_type_symbol
_atom_site_label
_atom_site_fract_x
_atom_site_fract_y
_atom_site_fract_z
Si Si1 0.781105 0.440388 0.618056
Si Si2 0.176295 0.200534 0.617806
Si Si3 0.162434 0.134272 0.188576
Si Si4 0.923331 0.564566 0.754274
Si Si5 0.471807 0.267536 0.224652
Si Si6 0.700422 0.156402 0.174815
Si Si7 0.152668 0.935023 0.419656
O O1 0.630680 0.545964 0.638170
O O2 0.757338 0.280877 0.337534
O O3 0.773685 0.545815 0.595374
O O4 0.967697 0.380164 0.899933
O O5 0.227439 0.119424 0.433879
O O6 0.043266 0.392044 0.640008
O O7 0.086614 0.112050 0.465654
O O8 0.347239 0.179596 0.938975
O O9 0.162633 0.295659 0.321334
O O10 0.970869 0.146573 0.913538
O O11 0.300771 0.971493 0.109268
O O12 0.517443 0.259685 0.109922
O O13 0.648698 0.178663 0.475522
O O14 0.844122 0.049595 0.380182
#
# Coordination Sequence:
#
# PCOD8043947 Si02
#       7
#     2   2   2   2   2   2   2
#     4  10  19  37  61  90 110 153 199 246 274 339
#     4  11  23  40  59  87 123 152 188 241 298 341
#     4  12  23  38  60  90 120 152 190 243 292 343
#     4  10  22  35  60  85 120 152 196 236 291 341
#     4   9  22  37  64  84 118 149 201 234 288 340
#     4  10  22  36  63  86 117 148 201 234 287 340
#     4  10  22  38  62  87 115 152 200 235 282 345
#
# _framework density 21.678569
#
# number of rings (size 3 to 8) (size 9 to 14) (size 15 to 20)
#    0.857    0.857    1.429    3.000    6.000    0.571 
#    0.000    0.000    0.000    2.571    0.000    0.000 
#    0.000    0.000    0.000    0.000    0.000    0.000 
#
# Total GULP energy -173530.662909 kJ/mol
# GULP energy per Si atom -12395.047351 kJ/mol
# Density = 2.162923 g / cm^3
# Si number density = 21.678569 Si / 1000 Ang^3
#
#
#
# Elastic Constant Matrix: (Units=GPa)
#
#
# Indices 1 2 3 4 5 6 
#
# 1 108.7167 39.9857 26.1686 20.6877 14.9742 -3.5976
# 2 39.9857 66.0166 23.1919 25.9168 9.0928 -2.5053
# 3 26.1686 23.1919 46.2042 18.3483 -5.5723 7.6250
# 4 20.6877 25.9168 18.3483 32.3102 0.9264 7.3824
# 5 14.9742 9.0928 -5.5723 0.9264 30.6226 9.5946
# 6 -3.5976 -2.5053 7.6250 7.3824 9.5946 38.4096
#
#
#
# Elastic Compliance Matrix: (Units=1/GPa)
#
#
# Indices 1 2 3 4 5 6 
#
# 1 0.014120 -0.003430 -0.006864 -0.003348 -0.008687 0.005275
# 2 -0.003430 0.029232 -0.008315 -0.018386 -0.010936 0.009502
# 3 -0.006864 -0.008315 0.036486 -0.007605 0.016141 -0.010999
# 4 -0.003348 -0.018386 -0.007605 0.054794 0.007980 -0.012528
# 5 -0.008687 -0.010936 0.016141 0.007980 0.048614 -0.018409
# 6 0.005275 0.009502 -0.010999 -0.012528 -0.018409 0.036339
#
#
# Mechanical properties :
#
#
# Convention : Reuss Voigt Hill
#
# Bulk Modulus (GPa) = 23.46402 44.40332 33.93367
# Shear Modulus (GPa) = 18.44948 29.04124 23.74536
#
# Velocity S-wave (km/s) = 2.92044 3.66406 3.31318
# Velocity P-wave (km/s) = 4.71371 6.19900 5.50666
#
# Compressibility (1/GPa) = 0.04261844
#
# Stress axis : x y z
#
# Youngs Moduli (GPa) = 70.82115 34.20950 27.40762
#
# Poissons Ratio (x) = 0.11735 0.18813
# Poissons Ratio (y) = 0.24293 0.22790
# Poissons Ratio (z) = 0.48613 0.28446
#
# Static dielectric constant tensor:
#      x y z
#    x 3.946210 -0.067410 0.173890 
#    y -0.067410 3.567310 0.163480 
#    z 0.173890 0.163480 3.604650 
# 
# 
# High freq. dielectric constant tensor:
#      x y z
#    x 1.860480 -0.007610 0.016350 
#    y -0.007610 1.831310 0.025590 
#    z 0.016350 0.025590 1.826950 
# 
# From -- ./inp_files/305928.got.cif
#   From: 2010.06.25/outbox.cif.g09.slc.cpg/sg2_153_cif.got.tgz:305928.got - 2010.06.27 13:26:56.
