data_PCOD8043371
_publ_section_title
;
Structure prediction by ZEFSAII (Michael W. Deem and Ramdas Pophale) SiO2 
 PCOD8043371
Probable space group: P -1
;
_chemical_formula_sum "Si O2"
_cell_formula_units_Z 14
_cell_length_a 17.526611
_cell_length_b 11.094386
_cell_length_c 13.003342
_cell_angle_alpha 158.514480
_cell_angle_beta 37.808183
_cell_angle_gamma 143.506871
_cell_volume 540.432871
_symmetry_space_group_name_H-M "P -1"
_symmetry_group_IT_number 2
_symmetry_cell_setting 'triclinic'
loop_
_space_group_symop_operation_xyz
x,y,z
-x,-y,-z
loop_
_atom_site_type_symbol
_atom_site_label
_atom_site_fract_x
_atom_site_fract_y
_atom_site_fract_z
Si Si1 0.861949 0.994366 0.944407
Si Si2 0.772839 0.241723 0.040014
Si Si3 0.545486 0.595485 0.225582
Si Si4 0.705249 0.281630 0.499295
Si Si5 0.673485 0.037434 0.653744
Si Si6 0.151282 0.375112 0.933739
Si Si7 0.600239 0.648051 0.620765
O O1 0.810235 0.580945 0.689305
O O2 0.011413 0.140381 0.938105
O O3 0.852210 0.058357 0.882925
O O4 0.772498 0.172545 0.243515
O O5 0.868000 0.494455 0.057101
O O6 0.713132 0.470879 0.359169
O O7 0.650566 0.980765 0.904474
O O8 0.407021 0.555165 0.288151
O O9 0.528335 0.588965 0.366016
O O10 0.648933 0.961435 0.380742
O O11 0.593746 0.279651 0.880654
O O12 0.743802 0.839033 0.342885
O O13 0.574728 0.773900 0.632538
O O14 0.796289 0.289247 0.784698
#
# Coordination Sequence:
#
# PCOD8043371 Si02
#       7
#     2   2   2   2   2   2   2
#     4  12  21  44  60  92 124 159 208 251 296 358
#     4  10  19  36  61  93 120 155 198 251 307 353
#     4  11  23  45  61  91 126 159 206 253 295 363
#     4  11  27  38  67  90 118 167 207 246 302 351
#     4  10  23  40  64  93 123 159 197 249 311 363
#     4  10  23  39  64  92 123 159 201 249 307 363
#     4  10  20  37  62  93 120 155 198 247 311 358
#
# _framework density 25.905161
#
# number of rings (size 3 to 8) (size 9 to 14) (size 15 to 20)
#    0.000    1.429    2.857    1.714    0.000    6.857 
#    0.000   14.286    0.000    0.000    0.000    0.000 
#    0.000    0.000    0.000    0.000    0.000    0.000 
#
# Total GULP energy -173665.960863 kJ/mol
# GULP energy per Si atom -12404.711490 kJ/mol
# Density = 2.584620 g / cm^3
# Si number density = 25.905161 Si / 1000 Ang^3
#
#
#
# Elastic Constant Matrix: (Units=GPa)
#
#
# Indices 1 2 3 4 5 6 
#
# 1 58.1591 38.1325 10.5375 -3.1608 -13.0890 -3.9558
# 2 38.1325 161.5924 36.1695 18.5982 -12.2922 23.1008
# 3 10.5375 36.1695 95.8520 21.0095 -3.1922 -3.0494
# 4 -3.1608 18.5982 21.0095 30.4455 -5.3781 2.1317
# 5 -13.0890 -12.2922 -3.1922 -5.3781 31.4302 5.3001
# 6 -3.9558 23.1008 -3.0494 2.1317 5.3001 28.0061
#
#
#
# Elastic Compliance Matrix: (Units=1/GPa)
#
#
# Indices 1 2 3 4 5 6 
#
# 1 0.024663 -0.006862 -0.001557 0.008720 0.007767 0.006841
# 2 -0.006862 0.010413 -0.002474 -0.004344 0.001882 -0.009853
# 3 -0.001557 -0.002474 0.013507 -0.008719 -0.002482 0.004424
# 4 0.008720 -0.004344 -0.008719 0.044052 0.008778 -0.001149
# 5 0.007767 0.001882 -0.002482 0.008778 0.038501 -0.008680
# 6 0.006841 -0.009853 0.004424 -0.001149 -0.008680 0.047012
#
#
# Mechanical properties :
#
#
# Convention : Reuss Voigt Hill
#
# Bulk Modulus (GPa) = 37.31709 53.92026 45.61868
# Shear Modulus (GPa) = 23.93888 33.36063 28.64976
#
# Velocity S-wave (km/s) = 3.04319 3.59248 3.32919
# Velocity P-wave (km/s) = 5.17538 6.16989 5.69439
#
# Compressibility (1/GPa) = 0.02679737
#
# Stress axis : x y z
#
# Youngs Moduli (GPa) = 40.54705 96.03271 74.03815
#
# Poissons Ratio (x) = 0.65898 0.11527
# Poissons Ratio (y) = 0.27824 0.18314
# Poissons Ratio (z) = 0.06313 0.23755
#
# Static dielectric constant tensor:
#      x y z
#    x 4.374680 -0.075620 0.166000 
#    y -0.075620 4.878680 0.284710 
#    z 0.166000 0.284710 4.684100 
# 
# 
# High freq. dielectric constant tensor:
#      x y z
#    x 2.032740 0.005010 0.014770 
#    y 0.005010 2.045960 0.017140 
#    z 0.014770 0.017140 2.047570 
# 
# From -- ./inp_files/78616.got.cif
#   From: 2010.06.25/outbox.cif.g09.slc.cpg/sg2_40_cif.got.tgz:78616.got - 2010.06.27 13:26:56.
