data_PCOD8043437
_publ_section_title
;
Structure prediction by ZEFSAII (Michael W. Deem and Ramdas Pophale) SiO2 
 PCOD8043437
Probable space group: P -1
;
_chemical_formula_sum "Si O2"
_cell_formula_units_Z 16
_cell_length_a 16.698103
_cell_length_b 25.266216
_cell_length_c 14.259230
_cell_angle_alpha 19.124963
_cell_angle_beta 149.381475
_cell_angle_gamma 158.867792
_cell_volume 699.599085
_symmetry_space_group_name_H-M "P -1"
_symmetry_group_IT_number 2
_symmetry_cell_setting 'triclinic'
loop_
_space_group_symop_operation_xyz
x,y,z
-x,-y,-z
loop_
_atom_site_type_symbol
_atom_site_label
_atom_site_fract_x
_atom_site_fract_y
_atom_site_fract_z
Si Si1 0.427842 0.843319 0.482791
Si Si2 0.434673 0.745452 0.454478
Si Si3 0.977819 0.230033 0.851896
Si Si4 0.919614 0.089155 0.831616
Si Si5 0.469343 0.683962 0.973104
Si Si6 0.344827 0.533545 0.447227
Si Si7 0.688335 0.990858 0.127937
Si Si8 0.749975 0.366537 0.991957
O O1 0.529249 0.833678 0.507571
O O2 0.180097 0.730052 0.396157
O O3 0.406534 0.686058 0.801114
O O4 0.590421 0.097223 0.262939
O O5 0.647798 0.867830 0.393061
O O6 0.243914 0.465853 0.725591
O O7 0.313005 0.819287 0.172856
O O8 0.926724 0.064118 0.993696
O O9 0.909375 0.108223 0.090493
O O10 0.095529 0.362275 0.529753
O O11 0.668971 0.941831 0.789092
O O12 0.000000 0.000000 0.000000
O O13 0.528275 0.538123 0.278163
O O14 0.257961 0.571069 0.014811
O O15 0.475435 0.787058 0.190020
O O16 0.321956 0.534501 0.310998
O O17 0.000000 0.500000 0.000000
#
# Coordination Sequence:
#
# PCOD8043437 Si02
#       8
#     2   2   2   2   2   2   2   2
#     4  11  22  40  59  92 127 170 214 276 318 389
#     4  10  21  38  64  96 124 165 227 276 324 375
#     4  11  20  38  67  95 125 168 222 271 330 381
#     4  10  21  37  63  93 128 170 213 262 331 398
#     4  11  24  41  61  90 138 172 209 263 343 399
#     4  11  21  40  64  93 126 174 212 266 332 394
#     4  10  19  36  62  92 120 162 218 270 313 381
#     4  12  24  38  62  97 130 168 220 274 321 383
#
# _framework density 22.870241
#
# number of rings (size 3 to 8) (size 9 to 14) (size 15 to 20)
#    0.000    1.250    5.000    3.000    1.750    1.000 
#    2.250    0.625    0.000    3.000    0.000    0.000 
#    0.000    0.000    0.000    0.000    0.000    0.000 
#
# Total GULP energy -198240.812642 kJ/mol
# GULP energy per Si atom -12390.050790 kJ/mol
# Density = 2.281819 g / cm^3
# Si number density = 22.870241 Si / 1000 Ang^3
#
#
#
# Elastic Constant Matrix: (Units=GPa)
#
#
# Indices 1 2 3 4 5 6 
#
# 1 195.3882 24.8265 42.3476 9.5025 -41.2053 -12.6271
# 2 24.8265 40.9862 25.1417 -1.7885 -3.3602 1.5395
# 3 42.3476 25.1417 71.4248 6.7195 -22.3882 2.3680
# 4 9.5025 -1.7885 6.7195 37.2542 -5.3712 -7.2661
# 5 -41.2053 -3.3602 -22.3882 -5.3712 39.3213 0.0702
# 6 -12.6271 1.5395 2.3680 -7.2661 0.0702 32.3492
#
#
#
# Elastic Compliance Matrix: (Units=1/GPa)
#
#
# Indices 1 2 3 4 5 6 
#
# 1 0.007447 -0.003358 -0.001177 -0.000267 0.006804 0.003078
# 2 -0.003358 0.033641 -0.012401 0.003428 -0.007234 -0.001218
# 3 -0.001177 -0.012401 0.022635 -0.003365 0.010138 -0.002304
# 4 -0.000267 0.003428 -0.003365 0.029259 0.002082 0.006547
# 5 0.006804 -0.007234 0.010138 0.002082 0.037996 0.002643
# 6 0.003078 -0.001218 -0.002304 0.006547 0.002643 0.033805
#
#
# Mechanical properties :
#
#
# Convention : Reuss Voigt Hill
#
# Bulk Modulus (GPa) = 33.49936 54.71454 44.10695
# Shear Modulus (GPa) = 23.96873 36.15049 30.05961
#
# Velocity S-wave (km/s) = 3.24084 3.98009 3.62934
# Velocity P-wave (km/s) = 5.35569 6.71545 6.07375
#
# Compressibility (1/GPa) = 0.02985131
#
# Stress axis : x y z
#
# Youngs Moduli (GPa) = 134.28794 29.72526 44.18008
#
# Poissons Ratio (x) = 0.09982 0.05201
# Poissons Ratio (y) = 0.45093 0.54786
# Poissons Ratio (z) = 0.15809 0.36861
#
# Static dielectric constant tensor:
#      x y z
#    x 4.740010 0.166610 -0.595730 
#    y 0.166610 4.697590 -0.517950 
#    z -0.595730 -0.517950 4.053760 
# 
# 
# High freq. dielectric constant tensor:
#      x y z
#    x 1.928770 -0.008550 -0.024690 
#    y -0.008550 1.869940 -0.029000 
#    z -0.024690 -0.029000 1.877500 
# 
# From -- ./inp_files/539382.got.cif
#   From: 2010.06.25/outbox.cif.g09.slc.cpg/sg2_270_cif.got.tgz:539382.got - 2010.06.27 13:26:56.
