data_PCOD8043155
_publ_section_title
;
Structure prediction by ZEFSAII (Michael W. Deem and Ramdas Pophale) SiO2 
 PCOD8043155
Probable space group: P -1
;
_chemical_formula_sum "Si O2"
_cell_formula_units_Z 16
_cell_length_a 15.223157
_cell_length_b 9.276928
_cell_length_c 15.648030
_cell_angle_alpha 142.844485
_cell_angle_beta 47.388797
_cell_angle_gamma 140.203628
_cell_volume 842.267831
_symmetry_space_group_name_H-M "P -1"
_symmetry_group_IT_number 2
_symmetry_cell_setting 'triclinic'
loop_
_space_group_symop_operation_xyz
x,y,z
-x,-y,-z
loop_
_atom_site_type_symbol
_atom_site_label
_atom_site_fract_x
_atom_site_fract_y
_atom_site_fract_z
Si Si1 0.379875 0.714223 0.366291
Si Si2 0.166167 0.244811 0.925917
Si Si3 0.007626 0.613948 0.778141
Si Si4 0.260109 0.654676 0.718961
Si Si5 0.128910 0.679484 0.439012
Si Si6 0.267122 0.315967 0.703098
Si Si7 0.600876 0.723780 0.105070
Si Si8 0.463019 0.654814 0.451470
O O1 0.239420 0.580294 0.339611
O O2 0.509889 0.725729 0.242539
O O3 0.354315 0.539353 0.388691
O O4 0.422615 0.031401 0.504763
O O5 0.218906 0.341231 0.841152
O O6 0.291696 0.353944 0.962707
O O7 0.076839 0.379950 0.080328
O O8 0.077714 0.910555 0.824788
O O9 0.910029 0.379889 0.663265
O O10 0.121819 0.539490 0.698248
O O11 0.223540 0.490354 0.753884
O O12 0.376864 0.617344 0.575915
O O13 0.318244 0.977864 0.853775
O O14 0.000000 0.500000 0.500000
O O15 0.191333 0.004155 0.568781
O O16 0.437267 0.472532 0.662532
O O17 0.500000 0.500000 0.000000
#
# Coordination Sequence:
#
# PCOD8043155 Si02
#       8
#     2   2   2   2   2   2   2   2
#     4   9  17  29  56  82 103 137 183 233 268 315
#     4  10  20  37  59  80 112 151 191 226 275 330
#     4  10  21  37  55  82 114 153 190 228 266 332
#     4  10  22  36  57  82 117 146 180 227 288 332
#     4  11  20  33  57  86 111 144 195 230 268 323
#     4  11  21  36  59  85 113 150 181 231 285 329
#     4  10  19  36  59  82 104 143 191 229 269 332
#     4   9  17  33  55  82 108 139 183 227 280 327
#
# _framework density 18.996333
#
# number of rings (size 3 to 8) (size 9 to 14) (size 15 to 20)
#    0.000    2.000    2.500    1.875    3.500    1.000 
#    0.000    0.625    2.750    0.000    0.000    0.000 
#    0.000    0.000    0.000    0.000    0.000    0.000 
#
# Total GULP energy -198345.261486 kJ/mol
# GULP energy per Si atom -12396.578843 kJ/mol
# Density = 1.895310 g / cm^3
# Si number density = 18.996333 Si / 1000 Ang^3
#
#
#
# Elastic Constant Matrix: (Units=GPa)
#
#
# Indices 1 2 3 4 5 6 
#
# 1 125.9067 50.9527 44.5646 -3.2735 12.0268 2.7557
# 2 50.9527 68.8600 31.6087 -13.8604 3.5712 -6.5955
# 3 44.5646 31.6087 70.7517 -13.5140 11.9398 -3.7934
# 4 -3.2735 -13.8604 -13.5140 25.1310 8.1280 2.4105
# 5 12.0268 3.5712 11.9398 8.1280 34.3467 -4.7416
# 6 2.7557 -6.5955 -3.7934 2.4105 -4.7416 33.7337
#
#
#
# Elastic Compliance Matrix: (Units=1/GPa)
#
#
# Indices 1 2 3 4 5 6 
#
# 1 0.013509 -0.008763 -0.005642 -0.005476 -0.001004 -0.003201
# 2 -0.008763 0.025135 -0.003420 0.010529 -0.000232 0.004461
# 3 -0.005642 -0.003420 0.023085 0.012556 -0.008626 0.000278
# 4 -0.005476 0.010529 0.012556 0.057562 -0.017531 -0.002660
# 5 -0.001004 -0.000232 -0.008626 -0.017531 0.037408 0.005577
# 6 -0.003201 0.004461 0.000278 -0.002660 0.005577 0.031783
#
#
# Mechanical properties :
#
#
# Convention : Reuss Voigt Hill
#
# Bulk Modulus (GPa) = 38.34653 57.75226 48.04939
# Shear Modulus (GPa) = 21.47532 27.86841 24.67187
#
# Velocity S-wave (km/s) = 3.36594 3.83435 3.60775
# Velocity P-wave (km/s) = 5.94442 7.07607 6.53479
#
# Compressibility (1/GPa) = 0.02607798
#
# Stress axis : x y z
#
# Youngs Moduli (GPa) = 74.02296 39.78545 43.31849
#
# Poissons Ratio (x) = 0.34863 0.24442
# Poissons Ratio (y) = 0.64865 0.14816
# Poissons Ratio (z) = 0.41767 0.13608
#
# Static dielectric constant tensor:
#      x y z
#    x 3.751050 0.196220 -0.021810 
#    y 0.196220 3.265700 -0.147990 
#    z -0.021810 -0.147990 3.139980 
# 
# 
# High freq. dielectric constant tensor:
#      x y z
#    x 1.755740 0.012530 0.001110 
#    y 0.012530 1.711570 -0.025460 
#    z 0.001110 -0.025460 1.724380 
# 
# From -- ./inp_files/200246.got.cif
#   From: 2010.06.25/outbox.cif.g09.slc.cpg/sg2_101_cif.got.tgz:200246.got - 2010.06.27 13:26:56.
