data_PCOD8043703
_publ_section_title
;
Structure prediction by ZEFSAII (Michael W. Deem and Ramdas Pophale) SiO2 
 PCOD8043703
Probable space group: P -1
;
_chemical_formula_sum "Si O2"
_cell_formula_units_Z 16
_cell_length_a 7.813652
_cell_length_b 15.465705
_cell_length_c 15.801982
_cell_angle_alpha 139.661688
_cell_angle_beta 131.649984
_cell_angle_gamma 41.460118
_cell_volume 798.747859
_symmetry_space_group_name_H-M "P -1"
_symmetry_group_IT_number 2
_symmetry_cell_setting 'triclinic'
loop_
_space_group_symop_operation_xyz
x,y,z
-x,-y,-z
loop_
_atom_site_type_symbol
_atom_site_label
_atom_site_fract_x
_atom_site_fract_y
_atom_site_fract_z
Si Si1 0.705312 0.731694 0.881959
Si Si2 0.985643 0.113158 0.464938
Si Si3 0.996191 0.863476 0.979118
Si Si4 0.230985 0.555625 0.399574
Si Si5 0.555409 0.123265 0.927057
Si Si6 0.601780 0.036006 0.376330
Si Si7 0.132456 0.870189 0.750794
Si Si8 0.938510 0.650045 0.537659
O O1 0.767128 0.560170 0.756054
O O2 0.429323 0.844066 0.826091
O O3 0.673749 0.772366 0.002033
O O4 0.944608 0.749762 0.935478
O O5 0.826912 0.296869 0.565005
O O6 0.818552 0.041895 0.393928
O O7 0.016953 0.083090 0.352654
O O8 0.275250 0.033046 0.542898
O O9 0.280132 0.784660 0.965112
O O10 0.038189 0.985841 0.138568
O O11 0.749397 0.952331 0.901347
O O12 0.500000 0.500000 0.500000
O O13 0.991044 0.595546 0.416375
O O14 0.446665 0.091325 0.781196
O O15 0.355106 0.207796 0.436407
O O16 0.136379 0.716655 0.674035
O O17 0.000000 0.500000 0.500000
#
# Coordination Sequence:
#
# PCOD8043703 Si02
#       8
#     2   2   2   2   2   2   2   2
#     4  11  21  36  59  88 124 155 198 253 304 351
#     4  10  22  38  63  85 122 161 198 246 311 365
#     4  10  20  34  57  88 116 156 204 253 299 349
#     4  11  22  38  57  90 125 158 193 248 311 356
#     4  10  21  35  59  86 119 155 202 255 293 354
#     4  11  22  40  60  92 116 160 204 248 301 365
#     4  10  19  37  56  90 119 157 196 253 303 352
#     4  11  23  34  61  89 125 154 192 257 301 359
#
# _framework density 20.031354
#
# number of rings (size 3 to 8) (size 9 to 14) (size 15 to 20)
#    0.000    1.500    3.750    3.750    1.750    2.000 
#    0.000    0.625    0.000    0.750    0.000    0.000 
#    0.000    0.000    0.000    0.000    0.000    0.000 
#
# Total GULP energy -198244.472552 kJ/mol
# GULP energy per Si atom -12390.279535 kJ/mol
# Density = 1.998576 g / cm^3
# Si number density = 20.031354 Si / 1000 Ang^3
#
#
#
# Elastic Constant Matrix: (Units=GPa)
#
#
# Indices 1 2 3 4 5 6 
#
# 1 80.4992 13.5738 25.4808 -4.5797 17.1695 3.0984
# 2 13.5738 80.3156 36.0021 -4.7561 0.7383 5.3181
# 3 25.4808 36.0021 96.7877 -3.8430 -4.9513 1.3568
# 4 -4.5797 -4.7561 -3.8430 25.7659 3.3824 -0.7954
# 5 17.1695 0.7383 -4.9513 3.3824 32.8335 7.4654
# 6 3.0984 5.3181 1.3568 -0.7954 7.4654 27.1395
#
#
#
# Elastic Compliance Matrix: (Units=1/GPa)
#
#
# Indices 1 2 3 4 5 6 
#
# 1 0.016137 -0.000533 -0.004430 0.003426 -0.009734 0.001262
# 2 -0.000533 0.015267 -0.005455 0.001903 -0.000524 -0.002458
# 3 -0.004430 -0.005455 0.013756 -0.000364 0.004642 -0.000401
# 4 0.003426 0.001903 -0.000364 0.040652 -0.006591 0.002259
# 5 -0.009734 -0.000524 0.004642 -0.006591 0.039211 -0.009997
# 6 0.001262 -0.002458 -0.000401 0.002259 -0.009997 0.040020
#
#
# Mechanical properties :
#
#
# Convention : Reuss Voigt Hill
#
# Bulk Modulus (GPa) = 41.11180 45.30177 43.20679
# Shear Modulus (GPa) = 25.77506 29.31750 27.54628
#
# Velocity S-wave (km/s) = 3.59100 3.82983 3.71234
# Velocity P-wave (km/s) = 6.14508 6.49779 6.32390
#
# Compressibility (1/GPa) = 0.02432391
#
# Stress axis : x y z
#
# Youngs Moduli (GPa) = 61.96916 65.50284 72.69610
#
# Poissons Ratio (x) = 0.03490 0.32203
# Poissons Ratio (y) = 0.03301 0.39658
# Poissons Ratio (z) = 0.27451 0.35733
#
# Static dielectric constant tensor:
#      x y z
#    x 3.908700 -0.054140 -0.044900 
#    y -0.054140 3.393620 0.094010 
#    z -0.044900 0.094010 3.720580 
# 
# 
# High freq. dielectric constant tensor:
#      x y z
#    x 1.801520 -0.002850 -0.000110 
#    y -0.002850 1.728730 0.013160 
#    z -0.000110 0.013160 1.785660 
# 
# From -- ./inp_files/561792.got.cif
#   From: 2010.06.25/outbox.cif.g09.slc.cpg/sg2_281_cif.got.tgz:561792.got - 2010.06.27 13:26:56.
