data_PCOD8043214
_publ_section_title
;
Structure prediction by ZEFSAII (Michael W. Deem and Ramdas Pophale) SiO2 
 PCOD8043214
Probable space group: P -1
;
_chemical_formula_sum "Si O2"
_cell_formula_units_Z 16
_cell_length_a 25.364718
_cell_length_b 13.174914
_cell_length_c 9.251688
_cell_angle_alpha 53.882232
_cell_angle_beta 146.631787
_cell_angle_gamma 147.168125
_cell_volume 854.089741
_symmetry_space_group_name_H-M "P -1"
_symmetry_group_IT_number 2
_symmetry_cell_setting 'triclinic'
loop_
_space_group_symop_operation_xyz
x,y,z
-x,-y,-z
loop_
_atom_site_type_symbol
_atom_site_label
_atom_site_fract_x
_atom_site_fract_y
_atom_site_fract_z
Si Si1 0.183615 0.607820 0.707191
Si Si2 0.645141 0.430367 0.762440
Si Si3 0.891081 0.201722 0.528027
Si Si4 0.417535 0.241889 0.892115
Si Si5 0.082069 0.193238 0.110295
Si Si6 0.684530 0.430692 0.167952
Si Si7 0.551962 0.644045 0.826486
Si Si8 0.144278 0.195533 0.580713
O O1 0.187923 0.760995 0.605051
O O2 0.241351 0.628023 0.660152
O O3 0.012558 0.374548 0.540114
O O4 0.306072 0.667817 0.049189
O O5 0.754320 0.619933 0.746700
O O6 0.475583 0.289781 0.428675
O O7 0.659709 0.488228 0.915269
O O8 0.760332 0.983257 0.334814
O O9 0.977261 0.210758 0.841471
O O10 0.438818 0.407212 0.747696
O O11 0.520393 0.250659 0.024853
O O12 0.482385 0.308959 0.148116
O O13 0.103841 0.175740 0.339054
O O14 0.000000 0.000000 0.000000
O O15 0.803680 0.619435 0.388457
O O16 0.726966 0.778500 0.124777
O O17 0.000000 0.000000 0.500000
#
# Coordination Sequence:
#
# PCOD8043214 Si02
#       8
#     2   2   2   2   2   2   2   2
#     4   8  20  37  56  81 109 151 191 233 271 328
#     4   9  18  35  56  73 114 145 184 227 272 337
#     4  10  19  36  60  80 110 153 191 226 278 336
#     4  10  20  32  56  82 111 145 185 234 283 329
#     4  11  20  33  57  85 109 148 188 225 280 342
#     4   9  20  36  53  80 114 144 184 237 279 318
#     4  10  20  35  52  82 113 145 180 229 290 344
#     4  11  23  34  54  84 118 145 182 235 287 334
#
# _framework density 18.733394000000001
#
# number of rings (size 3 to 8) (size 9 to 14) (size 15 to 20)
#    0.750    1.500    0.000    4.500    1.750    3.500 
#    0.000    1.250    0.000    0.000    0.000    0.000 
#    0.000    0.000    0.000    0.000    0.000    0.000 
#
# Total GULP energy -198217.242568 kJ/mol
# GULP energy per Si atom -12388.577660 kJ/mol
# Density = 1.869076 g / cm^3
# Si number density = 18.733394 Si / 1000 Ang^3
#
#
#
# Elastic Constant Matrix: (Units=GPa)
#
#
# Indices 1 2 3 4 5 6 
#
# 1 115.8477 29.7452 42.8626 -4.4633 -3.2362 -14.5341
# 2 29.7452 57.6173 47.0599 -0.5812 6.0586 -5.2188
# 3 42.8626 47.0599 114.2378 -6.3357 -5.8549 -14.4094
# 4 -4.4633 -0.5812 -6.3357 22.5394 -0.6592 7.4582
# 5 -3.2362 6.0586 -5.8549 -0.6592 29.6424 -4.0925
# 6 -14.5341 -5.2188 -14.4094 7.4582 -4.0925 27.3726
#
#
#
# Elastic Compliance Matrix: (Units=1/GPa)
#
#
# Indices 1 2 3 4 5 6 
#
# 1 0.010947 -0.004061 -0.001751 0.000178 0.002292 0.004411
# 2 -0.004061 0.029712 -0.011764 -0.002492 -0.009365 -0.003405
# 3 -0.001751 -0.011764 0.015341 0.002108 0.006012 0.005228
# 4 0.000178 -0.002492 0.002108 0.049111 0.000297 -0.012608
# 5 0.002292 -0.009365 0.006012 0.000297 0.038230 0.008231
# 6 0.004411 -0.003405 0.005228 -0.012608 0.008231 0.045644
#
#
# Mechanical properties :
#
#
# Convention : Reuss Voigt Hill
#
# Bulk Modulus (GPa) = 47.96458 58.55978 53.26218
# Shear Modulus (GPa) = 21.63708 27.11321 24.37514
#
# Velocity S-wave (km/s) = 3.40222 3.80849 3.61107
# Velocity P-wave (km/s) = 6.41037 7.11807 6.77347
#
# Compressibility (1/GPa) = 0.02084872
#
# Stress axis : x y z
#
# Youngs Moduli (GPa) = 91.35126 33.65658 65.18519
#
# Poissons Ratio (x) = 0.13669 0.11411
# Poissons Ratio (y) = 0.37100 0.76681
# Poissons Ratio (z) = 0.15991 0.39592
#
# Static dielectric constant tensor:
#      x y z
#    x 3.546910 -0.008640 0.065860 
#    y -0.008640 3.211540 -0.057740 
#    z 0.065860 -0.057740 3.472080 
# 
# 
# High freq. dielectric constant tensor:
#      x y z
#    x 1.733680 -0.002100 0.012160 
#    y -0.002100 1.693940 0.003040 
#    z 0.012160 0.003040 1.729070 
# 
# From -- ./inp_files/353803.got.cif
#   From: 2010.06.25/outbox.cif.g09.slc.cpg/sg2_177_cif.got.tgz:353803.got - 2010.06.27 13:26:56.
