data_PCOD8043436
_publ_section_title
;
Structure prediction by ZEFSAII (Michael W. Deem and Ramdas Pophale) SiO2 
 PCOD8043436
Probable space group: P -1
;
_chemical_formula_sum "Si O2"
_cell_formula_units_Z 16
_cell_length_a 25.636569
_cell_length_b 8.469572
_cell_length_c 25.669773
_cell_angle_alpha 44.113709
_cell_angle_beta 11.223222
_cell_angle_gamma 43.697666
_cell_volume 747.847341
_symmetry_space_group_name_H-M "P -1"
_symmetry_group_IT_number 2
_symmetry_cell_setting 'triclinic'
loop_
_space_group_symop_operation_xyz
x,y,z
-x,-y,-z
loop_
_atom_site_type_symbol
_atom_site_label
_atom_site_fract_x
_atom_site_fract_y
_atom_site_fract_z
Si Si1 0.714233 0.158822 0.692788
Si Si2 0.983953 0.478391 0.857438
Si Si3 0.297965 0.194601 0.778332
Si Si4 0.029000 0.324346 0.432597
Si Si5 0.535336 0.175874 0.378079
Si Si6 0.187783 0.181198 0.144785
Si Si7 0.250944 0.680764 0.184238
Si Si8 0.205642 0.651593 0.699262
O O1 0.786187 0.328932 0.627990
O O2 0.404749 0.238423 0.961648
O O3 0.746911 0.898234 0.745910
O O4 0.903271 0.179068 0.452695
O O5 0.245641 0.320100 0.616321
O O6 0.082609 0.650848 0.762379
O O7 0.764288 0.332951 0.132720
O O8 0.836896 0.624291 0.920313
O O9 0.287331 0.388490 0.698539
O O10 0.524874 0.226634 0.591894
O O11 0.365540 0.950416 0.742516
O O12 0.007886 0.206721 0.086536
O O13 0.953295 0.287411 0.575167
O O14 0.135728 0.572414 0.270059
O O15 0.500000 0.000000 0.500000
O O16 0.307511 0.939526 0.056362
O O17 0.500000 0.500000 0.000000
#
# Coordination Sequence:
#
# PCOD8043436 Si02
#       8
#     2   2   2   2   2   2   2   2
#     4  10  21  38  62  90 122 164 204 257 306 358
#     4  12  25  42  63  91 129 168 206 257 325 381
#     4  10  21  37  62  92 121 147 205 260 303 363
#     4   9  20  34  61  95 120 154 215 260 298 350
#     4  12  24  41  67  95 119 162 215 261 305 373
#     4  11  24  41  60  86 129 166 203 249 317 375
#     4  10  19  36  62  92 120 161 209 259 296 364
#     4  10  21  37  62  92 120 157 195 255 316 364
#
# _framework density 21.394739999999999
#
# number of rings (size 3 to 8) (size 9 to 14) (size 15 to 20)
#    0.000    1.500    2.500    2.625    5.250    1.500 
#    0.000    3.750    2.750    0.000    0.000    0.000 
#    0.000    0.000    0.000    0.000    0.000    0.000 
#
# Total GULP energy -198377.312261 kJ/mol
# GULP energy per Si atom -12398.582016 kJ/mol
# Density = 2.134605 g / cm^3
# Si number density = 21.394740 Si / 1000 Ang^3
#
#
#
# Elastic Constant Matrix: (Units=GPa)
#
#
# Indices 1 2 3 4 5 6 
#
# 1 96.9166 45.3994 7.4618 -7.6088 -29.9938 10.1320
# 2 45.3994 96.1042 28.0970 7.1187 -11.4370 10.0158
# 3 7.4618 28.0970 80.6879 2.4880 -20.6685 -3.3615
# 4 -7.6088 7.1187 2.4880 30.2246 3.5384 -4.3614
# 5 -29.9938 -11.4370 -20.6685 3.5384 37.0574 -0.9292
# 6 10.1320 10.0158 -3.3615 -4.3614 -0.9292 31.9220
#
#
#
# Elastic Compliance Matrix: (Units=1/GPa)
#
#
# Indices 1 2 3 4 5 6 
#
# 1 0.019392 -0.008969 0.005024 0.004543 0.015252 -0.001747
# 2 -0.008969 0.016701 -0.006306 -0.005640 -0.005183 -0.003979
# 3 0.005024 -0.006306 0.017237 0.000327 0.011767 0.002586
# 4 0.004543 -0.005640 0.000327 0.036440 -0.001228 0.005305
# 5 0.015252 -0.005183 0.011767 -0.001228 0.044390 -0.000851
# 6 -0.001747 -0.003979 0.002586 0.005305 -0.000851 0.034102
#
#
# Mechanical properties :
#
#
# Convention : Reuss Voigt Hill
#
# Bulk Modulus (GPa) = 30.46140 48.40279 39.43210
# Shear Modulus (GPa) = 25.03676 32.69085 28.86380
#
# Velocity S-wave (km/s) = 3.42457 3.91319 3.67700
# Velocity P-wave (km/s) = 5.46861 6.56431 6.04135
#
# Compressibility (1/GPa) = 0.03282843
#
# Stress axis : x y z
#
# Youngs Moduli (GPa) = 51.56667 59.87495 58.01622
#
# Poissons Ratio (x) = 0.53702 -0.29147
# Poissons Ratio (y) = 0.46250 0.36584
# Poissons Ratio (z) = -0.25906 0.37756
#
# Static dielectric constant tensor:
#      x y z
#    x 3.857660 0.527030 -0.160140 
#    y 0.527030 4.192560 0.020900 
#    z -0.160140 0.020900 3.932350 
# 
# 
# High freq. dielectric constant tensor:
#      x y z
#    x 1.826100 0.029770 -0.015860 
#    y 0.029770 1.821310 0.009410 
#    z -0.015860 0.009410 1.846820 
# 
# From -- ./inp_files/551005.got.cif
#   From: 2010.06.25/outbox.cif.g09.slc.cpg/sg2_276_cif.got.tgz:551005.got - 2010.06.27 13:26:56.
