data_PCOD8043413
_publ_section_title
;
Structure prediction by ZEFSAII (Michael W. Deem and Ramdas Pophale) SiO2 
 PCOD8043413
Probable space group: P -1
;
_chemical_formula_sum "Si O2"
_cell_formula_units_Z 16
_cell_length_a 15.068144
_cell_length_b 10.055249
_cell_length_c 11.610372
_cell_angle_alpha 132.100378
_cell_angle_beta 133.833714
_cell_angle_gamma 43.487078
_cell_volume 821.786394
_symmetry_space_group_name_H-M "P -1"
_symmetry_group_IT_number 2
_symmetry_cell_setting 'triclinic'
loop_
_space_group_symop_operation_xyz
x,y,z
-x,-y,-z
loop_
_atom_site_type_symbol
_atom_site_label
_atom_site_fract_x
_atom_site_fract_y
_atom_site_fract_z
Si Si1 0.415573 0.060131 0.825429
Si Si2 0.537137 0.583769 0.692144
Si Si3 0.176761 0.772469 0.295356
Si Si4 0.825863 0.808053 0.478979
Si Si5 0.909390 0.525840 0.607442
Si Si6 0.063308 0.308768 0.028593
Si Si7 0.744388 0.308796 0.413957
Si Si8 0.699365 0.984389 0.080372
O O1 0.506969 0.812202 0.769253
O O2 0.325573 0.147051 0.679739
O O3 0.308288 0.138310 0.883717
O O4 0.533544 0.134023 0.981534
O O5 0.500000 0.500000 0.500000
O O6 0.700127 0.426000 0.776604
O O7 0.426132 0.583946 0.685162
O O8 0.192049 0.741813 0.429325
O O9 0.029951 0.802945 0.132596
O O10 0.179442 0.976879 0.381825
O O11 0.847207 0.701748 0.558676
O O12 0.945849 0.667387 0.414704
O O13 0.795881 0.450200 0.480200
O O14 0.933614 0.625480 0.800438
O O15 0.221873 0.161316 0.041093
O O16 0.000000 0.500000 0.000000
O O17 0.788975 0.098746 0.261214
#
# Coordination Sequence:
#
# PCOD8043413 Si02
#       8
#     2   2   2   2   2   2   2   2
#     4  10  19  36  62  89 120 155 196 245 302 346
#     4   9  17  33  59  91 116 144 196 252 286 345
#     4  11  21  37  66  87 121 157 200 243 302 350
#     4  11  23  43  61  83 124 168 192 234 312 365
#     4  11  26  40  58  89 125 157 200 247 294 360
#     4  12  23  35  60  93 120 149 204 258 290 336
#     4  10  20  39  59  88 119 153 199 248 291 347
#     4  10  21  35  61  91 117 150 202 253 287 347
#
# _framework density 19.469778000000002
#
# number of rings (size 3 to 8) (size 9 to 14) (size 15 to 20)
#    0.000    1.500    5.000    2.250    1.750    3.500 
#    0.000    3.125    0.000    0.000    0.000    0.000 
#    0.000    0.000    0.000    0.000    0.000    0.000 
#
# Total GULP energy -198266.708846 kJ/mol
# GULP energy per Si atom -12391.669303 kJ/mol
# Density = 1.942546 g / cm^3
# Si number density = 19.469778 Si / 1000 Ang^3
#
#
#
# Elastic Constant Matrix: (Units=GPa)
#
#
# Indices 1 2 3 4 5 6 
#
# 1 95.5185 48.0363 47.2317 -2.8378 -1.2483 -1.9848
# 2 48.0363 95.9421 34.2900 -7.0418 -4.5958 -1.0579
# 3 47.2317 34.2900 120.6990 -10.2672 3.5037 1.3514
# 4 -2.8378 -7.0418 -10.2672 25.7142 -4.8619 0.7894
# 5 -1.2483 -4.5958 3.5037 -4.8619 34.9403 2.8961
# 6 -1.9848 -1.0579 1.3514 0.7894 2.8961 24.8060
#
#
#
# Elastic Compliance Matrix: (Units=1/GPa)
#
#
# Indices 1 2 3 4 5 6 
#
# 1 0.015966 -0.006495 -0.004575 -0.001923 -0.000203 0.001335
# 2 -0.006495 0.014503 -0.001375 0.003140 0.002266 -0.000191
# 3 -0.004575 -0.001375 0.010783 0.003288 -0.000884 -0.001014
# 4 -0.001923 0.003140 0.003288 0.042063 0.006054 -0.002244
# 5 -0.000203 0.002266 -0.000884 0.006054 0.030139 -0.003583
# 6 0.001335 -0.000191 -0.001014 -0.002244 -0.003583 0.040956
#
#
# Mechanical properties :
#
#
# Convention : Reuss Voigt Hill
#
# Bulk Modulus (GPa) = 61.11965 63.47507 62.29736
# Shear Modulus (GPa) = 27.06301 29.26554 28.16427
#
# Velocity S-wave (km/s) = 3.73232 3.88122 3.80750
# Velocity P-wave (km/s) = 7.07346 7.26346 7.16909
#
# Compressibility (1/GPa) = 0.01636135
#
# Stress axis : x y z
#
# Youngs Moduli (GPa) = 62.63485 68.95048 92.74014
#
# Poissons Ratio (x) = 0.44781 0.42430
# Poissons Ratio (y) = 0.40679 0.12755
# Poissons Ratio (z) = 0.28656 0.09483
#
# Static dielectric constant tensor:
#      x y z
#    x 6.558720 -3.022210 -0.874090 
#    y -3.022210 5.973140 1.105170 
#    z -0.874090 1.105170 4.862220 
# 
# 
# High freq. dielectric constant tensor:
#      x y z
#    x 1.754040 -0.027490 0.009640 
#    y -0.027490 1.727170 0.013240 
#    z 0.009640 0.013240 1.779960 
# 
# From -- ./inp_files/448237.got.cif
#   From: 2010.06.25/outbox.cif.g09.slc.cpg/sg2_225_cif.got.tgz:448237.got - 2010.06.27 13:26:56.
