data_PCOD8043289
_publ_section_title
;
Structure prediction by ZEFSAII (Michael W. Deem and Ramdas Pophale) SiO2 
 PCOD8043289
Probable space group: P -1
;
_chemical_formula_sum "Si O2"
_cell_formula_units_Z 16
_cell_length_a 12.357699
_cell_length_b 14.944038
_cell_length_c 18.442357
_cell_angle_alpha 31.442289
_cell_angle_beta 150.540835
_cell_angle_gamma 127.103002
_cell_volume 733.040063
_symmetry_space_group_name_H-M "P -1"
_symmetry_group_IT_number 2
_symmetry_cell_setting 'triclinic'
loop_
_space_group_symop_operation_xyz
x,y,z
-x,-y,-z
loop_
_atom_site_type_symbol
_atom_site_label
_atom_site_fract_x
_atom_site_fract_y
_atom_site_fract_z
Si Si1 0.623311 0.830188 0.749745
Si Si2 0.981302 0.433589 0.148040
Si Si3 0.827155 0.096160 0.478250
Si Si4 0.604673 0.028618 0.260573
Si Si5 0.388099 0.452180 0.540479
Si Si6 0.800699 0.366533 0.955930
Si Si7 0.321272 0.094125 0.760701
Si Si8 0.883436 0.865740 0.007751
O O1 0.423672 0.775533 0.705071
O O2 0.709419 0.936811 0.784653
O O3 0.500000 0.000000 0.500000
O O4 0.865750 0.610068 0.018814
O O5 0.188825 0.215196 0.453259
O O6 0.151117 0.474880 0.164289
O O7 0.751227 0.435482 0.964907
O O8 0.019378 0.175450 0.547182
O O9 0.728728 0.125681 0.316218
O O10 0.950145 0.865249 0.737309
O O11 0.587656 0.081302 0.127991
O O12 0.308821 0.107744 0.057375
O O13 0.500000 0.500000 0.500000
O O14 0.573115 0.371304 0.775157
O O15 0.342861 0.274876 0.615237
O O16 0.120804 0.637534 0.288981
O O17 0.500000 0.000000 0.000000
O O18 0.000000 0.000000 0.000000
#
# Coordination Sequence:
#
# PCOD8043289 Si02
#       8
#     2   2   2   2   2   2   2   2
#     4  11  22  37  63  99 131 169 218 276 323 387
#     4  10  20  37  66  92 129 168 223 264 325 382
#     4  10  22  41  64  94 131 169 221 268 326 395
#     4  10  23  43  64  92 129 180 219 269 327 393
#     4  12  25  42  68  97 136 172 220 269 340 395
#     4  10  19  36  60  94 126 171 210 266 318 388
#     4  12  24  44  68  97 131 175 219 272 336 399
#     4  11  24  40  64  99 133 170 220 276 326 387
#
# _framework density 21.826910999999999
#
# number of rings (size 3 to 8) (size 9 to 14) (size 15 to 20)
#    0.000    1.250    2.500    4.125    3.500    1.000 
#    0.000    8.750    0.000    0.000    0.000    0.000 
#    0.000    0.000    0.000    0.000    0.000    0.000 
#
# Total GULP energy -198231.804917 kJ/mol
# GULP energy per Si atom -12389.487807 kJ/mol
# Density = 2.177723 g / cm^3
# Si number density = 21.826911 Si / 1000 Ang^3
#
#
#
# Elastic Constant Matrix: (Units=GPa)
#
#
# Indices 1 2 3 4 5 6 
#
# 1 111.7589 41.2810 44.1385 19.1496 8.8307 -15.0900
# 2 41.2810 119.8469 19.4175 30.4587 0.0291 3.6849
# 3 44.1385 19.4175 65.2755 16.9995 12.3474 -8.9181
# 4 19.1496 30.4587 16.9995 43.4546 -3.2085 -2.1014
# 5 8.8307 0.0291 12.3474 -3.2085 30.5592 5.4603
# 6 -15.0900 3.6849 -8.9181 -2.1014 5.4603 35.0107
#
#
#
# Elastic Compliance Matrix: (Units=1/GPa)
#
#
# Indices 1 2 3 4 5 6 
#
# 1 0.014090 -0.003647 -0.007167 -0.000768 -0.002131 0.004917
# 2 -0.003647 0.011320 0.000183 -0.006491 0.000867 -0.003242
# 3 -0.007167 0.000183 0.024202 -0.006917 -0.009161 0.004070
# 4 -0.000768 -0.006491 -0.006917 0.031052 0.006380 -0.000541
# 5 -0.002131 0.000867 -0.009161 0.006380 0.039335 -0.009095
# 6 0.004917 -0.003242 0.004070 -0.000541 -0.009095 0.033446
#
#
# Mechanical properties :
#
#
# Convention : Reuss Voigt Hill
#
# Bulk Modulus (GPa) = 35.27620 56.28393 45.78007
# Shear Modulus (GPa) = 27.15053 34.60786 30.87920
#
# Velocity S-wave (km/s) = 3.53073 3.98623 3.76537
# Velocity P-wave (km/s) = 5.72872 6.85778 6.31852
#
# Compressibility (1/GPa) = 0.02834772
#
# Stress axis : x y z
#
# Youngs Moduli (GPa) = 70.97354 88.33961 41.31852
#
# Poissons Ratio (x) = 0.32221 0.29614
# Poissons Ratio (y) = 0.25887 -0.00754
# Poissons Ratio (z) = 0.50869 -0.01612
#
# Static dielectric constant tensor:
#      x y z
#    x 3.853370 0.057570 -0.112910 
#    y 0.057570 3.768910 0.444440 
#    z -0.112910 0.444440 3.896940 
# 
# 
# High freq. dielectric constant tensor:
#      x y z
#    x 1.857160 -0.015820 -0.006550 
#    y -0.015820 1.870220 0.022110 
#    z -0.006550 0.022110 1.848400 
# 
# From -- ./inp_files/417055.got.cif
#   From: 2010.06.25/outbox.cif.g09.slc.cpg/sg2_209_cif.got.tgz:417055.got - 2010.06.27 13:26:56.
