data_PCOD8043869
_publ_section_title
;
Structure prediction by ZEFSAII (Michael W. Deem and Ramdas Pophale) SiO2 
 PCOD8043869
Probable space group: P -1
;
_chemical_formula_sum "Si O2"
_cell_formula_units_Z 16
_cell_length_a 8.198802
_cell_length_b 16.981410
_cell_length_c 8.571974
_cell_angle_alpha 60.975505
_cell_angle_beta 53.061029
_cell_angle_gamma 50.493245
_cell_volume 725.667600
_symmetry_space_group_name_H-M "P -1"
_symmetry_group_IT_number 2
_symmetry_cell_setting 'triclinic'
loop_
_space_group_symop_operation_xyz
x,y,z
-x,-y,-z
loop_
_atom_site_type_symbol
_atom_site_label
_atom_site_fract_x
_atom_site_fract_y
_atom_site_fract_z
Si Si1 0.885585 0.169963 0.633400
Si Si2 0.302177 0.277328 0.431443
Si Si3 0.957724 0.491598 0.351506
Si Si4 0.542902 0.356749 0.444218
Si Si5 0.817147 0.006567 0.971352
Si Si6 0.594030 0.904189 0.653172
Si Si7 0.998116 0.783468 0.142555
Si Si8 0.740944 0.415087 0.016242
O O1 0.676897 0.264739 0.575027
O O2 0.882932 0.204554 0.779857
O O3 0.130233 0.138086 0.436293
O O4 0.834418 0.072919 0.753300
O O5 0.086297 0.367982 0.366662
O O6 0.464868 0.318189 0.372241
O O7 0.448400 0.183860 0.317920
O O8 0.209725 0.238107 0.666687
O O9 0.000000 0.500000 0.500000
O O10 0.677603 0.549769 0.428328
O O11 0.066526 0.548042 0.131995
O O12 0.707069 0.398561 0.234990
O O13 0.550155 0.063281 0.134919
O O14 0.889644 0.888539 0.999161
O O15 0.000000 0.000000 0.000000
O O16 0.500000 0.000000 0.500000
O O17 0.181953 0.689719 0.023363
O O18 0.500000 0.500000 0.000000
#
# Coordination Sequence:
#
# PCOD8043869 Si02
#       8
#     2   2   2   2   2   2   2   2
#     4  10  24  40  60  93 125 156 195 258 307 340
#     4  10  19  37  65  87 115 162 201 242 296 353
#     4  10  19  37  60  88 120 154 202 244 294 359
#     4  11  23  39  62  91 129 150 198 260 304 342
#     4  10  20  37  64  83 118 161 206 234 296 362
#     4  11  20  39  64  87 120 157 210 243 283 367
#     4  10  20  39  64  87 114 163 209 236 292 365
#     4  12  21  37  65  92 114 160 210 240 289 370
#
# _framework density 22.048663999999999
#
# number of rings (size 3 to 8) (size 9 to 14) (size 15 to 20)
#    0.000    1.500    8.750    0.000    3.500    1.000 
#    0.000    8.750    0.000    4.500    0.000    0.000 
#    0.000    0.000    0.000    0.000    0.000    0.000 
#
# Total GULP energy -198347.487415 kJ/mol
# GULP energy per Si atom -12396.717963 kJ/mol
# Density = 2.199848 g / cm^3
# Si number density = 22.048664 Si / 1000 Ang^3
#
#
#
# Elastic Constant Matrix: (Units=GPa)
#
#
# Indices 1 2 3 4 5 6 
#
# 1 26.3271 13.0867 14.7579 1.4890 -6.3076 -17.5199
# 2 13.0867 125.3846 20.6816 2.1741 2.8692 -9.4201
# 3 14.7579 20.6816 109.6966 -12.6745 -18.9548 -7.5205
# 4 1.4890 2.1741 -12.6745 43.3521 -5.8380 -1.3826
# 5 -6.3076 2.8692 -18.9548 -5.8380 24.0872 -5.0042
# 6 -17.5199 -9.4201 -7.5205 -1.3826 -5.0042 34.9392
#
#
#
# Elastic Compliance Matrix: (Units=1/GPa)
#
#
# Indices 1 2 3 4 5 6 
#
# 1 0.074180 -0.005254 -0.001165 0.002402 0.027949 0.039627
# 2 -0.005254 0.008893 -0.002064 -0.001551 -0.004730 -0.001420
# 3 -0.001165 -0.002064 0.012604 0.005547 0.011931 0.003501
# 4 0.002402 -0.001551 0.005547 0.026537 0.012616 0.004837
# 5 0.027949 -0.004730 0.011931 0.012616 0.067126 0.025421
# 6 0.039627 -0.001420 0.003501 0.004837 0.025421 0.052695
#
#
# Mechanical properties :
#
#
# Convention : Reuss Voigt Hill
#
# Bulk Modulus (GPa) = 12.70480 39.82898 26.26689
# Shear Modulus (GPa) = 17.52927 34.66785 26.09856
#
# Velocity S-wave (km/s) = 2.82268 3.96957 3.44420
# Velocity P-wave (km/s) = 4.04945 6.25406 5.26836
#
# Compressibility (1/GPa) = 0.07871043
#
# Stress axis : x y z
#
# Youngs Moduli (GPa) = 13.48077 112.45214 79.33748
#
# Poissons Ratio (x) = 0.59084 0.09246
# Poissons Ratio (y) = 0.07083 0.16372
# Poissons Ratio (z) = 0.01571 0.23206
#
# Static dielectric constant tensor:
#      x y z
#    x 3.554130 -0.132430 -0.510440 
#    y -0.132430 4.853660 -0.243910 
#    z -0.510440 -0.243910 4.524080 
# 
# 
# High freq. dielectric constant tensor:
#      x y z
#    x 1.816380 -0.008710 -0.031630 
#    y -0.008710 1.892170 -0.012900 
#    z -0.031630 -0.012900 1.869690 
# 
# From -- ./inp_files/216947.got.cif
#   From: 2010.06.25/outbox.cif.g09.slc.cpg/sg2_109_cif.got.tgz:216947.got - 2010.06.27 13:26:56.
