data_PCOD8043033
_publ_section_title
;
Structure prediction by ZEFSAII (Michael W. Deem and Ramdas Pophale) SiO2 
 PCOD8043033
Probable space group: P -1
;
_chemical_formula_sum "Si O2"
_cell_formula_units_Z 16
_cell_length_a 8.598685
_cell_length_b 25.025599
_cell_length_c 10.023262
_cell_angle_alpha 130.632718
_cell_angle_beta 149.094324
_cell_angle_gamma 46.140422
_cell_volume 789.373606
_symmetry_space_group_name_H-M "P -1"
_symmetry_group_IT_number 2
_symmetry_cell_setting 'triclinic'
loop_
_space_group_symop_operation_xyz
x,y,z
-x,-y,-z
loop_
_atom_site_type_symbol
_atom_site_label
_atom_site_fract_x
_atom_site_fract_y
_atom_site_fract_z
Si Si1 0.744277 0.547969 0.494154
Si Si2 0.694098 0.255365 0.883057
Si Si3 0.955594 0.449821 0.004956
Si Si4 0.301140 0.279658 0.896613
Si Si5 0.047623 0.092562 0.798792
Si Si6 0.232394 0.795150 0.644797
Si Si7 0.331674 0.291611 0.401375
Si Si8 0.213654 0.928997 0.711747
O O1 0.421968 0.528367 0.208549
O O2 0.672856 0.634490 0.556772
O O3 0.000000 0.500000 0.500000
O O4 0.876438 0.528302 0.708674
O O5 0.473444 0.286932 0.899196
O O6 0.479125 0.287658 0.648995
O O7 0.830975 0.164976 0.839944
O O8 0.975220 0.289941 0.148297
O O9 0.110000 0.361892 0.944192
O O10 0.000000 0.500000 0.000000
O O11 0.059985 0.235254 0.620587
O O12 0.565993 0.232723 0.119459
O O13 0.901792 0.095742 0.550976
O O14 0.045606 0.018425 0.755863
O O15 0.403704 0.093812 0.048933
O O16 0.449291 0.774538 0.637725
O O17 0.110040 0.886195 0.689656
#
# Coordination Sequence:
#
# PCOD8043033 Si02
#       8
#     2   2   2   2   2   2   2   2
#     4  12  27  44  67  96 122 158 211 260 297 362
#     4  12  24  40  64  95 125 163 204 259 304 359
#     4  12  26  46  64  91 130 166 198 246 320 375
#     4  12  26  41  63  91 131 161 203 249 314 372
#     4  10  19  36  56  95 120 155 204 259 296 358
#     4  12  21  43  63  92 120 171 205 253 299 367
#     4  12  23  41  68  89 124 158 217 255 293 357
#     4  10  20  33  63  87 122 158 205 252 307 348
#
# _framework density 20.269235999999999
#
# number of rings (size 3 to 8) (size 9 to 14) (size 15 to 20)
#    0.000    0.500    5.000    3.750    3.500    0.000 
#    0.000    1.250    0.000    0.000    0.000    0.000 
#    0.000    0.000    0.000    0.000    0.000    0.000 
#
# Total GULP energy -198463.459257 kJ/mol
# GULP energy per Si atom -12403.966204 kJ/mol
# Density = 2.022310 g / cm^3
# Si number density = 20.269236 Si / 1000 Ang^3
#
#
#
# Elastic Constant Matrix: (Units=GPa)
#
#
# Indices 1 2 3 4 5 6 
#
# 1 101.0773 13.0233 34.2633 -13.4165 5.8099 10.9475
# 2 13.0233 89.2430 20.1491 -9.4391 0.9492 24.2022
# 3 34.2633 20.1491 145.2820 -25.3378 8.7431 14.3270
# 4 -13.4165 -9.4391 -25.3378 35.1470 8.1794 -0.7382
# 5 5.8099 0.9492 8.7431 8.1794 52.5999 -0.8773
# 6 10.9475 24.2022 14.3270 -0.7382 -0.8773 39.7727
#
#
#
# Elastic Compliance Matrix: (Units=1/GPa)
#
#
# Indices 1 2 3 4 5 6 
#
# 1 0.011287 -0.000271 -0.001735 0.003287 -0.001503 -0.002289
# 2 -0.000271 0.013928 -0.000427 0.003345 -0.000807 -0.008203
# 3 -0.001735 -0.000427 0.008767 0.006013 -0.002232 -0.002358
# 4 0.003287 0.003345 0.006013 0.036514 -0.007177 -0.004587
# 5 -0.001503 -0.000807 -0.002232 -0.007177 0.020713 0.002033
# 6 -0.002289 -0.008203 -0.002358 -0.004587 0.002033 0.031574
#
#
# Mechanical properties :
#
#
# Convention : Reuss Voigt Hill
#
# Bulk Modulus (GPa) = 34.34453 52.27485 43.30969
# Shear Modulus (GPa) = 36.40212 43.38169 39.89191
#
# Velocity S-wave (km/s) = 4.24244 4.63133 4.44114
# Velocity P-wave (km/s) = 6.40146 7.37870 6.90738
#
# Compressibility (1/GPa) = 0.02911672
#
# Stress axis : x y z
#
# Youngs Moduli (GPa) = 88.59746 71.79652 114.06102
#
# Poissons Ratio (x) = 0.01946 0.19789
# Poissons Ratio (y) = 0.02401 0.04869
# Poissons Ratio (z) = 0.15371 0.03065
#
# Static dielectric constant tensor:
#      x y z
#    x 3.497330 0.196900 0.047780 
#    y 0.196900 3.583840 0.181210 
#    z 0.047780 0.181210 3.953820 
# 
# 
# High freq. dielectric constant tensor:
#      x y z
#    x 1.776010 0.014970 0.007640 
#    y 0.014970 1.809720 -0.005070 
#    z 0.007640 -0.005070 1.815820 
# 
# From -- ./inp_files/226433.got.cif
#   From: 2010.06.25/outbox.cif.g09.slc.cpg/sg2_114_cif.got.tgz:226433.got - 2010.06.27 13:26:56.
