data_PCOD8043922
_publ_section_title
;
Structure prediction by ZEFSAII (Michael W. Deem and Ramdas Pophale) SiO2 
 PCOD8043922
Probable space group: P -1
;
_chemical_formula_sum "Si O2"
_cell_formula_units_Z 16
_cell_length_a 7.690248
_cell_length_b 9.668268
_cell_length_c 12.141625
_cell_angle_alpha 99.509129
_cell_angle_beta 115.657157
_cell_angle_gamma 64.121843
_cell_volume 731.823945
_symmetry_space_group_name_H-M "P -1"
_symmetry_group_IT_number 2
_symmetry_cell_setting 'triclinic'
loop_
_space_group_symop_operation_xyz
x,y,z
-x,-y,-z
loop_
_atom_site_type_symbol
_atom_site_label
_atom_site_fract_x
_atom_site_fract_y
_atom_site_fract_z
Si Si1 0.356210 0.108740 0.211064
Si Si2 0.859972 0.676256 0.464331
Si Si3 0.945036 0.065865 0.147403
Si Si4 0.492455 0.843222 0.515675
Si Si5 0.921997 0.759630 0.040017
Si Si6 0.348055 0.655997 0.035659
Si Si7 0.321017 0.217539 0.801668
Si Si8 0.947232 0.958570 0.596138
O O1 0.183710 0.054539 0.209327
O O2 0.447607 0.183604 0.341168
O O3 0.553740 0.966457 0.193068
O O4 0.241056 0.236403 0.101510
O O5 0.637530 0.699737 0.462230
O O6 0.838396 0.717979 0.335426
O O7 0.932246 0.793289 0.566240
O O8 0.000000 0.500000 0.500000
O O9 0.894906 0.051276 0.261378
O O10 0.927211 0.927830 0.056034
O O11 0.773316 0.226066 0.078650
O O12 0.500000 0.000000 0.500000
O O13 0.255168 0.878586 0.422196
O O14 0.165941 0.639816 0.063720
O O15 0.829337 0.727606 0.124199
O O16 0.504458 0.712593 0.150490
O O17 0.500000 0.500000 0.000000
O O18 0.000000 0.000000 0.500000
#
# Coordination Sequence:
#
# PCOD8043922 Si02
#       8
#     2   2   2   2   2   2   2   2
#     4  11  18  38  64  91 120 156 213 260 303 360
#     4  11  24  41  63  91 123 170 206 246 317 375
#     4  11  20  38  62  91 123 156 209 259 303 360
#     4  10  19  37  61  86 117 168 207 245 306 367
#     4  11  24  38  66  97 117 157 213 261 302 360
#     4  11  26  41  60  90 128 169 197 246 319 373
#     4  12  22  41  67  90 125 160 205 261 309 365
#     4  11  22  37  61  95 123 157 211 263 303 360
#
# _framework density 21.86318
#
# number of rings (size 3 to 8) (size 9 to 14) (size 15 to 20)
#    0.000    1.000    7.500    1.875    1.750    0.500 
#    0.000    1.875    0.000    0.000    0.000    0.000 
#    0.000    0.000    0.000    0.000    0.000    0.000 
#
# Total GULP energy -198209.496523 kJ/mol
# GULP energy per Si atom -12388.093533 kJ/mol
# Density = 2.181342 g / cm^3
# Si number density = 21.863180 Si / 1000 Ang^3
#
#
#
# Elastic Constant Matrix: (Units=GPa)
#
#
# Indices 1 2 3 4 5 6 
#
# 1 59.8747 31.1664 9.4223 -3.7865 -11.6774 -30.6310
# 2 31.1664 124.0771 23.8539 -10.4797 -1.5603 -37.4183
# 3 9.4223 23.8539 112.4408 2.6295 -9.2836 -13.2244
# 4 -3.7865 -10.4797 2.6295 20.1053 -8.4879 2.6083
# 5 -11.6774 -1.5603 -9.2836 -8.4879 31.8805 9.8442
# 6 -30.6310 -37.4183 -13.2244 2.6083 9.8442 30.2689
#
#
#
# Elastic Compliance Matrix: (Units=1/GPa)
#
#
# Indices 1 2 3 4 5 6 
#
# 1 0.035796 0.003014 0.001090 0.004166 0.002572 0.039232
# 2 0.003014 0.014119 -0.001200 0.003645 -0.004065 0.020988
# 3 0.001090 -0.001200 0.009630 -0.001388 0.001730 0.003383
# 4 0.004166 0.003645 -0.001388 0.060800 0.018452 -0.003124
# 5 0.002572 -0.004065 0.001730 0.018452 0.042834 -0.017187
# 6 0.039232 0.020988 0.003383 -0.003124 -0.017187 0.106021
#
#
# Mechanical properties :
#
#
# Convention : Reuss Voigt Hill
#
# Bulk Modulus (GPa) = 15.30137 47.25311 31.27724
# Shear Modulus (GPa) = 17.53297 31.91426 24.72361
#
# Velocity S-wave (km/s) = 2.83493 3.82478 3.36643
# Velocity P-wave (km/s) = 4.21066 6.41602 5.42655
#
# Compressibility (1/GPa) = 0.06535362
#
# Stress axis : x y z
#
# Youngs Moduli (GPa) = 27.93584 70.82489 103.84058
#
# Poissons Ratio (x) = -0.21349 -0.11317
# Poissons Ratio (y) = -0.08421 0.12465
# Poissons Ratio (z) = -0.03045 0.08501
#
# Static dielectric constant tensor:
#      x y z
#    x 5.081310 -0.744540 -0.312580 
#    y -0.744540 3.719460 0.131330 
#    z -0.312580 0.131330 4.215650 
# 
# 
# High freq. dielectric constant tensor:
#      x y z
#    x 1.854570 -0.032310 -0.004430 
#    y -0.032310 1.825540 0.003910 
#    z -0.004430 0.003910 1.877020 
# 
# From -- ./inp_files/225181.got.cif
#   From: 2010.06.25/outbox.cif.g09.slc.cpg/sg2_113_cif.got.tgz:225181.got - 2010.06.27 13:26:56.
