data_PCOD8043907
_publ_section_title
;
Structure prediction by ZEFSAII (Michael W. Deem and Ramdas Pophale) SiO2 
 PCOD8043907
Probable space group: P -1
;
_chemical_formula_sum "Si O2"
_cell_formula_units_Z 16
_cell_length_a 12.239836
_cell_length_b 16.970515
_cell_length_c 10.256812
_cell_angle_alpha 125.058670
_cell_angle_beta 70.557876
_cell_angle_gamma 153.028501
_cell_volume 692.862423
_symmetry_space_group_name_H-M "P -1"
_symmetry_group_IT_number 2
_symmetry_cell_setting 'triclinic'
loop_
_space_group_symop_operation_xyz
x,y,z
-x,-y,-z
loop_
_atom_site_type_symbol
_atom_site_label
_atom_site_fract_x
_atom_site_fract_y
_atom_site_fract_z
Si Si1 0.211949 0.500310 0.373084
Si Si2 0.449761 0.810007 0.767373
Si Si3 0.756856 0.889155 0.360311
Si Si4 0.621253 0.385457 0.976245
Si Si5 0.787658 0.710822 0.265080
Si Si6 0.876406 0.289922 0.056135
Si Si7 0.298444 0.160984 0.148453
Si Si8 0.218133 0.299909 0.235730
O O1 0.229811 0.611303 0.556820
O O2 0.496488 0.702855 0.378627
O O3 0.154129 0.362817 0.360577
O O4 0.967841 0.325552 0.199030
O O5 0.287362 0.732805 0.882387
O O6 0.614551 0.835607 0.758801
O O7 0.666442 0.051682 0.855798
O O8 0.662843 0.848216 0.212624
O O9 0.875197 0.868190 0.290296
O O10 0.995321 0.138325 0.558053
O O11 0.864961 0.495686 0.940454
O O12 0.763117 0.595032 0.079559
O O13 0.543247 0.328058 0.103842
O O14 0.490122 0.509890 0.244194
O O15 0.263206 0.249997 0.281694
O O16 0.011699 0.908295 0.970110
#
# Coordination Sequence:
#
# PCOD8043907 Si02
#       8
#     2   2   2   2   2   2   2   2
#     4  10  19  37  61  84 114 146 187 237 281 328
#     4  11  22  38  62  84 111 148 194 236 274 335
#     4   9  18  32  52  84 111 144 187 224 281 335
#     4  10  20  36  56  76 116 148 177 236 279 327
#     4   9  17  33  52  82 111 144 190 226 273 333
#     4  10  22  39  61  86 108 147 195 237 281 321
#     4  10  21  39  56  85 118 152 186 222 286 342
#     4   9  19  38  54  82 118 149 186 223 276 347
#
# _framework density 23.092608999999999
#
# number of rings (size 3 to 8) (size 9 to 14) (size 15 to 20)
#    0.000    2.250    1.250    1.500    0.000    2.000 
#   24.750    0.000    0.000    0.750    0.000    0.000 
#    0.000    0.000    0.000    0.000    0.000    0.000 
#
# Total GULP energy -198232.362627 kJ/mol
# GULP energy per Si atom -12389.522664 kJ/mol
# Density = 2.304005 g / cm^3
# Si number density = 23.092609 Si / 1000 Ang^3
#
#
#
# Elastic Constant Matrix: (Units=GPa)
#
#
# Indices 1 2 3 4 5 6 
#
# 1 61.7821 -38.3912 19.2109 18.0574 0.3497 -1.0693
# 2 -38.3912 -159.9660 26.4583 71.2515 64.3628 -17.4755
# 3 19.2109 26.4583 101.9923 9.3185 -22.7673 5.4962
# 4 18.0574 71.2515 9.3185 9.3117 -15.5835 13.8612
# 5 0.3497 64.3628 -22.7673 -15.5835 3.9390 14.6403
# 6 -1.0693 -17.4755 5.4962 13.8612 14.6403 20.4108
#
#
#
# Elastic Compliance Matrix: (Units=1/GPa)
#
#
# Indices 1 2 3 4 5 6 
#
# 1 0.016748 -0.000339 0.000020 -0.003198 0.011239 -0.005308
# 2 -0.000339 0.004272 0.002094 0.007039 0.014090 -0.011812
# 3 0.000020 0.002094 0.012343 -0.009066 0.009572 -0.002238
# 4 -0.003198 0.007039 -0.009066 0.035883 -0.020734 -0.001196
# 5 0.011239 0.014090 0.009572 -0.020734 0.056330 -0.016249
# 6 -0.005308 -0.011812 -0.002238 -0.001196 -0.016249 0.051672
#
#
# Mechanical properties :
#
#
# Convention : Reuss Voigt Hill
#
# Bulk Modulus (GPa) = 27.08911 2.04049 14.56480
# Shear Modulus (GPa) = 26.88141 6.50098 16.69119
#
# Velocity S-wave (km/s) = 3.41555 1.67967 2.69140
# Velocity P-wave (km/s) = 5.22597 2.15575 3.99737
#
# Compressibility (1/GPa) = 0.03691521
#
# Stress axis : x y z
#
# Youngs Moduli (GPa) = 59.70728 234.10858 81.01614
#
# Poissons Ratio (x) = 0.07927 -0.00164
# Poissons Ratio (y) = 0.02022 -0.16968
# Poissons Ratio (z) = -0.00121 -0.49031
#
# Static dielectric constant tensor:
#      x y z
#    x 4.395400 0.160480 -0.275560 
#    y 0.160480 3.862170 0.292060 
#    z -0.275560 0.292060 4.380490 
# 
# 
# High freq. dielectric constant tensor:
#      x y z
#    x 1.889740 0.023910 -0.006670 
#    y 0.023910 1.896920 0.023130 
#    z -0.006670 0.023130 1.913800 
# 
# From -- ./inp_files/256108.got.cif
#   From: 2010.06.25/outbox.cif.g09.slc.cpg/sg2_129_cif.got.tgz:256108.got - 2010.06.27 13:26:56.
