data_PCOD8043128
_publ_section_title
;
Structure prediction by ZEFSAII (Michael W. Deem and Ramdas Pophale) SiO2 
 PCOD8043128
Probable space group: P -1
;
_chemical_formula_sum "Si O2"
_cell_formula_units_Z 14
_cell_length_a 9.086579
_cell_length_b 24.091658
_cell_length_c 8.343720
_cell_angle_alpha 48.804343
_cell_angle_beta 107.495206
_cell_angle_gamma 145.294749
_cell_volume 647.179623
_symmetry_space_group_name_H-M "P -1"
_symmetry_group_IT_number 2
_symmetry_cell_setting 'triclinic'
loop_
_space_group_symop_operation_xyz
x,y,z
-x,-y,-z
loop_
_atom_site_type_symbol
_atom_site_label
_atom_site_fract_x
_atom_site_fract_y
_atom_site_fract_z
Si Si1 0.787038 0.864258 0.064301
Si Si2 0.714118 0.924642 0.620479
Si Si3 0.159358 0.390243 0.109138
Si Si4 0.239839 0.713720 0.579880
Si Si5 0.065739 0.857871 0.530157
Si Si6 0.647384 0.988020 0.004044
Si Si7 0.393848 0.631656 0.631777
O O1 0.484146 0.700791 0.356457
O O2 0.641258 0.854239 0.898699
O O3 0.000000 0.000000 0.000000
O O4 0.027995 0.900701 0.010737
O O5 0.428162 0.802499 0.638924
O O6 0.795507 0.044673 0.452466
O O7 0.000000 0.000000 0.500000
O O8 0.087595 0.385343 0.281295
O O9 0.925634 0.227783 0.282415
O O10 0.500000 0.500000 0.000000
O O11 0.158059 0.463724 0.858429
O O12 0.393698 0.818369 0.278749
O O13 0.213133 0.617181 0.707841
O O14 0.713853 0.741041 0.615953
O O15 0.282640 0.972271 0.235096
O O16 0.500000 0.000000 0.000000
#
# Coordination Sequence:
#
# PCOD8043128 Si02
#       7
#     2   2   2   2   2   2   2
#     4  11  18  36  60  85 116 151 192 240 287 341
#     4  12  20  34  61  93 123 142 184 256 298 343
#     4  10  23  38  56  82 119 160 198 238 275 351
#     4  12  21  35  60  94 114 150 199 240 299 335
#     4  10  19  36  58  88 120 148 188 239 299 336
#     4  11  19  33  57  88 118 142 198 240 279 351
#     4  10  19  37  61  82 112 156 204 228 276 353
#
# _framework density 21.632325999999999
#
# number of rings (size 3 to 8) (size 9 to 14) (size 15 to 20)
#    0.000    1.143    8.571    0.429    0.000    0.571 
#    0.000    0.714    0.000    2.571    0.000    0.000 
#    0.000    0.000    0.000    0.000    0.000    0.000 
#
# Total GULP energy -173448.782199 kJ/mol
# GULP energy per Si atom -12389.198729 kJ/mol
# Density = 2.158309 g / cm^3
# Si number density = 21.632326 Si / 1000 Ang^3
#
#
#
# Elastic Constant Matrix: (Units=GPa)
#
#
# Indices 1 2 3 4 5 6 
#
# 1 170.2834 20.8684 58.5442 -10.7872 3.9761 -29.1996
# 2 20.8684 44.9925 22.0868 3.5471 13.3889 -8.2747
# 3 58.5442 22.0868 168.0055 -4.3768 16.1425 -21.0894
# 4 -10.7872 3.5471 -4.3768 9.7951 0.1303 0.2535
# 5 3.9761 13.3889 16.1425 0.1303 51.7329 -9.5571
# 6 -29.1996 -8.2747 -21.0894 0.2535 -9.5571 25.1365
#
#
#
# Elastic Compliance Matrix: (Units=1/GPa)
#
#
# Indices 1 2 3 4 5 6 
#
# 1 0.008863 -0.003205 -0.001527 0.009984 0.002206 0.008697
# 2 -0.003205 0.028000 -0.002175 -0.014601 -0.006001 0.001534
# 3 -0.001527 -0.002175 0.007337 0.002313 -0.001013 0.003257
# 4 0.009984 -0.014601 0.002313 0.119130 0.003636 0.008914
# 5 0.002206 -0.006001 -0.001013 0.003636 0.022549 0.008274
# 6 0.008697 0.001534 0.003257 0.008914 0.008274 0.056180
#
#
# Mechanical properties :
#
#
# Convention : Reuss Voigt Hill
#
# Bulk Modulus (GPa) = 32.91225 65.14225 49.02725
# Shear Modulus (GPa) = 18.79688 36.11834 27.45761
#
# Velocity S-wave (km/s) = 2.95095 4.09056 3.56657
# Velocity P-wave (km/s) = 5.18249 7.24493 6.29870
#
# Compressibility (1/GPa) = 0.03038383
#
# Stress axis : x y z
#
# Youngs Moduli (GPa) = 112.83170 35.71486 136.30007
#
# Poissons Ratio (x) = 0.11448 0.20815
# Poissons Ratio (y) = 0.36166 0.29648
# Poissons Ratio (z) = 0.17231 0.07769
#
# Static dielectric constant tensor:
#      x y z
#    x 6.684570 1.596230 -0.187910 
#    y 1.596230 4.810250 -0.337290 
#    z -0.187910 -0.337290 4.705760 
# 
# 
# High freq. dielectric constant tensor:
#      x y z
#    x 1.887530 -0.006500 -0.003330 
#    y -0.006500 1.772290 -0.000760 
#    z -0.003330 -0.000760 1.867830 
# 
# From -- ./inp_files/167864.got.cif
#   From: 2010.06.25/outbox.cif.g09.slc.cpg/sg2_84_cif.got.tgz:167864.got - 2010.06.27 13:26:56.
