data_PCOD8043043
_publ_section_title
;
Structure prediction by ZEFSAII (Michael W. Deem and Ramdas Pophale) SiO2 
 PCOD8043043
Probable space group: P -1
;
_chemical_formula_sum "Si O2"
_cell_formula_units_Z 16
_cell_length_a 12.547171
_cell_length_b 6.570878
_cell_length_c 12.899502
_cell_angle_alpha 49.220903
_cell_angle_beta 80.432963
_cell_angle_gamma 81.617944
_cell_volume 793.138604
_symmetry_space_group_name_H-M "P -1"
_symmetry_group_IT_number 2
_symmetry_cell_setting 'triclinic'
loop_
_space_group_symop_operation_xyz
x,y,z
-x,-y,-z
loop_
_atom_site_type_symbol
_atom_site_label
_atom_site_fract_x
_atom_site_fract_y
_atom_site_fract_z
Si Si1 0.490827 0.854069 0.828306
Si Si2 0.875060 0.312765 0.615557
Si Si3 0.675664 0.820787 0.142375
Si Si4 0.526782 0.514561 0.760678
Si Si5 0.774413 0.335068 0.402234
Si Si6 0.070969 0.111360 0.543203
Si Si7 0.467601 0.759695 0.486799
Si Si8 0.690166 0.067199 0.847373
O O1 0.502301 0.555330 0.875446
O O2 0.371584 0.911645 0.878117
O O3 0.493414 0.994673 0.667982
O O4 0.596439 0.910515 0.858518
O O5 0.840400 0.381754 0.480597
O O6 0.880939 0.593481 0.585217
O O7 0.795187 0.104807 0.748305
O O8 0.993781 0.155067 0.642743
O O9 0.564340 0.673148 0.202539
O O10 0.762939 0.629729 0.251985
O O11 0.727484 0.900192 0.998782
O O12 0.526753 0.752020 0.593504
O O13 0.643685 0.362541 0.788231
O O14 0.661276 0.215448 0.488843
O O15 0.832706 0.119507 0.384147
O O16 0.000000 0.000000 0.500000
O O17 0.500000 0.500000 0.500000
#
# Coordination Sequence:
#
# PCOD8043043 Si02
#       8
#     2   2   2   2   2   2   2   2
#     4  11  20  34  51  78 118 151 188 223 263 316
#     4  10  20  38  61  83 104 135 178 231 282 321
#     4  10  23  37  50  80 120 150 185 222 261 319
#     4  10  21  32  53  78 112 158 186 219 267 312
#     4  10  19  36  57  80 109 144 180 223 273 325
#     4   9  21  38  61  85 105 129 175 233 283 330
#     4  11  17  33  51  84 114 142 184 232 266 311
#     4  11  22  36  55  80 113 149 187 226 265 321
#
# _framework density 20.173020000000001
#
# number of rings (size 3 to 8) (size 9 to 14) (size 15 to 20)
#    0.000    1.750    5.000    1.875    1.750    4.000 
#    0.000    0.625    0.000    6.750    0.000    0.000 
#    0.000    0.000    0.000    0.000    0.000    0.000 
#
# Total GULP energy -198217.093994 kJ/mol
# GULP energy per Si atom -12388.568375 kJ/mol
# Density = 2.012711 g / cm^3
# Si number density = 20.173020 Si / 1000 Ang^3
#
#
#
# Elastic Constant Matrix: (Units=GPa)
#
#
# Indices 1 2 3 4 5 6 
#
# 1 66.5099 33.5094 26.7790 3.1165 -5.3605 -21.2114
# 2 33.5094 101.1784 10.0159 20.8881 3.0135 -16.9302
# 3 26.7790 10.0159 97.0446 12.8109 1.6882 -7.8348
# 4 3.1165 20.8881 12.8109 26.1978 2.8044 1.8089
# 5 -5.3605 3.0135 1.6882 2.8044 16.0748 6.2031
# 6 -21.2114 -16.9302 -7.8348 1.8089 6.2031 35.3053
#
#
#
# Elastic Compliance Matrix: (Units=1/GPa)
#
#
# Indices 1 2 3 4 5 6 
#
# 1 0.023882 -0.007001 -0.005870 0.004401 0.005872 0.008431
# 2 -0.007001 0.015643 0.002525 -0.012670 -0.005428 0.005459
# 3 -0.005870 0.002525 0.012803 -0.007349 -0.003048 0.001437
# 4 0.004401 -0.012670 -0.007349 0.052028 -0.001587 -0.007449
# 5 0.005872 -0.005428 -0.003048 -0.001587 0.070430 -0.012045
# 6 0.008431 0.005459 0.001437 -0.007449 -0.012045 0.038824
#
#
# Mechanical properties :
#
#
# Convention : Reuss Voigt Hill
#
# Bulk Modulus (GPa) = 31.60934 45.03795 38.32365
# Shear Modulus (GPa) = 20.42086 28.47749 24.44918
#
# Velocity S-wave (km/s) = 3.18510 3.76129 3.48512
# Velocity P-wave (km/s) = 5.40644 6.42163 5.93578
#
# Compressibility (1/GPa) = 0.03163622
#
# Stress axis : x y z
#
# Youngs Moduli (GPa) = 41.87236 63.92601 78.10720
#
# Poissons Ratio (x) = 0.44755 0.45849
# Poissons Ratio (y) = 0.29315 -0.19723
# Poissons Ratio (z) = 0.24579 -0.16142
#
# Static dielectric constant tensor:
#      x y z
#    x 5.563420 5.210750 -2.275820 
#    y 5.210750 18.911340 -6.342190 
#    z -2.275820 -6.342190 6.483880 
# 
# 
# High freq. dielectric constant tensor:
#      x y z
#    x 1.756940 -0.005840 0.002520 
#    y -0.005840 1.812940 0.007220 
#    z 0.002520 0.007220 1.776850 
# 
# From -- ./inp_files/441628.got.cif
#   From: 2010.06.25/outbox.cif.g09.slc.cpg/sg2_221_cif.got.tgz:441628.got - 2010.06.27 13:26:56.
