data_PCOD8043483
_publ_section_title
;
Structure prediction by ZEFSAII (Michael W. Deem and Ramdas Pophale) SiO2 
 PCOD8043483
Probable space group: P -1
;
_chemical_formula_sum "Si O2"
_cell_formula_units_Z 16
_cell_length_a 17.730056
_cell_length_b 9.381548
_cell_length_c 10.527526
_cell_angle_alpha 112.456157
_cell_angle_beta 129.669705
_cell_angle_gamma 108.900120
_cell_volume 750.520307
_symmetry_space_group_name_H-M "P -1"
_symmetry_group_IT_number 2
_symmetry_cell_setting 'triclinic'
loop_
_space_group_symop_operation_xyz
x,y,z
-x,-y,-z
loop_
_atom_site_type_symbol
_atom_site_label
_atom_site_fract_x
_atom_site_fract_y
_atom_site_fract_z
Si Si1 0.455722 0.304630 0.472813
Si Si2 0.001767 0.269639 0.759758
Si Si3 0.689808 0.703524 0.258621
Si Si4 0.768755 0.697818 0.071905
Si Si5 0.227911 0.215458 0.352269
Si Si6 0.799901 0.081294 0.123738
Si Si7 0.920114 0.444230 0.576132
Si Si8 0.110636 0.363516 0.182680
O O1 0.500000 0.500000 0.500000
O O2 0.618255 0.426561 0.742146
O O3 0.365188 0.263628 0.483609
O O4 0.340195 0.052528 0.175572
O O5 0.034372 0.459020 0.772206
O O6 0.070123 0.201066 0.741545
O O7 0.094018 0.412327 0.040877
O O8 0.806266 0.001955 0.474920
O O9 0.749784 0.695277 0.449296
O O10 0.500000 0.500000 0.000000
O O11 0.722730 0.637486 0.150349
O O12 0.791192 0.899145 0.111266
O O13 0.237363 0.379021 0.327166
O O14 0.059484 0.916714 0.045501
O O15 0.785233 0.186976 0.257918
O O16 0.972475 0.313407 0.317490
O O17 0.832404 0.433083 0.588182
#
# Coordination Sequence:
#
# PCOD8043483 Si02
#       8
#     2   2   2   2   2   2   2   2
#     4  10  19  36  63  87 124 158 216 265 299 361
#     4  11  24  40  64  96 126 165 215 262 311 377
#     4  11  22  37  63  96 131 158 206 267 316 360
#     4  11  22  41  66  94 124 165 220 261 303 372
#     4  10  20  36  61  93 118 162 217 256 300 375
#     4  10  22  37  60  93 124 169 211 253 324 370
#     4  11  22  37  62  92 137 164 206 261 325 380
#     4  10  21  37  61  88 124 165 211 255 313 370
#
# _framework density 21.318543999999999
#
# number of rings (size 3 to 8) (size 9 to 14) (size 15 to 20)
#    0.000    1.500    3.750    2.250    3.500    1.000 
#    0.000    0.625    0.000   16.500    0.000    0.000 
#    0.000    0.000    0.000    0.000    0.000    0.000 
#
# Total GULP energy -198293.784877 kJ/mol
# GULP energy per Si atom -12393.361555 kJ/mol
# Density = 2.127002 g / cm^3
# Si number density = 21.318544 Si / 1000 Ang^3
#
#
#
# Elastic Constant Matrix: (Units=GPa)
#
#
# Indices 1 2 3 4 5 6 
#
# 1 104.1225 24.7423 45.7992 -1.0881 -21.5298 9.0233
# 2 24.7423 68.4997 27.7373 -11.3537 -8.4839 7.8816
# 3 45.7992 27.7373 99.6724 -9.9535 -19.0422 -0.4926
# 4 -1.0881 -11.3537 -9.9535 21.7335 7.4505 -6.6013
# 5 -21.5298 -8.4839 -19.0422 7.4505 46.1679 -6.9564
# 6 9.0233 7.8816 -0.4926 -6.6013 -6.9564 28.5673
#
#
#
# Elastic Compliance Matrix: (Units=1/GPa)
#
#
# Indices 1 2 3 4 5 6 
#
# 1 0.013753 -0.002796 -0.005377 -0.005837 0.004016 -0.004036
# 2 -0.002796 0.018369 -0.003268 0.007432 -0.000889 -0.002740
# 3 -0.005377 -0.003268 0.014473 0.005142 0.002741 0.004705
# 4 -0.005837 0.007432 0.005142 0.057812 -0.006821 0.011580
# 5 0.004016 -0.000889 0.002741 -0.006821 0.026176 0.003822
# 6 -0.004036 -0.002740 0.004705 0.011580 0.003822 0.040724
#
#
# Mechanical properties :
#
#
# Convention : Reuss Voigt Hill
#
# Bulk Modulus (GPa) = 42.17144 52.09469 47.13307
# Shear Modulus (GPa) = 24.74097 30.89479 27.81788
#
# Velocity S-wave (km/s) = 3.41036 3.81096 3.61621
# Velocity P-wave (km/s) = 5.94407 6.62223 6.29229
#
# Compressibility (1/GPa) = 0.02371273
#
# Stress axis : x y z
#
# Youngs Moduli (GPa) = 72.71307 54.43982 69.09249
#
# Poissons Ratio (x) = 0.15221 0.37150
# Poissons Ratio (y) = 0.20331 0.22581
# Poissons Ratio (z) = 0.39097 0.17792
#
# Static dielectric constant tensor:
#      x y z
#    x 3.557470 0.318780 -0.144800 
#    y 0.318780 3.689820 -0.255860 
#    z -0.144800 -0.255860 4.602400 
# 
# 
# High freq. dielectric constant tensor:
#      x y z
#    x 1.828200 0.028150 -0.019610 
#    y 0.028150 1.815010 -0.018450 
#    z -0.019610 -0.018450 1.837580 
# 
# From -- ./inp_files/348292.got.cif
#   From: 2010.06.25/outbox.cif.g09.slc.cpg/sg2_175_cif.got.tgz:348292.got - 2010.06.27 13:26:56.
