data_PCOD8043122
_publ_section_title
;
Structure prediction by ZEFSAII (Michael W. Deem and Ramdas Pophale) SiO2 
 PCOD8043122
Probable space group: P -1
;
_chemical_formula_sum "Si O2"
_cell_formula_units_Z 14
_cell_length_a 11.929536
_cell_length_b 11.057148
_cell_length_c 13.900469
_cell_angle_alpha 35.554871
_cell_angle_beta 41.335602
_cell_angle_gamma 61.681804
_cell_volume 658.205475
_symmetry_space_group_name_H-M "P -1"
_symmetry_group_IT_number 2
_symmetry_cell_setting 'triclinic'
loop_
_space_group_symop_operation_xyz
x,y,z
-x,-y,-z
loop_
_atom_site_type_symbol
_atom_site_label
_atom_site_fract_x
_atom_site_fract_y
_atom_site_fract_z
Si Si1 0.865716 0.353199 0.949299
Si Si2 0.734290 0.445726 0.455913
Si Si3 0.452270 0.926010 0.794733
Si Si4 0.562283 0.418396 0.390457
Si Si5 0.787273 0.194577 0.302353
Si Si6 0.606772 0.951065 0.874395
Si Si7 0.093240 0.221336 0.236219
O O1 0.850997 0.579217 0.852602
O O2 0.063678 0.395700 0.747759
O O3 0.720656 0.258721 0.020486
O O4 0.832022 0.175681 0.173902
O O5 0.679346 0.532718 0.334821
O O6 0.579234 0.455277 0.627826
O O7 0.737780 0.198891 0.595872
O O8 0.476731 0.836406 0.942731
O O9 0.428125 0.164319 0.666404
O O10 0.633640 0.965098 0.586595
O O11 0.705372 0.399416 0.229472
O O12 0.964457 0.257758 0.213140
O O13 0.729015 0.802003 0.917226
O O14 0.500000 0.000000 0.000000
O O15 0.000000 0.000000 0.500000
#
# Coordination Sequence:
#
# PCOD8043122 Si02
#       7
#     2   2   2   2   2   2   2
#     4  12  22  35  67  92 123 160 198 253 310 352
#     4  10  19  36  58  87 116 160 206 245 291 351
#     4   9  21  41  57  92 129 149 204 252 307 354
#     4   8  18  36  57  78 128 146 199 248 291 344
#     4  10  21  39  60  93 118 158 204 245 301 359
#     4  11  24  41  62  84 119 170 204 244 300 366
#     4  12  21  41  62  89 125 157 211 252 286 365
#
# _framework density 21.269955
#
# number of rings (size 3 to 8) (size 9 to 14) (size 15 to 20)
#    0.857    0.857    4.286    0.857    2.000    3.429 
#    0.000    0.714    0.000    0.000    0.000    0.000 
#    0.000    0.000    0.000    0.000    0.000    0.000 
#
# Total GULP energy -173480.542861 kJ/mol
# GULP energy per Si atom -12391.467347 kJ/mol
# Density = 2.122154 g / cm^3
# Si number density = 21.269955 Si / 1000 Ang^3
#
#
#
# Elastic Constant Matrix: (Units=GPa)
#
#
# Indices 1 2 3 4 5 6 
#
# 1 124.5887 53.9028 47.1336 1.8090 -31.4608 5.0887
# 2 53.9028 80.8047 36.5054 18.7356 -23.4367 -17.8050
# 3 47.1336 36.5054 72.7912 8.9952 -41.7228 11.1455
# 4 1.8090 18.7356 8.9952 36.0992 -0.0820 -3.8653
# 5 -31.4608 -23.4367 -41.7228 -0.0820 38.9423 0.2662
# 6 5.0887 -17.8050 11.1455 -3.8653 0.2662 39.9019
#
#
#
# Elastic Compliance Matrix: (Units=1/GPa)
#
#
# Indices 1 2 3 4 5 6 
#
# 1 0.013882 -0.009412 -0.002112 0.004188 0.003331 -0.004997
# 2 -0.009412 0.028794 -0.010475 -0.010153 -0.001628 0.016002
# 3 -0.002112 -0.010475 0.052086 -0.009490 0.047913 -0.020192
# 4 0.004188 -0.010153 -0.009490 0.035212 -0.012827 0.001083
# 5 0.003331 -0.001628 0.047913 -0.012827 0.078808 -0.016303
# 6 -0.004997 0.016002 -0.020192 0.001083 -0.016303 0.038693
#
#
# Mechanical properties :
#
#
# Convention : Reuss Voigt Hill
#
# Bulk Modulus (GPa) = 19.69874 61.47425 40.58650
# Shear Modulus (GPa) = 16.21303 32.36487 24.28895
#
# Velocity S-wave (km/s) = 2.76388 3.90503 3.38292
# Velocity P-wave (km/s) = 4.41212 7.02118 5.86361
#
# Compressibility (1/GPa) = 0.05076467
#
# Stress axis : x y z
#
# Youngs Moduli (GPa) = 72.03642 34.72914 19.19916
#
# Poissons Ratio (x) = 0.32688 0.04054
# Poissons Ratio (y) = 0.67803 0.20110
# Poissons Ratio (z) = 0.15211 0.36378
#
# Static dielectric constant tensor:
#      x y z
#    x 3.672170 -0.316910 0.088180 
#    y -0.316910 3.851620 0.145450 
#    z 0.088180 0.145450 3.876920 
# 
# 
# High freq. dielectric constant tensor:
#      x y z
#    x 1.813270 -0.016060 0.002990 
#    y -0.016060 1.820850 0.015980 
#    z 0.002990 0.015980 1.836780 
# 
# From -- ./inp_files/518656.got.cif
#   From: 2010.06.25/outbox.cif.g09.slc.cpg/sg2_260_cif.got.tgz:518656.got - 2010.06.27 13:26:56.
