data_PCOD8043361
_publ_section_title
;
Structure prediction by ZEFSAII (Michael W. Deem and Ramdas Pophale) SiO2 
 PCOD8043361
Probable space group: P -1
;
_chemical_formula_sum "Si O2"
_cell_formula_units_Z 16
_cell_length_a 14.856088
_cell_length_b 15.353564
_cell_length_c 11.628261
_cell_angle_alpha 140.194413
_cell_angle_beta 138.715604
_cell_angle_gamma 27.689928
_cell_volume 766.095763
_symmetry_space_group_name_H-M "P -1"
_symmetry_group_IT_number 2
_symmetry_cell_setting 'triclinic'
loop_
_space_group_symop_operation_xyz
x,y,z
-x,-y,-z
loop_
_atom_site_type_symbol
_atom_site_label
_atom_site_fract_x
_atom_site_fract_y
_atom_site_fract_z
Si Si1 0.449579 0.500102 0.142947
Si Si2 0.491921 0.332626 0.442280
Si Si3 0.419463 0.898150 0.093330
Si Si4 0.188708 0.961947 0.738489
Si Si5 0.214818 0.022563 0.250782
Si Si6 0.784192 0.298294 0.092431
Si Si7 0.937414 0.236259 0.570477
Si Si8 0.330497 0.027005 0.610185
O O1 0.409896 0.617990 0.337732
O O2 0.617432 0.460586 0.190396
O O3 0.500149 0.312821 0.041047
O O4 0.259765 0.626291 0.004674
O O5 0.621976 0.227587 0.345757
O O6 0.261586 0.527393 0.385758
O O7 0.512802 0.176492 0.373207
O O8 0.319931 0.018629 0.239441
O O9 0.600334 0.867641 0.207540
O O10 0.255163 0.021439 0.959033
O O11 0.102332 0.887931 0.641144
O O12 0.019378 0.161182 0.703271
O O13 0.337416 0.970525 0.428664
O O14 0.206919 0.869704 0.061923
O O15 0.983504 0.234287 0.254994
O O16 0.105656 0.182479 0.599002
#
# Coordination Sequence:
#
# PCOD8043361 Si02
#       8
#     2   2   2   2   2   2   2   2
#     4  10  19  36  61  91 122 154 205 254 296 355
#     4  11  21  40  69  88 119 162 209 248 300 360
#     4  11  24  41  58  88 134 157 193 255 308 358
#     4  10  23  40  65  93 119 158 208 257 298 350
#     4  10  20  37  62  87 123 159 201 245 308 358
#     4   9  19  33  61  95 113 155 210 254 287 356
#     4  10  22  40  66  91 117 158 209 255 292 360
#     4  11  24  42  62  91 127 163 195 250 314 363
#
# _framework density 20.885116
#
# number of rings (size 3 to 8) (size 9 to 14) (size 15 to 20)
#    0.000    1.750    2.500    1.500    3.500    3.000 
#    2.250    1.875    0.000    0.000    0.000    0.000 
#    0.000    0.000    0.000    0.000    0.000    0.000 
#
# Total GULP energy -198387.304611 kJ/mol
# GULP energy per Si atom -12399.206538 kJ/mol
# Density = 2.083758 g / cm^3
# Si number density = 20.885116 Si / 1000 Ang^3
#
#
#
# Elastic Constant Matrix: (Units=GPa)
#
#
# Indices 1 2 3 4 5 6 
#
# 1 96.7159 30.9844 47.4445 -11.6357 9.6195 5.6691
# 2 30.9844 113.8555 13.3721 -16.4137 -0.7795 1.6077
# 3 47.4445 13.3721 53.3530 -15.9353 11.6677 5.1570
# 4 -11.6357 -16.4137 -15.9353 26.4870 0.7635 -0.2550
# 5 9.6195 -0.7795 11.6677 0.7635 28.2526 -4.8312
# 6 5.6691 1.6077 5.1570 -0.2550 -4.8312 20.2685
#
#
#
# Elastic Compliance Matrix: (Units=1/GPa)
#
#
# Indices 1 2 3 4 5 6 
#
# 1 0.019962 -0.003952 -0.018257 -0.004688 0.000671 -0.000524
# 2 -0.003952 0.010462 0.002775 0.006406 0.000266 -0.000287
# 3 -0.018257 0.002775 0.044563 0.020830 -0.014316 -0.009602
# 4 -0.004688 0.006406 0.020830 0.052406 -0.009280 -0.006050
# 5 0.000671 0.000266 -0.014316 -0.009280 0.043684 0.013730
# 6 -0.000524 -0.000287 -0.009602 -0.006050 0.013730 0.055147
#
#
# Mechanical properties :
#
#
# Convention : Reuss Voigt Hill
#
# Bulk Modulus (GPa) = 27.68629 49.72517 38.70573
# Shear Modulus (GPa) = 18.04203 26.47650 22.25927
#
# Velocity S-wave (km/s) = 2.94236 3.56437 3.26819
# Velocity P-wave (km/s) = 4.98282 6.38751 5.72838
#
# Compressibility (1/GPa) = 0.03611896
#
# Stress axis : x y z
#
# Youngs Moduli (GPa) = 50.09629 95.58384 22.44016
#
# Poissons Ratio (x) = 0.37774 0.40969
# Poissons Ratio (y) = 0.19798 -0.06227
# Poissons Ratio (z) = 0.91460 -0.26525
#
# Static dielectric constant tensor:
#      x y z
#    x 3.899830 -0.017760 -0.139530 
#    y -0.017760 3.939650 -0.278420 
#    z -0.139530 -0.278420 3.553830 
# 
# 
# High freq. dielectric constant tensor:
#      x y z
#    x 1.820330 0.004100 -0.015240 
#    y 0.004100 1.817930 -0.022610 
#    z -0.015240 -0.022610 1.794650 
# 
# From -- ./inp_files/390211.got.cif
#   From: 2010.06.25/outbox.cif.g09.slc.cpg/sg2_196_cif.got.tgz:390211.got - 2010.06.27 13:26:56.
