data_PCOD8043812
_publ_section_title
;
Structure prediction by ZEFSAII (Michael W. Deem and Ramdas Pophale) SiO2 
 PCOD8043812
Probable space group: P -1
;
_chemical_formula_sum "Si O2"
_cell_formula_units_Z 14
_cell_length_a 10.921038
_cell_length_b 11.195219
_cell_length_c 10.648452
_cell_angle_alpha 111.475512
_cell_angle_beta 59.629725
_cell_angle_gamma 64.803601
_cell_volume 678.386209
_symmetry_space_group_name_H-M "P -1"
_symmetry_group_IT_number 2
_symmetry_cell_setting 'triclinic'
loop_
_space_group_symop_operation_xyz
x,y,z
-x,-y,-z
loop_
_atom_site_type_symbol
_atom_site_label
_atom_site_fract_x
_atom_site_fract_y
_atom_site_fract_z
Si Si1 0.095088 0.852592 0.508427
Si Si2 0.971674 0.312769 0.701696
Si Si3 0.593330 0.063905 0.536387
Si Si4 0.148860 0.370660 0.992400
Si Si5 0.171405 0.053449 0.870059
Si Si6 0.803172 0.137897 0.996760
Si Si7 0.563454 0.491768 0.103639
O O1 0.091334 0.705794 0.407347
O O2 0.350296 0.718720 0.352542
O O3 0.000000 0.000000 0.500000
O O4 0.956336 0.964602 0.747471
O O5 0.952116 0.481814 0.778447
O O6 0.803718 0.390695 0.932823
O O7 0.210457 0.099032 0.532212
O O8 0.391705 0.262813 0.795569
O O9 0.500000 0.000000 0.500000
O O10 0.681679 0.085344 0.380649
O O11 0.154824 0.217176 0.964248
O O12 0.000000 0.500000 0.000000
O O13 0.930249 0.160787 0.017092
O O14 0.278544 0.915526 0.885198
O O15 0.591557 0.346668 0.121158
O O16 0.500000 0.500000 0.000000
#
# Coordination Sequence:
#
# PCOD8043812 Si02
#       7
#     2   2   2   2   2   2   2
#     4  11  22  37  61  90 119 159 204 249 296 355
#     4  11  21  35  61  93 116 152 212 247 292 348
#     4  10  19  37  59  89 115 160 196 247 296 349
#     4  11  21  37  61  88 120 155 206 245 293 358
#     4  10  22  40  59  90 124 160 191 255 305 356
#     4  11  21  42  59  87 130 151 200 251 307 354
#     4  10  20  36  60  89 117 158 202 246 291 357
#
# _framework density 20.637211000000001
#
# number of rings (size 3 to 8) (size 9 to 14) (size 15 to 20)
#    0.000    1.429    7.143    0.000    4.000    0.000 
#    2.571    2.143    0.000   10.286    0.000    0.000 
#    0.000    0.000    0.000    0.000    0.000    0.000 
#
# Total GULP energy -173479.723414 kJ/mol
# GULP energy per Si atom -12391.408815 kJ/mol
# Density = 2.059024 g / cm^3
# Si number density = 20.637211 Si / 1000 Ang^3
#
#
#
# Elastic Constant Matrix: (Units=GPa)
#
#
# Indices 1 2 3 4 5 6 
#
# 1 70.0809 14.4455 18.3743 6.9931 -2.8930 1.2503
# 2 14.4455 130.4059 35.0522 8.2111 -8.1829 0.7642
# 3 18.3743 35.0522 113.2046 22.8125 -7.8702 -2.3467
# 4 6.9931 8.2111 22.8125 31.5116 -5.0907 -4.0579
# 5 -2.8930 -8.1829 -7.8702 -5.0907 41.1160 6.3456
# 6 1.2503 0.7642 -2.3467 -4.0579 6.3456 23.8943
#
#
#
# Elastic Compliance Matrix: (Units=1/GPa)
#
#
# Indices 1 2 3 4 5 6 
#
# 1 0.015181 -0.001052 -0.001743 -0.001931 0.000501 -0.001393
# 2 -0.001052 0.008515 -0.002358 -0.000177 0.001273 -0.000817
# 3 -0.001743 -0.002358 0.011324 -0.007096 0.000715 -0.000116
# 4 -0.001931 -0.000177 -0.007096 0.038417 0.002410 0.005294
# 5 0.000501 0.001273 0.000715 0.002410 0.026049 -0.006505
# 6 -0.001393 -0.000817 -0.000116 0.005294 -0.006505 0.044565
#
#
# Mechanical properties :
#
#
# Convention : Reuss Voigt Hill
#
# Bulk Modulus (GPa) = 40.46449 49.93729 45.20089
# Shear Modulus (GPa) = 30.75097 35.69236 33.22166
#
# Velocity S-wave (km/s) = 3.86434 4.16325 4.01658
# Velocity P-wave (km/s) = 6.28974 6.88190 6.59247
#
# Compressibility (1/GPa) = 0.02471303
#
# Stress axis : x y z
#
# Youngs Moduli (GPa) = 65.87024 117.44449 88.30817
#
# Poissons Ratio (x) = 0.12354 0.15394
# Poissons Ratio (y) = 0.06929 0.20826
# Poissons Ratio (z) = 0.11483 0.27698
#
# Static dielectric constant tensor:
#      x y z
#    x 4.081010 0.094570 -0.067930 
#    y 0.094570 3.611370 0.233130 
#    z -0.067930 0.233130 4.514810 
# 
# 
# High freq. dielectric constant tensor:
#      x y z
#    x 1.821180 0.001520 0.004700 
#    y 0.001520 1.771680 0.024530 
#    z 0.004700 0.024530 1.811140 
# 
# From -- ./inp_files/423895.got.cif
#   From: 2010.06.25/outbox.cif.g09.slc.cpg/sg2_212_cif.got.tgz:423895.got - 2010.06.27 13:26:56.
