data_PCOD8043698
_publ_section_title
;
Structure prediction by ZEFSAII (Michael W. Deem and Ramdas Pophale) SiO2 
 PCOD8043698
Probable space group: P -1
;
_chemical_formula_sum "Si O2"
_cell_formula_units_Z 14
_cell_length_a 5.266686
_cell_length_b 13.308234
_cell_length_c 11.556016
_cell_angle_alpha 119.762408
_cell_angle_beta 83.999535
_cell_angle_gamma 120.547754
_cell_volume 593.588210
_symmetry_space_group_name_H-M "P -1"
_symmetry_group_IT_number 2
_symmetry_cell_setting 'triclinic'
loop_
_space_group_symop_operation_xyz
x,y,z
-x,-y,-z
loop_
_atom_site_type_symbol
_atom_site_label
_atom_site_fract_x
_atom_site_fract_y
_atom_site_fract_z
Si Si1 0.054585 0.343953 0.497233
Si Si2 0.416862 0.907738 0.061935
Si Si3 0.298363 0.506960 0.355804
Si Si4 0.289524 0.976762 0.661053
Si Si5 0.050664 0.882730 0.273489
Si Si6 0.223222 0.414928 0.881614
Si Si7 0.103959 0.610954 0.899981
O O1 0.166904 0.382009 0.381125
O O2 0.341991 0.407582 0.604913
O O3 0.834764 0.397934 0.562092
O O4 0.872026 0.183911 0.434243
O O5 0.120825 0.885565 0.132983
O O6 0.694267 0.980616 0.180118
O O7 0.356932 0.762853 0.933851
O O8 0.500000 0.000000 0.000000
O O9 0.200393 0.447301 0.195935
O O10 0.630102 0.049769 0.634049
O O11 0.098368 0.030414 0.637555
O O12 0.820073 0.727589 0.241223
O O13 0.221211 0.505828 0.826481
O O14 0.500000 0.500000 0.000000
O O15 0.934343 0.370573 0.951552
#
# Coordination Sequence:
#
# PCOD8043698 Si02
#       7
#     2   2   2   2   2   2   2
#     4  10  21  39  61  84 123 159 199 238 298 349
#     4   9  19  34  55  89 118 149 185 243 302 364
#     4  10  22  38  59  90 117 160 199 245 288 358
#     4  10  19  37  56  83 111 156 187 243 288 357
#     4   9  21  34  57  84 111 152 195 233 298 348
#     4  10  21  37  61  86 120 161 197 250 299 353
#     4  10  21  37  58  93 119 155 198 248 301 353
#
# _framework density 23.585374999999999
#
# number of rings (size 3 to 8) (size 9 to 14) (size 15 to 20)
#    0.857    1.429    0.000    2.571    4.000    0.571 
#    0.000    0.000    0.000    5.143    0.000    0.000 
#    0.000    0.000    0.000    0.000    0.000    0.000 
#
# Total GULP energy -173482.441324 kJ/mol
# GULP energy per Si atom -12391.602952 kJ/mol
# Density = 2.353169 g / cm^3
# Si number density = 23.585375 Si / 1000 Ang^3
#
#
#
# Elastic Constant Matrix: (Units=GPa)
#
#
# Indices 1 2 3 4 5 6 
#
# 1 113.3161 40.4860 10.0068 11.2417 16.8495 -20.5667
# 2 40.4860 143.6186 23.1616 43.2223 7.5689 -27.4939
# 3 10.0068 23.1616 72.0915 15.2120 23.9853 -4.4894
# 4 11.2417 43.2223 15.2120 42.3587 -1.5630 0.7266
# 5 16.8495 7.5689 23.9853 -1.5630 30.4291 0.4311
# 6 -20.5667 -27.4939 -4.4894 0.7266 0.4311 28.3539
#
#
#
# Elastic Compliance Matrix: (Units=1/GPa)
#
#
# Indices 1 2 3 4 5 6 
#
# 1 0.012215 -0.000270 0.003109 -0.004594 -0.009516 0.009353
# 2 -0.000270 0.014752 0.001505 -0.015988 -0.005737 0.014844
# 3 0.003109 0.001505 0.022763 -0.011436 -0.020738 0.007927
# 4 -0.004594 -0.015988 -0.011436 0.046300 0.018227 -0.022109
# 5 -0.009516 -0.005737 -0.020738 0.018227 0.057084 -0.017084
# 6 0.009353 0.014844 0.007927 -0.022109 -0.017084 0.058528
#
#
# Mechanical properties :
#
#
# Convention : Reuss Voigt Hill
#
# Bulk Modulus (GPa) = 17.11827 52.92610 35.02218
# Shear Modulus (GPa) = 22.47935 37.25312 29.86624
#
# Velocity S-wave (km/s) = 3.09059 3.97860 3.56238
# Velocity P-wave (km/s) = 4.47319 6.60263 5.63933
#
# Compressibility (1/GPa) = 0.05841713
#
# Stress axis : x y z
#
# Youngs Moduli (GPa) = 81.86557 67.78799 43.93147
#
# Poissons Ratio (x) = 0.01832 -0.13659
# Poissons Ratio (y) = 0.02212 -0.06611
# Poissons Ratio (z) = -0.25453 -0.10201
#
# Static dielectric constant tensor:
#      x y z
#    x 4.069940 -0.080340 -0.013890 
#    y -0.080340 4.387640 0.004920 
#    z -0.013890 0.004920 4.231450 
# 
# 
# High freq. dielectric constant tensor:
#      x y z
#    x 1.921890 -0.009340 0.006170 
#    y -0.009340 1.937650 0.007040 
#    z 0.006170 0.007040 1.929930 
# 
# From -- ./inp_files/481662.got.cif
#   From: 2010.06.25/outbox.cif.g09.slc.cpg/sg2_241_cif.got.tgz:481662.got - 2010.06.27 13:26:56.
