data_PCOD8043454
_publ_section_title
;
Structure prediction by ZEFSAII (Michael W. Deem and Ramdas Pophale) SiO2 
 PCOD8043454
Probable space group: P -1
;
_chemical_formula_sum "Si O2"
_cell_formula_units_Z 16
_cell_length_a 16.996187
_cell_length_b 13.176495
_cell_length_c 15.536492
_cell_angle_alpha 54.938802
_cell_angle_beta 39.404384
_cell_angle_gamma 25.322359
_cell_volume 840.416491
_symmetry_space_group_name_H-M "P -1"
_symmetry_group_IT_number 2
_symmetry_cell_setting 'triclinic'
loop_
_space_group_symop_operation_xyz
x,y,z
-x,-y,-z
loop_
_atom_site_type_symbol
_atom_site_label
_atom_site_fract_x
_atom_site_fract_y
_atom_site_fract_z
Si Si1 0.053010 0.844933 0.963513
Si Si2 0.767924 0.585150 0.731916
Si Si3 0.658456 0.239453 0.963585
Si Si4 0.783472 0.851805 0.566560
Si Si5 0.996980 0.802544 0.568794
Si Si6 0.183044 0.170037 0.731976
Si Si7 0.381587 0.253729 0.566481
Si Si8 0.330040 0.734496 0.258437
O O1 0.363117 0.543268 0.839147
O O2 0.942276 0.985309 0.895953
O O3 0.895570 0.862280 0.116620
O O4 0.000000 0.000000 0.000000
O O5 0.680912 0.805296 0.698563
O O6 0.927827 0.412393 0.593806
O O7 0.944217 0.399504 0.755907
O O8 0.503304 0.738822 0.883225
O O9 0.712714 0.193436 0.839401
O O10 0.500000 0.500000 0.000000
O O11 0.811003 0.905801 0.603494
O O12 0.570131 0.108117 0.560472
O O13 0.161895 0.555030 0.603291
O O14 0.199265 0.718028 0.394561
O O15 0.802807 0.040264 0.683773
O O16 0.237027 0.249236 0.698532
O O17 0.450363 0.889825 0.593912
#
# Coordination Sequence:
#
# PCOD8043454 Si02
#       8
#     2   2   2   2   2   2   2   2
#     4  12  23  39  63  92 124 156 198 256 307 358
#     4  10  19  36  62  95 125 154 203 253 303 358
#     4  12  23  39  63  92 124 156 198 256 307 358
#     4  10  21  36  62  93 122 161 201 250 303 357
#     4  11  24  43  63  83 127 165 204 251 300 375
#     4  10  19  36  62  95 125 154 203 253 303 358
#     4  10  21  36  62  93 122 161 201 250 303 357
#     4  11  26  43  61  91 119 166 208 244 311 368
#
# _framework density 19.038179
#
# number of rings (size 3 to 8) (size 9 to 14) (size 15 to 20)
#    0.000    1.250    3.750    2.250    3.500    4.000 
#    0.000    5.000    0.000    3.000    0.000    0.000 
#    0.000    0.000    0.000    0.000    0.000    0.000 
#
# Total GULP energy -198489.721948 kJ/mol
# GULP energy per Si atom -12405.607622 kJ/mol
# Density = 1.899485 g / cm^3
# Si number density = 19.038179 Si / 1000 Ang^3
#
#
#
# Elastic Constant Matrix: (Units=GPa)
#
#
# Indices 1 2 3 4 5 6 
#
# 1 134.7443 69.2692 55.5723 -4.4973 -3.5663 -4.2577
# 2 69.2692 136.7824 55.3185 -0.4914 -4.7184 -4.5162
# 3 55.5723 55.3185 110.7500 -8.6645 -9.0576 9.2414
# 4 -4.4973 -0.4914 -8.6645 25.1299 -3.8490 -4.0110
# 5 -3.5663 -4.7184 -9.0576 -3.8490 23.3512 -3.2167
# 6 -4.2577 -4.5162 9.2414 -4.0110 -3.2167 38.0688
#
#
#
# Elastic Compliance Matrix: (Units=1/GPa)
#
#
# Indices 1 2 3 4 5 6 
#
# 1 0.011100 -0.004111 -0.003600 0.000916 -0.000145 0.001712
# 2 -0.004111 0.010909 -0.003623 -0.001500 0.000140 0.001568
# 3 -0.003600 -0.003623 0.013587 0.004079 0.004200 -0.003346
# 4 0.000916 -0.001500 0.004079 0.043422 0.009166 0.004284
# 5 -0.000145 0.000140 0.004200 0.009166 0.046504 0.003876
# 6 0.001712 0.001568 -0.003346 0.004284 0.003876 0.028237
#
#
# Mechanical properties :
#
#
# Convention : Reuss Voigt Hill
#
# Bulk Modulus (GPa) = 77.34213 82.51074 79.92644
# Shear Modulus (GPa) = 27.66469 30.78443 29.22456
#
# Velocity S-wave (km/s) = 3.81611 4.02554 3.92222
# Velocity P-wave (km/s) = 7.75435 8.06476 7.91107
#
# Compressibility (1/GPa) = 0.01292956
#
# Stress axis : x y z
#
# Youngs Moduli (GPa) = 90.08932 91.66691 73.59979
#
# Poissons Ratio (x) = 0.37682 0.26493
# Poissons Ratio (y) = 0.37033 0.26665
# Poissons Ratio (z) = 0.32428 0.33211
#
# Static dielectric constant tensor:
#      x y z
#    x 3.592140 -0.170020 -0.166140 
#    y -0.170020 3.636540 -0.137010 
#    z -0.166140 -0.137010 3.472200 
# 
# 
# High freq. dielectric constant tensor:
#      x y z
#    x 1.745580 -0.012380 -0.018280 
#    y -0.012380 1.749440 -0.015350 
#    z -0.018280 -0.015350 1.731510 
# 
# From -- ./inp_files/427640.got.cif
#   From: 2010.06.25/outbox.cif.g09.slc.cpg/sg2_214_cif.got.tgz:427640.got - 2010.06.27 13:26:56.
