data_PCOD8043427
_publ_section_title
;
Structure prediction by ZEFSAII (Michael W. Deem and Ramdas Pophale) SiO2 
 PCOD8043427
Probable space group: P -1
;
_chemical_formula_sum "Si O2"
_cell_formula_units_Z 14
_cell_length_a 7.235883
_cell_length_b 9.435219
_cell_length_c 10.590336
_cell_angle_alpha 117.907995
_cell_angle_beta 62.501778
_cell_angle_gamma 111.862252
_cell_volume 555.377382
_symmetry_space_group_name_H-M "P -1"
_symmetry_group_IT_number 2
_symmetry_cell_setting 'triclinic'
loop_
_space_group_symop_operation_xyz
x,y,z
-x,-y,-z
loop_
_atom_site_type_symbol
_atom_site_label
_atom_site_fract_x
_atom_site_fract_y
_atom_site_fract_z
Si Si1 0.233626 0.549097 0.892351
Si Si2 0.756586 0.271005 0.676934
Si Si3 0.838942 0.123390 0.097369
Si Si4 0.776658 0.608655 0.931708
Si Si5 0.487456 0.844039 0.045737
Si Si6 0.357535 0.713709 0.556439
Si Si7 0.223732 0.374683 0.562050
O O1 0.276167 0.469062 0.716788
O O2 0.356181 0.465902 0.931450
O O3 0.328312 0.747271 0.947389
O O4 0.000000 0.500000 0.000000
O O5 0.796299 0.464485 0.770692
O O6 0.638793 0.160701 0.782686
O O7 0.629576 0.225384 0.567684
O O8 0.000376 0.245392 0.573248
O O9 0.766215 0.166307 0.278029
O O10 0.974225 0.298152 0.072840
O O11 0.622250 0.027912 0.049560
O O12 0.000000 0.000000 0.000000
O O13 0.673834 0.742876 0.954201
O O14 0.241054 0.520728 0.514704
O O15 0.591959 0.731074 0.552635
#
# Coordination Sequence:
#
# PCOD8043427 Si02
#       7
#     2   2   2   2   2   2   2
#     4  11  18  36  62  88 122 153 202 261 292 352
#     4  11  20  39  66  91 121 160 208 258 302 356
#     4  10  22  41  61  89 126 163 204 247 311 377
#     4  10  19  36  62  91 117 158 209 251 303 356
#     4  10  21  36  62  90 121 162 204 245 310 365
#     4  11  23  40  62  92 125 161 205 256 308 362
#     4  11  22  37  65  95 122 155 209 260 302 354
#
# _framework density 25.208085000000001
#
# number of rings (size 3 to 8) (size 9 to 14) (size 15 to 20)
#    0.000    1.429    4.286    3.857    0.000    0.571 
#    2.571    3.571    3.143    0.000    0.000    0.000 
#    0.000    0.000    0.000    0.000    0.000    0.000 
#
# Total GULP energy -173504.354582 kJ/mol
# GULP energy per Si atom -12393.168184 kJ/mol
# Density = 2.515071 g / cm^3
# Si number density = 25.208085 Si / 1000 Ang^3
#
#
#
# Elastic Constant Matrix: (Units=GPa)
#
#
# Indices 1 2 3 4 5 6 
#
# 1 88.4844 20.0707 21.1613 16.2715 -12.4940 22.5906
# 2 20.0707 126.9924 14.6747 10.7248 -13.7849 25.1124
# 3 21.1613 14.6747 85.9828 6.8757 -11.2488 -3.7007
# 4 16.2715 10.7248 6.8757 21.8196 6.4977 -5.2819
# 5 -12.4940 -13.7849 -11.2488 6.4977 45.2049 -1.3766
# 6 22.5906 25.1124 -3.7007 -5.2819 -1.3766 36.3184
#
#
#
# Elastic Compliance Matrix: (Units=1/GPa)
#
#
# Indices 1 2 3 4 5 6 
#
# 1 0.022628 0.004169 -0.003869 -0.025578 0.009609 -0.020708
# 2 0.004169 0.011603 -0.001753 -0.012987 0.005741 -0.012466
# 3 -0.003869 -0.001753 0.013321 0.000234 0.001832 0.005080
# 4 -0.025578 -0.012987 0.000234 0.086742 -0.022323 0.036683
# 5 0.009609 0.005741 0.001832 -0.022323 0.029831 -0.011876
# 6 -0.020708 -0.012466 0.005080 0.036683 -0.011876 0.054437
#
#
# Mechanical properties :
#
#
# Convention : Reuss Voigt Hill
#
# Bulk Modulus (GPa) = 22.39863 45.91921 34.15892
# Shear Modulus (GPa) = 21.15487 37.03878 29.09683
#
# Velocity S-wave (km/s) = 2.90005 3.83733 3.40113
# Velocity P-wave (km/s) = 4.48537 6.15541 5.38552
#
# Compressibility (1/GPa) = 0.04464560
#
# Stress axis : x y z
#
# Youngs Moduli (GPa) = 44.19231 86.18213 75.06735
#
# Poissons Ratio (x) = -0.35928 0.29046
# Poissons Ratio (y) = -0.18423 0.13161
# Poissons Ratio (z) = 0.17100 0.15110
#
# Static dielectric constant tensor:
#      x y z
#    x 4.096250 1.118440 -0.697550 
#    y 1.118440 4.274910 0.300740 
#    z -0.697550 0.300740 4.002400 
# 
# 
# High freq. dielectric constant tensor:
#      x y z
#    x 2.048250 0.004660 -0.008490 
#    y 0.004660 2.020100 -0.014820 
#    z -0.008490 -0.014820 1.982770 
# 
# From -- ./inp_files/392972.got.cif
#   From: 2010.06.25/outbox.cif.g09.slc.cpg/sg2_197_cif.got.tgz:392972.got - 2010.06.27 13:26:56.
