data_PCOD8043439
_publ_section_title
;
Structure prediction by ZEFSAII (Michael W. Deem and Ramdas Pophale) SiO2 
 PCOD8043439
Probable space group: P -1
;
_chemical_formula_sum "Si O2"
_cell_formula_units_Z 16
_cell_length_a 8.962436
_cell_length_b 21.256122
_cell_length_c 19.217838
_cell_angle_alpha 27.159430
_cell_angle_beta 37.732812
_cell_angle_gamma 27.339060
_cell_volume 767.499000
_symmetry_space_group_name_H-M "P -1"
_symmetry_group_IT_number 2
_symmetry_cell_setting 'triclinic'
loop_
_space_group_symop_operation_xyz
x,y,z
-x,-y,-z
loop_
_atom_site_type_symbol
_atom_site_label
_atom_site_fract_x
_atom_site_fract_y
_atom_site_fract_z
Si Si1 0.823554 0.948605 0.255538
Si Si2 0.457085 0.239615 0.457955
Si Si3 0.848183 0.481070 0.920235
Si Si4 0.238747 0.031446 0.015118
Si Si5 0.065689 0.004216 0.368533
Si Si6 0.395420 0.897731 0.669375
Si Si7 0.441201 0.131091 0.084749
Si Si8 0.705727 0.421635 0.886058
O O1 0.808875 0.786828 0.416668
O O2 0.615941 0.085238 0.260959
O O3 0.682315 0.071120 0.117479
O O4 0.181938 0.886300 0.190975
O O5 0.282326 0.443810 0.296983
O O6 0.741896 0.091833 0.445464
O O7 0.627305 0.195149 0.515501
O O8 0.681528 0.683526 0.756125
O O9 0.859036 0.378032 0.949725
O O10 0.659527 0.491156 0.047581
O O11 0.231437 0.347902 0.930522
O O12 0.898386 0.236167 0.953242
O O13 0.353550 0.010165 0.914932
O O14 0.500000 0.000000 0.000000
O O15 0.163490 0.126929 0.215134
O O16 0.961133 0.006734 0.325326
O O17 0.500000 0.000000 0.500000
#
# Coordination Sequence:
#
# PCOD8043439 Si02
#       8
#     2   2   2   2   2   2   2   2
#     4  11  24  41  62  93 132 169 208 260 319 377
#     4  10  20  38  65  90 131 162 205 263 324 367
#     4  11  20  36  64  95 128 158 211 267 309 374
#     4  12  24  43  67  91 125 173 217 256 314 381
#     4  10  19  36  62  92 122 169 200 255 319 378
#     4  12  21  36  61  96 131 162 210 263 318 368
#     4  11  23  41  65  92 130 169 210 256 321 376
#     4  11  20  38  66  98 120 162 218 259 310 376
#
# _framework density 20.846931999999999
#
# number of rings (size 3 to 8) (size 9 to 14) (size 15 to 20)
#    0.000    1.000    6.250    1.875    0.000    0.500 
#    2.250    3.125    2.750    0.000    0.000    0.000 
#    0.000    0.000    0.000    0.000    0.000    0.000 
#
# Total GULP energy -198214.430377 kJ/mol
# GULP energy per Si atom -12388.401899 kJ/mol
# Density = 2.079948 g / cm^3
# Si number density = 20.846932 Si / 1000 Ang^3
#
#
#
# Elastic Constant Matrix: (Units=GPa)
#
#
# Indices 1 2 3 4 5 6 
#
# 1 109.8483 37.9398 45.9546 5.3036 6.1504 6.3716
# 2 37.9398 79.2577 38.7047 1.1257 11.8796 8.5045
# 3 45.9546 38.7047 120.4491 -2.5230 -7.8643 -10.7836
# 4 5.3036 1.1257 -2.5230 23.0610 -2.5725 0.1967
# 5 6.1504 11.8796 -7.8643 -2.5725 37.5762 13.4174
# 6 6.3716 8.5045 -10.7836 0.1967 13.4174 25.3683
#
#
#
# Elastic Compliance Matrix: (Units=1/GPa)
#
#
# Indices 1 2 3 4 5 6 
#
# 1 0.012358 -0.003439 -0.004017 -0.003182 -0.000859 -0.003180
# 2 -0.003439 0.018068 -0.005264 -0.001130 -0.004534 -0.005024
# 3 -0.004017 -0.005264 0.012351 0.002784 0.002761 0.006542
# 4 -0.003182 -0.001130 0.002784 0.044985 0.004712 -0.000479
# 5 -0.000859 -0.004534 0.002761 0.004712 0.034595 -0.015424
# 6 -0.003180 -0.005024 0.006542 -0.000479 -0.015424 0.052844
#
#
# Mechanical properties :
#
#
# Convention : Reuss Voigt Hill
#
# Bulk Modulus (GPa) = 57.67771 61.63924 59.65847
# Shear Modulus (GPa) = 24.22257 29.66484 26.94370
#
# Velocity S-wave (km/s) = 3.41240 3.77634 3.59897
# Velocity P-wave (km/s) = 6.57672 6.97467 6.77862
#
# Compressibility (1/GPa) = 0.01733772
#
# Stress axis : x y z
#
# Youngs Moduli (GPa) = 80.91972 55.34552 80.96751
#
# Poissons Ratio (x) = 0.19031 0.32527
# Poissons Ratio (y) = 0.27825 0.42618
# Poissons Ratio (z) = 0.32508 0.29132
#
# Static dielectric constant tensor:
#      x y z
#    x 4.006900 -0.211700 -0.057880 
#    y -0.211700 3.797490 0.055190 
#    z -0.057880 0.055190 3.664350 
# 
# 
# High freq. dielectric constant tensor:
#      x y z
#    x 1.820910 -0.001000 0.009470 
#    y -0.001000 1.780980 0.013720 
#    z 0.009470 0.013720 1.820490 
# 
# From -- ./inp_files/562623.got.cif
#   From: 2010.06.25/outbox.cif.g09.slc.cpg/sg2_282_cif.got.tgz:562623.got - 2010.06.27 13:26:56.
