data_PCOD8043562
_publ_section_title
;
Structure prediction by ZEFSAII (Michael W. Deem and Ramdas Pophale) SiO2 
 PCOD8043562
Probable space group: P -1
;
_chemical_formula_sum "Si O2"
_cell_formula_units_Z 16
_cell_length_a 24.733950
_cell_length_b 19.069442
_cell_length_c 15.138479
_cell_angle_alpha 150.962163
_cell_angle_beta 20.621339
_cell_angle_gamma 161.467477
_cell_volume 793.800678
_symmetry_space_group_name_H-M "P -1"
_symmetry_group_IT_number 2
_symmetry_cell_setting 'triclinic'
loop_
_space_group_symop_operation_xyz
x,y,z
-x,-y,-z
loop_
_atom_site_type_symbol
_atom_site_label
_atom_site_fract_x
_atom_site_fract_y
_atom_site_fract_z
Si Si1 0.848522 0.159136 0.131374
Si Si2 0.794187 0.897794 0.268515
Si Si3 0.670942 0.579590 0.245652
Si Si4 0.630850 0.227563 0.272585
Si Si5 0.977617 0.486814 0.875149
Si Si6 0.622409 0.253680 0.680339
Si Si7 0.367267 0.756729 0.144388
Si Si8 0.969752 0.299932 0.522959
O O1 0.000248 0.363358 0.057987
O O2 0.711433 0.156874 0.411248
O O3 0.656150 0.928461 0.116777
O O4 0.050451 0.207064 0.921013
O O5 0.657697 0.673527 0.282995
O O6 0.606833 0.850228 0.442642
O O7 0.904441 0.086520 0.379194
O O8 0.000000 0.000000 0.000000
O O9 0.500000 0.500000 0.500000
O O10 0.585010 0.357608 0.106315
O O11 0.773361 0.363151 0.292724
O O12 0.589490 0.025563 0.102129
O O13 0.774583 0.383070 0.139261
O O14 0.901485 0.293630 0.720669
O O15 0.687185 0.323582 0.760104
O O16 0.751960 0.471350 0.665522
O O17 0.152532 0.685026 0.346602
#
# Coordination Sequence:
#
# PCOD8043562 Si02
#       8
#     2   2   2   2   2   2   2   2
#     4  10  21  37  64  92 123 157 200 263 302 363
#     4  11  26  41  60  93 133 166 199 250 320 373
#     4  12  26  42  61  91 132 168 203 250 315 376
#     4  10  23  38  69  88 123 158 208 260 302 368
#     4  10  19  41  64  95 115 155 217 260 303 345
#     4  10  19  36  64  95 115 151 212 259 302 344
#     4  11  21  37  65  91 118 160 213 252 297 368
#     4  10  22  37  66  91 121 159 212 253 298 368
#
# _framework density 20.156193999999999
#
# number of rings (size 3 to 8) (size 9 to 14) (size 15 to 20)
#    0.000    1.500    3.750    1.875    5.250    1.000 
#    0.000    4.375    0.000    0.000    0.000    0.000 
#    0.000    0.000    0.000    0.000    0.000    0.000 
#
# Total GULP energy -198355.695536 kJ/mol
# GULP energy per Si atom -12397.230971 kJ/mol
# Density = 2.011032 g / cm^3
# Si number density = 20.156194 Si / 1000 Ang^3
#
#
#
# Elastic Constant Matrix: (Units=GPa)
#
#
# Indices 1 2 3 4 5 6 
#
# 1 80.9950 11.5050 28.4554 4.2493 8.8060 14.9040
# 2 11.5050 61.9844 29.3450 5.2602 -2.8481 8.6347
# 3 28.4554 29.3450 87.2640 0.5918 -0.9418 9.0874
# 4 4.2493 5.2602 0.5918 27.3425 1.7589 -2.0209
# 5 8.8060 -2.8481 -0.9418 1.7589 24.1202 -2.4096
# 6 14.9040 8.6347 9.0874 -2.0209 -2.4096 38.9187
#
#
#
# Elastic Compliance Matrix: (Units=1/GPa)
#
#
# Indices 1 2 3 4 5 6 
#
# 1 0.015793 -0.000082 -0.004605 -0.002336 -0.006331 -0.005468
# 2 -0.000082 0.020011 -0.006339 -0.004060 0.002141 -0.003006
# 3 -0.004605 -0.006339 0.015118 0.001504 0.001394 -0.000196
# 4 -0.002336 -0.004060 0.001504 0.038058 -0.002014 0.003296
# 5 -0.006331 0.002141 0.001394 -0.002014 0.044653 0.004284
# 6 -0.005468 -0.003006 -0.000196 0.003296 0.004284 0.028938
#
#
# Mechanical properties :
#
#
# Convention : Reuss Voigt Hill
#
# Bulk Modulus (GPa) = 34.63846 40.98382 37.81114
# Shear Modulus (GPa) = 25.74059 28.80546 27.27302
#
# Velocity S-wave (km/s) = 3.57747 3.78446 3.68242
# Velocity P-wave (km/s) = 5.85548 6.28279 6.07290
#
# Compressibility (1/GPa) = 0.02886965
#
# Stress axis : x y z
#
# Youngs Moduli (GPa) = 63.31885 49.97257 66.14621
#
# Poissons Ratio (x) = 0.00410 0.30463
# Poissons Ratio (y) = 0.00520 0.41929
# Poissons Ratio (z) = 0.29161 0.31676
#
# Static dielectric constant tensor:
#      x y z
#    x 3.748310 0.206170 0.092140 
#    y 0.206170 3.845660 -0.029340 
#    z 0.092140 -0.029340 3.475310 
# 
# 
# High freq. dielectric constant tensor:
#      x y z
#    x 1.795160 0.008180 0.011470 
#    y 0.008180 1.793750 -0.012570 
#    z 0.011470 -0.012570 1.761700 
# 
# From -- ./inp_files/206455.got.cif
#   From: 2010.06.25/outbox.cif.g09.slc.cpg/sg2_104_cif.got.tgz:206455.got - 2010.06.27 13:26:56.
