data_PCOD8043405
_publ_section_title
;
Structure prediction by ZEFSAII (Michael W. Deem and Ramdas Pophale) SiO2 
 PCOD8043405
Probable space group: P -1
;
_chemical_formula_sum "Si O2"
_cell_formula_units_Z 16
_cell_length_a 6.745708
_cell_length_b 16.629260
_cell_length_c 10.123075
_cell_angle_alpha 57.892477
_cell_angle_beta 123.662502
_cell_angle_gamma 118.254806
_cell_volume 774.425337
_symmetry_space_group_name_H-M "P -1"
_symmetry_group_IT_number 2
_symmetry_cell_setting 'triclinic'
loop_
_space_group_symop_operation_xyz
x,y,z
-x,-y,-z
loop_
_atom_site_type_symbol
_atom_site_label
_atom_site_fract_x
_atom_site_fract_y
_atom_site_fract_z
Si Si1 0.112380 0.584042 0.070406
Si Si2 0.658520 0.953010 0.289988
Si Si3 0.936345 0.408487 0.654012
Si Si4 0.513395 0.879009 0.842790
Si Si5 0.817269 0.937632 0.653120
Si Si6 0.971589 0.762264 0.754464
Si Si7 0.344375 0.300193 0.828789
Si Si8 0.418381 0.263957 0.591985
O O1 0.065083 0.549183 0.234927
O O2 0.400106 0.622310 0.109775
O O3 0.975775 0.669656 0.925818
O O4 0.000000 0.500000 0.000000
O O5 0.688425 0.961311 0.452413
O O6 0.522556 0.843417 0.289394
O O7 0.492597 0.964377 0.868227
O O8 0.928390 0.980027 0.299679
O O9 0.127269 0.341468 0.771656
O O10 0.000000 0.500000 0.500000
O O11 0.668140 0.341908 0.575622
O O12 0.643295 0.936303 0.713607
O O13 0.241896 0.816924 0.753688
O O14 0.667154 0.807636 0.022975
O O15 0.868385 0.831027 0.753760
O O16 0.793853 0.729891 0.593216
O O17 0.318254 0.289975 0.671319
#
# Coordination Sequence:
#
# PCOD8043405 Si02
#       8
#     2   2   2   2   2   2   2   2
#     4  10  23  42  66  90 119 155 204 259 307 361
#     4   9  19  34  56  90 118 162 198 242 298 357
#     4  11  26  44  63  89 124 162 203 253 309 367
#     4  10  19  36  62  88 122 157 201 250 293 355
#     4   9  17  33  57  86 126 153 197 249 295 348
#     4   9  20  37  60  91 119 159 201 248 300 355
#     4  10  24  42  60  88 124 162 195 250 315 361
#     4  10  23  41  61  87 129 161 199 249 306 361
#
# _framework density 20.660481999999998
#
# number of rings (size 3 to 8) (size 9 to 14) (size 15 to 20)
#    0.000    2.250    0.000    1.875    3.500    6.000 
#    4.500    1.250    0.000    0.000    0.000    0.000 
#    0.000    0.000    0.000    0.000    0.000    0.000 
#
# Total GULP energy -198387.831881 kJ/mol
# GULP energy per Si atom -12399.239493 kJ/mol
# Density = 2.061346 g / cm^3
# Si number density = 20.660482 Si / 1000 Ang^3
#
#
#
# Elastic Constant Matrix: (Units=GPa)
#
#
# Indices 1 2 3 4 5 6 
#
# 1 96.0319 33.4940 23.6154 -4.7166 -1.4179 5.4028
# 2 33.4940 118.0449 36.5378 1.5572 -7.2042 7.7244
# 3 23.6154 36.5378 64.1675 -1.8937 5.4469 9.1804
# 4 -4.7166 1.5572 -1.8937 35.1296 -2.9292 0.3660
# 5 -1.4179 -7.2042 5.4469 -2.9292 30.3333 -8.5594
# 6 5.4028 7.7244 9.1804 0.3660 -8.5594 25.2780
#
#
#
# Elastic Compliance Matrix: (Units=1/GPa)
#
#
# Indices 1 2 3 4 5 6 
#
# 1 0.012126 -0.002476 -0.002958 0.001626 0.000493 -0.000617
# 2 -0.002476 0.011192 -0.005866 -0.000845 0.003652 0.000489
# 3 -0.002958 -0.005866 0.021843 0.000483 -0.007699 -0.008122
# 4 0.001626 -0.000845 0.000483 0.028966 0.002645 0.000212
# 5 0.000493 0.003652 -0.007699 0.002645 0.039725 0.014988
# 6 -0.000617 0.000489 -0.008122 0.000212 0.014988 0.047564
#
#
# Mechanical properties :
#
#
# Convention : Reuss Voigt Hill
#
# Bulk Modulus (GPa) = 44.32700 51.72653 48.02677
# Shear Modulus (GPa) = 26.10454 30.45465 28.27960
#
# Velocity S-wave (km/s) = 3.55843 3.84351 3.70371
# Velocity P-wave (km/s) = 6.19555 6.69235 6.44873
#
# Compressibility (1/GPa) = 0.02255961
#
# Stress axis : x y z
#
# Youngs Moduli (GPa) = 82.46644 89.35194 45.78092
#
# Poissons Ratio (x) = 0.22123 0.13544
# Poissons Ratio (y) = 0.20418 0.26857
# Poissons Ratio (z) = 0.24397 0.52417
#
# Static dielectric constant tensor:
#      x y z
#    x 3.705910 -0.096980 0.145480 
#    y -0.096980 3.970520 -0.163210 
#    z 0.145480 -0.163210 3.678790 
# 
# 
# High freq. dielectric constant tensor:
#      x y z
#    x 1.809390 -0.002540 0.004740 
#    y -0.002540 1.812030 -0.012510 
#    z 0.004740 -0.012510 1.804750 
# 
# From -- ./inp_files/99692.got.cif
#   From: 2010.06.25/outbox.cif.g09.slc.cpg/sg2_50_cif.got.tgz:99692.got - 2010.06.27 13:26:56.
