data_PCOD8043751
_publ_section_title
;
Structure prediction by ZEFSAII (Michael W. Deem and Ramdas Pophale) SiO2 
 PCOD8043751
Probable space group: P -1
;
_chemical_formula_sum "Si O2"
_cell_formula_units_Z 16
_cell_length_a 16.675135
_cell_length_b 16.570068
_cell_length_c 9.531572
_cell_angle_alpha 46.484293
_cell_angle_beta 52.234792
_cell_angle_gamma 25.704317
_cell_volume 828.101631
_symmetry_space_group_name_H-M "P -1"
_symmetry_group_IT_number 2
_symmetry_cell_setting 'triclinic'
loop_
_space_group_symop_operation_xyz
x,y,z
-x,-y,-z
loop_
_atom_site_type_symbol
_atom_site_label
_atom_site_fract_x
_atom_site_fract_y
_atom_site_fract_z
Si Si1 0.766836 0.809445 0.421213
Si Si2 0.600896 0.750122 0.769089
Si Si3 0.663240 0.272372 0.389464
Si Si4 0.170092 0.457277 0.483459
Si Si5 0.260424 0.554294 0.807944
Si Si6 0.899894 0.993956 0.701590
Si Si7 0.011508 0.954991 0.202279
Si Si8 0.716663 0.481269 0.501237
O O1 0.676169 0.808673 0.635652
O O2 0.813176 0.692739 0.370892
O O3 0.955046 0.690972 0.419191
O O4 0.621844 0.040444 0.264266
O O5 0.706214 0.597729 0.705783
O O6 0.643182 0.638832 0.992315
O O7 0.640776 0.421941 0.279616
O O8 0.714765 0.148417 0.621748
O O9 0.471513 0.401954 0.380703
O O10 0.808246 0.129543 0.277978
O O11 0.254163 0.421637 0.583250
O O12 0.287291 0.508719 0.671490
O O13 0.039211 0.760707 0.832395
O O14 0.868649 0.065159 0.809469
O O15 0.000000 0.000000 0.500000
O O16 0.111236 0.745673 0.352755
O O17 0.000000 0.000000 0.000000
#
# Coordination Sequence:
#
# PCOD8043751 Si02
#       8
#     2   2   2   2   2   2   2   2
#     4   8  18  42  61  77 113 144 177 241 306 328
#     4   9  18  38  64  81 105 148 190 228 288 348
#     4  10  21  40  54  75 126 162 179 223 278 330
#     4   9  20  37  61  80 109 146 184 238 287 336
#     4  10  19  37  58  84 113 153 193 223 268 347
#     4   8  16  37  55  69 115 160 178 217 274 321
#     4  10  21  36  53  79 113 150 192 235 269 315
#     4  12  22  36  55  86 115 150 192 228 274 331
#
# _framework density 19.321300999999998
#
# number of rings (size 3 to 8) (size 9 to 14) (size 15 to 20)
#    0.750    2.000    3.750    0.375    3.500    1.500 
#    4.500    1.250    0.000    0.000    0.000    0.000 
#    0.000    0.000    0.000    0.000    0.000    0.000 
#
# Total GULP energy -198226.352822 kJ/mol
# GULP energy per Si atom -12389.147051 kJ/mol
# Density = 1.927732 g / cm^3
# Si number density = 19.321301 Si / 1000 Ang^3
#
#
#
# Elastic Constant Matrix: (Units=GPa)
#
#
# Indices 1 2 3 4 5 6 
#
# 1 98.9352 45.7689 30.5990 4.2998 16.0641 -4.1167
# 2 45.7689 99.1603 46.5998 -10.0545 13.2648 -8.4603
# 3 30.5990 46.5998 110.7299 -17.7989 15.6998 0.8243
# 4 4.2998 -10.0545 -17.7989 29.2166 10.4473 5.2119
# 5 16.0641 13.2648 15.6998 10.4473 18.1424 0.9470
# 6 -4.1167 -8.4603 0.8243 5.2119 0.9470 10.6222
#
#
#
# Elastic Compliance Matrix: (Units=1/GPa)
#
#
# Indices 1 2 3 4 5 6 
#
# 1 0.014165 -0.005069 -0.001533 -0.003368 -0.005765 0.003738
# 2 -0.005069 0.016585 -0.003618 0.005454 -0.008147 0.009576
# 3 -0.001533 -0.003618 0.017198 0.019299 -0.021347 -0.012376
# 4 -0.003368 0.005454 0.019299 0.074887 -0.059268 -0.029919
# 5 -0.005765 -0.008147 -0.021347 -0.059268 0.118184 0.011478
# 6 0.003738 0.009576 -0.012376 -0.029919 0.011478 0.117835
#
#
# Mechanical properties :
#
#
# Convention : Reuss Voigt Hill
#
# Bulk Modulus (GPa) = 36.35390 61.64009 48.99699
# Shear Modulus (GPa) = 12.87127 23.98676 18.42902
#
# Velocity S-wave (km/s) = 2.58383 3.52727 3.09175
# Velocity P-wave (km/s) = 5.26857 6.96855 6.17732
#
# Compressibility (1/GPa) = 0.02750737
#
# Stress axis : x y z
#
# Youngs Moduli (GPa) = 70.59822 60.29716 58.14543
#
# Poissons Ratio (x) = 0.30565 0.08913
# Poissons Ratio (y) = 0.35786 0.21038
# Poissons Ratio (z) = 0.10822 0.21816
#
# Static dielectric constant tensor:
#      x y z
#    x 3.459560 -0.193010 0.489520 
#    y -0.193010 3.850710 -0.396820 
#    z 0.489520 -0.396820 3.722900 
# 
# 
# High freq. dielectric constant tensor:
#      x y z
#    x 1.722490 -0.002090 0.017870 
#    y -0.002090 1.766560 -0.011070 
#    z 0.017870 -0.011070 1.720490 
# 
# From -- ./inp_files/314797.got.cif
#   From: 2010.06.25/outbox.cif.g09.slc.cpg/sg2_158_cif.got.tgz:314797.got - 2010.06.27 13:26:56.
