data_PCOD8043283
_publ_section_title
;
Structure prediction by ZEFSAII (Michael W. Deem and Ramdas Pophale) SiO2 
 PCOD8043283
Probable space group: P -1
;
_chemical_formula_sum "Si O2"
_cell_formula_units_Z 16
_cell_length_a 14.820458
_cell_length_b 9.137177
_cell_length_c 11.665354
_cell_angle_alpha 82.876164
_cell_angle_beta 102.841109
_cell_angle_gamma 149.667475
_cell_volume 770.407360
_symmetry_space_group_name_H-M "P -1"
_symmetry_group_IT_number 2
_symmetry_cell_setting 'triclinic'
loop_
_space_group_symop_operation_xyz
x,y,z
-x,-y,-z
loop_
_atom_site_type_symbol
_atom_site_label
_atom_site_fract_x
_atom_site_fract_y
_atom_site_fract_z
Si Si1 0.355797 0.418815 0.188981
Si Si2 0.119339 0.340529 0.664334
Si Si3 0.736959 0.165709 0.761156
Si Si4 0.263197 0.311663 0.433257
Si Si5 0.012211 0.748020 0.124408
Si Si6 0.714784 0.324398 0.534268
Si Si7 0.652619 0.266223 0.928247
Si Si8 0.589768 0.497278 0.307062
O O1 0.356371 0.423584 0.325972
O O2 0.395568 0.631239 0.124676
O O3 0.531072 0.552293 0.201034
O O4 0.165701 0.087488 0.119131
O O5 0.210544 0.589329 0.582881
O O6 0.237395 0.352177 0.710902
O O7 0.099026 0.387373 0.776569
O O8 0.927134 0.035319 0.584646
O O9 0.897641 0.290398 0.851743
O O10 0.813862 0.355005 0.651597
O O11 0.645767 0.155054 0.824899
O O12 0.581663 0.846943 0.699427
O O13 0.231440 0.438700 0.435770
O O14 0.378691 0.403361 0.562956
O O15 0.862346 0.550800 0.001868
O O16 0.500000 0.000000 0.500000
O O17 0.500000 0.000000 0.000000
#
# Coordination Sequence:
#
# PCOD8043283 Si02
#       8
#     2   2   2   2   2   2   2   2
#     4  10  22  40  65  88 116 167 203 243 307 361
#     4  10  21  38  60  93 126 157 199 246 299 357
#     4  11  22  40  64  90 120 163 204 248 307 353
#     4  10  19  36  60  92 127 156 196 244 300 367
#     4  10  24  44  63  85 121 164 206 252 294 364
#     4  11  19  34  64  88 128 162 189 243 311 365
#     4  12  25  44  63  89 122 156 210 262 299 347
#     4  10  19  37  62  91 125 156 197 241 301 370
#
# _framework density 20.768232999999999
#
# number of rings (size 3 to 8) (size 9 to 14) (size 15 to 20)
#    0.000    1.500    3.750    3.375    0.000    0.500 
#    4.500    6.875    0.000    0.000    0.000    0.000 
#    0.000    0.000    0.000    0.000    0.000    0.000 
#
# Total GULP energy -198338.185235 kJ/mol
# GULP energy per Si atom -12396.136577 kJ/mol
# Density = 2.072096 g / cm^3
# Si number density = 20.768233 Si / 1000 Ang^3
#
#
#
# Elastic Constant Matrix: (Units=GPa)
#
#
# Indices 1 2 3 4 5 6 
#
# 1 80.0144 22.0559 44.7683 -26.9782 17.2925 -5.1529
# 2 22.0559 75.2774 45.3180 -24.5661 10.4678 -2.6819
# 3 44.7683 45.3180 69.7592 5.6303 28.0941 5.5123
# 4 -26.9782 -24.5661 5.6303 29.6064 -5.6535 2.0735
# 5 17.2925 10.4678 28.0941 -5.6535 32.5205 -7.9435
# 6 -5.1529 -2.6819 5.5123 2.0735 -7.9435 22.5323
#
#
#
# Elastic Compliance Matrix: (Units=1/GPa)
#
#
# Indices 1 2 3 4 5 6 
#
# 1 0.001181 -0.018878 0.022963 -0.022130 -0.021440 -0.013116
# 2 -0.018878 -0.002513 0.024494 -0.026449 -0.018501 -0.014697
# 3 0.022963 0.024494 -0.028386 0.048721 0.016953 0.016604
# 4 -0.022130 -0.026449 0.048721 -0.021793 -0.032853 -0.029704
# 5 -0.021440 -0.018501 0.016953 -0.032853 0.028164 0.001699
# 6 -0.013116 -0.014697 0.016604 -0.029704 0.001699 0.038903
#
#
# Mechanical properties :
#
#
# Convention : Reuss Voigt Hill
#
# Bulk Modulus (GPa) = 36.44161 49.92615 43.18388
# Shear Modulus (GPa) = -154.05207 24.45909 -64.79649
#
# Velocity S-wave (km/s) = -8.62194 3.43551 -5.59174
# Velocity P-wave (km/s) = 9.02952 6.31101 4.56636
#
# Compressibility (1/GPa) = 0.02744116
#
# Stress axis : x y z
#
# Youngs Moduli (GPa) = 846.72800 -397.94866 -35.22901
#
# Poissons Ratio (x) = -7.51235 0.80895
# Poissons Ratio (y) = 15.98427 0.86292
# Poissons Ratio (z) = -19.44308 9.74754
#
# Static dielectric constant tensor:
#      x y z
#    x 4.975180 -0.375610 0.082310 
#    y -0.375610 3.832900 0.045700 
#    z 0.082310 0.045700 3.954420 
# 
# 
# High freq. dielectric constant tensor:
#      x y z
#    x 1.813040 -0.004360 0.004920 
#    y -0.004360 1.806290 0.011870 
#    z 0.004920 0.011870 1.817460 
# 
# From -- ./inp_files/205808.got.cif
#   From: 2010.06.25/outbox.cif.g09.slc.cpg/sg2_103_cif.got.tgz:205808.got - 2010.06.27 13:26:56.
