data_PCOD8043544
_publ_section_title
;
Structure prediction by ZEFSAII (Michael W. Deem and Ramdas Pophale) SiO2 
 PCOD8043544
Probable space group: P -1
;
_chemical_formula_sum "Si O2"
_cell_formula_units_Z 16
_cell_length_a 8.928738
_cell_length_b 13.896477
_cell_length_c 19.215955
_cell_angle_alpha 41.155472
_cell_angle_beta 136.244547
_cell_angle_gamma 102.787184
_cell_volume 765.703181
_symmetry_space_group_name_H-M "P -1"
_symmetry_group_IT_number 2
_symmetry_cell_setting 'triclinic'
loop_
_space_group_symop_operation_xyz
x,y,z
-x,-y,-z
loop_
_atom_site_type_symbol
_atom_site_label
_atom_site_fract_x
_atom_site_fract_y
_atom_site_fract_z
Si Si1 0.664896 0.187671 0.422053
Si Si2 0.238344 0.326346 0.973090
Si Si3 0.081932 0.670516 0.412042
Si Si4 0.695613 0.045569 0.169309
Si Si5 0.455138 0.306477 0.436594
Si Si6 0.771454 0.581443 0.277101
Si Si7 0.568179 0.013121 0.371936
Si Si8 0.829586 0.359089 0.294964
O O1 0.442925 0.321053 0.340503
O O2 0.599894 0.346521 0.256256
O O3 0.598276 0.063057 0.432664
O O4 0.016957 0.023485 0.655728
O O5 0.325219 0.456004 0.914221
O O6 0.871678 0.489233 0.753208
O O7 0.419503 0.138988 0.079792
O O8 0.332775 0.230481 0.133544
O O9 0.286327 0.710628 0.435262
O O10 0.283643 0.470234 0.639235
O O11 0.965516 0.638237 0.323131
O O12 0.789614 0.858683 0.258225
O O13 0.564710 0.226632 0.971861
O O14 0.548940 0.097334 0.603743
O O15 0.953897 0.393803 0.384439
O O16 0.895467 0.863101 0.525780
#
# Coordination Sequence:
#
# PCOD8043544 Si02
#       8
#     2   2   2   2   2   2   2   2
#     4  11  21  40  63  85 119 159 198 244 291 336
#     4  10  22  38  59  84 124 157 193 240 294 341
#     4  10  20  38  63  89 116 154 195 242 299 341
#     4  10  20  37  59  90 116 149 200 241 282 352
#     4  10  23  40  55  90 124 151 193 244 296 352
#     4  10  19  36  64  90 116 147 198 252 287 341
#     4  11  22  40  59  83 126 160 192 239 297 349
#     4  10  20  39  59  89 117 147 202 249 278 344
#
# _framework density 20.895826
#
# number of rings (size 3 to 8) (size 9 to 14) (size 15 to 20)
#    0.000    1.750    3.750    1.125    0.000    3.000 
#    6.750    5.625    0.000    6.750    0.000    0.000 
#    0.000    0.000    0.000    0.000    0.000    0.000 
#
# Total GULP energy -198309.816839 kJ/mol
# GULP energy per Si atom -12394.363552 kJ/mol
# Density = 2.084827 g / cm^3
# Si number density = 20.895826 Si / 1000 Ang^3
#
#
#
# Elastic Constant Matrix: (Units=GPa)
#
#
# Indices 1 2 3 4 5 6 
#
# 1 86.7327 12.1988 25.7776 -5.8933 -0.8840 13.5848
# 2 12.1988 107.6967 22.0314 4.2992 11.3595 5.4140
# 3 25.7776 22.0314 75.8776 -6.0687 -7.4985 3.9332
# 4 -5.8933 4.2992 -6.0687 19.1920 -4.1689 -0.8360
# 5 -0.8840 11.3595 -7.4985 -4.1689 34.9730 -12.7617
# 6 13.5848 5.4140 3.9332 -0.8360 -12.7617 31.3565
#
#
#
# Elastic Compliance Matrix: (Units=1/GPa)
#
#
# Indices 1 2 3 4 5 6 
#
# 1 0.014017 -0.000138 -0.004487 0.002045 -0.002702 -0.006531
# 2 -0.000138 0.011296 -0.004123 -0.005535 -0.006778 -0.004279
# 3 -0.004487 -0.004123 0.016926 0.006556 0.006923 0.003525
# 4 0.002045 -0.005535 0.006556 0.059003 0.012435 0.005881
# 5 -0.002702 -0.006778 0.006923 0.012435 0.040343 0.018223
# 6 -0.006531 -0.004279 0.003525 0.005881 0.018223 0.042591
#
#
# Mechanical properties :
#
#
# Convention : Reuss Voigt Hill
#
# Bulk Modulus (GPa) = 40.41684 43.36918 41.89301
# Shear Modulus (GPa) = 23.81854 31.12423 27.47139
#
# Velocity S-wave (km/s) = 3.37986 3.86358 3.62979
# Velocity P-wave (km/s) = 5.88348 6.37989 6.13671
#
# Compressibility (1/GPa) = 0.02474216
#
# Stress axis : x y z
#
# Youngs Moduli (GPa) = 71.34194 88.53062 59.07929
#
# Poissons Ratio (x) = 0.01223 0.26508
# Poissons Ratio (y) = 0.00985 0.24361
# Poissons Ratio (z) = 0.32010 0.36506
#
# Static dielectric constant tensor:
#      x y z
#    x 3.861230 -0.056210 -0.177230 
#    y -0.056210 3.809460 -0.196090 
#    z -0.177230 -0.196090 3.698090 
# 
# 
# High freq. dielectric constant tensor:
#      x y z
#    x 1.811260 -0.008790 -0.018100 
#    y -0.008790 1.813370 -0.019330 
#    z -0.018100 -0.019330 1.802540 
# 
# From -- ./inp_files/590266.got.cif
#   From: 2010.06.25/outbox.cif.g09.slc.cpg/sg2_296_cif.got.tgz:590266.got - 2010.06.27 13:26:56.
