data_PCOD8043052
_publ_section_title
;
Structure prediction by ZEFSAII (Michael W. Deem and Ramdas Pophale) SiO2 
 PCOD8043052
Probable space group: P -1
;
_chemical_formula_sum "Si O2"
_cell_formula_units_Z 14
_cell_length_a 8.821468
_cell_length_b 10.420746
_cell_length_c 12.115391
_cell_angle_alpha 101.709488
_cell_angle_beta 62.110350
_cell_angle_gamma 135.179719
_cell_volume 678.862153
_symmetry_space_group_name_H-M "P -1"
_symmetry_group_IT_number 2
_symmetry_cell_setting 'triclinic'
loop_
_space_group_symop_operation_xyz
x,y,z
-x,-y,-z
loop_
_atom_site_type_symbol
_atom_site_label
_atom_site_fract_x
_atom_site_fract_y
_atom_site_fract_z
Si Si1 0.545315 0.512430 0.743876
Si Si2 0.725405 0.398838 0.074519
Si Si3 0.692185 0.172103 0.631518
Si Si4 0.987287 0.103378 0.429826
Si Si5 0.752605 0.416993 0.824939
Si Si6 0.316277 0.751464 0.720866
Si Si7 0.513654 0.740025 0.445209
O O1 0.308926 0.467677 0.853782
O O2 0.605298 0.442272 0.807905
O O3 0.485656 0.405228 0.631130
O O4 0.762369 0.735095 0.691429
O O5 0.596221 0.238530 0.183368
O O6 0.621123 0.327919 0.973475
O O7 0.000000 0.500000 0.000000
O O8 0.917652 0.201921 0.530018
O O9 0.748156 0.271839 0.745724
O O10 0.672769 0.270881 0.561205
O O11 0.440524 0.955607 0.683073
O O12 0.785193 0.947918 0.382943
O O13 0.000000 0.000000 0.500000
O O14 0.028256 0.615168 0.782831
O O15 0.414944 0.688761 0.595743
#
# Coordination Sequence:
#
# PCOD8043052 Si02
#       7
#     2   2   2   2   2   2   2
#     4  11  21  38  60  81 111 146 184 232 274 320
#     4  10  23  39  56  79 110 151 189 227 274 322
#     4  10  20  36  58  85 114 145 181 222 276 334
#     4  11  22  34  56  90 117 141 178 225 280 336
#     4  10  21  37  59  81 107 151 193 221 263 326
#     4  10  19  36  57  82 118 145 173 227 280 324
#     4  10  21  36  59  87 113 143 179 225 281 334
#
# _framework density 20.622744000000001
#
# number of rings (size 3 to 8) (size 9 to 14) (size 15 to 20)
#    0.000    1.714    0.000    6.429    0.000    7.429 
#    0.000    2.857    0.000   10.286    0.000    0.000 
#    0.000    0.000    0.000    0.000    0.000    0.000 
#
# Total GULP energy -173569.609049 kJ/mol
# GULP energy per Si atom -12397.829218 kJ/mol
# Density = 2.057581 g / cm^3
# Si number density = 20.622744 Si / 1000 Ang^3
#
#
#
# Elastic Constant Matrix: (Units=GPa)
#
#
# Indices 1 2 3 4 5 6 
#
# 1 85.3183 19.9918 41.4059 6.0277 -12.6431 -11.3198
# 2 19.9918 53.2702 31.4404 8.3635 -7.0583 5.3034
# 3 41.4059 31.4404 122.9534 2.0360 4.1182 1.3989
# 4 6.0277 8.3635 2.0360 20.2343 -8.0589 -1.3657
# 5 -12.6431 -7.0583 4.1182 -8.0589 39.9550 2.5619
# 6 -11.3198 5.3034 1.3989 -1.3657 2.5619 19.1850
#
#
#
# Elastic Compliance Matrix: (Units=1/GPa)
#
#
# Indices 1 2 3 4 5 6 
#
# 1 0.017261 -0.003901 -0.005083 -0.000486 0.004493 0.010999
# 2 -0.003901 0.026026 -0.005177 -0.008641 0.002802 -0.010108
# 3 -0.005083 -0.005177 0.011285 0.001057 -0.003353 -0.001868
# 4 -0.000486 -0.008641 0.001057 0.057109 0.009420 0.004832
# 5 0.004493 0.002802 -0.003353 0.009420 0.029262 -0.001116
# 6 0.010999 -0.010108 -0.001868 0.004832 -0.001116 0.062038
#
#
# Mechanical properties :
#
#
# Convention : Reuss Voigt Hill
#
# Bulk Modulus (GPa) = 38.09604 49.69091 43.89347
# Shear Modulus (GPa) = 20.82870 27.12177 23.97524
#
# Velocity S-wave (km/s) = 3.18148 3.63042 3.41334
# Velocity P-wave (km/s) = 5.65762 6.45916 6.07163
#
# Compressibility (1/GPa) = 0.02624945
#
# Stress axis : x y z
#
# Youngs Moduli (GPa) = 57.93286 38.42291 88.61488
#
# Poissons Ratio (x) = 0.14990 0.45042
# Poissons Ratio (y) = 0.22602 0.45877
# Poissons Ratio (z) = 0.29447 0.19892
#
# Static dielectric constant tensor:
#      x y z
#    x 3.853690 -0.031320 0.190770 
#    y -0.031320 3.628800 0.054180 
#    z 0.190770 0.054180 4.156760 
# 
# 
# High freq. dielectric constant tensor:
#      x y z
#    x 1.815830 -0.009620 0.005100 
#    y -0.009620 1.787640 0.002860 
#    z 0.005100 0.002860 1.810170 
# 
# From -- ./inp_files/175797.got.cif
#   From: 2010.06.25/outbox.cif.g09.slc.cpg/sg2_88_cif.got.tgz:175797.got - 2010.06.27 13:26:56.
