data_PCOD8043471
_publ_section_title
;
Structure prediction by ZEFSAII (Michael W. Deem and Ramdas Pophale) SiO2 
 PCOD8043471
Probable space group: P -1
;
_chemical_formula_sum "Si O2"
_cell_formula_units_Z 16
_cell_length_a 12.253387
_cell_length_b 12.487615
_cell_length_c 9.127050
_cell_angle_alpha 119.920346
_cell_angle_beta 123.147961
_cell_angle_gamma 100.329871
_cell_volume 792.787780
_symmetry_space_group_name_H-M "P -1"
_symmetry_group_IT_number 2
_symmetry_cell_setting 'triclinic'
loop_
_space_group_symop_operation_xyz
x,y,z
-x,-y,-z
loop_
_atom_site_type_symbol
_atom_site_label
_atom_site_fract_x
_atom_site_fract_y
_atom_site_fract_z
Si Si1 0.539076 0.405385 0.559603
Si Si2 0.696943 0.338834 0.285707
Si Si3 0.712348 0.088616 0.578035
Si Si4 0.828659 0.397299 0.716818
Si Si5 0.816415 0.937724 0.350075
Si Si6 0.616020 0.902515 0.921817
Si Si7 0.521245 0.569697 0.907730
Si Si8 0.334574 0.859223 0.109989
O O1 0.500000 0.500000 0.500000
O O2 0.724039 0.458285 0.716970
O O3 0.402589 0.224596 0.288013
O O4 0.527188 0.443583 0.741548
O O5 0.850930 0.418262 0.569183
O O6 0.547899 0.177288 0.151067
O O7 0.633707 0.440666 0.275138
O O8 0.745678 0.307756 0.143540
O O9 0.727591 0.215662 0.569004
O O10 0.769651 0.160304 0.835307
O O11 0.814279 0.031767 0.550822
O O12 0.521267 0.932726 0.344043
O O13 0.000000 0.500000 0.000000
O O14 0.690683 0.749065 0.150014
O O15 0.770916 0.982180 0.198787
O O16 0.000000 0.000000 0.500000
O O17 0.663080 0.040964 0.947504
O O18 0.500000 0.500000 0.000000
#
# Coordination Sequence:
#
# PCOD8043471 Si02
#       8
#     2   2   2   2   2   2   2   2
#     4  11  20  39  61  88 117 165 216 255 299 375
#     4  10  19  39  60  90 118 162 210 256 306 372
#     4  11  23  37  63  94 119 156 205 263 311 361
#     4  11  24  39  62  89 125 163 208 256 312 378
#     4  11  24  42  61  90 128 166 203 254 318 383
#     4  10  19  36  63  85 115 162 206 252 302 373
#     4  11  24  38  65  92 122 162 218 260 308 371
#     4  11  20  37  64  92 118 144 214 268 301 351
#
# _framework density 20.181947000000001
#
# number of rings (size 3 to 8) (size 9 to 14) (size 15 to 20)
#    0.000    1.250    8.750    1.125    5.250    0.000 
#    0.000    2.500    0.000    0.000    0.000    0.000 
#    0.000    0.000    0.000    0.000    0.000    0.000 
#
# Total GULP energy -198221.205762 kJ/mol
# GULP energy per Si atom -12388.825360 kJ/mol
# Density = 2.013601 g / cm^3
# Si number density = 20.181947 Si / 1000 Ang^3
#
#
#
# Elastic Constant Matrix: (Units=GPa)
#
#
# Indices 1 2 3 4 5 6 
#
# 1 130.1041 29.9264 65.5068 -9.6244 -38.9281 -17.9990
# 2 29.9264 63.2396 18.3558 -18.6796 -4.8458 -0.6333
# 3 65.5068 18.3558 124.1404 -22.5487 -21.4407 -7.4957
# 4 -9.6244 -18.6796 -22.5487 34.9678 -4.9340 -9.0508
# 5 -38.9281 -4.8458 -21.4407 -4.9340 49.7349 -2.3143
# 6 -17.9990 -0.6333 -7.4957 -9.0508 -2.3143 26.2866
#
#
#
# Elastic Compliance Matrix: (Units=1/GPa)
#
#
# Indices 1 2 3 4 5 6 
#
# 1 0.016349 -0.004215 -0.004560 0.004072 0.011391 0.012197
# 2 -0.004215 0.020861 0.001467 0.011550 0.000608 0.002065
# 3 -0.004560 0.001467 0.012697 0.009188 0.003144 0.003974
# 4 0.004072 0.011550 0.009188 0.050105 0.014370 0.024203
# 5 0.011391 0.000608 0.003144 0.014370 0.032632 0.016532
# 6 0.012197 0.002065 0.003974 0.024203 0.016532 0.057366
#
#
# Mechanical properties :
#
#
# Convention : Reuss Voigt Hill
#
# Bulk Modulus (GPa) = 28.33695 60.56247 44.44971
# Shear Modulus (GPa) = 23.10661 35.77752 29.44207
#
# Velocity S-wave (km/s) = 3.38733 4.21497 3.82361
# Velocity P-wave (km/s) = 5.41940 7.33221 6.44714
#
# Compressibility (1/GPa) = 0.03528962
#
# Stress axis : x y z
#
# Youngs Moduli (GPa) = 61.16680 47.93746 78.76169
#
# Poissons Ratio (x) = 0.20207 0.35917
# Poissons Ratio (y) = 0.25783 -0.11557
# Poissons Ratio (z) = 0.27893 -0.07034
#
# Static dielectric constant tensor:
#      x y z
#    x 3.020410 0.472430 -0.037100 
#    y 0.472430 3.133350 -0.489760 
#    z -0.037100 -0.489760 3.583900 
# 
# 
# High freq. dielectric constant tensor:
#      x y z
#    x 1.770030 -0.016770 -0.038270 
#    y -0.016770 1.786200 -0.017380 
#    z -0.038270 -0.017380 1.787950 
# 
# From -- ./inp_files/263209.got.cif
#   From: 2010.06.25/outbox.cif.g09.slc.cpg/sg2_132_cif.got.tgz:263209.got - 2010.06.27 13:26:56.
