data_PCOD8043105
_publ_section_title
;
Structure prediction by ZEFSAII (Michael W. Deem and Ramdas Pophale) SiO2 
 PCOD8043105
Probable space group: P -1
;
_chemical_formula_sum "Si O2"
_cell_formula_units_Z 14
_cell_length_a 11.919006
_cell_length_b 12.719356
_cell_length_c 11.900944
_cell_angle_alpha 36.603382
_cell_angle_beta 142.325993
_cell_angle_gamma 144.910892
_cell_volume 568.733212
_symmetry_space_group_name_H-M "P -1"
_symmetry_group_IT_number 2
_symmetry_cell_setting 'triclinic'
loop_
_space_group_symop_operation_xyz
x,y,z
-x,-y,-z
loop_
_atom_site_type_symbol
_atom_site_label
_atom_site_fract_x
_atom_site_fract_y
_atom_site_fract_z
Si Si1 0.939402 0.637882 0.760906
Si Si2 0.383074 0.303668 0.407145
Si Si3 0.788599 0.039072 0.603872
Si Si4 0.246515 0.716383 0.226607
Si Si5 0.267313 0.273403 0.748384
Si Si6 0.721220 0.010953 0.165516
Si Si7 0.623788 0.960630 0.780187
O O1 0.730653 0.617491 0.668573
O O2 0.884107 0.532704 0.681953
O O3 0.130834 0.876147 0.703686
O O4 0.000000 0.500000 0.000000
O O5 0.224937 0.138518 0.334688
O O6 0.499405 0.210757 0.658592
O O7 0.575784 0.484728 0.334460
O O8 0.732891 0.948224 0.763506
O O9 0.625150 0.114174 0.372966
O O10 0.030974 0.222199 0.637020
O O11 0.248985 0.800645 0.281651
O O12 0.157285 0.821205 0.982015
O O13 0.272524 0.189259 0.697956
O O14 0.363538 0.182924 0.992303
O O15 0.500000 0.000000 0.000000
#
# Coordination Sequence:
#
# PCOD8043105 Si02
#       7
#     2   2   2   2   2   2   2
#     4  10  19  36  58  84 119 156 190 243 305 345
#     4  11  22  39  60  88 121 153 203 249 293 370
#     4  10  21  43  63  88 122 160 202 250 306 347
#     4   9  20  38  58  83 120 157 191 249 299 348
#     4  11  21  39  62  91 120 158 205 244 304 361
#     4  10  20  38  59  87 122 157 200 246 299 364
#     4   9  21  41  64  86 124 158 200 256 296 356
#
# _framework density 24.616111
#
# number of rings (size 3 to 8) (size 9 to 14) (size 15 to 20)
#    0.000    2.000    1.429    2.571    0.000    0.571 
#   12.857    7.857    0.000    0.000    0.000    0.000 
#    0.000    0.000    0.000    0.000    0.000    0.000 
#
# Total GULP energy -173482.260248 kJ/mol
# GULP energy per Si atom -12391.590018 kJ/mol
# Density = 2.456008 g / cm^3
# Si number density = 24.616111 Si / 1000 Ang^3
#
#
#
# Elastic Constant Matrix: (Units=GPa)
#
#
# Indices 1 2 3 4 5 6 
#
# 1 82.6484 19.8456 37.2940 5.6477 10.7736 4.6667
# 2 19.8456 91.3562 28.4840 16.2438 -0.8041 7.0564
# 3 37.2940 28.4840 72.7890 11.8559 9.0684 1.2036
# 4 5.6477 16.2438 11.8559 30.2034 -3.8713 4.4783
# 5 10.7736 -0.8041 9.0684 -3.8713 22.4508 7.9511
# 6 4.6667 7.0564 1.2036 4.4783 7.9511 45.6355
#
#
#
# Elastic Compliance Matrix: (Units=1/GPa)
#
#
# Indices 1 2 3 4 5 6 
#
# 1 0.016336 -0.001285 -0.007248 -0.000071 -0.004816 -0.000435
# 2 -0.001285 0.013538 -0.004150 -0.004807 0.002598 -0.001834
# 3 -0.007248 -0.004150 0.020872 -0.005902 -0.007054 0.002641
# 4 -0.000071 -0.004807 -0.005902 0.040155 0.010918 -0.004937
# 5 -0.004816 0.002598 -0.007054 0.010918 0.055376 -0.010443
# 6 -0.000435 -0.001834 0.002641 -0.004937 -0.010443 0.024475
#
#
# Mechanical properties :
#
#
# Convention : Reuss Voigt Hill
#
# Bulk Modulus (GPa) = 39.40039 46.44899 42.92469
# Shear Modulus (GPa) = 24.44035 30.40261 27.42148
#
# Velocity S-wave (km/s) = 3.15439 3.51817 3.34123
# Velocity P-wave (km/s) = 5.41365 5.95094 5.68864
#
# Compressibility (1/GPa) = 0.02538046
#
# Stress axis : x y z
#
# Youngs Moduli (GPa) = 61.21523 73.86386 47.91021
#
# Poissons Ratio (x) = 0.09491 0.34726
# Poissons Ratio (y) = 0.07866 0.19883
# Poissons Ratio (z) = 0.44370 0.30653
#
# Static dielectric constant tensor:
#      x y z
#    x 4.214470 -0.344340 -0.143150 
#    y -0.344340 5.547620 0.481930 
#    z -0.143150 0.481930 5.080730 
# 
# 
# High freq. dielectric constant tensor:
#      x y z
#    x 1.953680 -0.007700 0.010450 
#    y -0.007700 1.984640 0.014120 
#    z 0.010450 0.014120 2.001730 
# 
# From -- ./inp_files/195048.got.cif
#   From: 2010.06.25/outbox.cif.g09.slc.cpg/sg2_98_cif.got.tgz:195048.got - 2010.06.27 13:26:56.
