data_PCOD8043042
_publ_section_title
;
Structure prediction by ZEFSAII (Michael W. Deem and Ramdas Pophale) SiO2 
 PCOD8043042
Probable space group: P -1
;
_chemical_formula_sum "Si O2"
_cell_formula_units_Z 16
_cell_length_a 16.058350
_cell_length_b 11.240515
_cell_length_c 11.129489
_cell_angle_alpha 58.536397
_cell_angle_beta 35.673424
_cell_angle_gamma 48.023109
_cell_volume 869.873764
_symmetry_space_group_name_H-M "P -1"
_symmetry_group_IT_number 2
_symmetry_cell_setting 'triclinic'
loop_
_space_group_symop_operation_xyz
x,y,z
-x,-y,-z
loop_
_atom_site_type_symbol
_atom_site_label
_atom_site_fract_x
_atom_site_fract_y
_atom_site_fract_z
Si Si1 0.145156 0.362274 0.976224
Si Si2 0.815495 0.735081 0.544683
Si Si3 0.492094 0.727425 0.927650
Si Si4 0.975932 0.409177 0.397602
Si Si5 0.682171 0.967302 0.166281
Si Si6 0.548696 0.608374 0.463020
Si Si7 0.637030 0.465768 0.695784
Si Si8 0.652421 0.040635 0.425344
O O1 0.175480 0.199932 0.961865
O O2 0.307615 0.377867 0.779470
O O3 0.099766 0.362526 0.167257
O O4 0.000000 0.500000 0.000000
O O5 0.650278 0.737134 0.781837
O O6 0.930464 0.705324 0.539889
O O7 0.907859 0.595530 0.411531
O O8 0.777511 0.903612 0.441722
O O9 0.532455 0.619328 0.819328
O O10 0.344293 0.899704 0.971526
O O11 0.430467 0.659033 0.144192
O O12 0.827564 0.377544 0.555190
O O13 0.515140 0.963604 0.381304
O O14 0.733143 0.005390 0.216333
O O15 0.500000 0.500000 0.500000
O O16 0.618758 0.523995 0.551520
O O17 0.387677 0.783403 0.575954
#
# Coordination Sequence:
#
# PCOD8043042 Si02
#       8
#     2   2   2   2   2   2   2   2
#     4  11  21  36  58  82 110 147 186 223 277 332
#     4   9  19  35  60  83 107 143 184 233 267 317
#     4   9  18  34  59  84 102 142 190 227 269 317
#     4  10  20  36  54  85 113 144 181 220 279 334
#     4   9  17  32  59  83 104 142 190 229 265 320
#     4  11  23  37  56  85 113 144 182 232 278 320
#     4  10  19  36  57  79 112 145 181 224 275 329
#     4   9  17  35  58  81 108 139 188 233 266 317
#
# _framework density 18.393474000000001
#
# number of rings (size 3 to 8) (size 9 to 14) (size 15 to 20)
#    0.000    2.250    2.500    0.750    5.250    0.000 
#    2.250    3.750    0.000    2.250    0.000    0.000 
#    0.000    0.000    0.000    0.000    0.000    0.000 
#
# Total GULP energy -198413.803465 kJ/mol
# GULP energy per Si atom -12400.862717 kJ/mol
# Density = 1.835161 g / cm^3
# Si number density = 18.393474 Si / 1000 Ang^3
#
#
#
# Elastic Constant Matrix: (Units=GPa)
#
#
# Indices 1 2 3 4 5 6 
#
# 1 92.2692 56.6479 31.2927 5.6037 2.5116 -8.1428
# 2 56.6479 144.0001 40.9169 7.8233 2.8234 -9.8831
# 3 31.2927 40.9169 84.5497 6.5564 10.9705 2.5679
# 4 5.6037 7.8233 6.5564 23.1562 3.2618 -0.8569
# 5 2.5116 2.8234 10.9705 3.2618 23.2040 -0.6459
# 6 -8.1428 -9.8831 2.5679 -0.8569 -0.6459 29.6760
#
#
#
# Elastic Compliance Matrix: (Units=1/GPa)
#
#
# Indices 1 2 3 4 5 6 
#
# 1 0.015232 -0.004776 -0.003430 -0.001106 0.000790 0.002871
# 2 -0.004776 0.009921 -0.003131 -0.001374 0.001046 0.002248
# 3 -0.003430 -0.003131 0.015703 -0.001770 -0.006522 -0.003536
# 4 -0.001106 -0.001374 -0.001770 0.045173 -0.005210 0.000583
# 5 0.000790 0.001046 -0.006522 -0.005210 0.046755 0.001996
# 6 0.002871 0.002248 -0.003536 0.000583 0.001996 0.035600
#
#
# Mechanical properties :
#
#
# Convention : Reuss Voigt Hill
#
# Bulk Modulus (GPa) = 54.99889 64.28155 59.64022
# Shear Modulus (GPa) = 25.36526 28.00468 26.68497
#
# Velocity S-wave (km/s) = 3.71757 3.90620 3.81305
# Velocity P-wave (km/s) = 6.95653 7.44100 7.20284
#
# Compressibility (1/GPa) = 0.01818218
#
# Stress axis : x y z
#
# Youngs Moduli (GPa) = 65.64950 100.79330 63.68175
#
# Poissons Ratio (x) = 0.48137 0.21845
# Poissons Ratio (y) = 0.31353 0.19940
# Poissons Ratio (z) = 0.22520 0.31560
#
# Static dielectric constant tensor:
#      x y z
#    x 3.235820 -0.026780 0.124140 
#    y -0.026780 3.606870 0.002690 
#    z 0.124140 0.002690 3.354580 
# 
# 
# High freq. dielectric constant tensor:
#      x y z
#    x 1.700420 -0.011250 0.013590 
#    y -0.011250 1.719340 0.000910 
#    z 0.013590 0.000910 1.698420 
# 
# From -- ./inp_files/260127.got.cif
#   From: 2010.06.25/outbox.cif.g09.slc.cpg/sg2_131_cif.got.tgz:260127.got - 2010.06.27 13:26:56.
