data_PCOD8043917
_publ_section_title
;
Structure prediction by ZEFSAII (Michael W. Deem and Ramdas Pophale) SiO2 
 PCOD8043917
Probable space group: P -1
;
_chemical_formula_sum "Si O2"
_cell_formula_units_Z 14
_cell_length_a 18.057045
_cell_length_b 11.347854
_cell_length_c 8.927549
_cell_angle_alpha 107.046679
_cell_angle_beta 39.031182
_cell_angle_gamma 135.630722
_cell_volume 647.291248
_symmetry_space_group_name_H-M "P -1"
_symmetry_group_IT_number 2
_symmetry_cell_setting 'triclinic'
loop_
_space_group_symop_operation_xyz
x,y,z
-x,-y,-z
loop_
_atom_site_type_symbol
_atom_site_label
_atom_site_fract_x
_atom_site_fract_y
_atom_site_fract_z
Si Si1 0.550459 0.288225 0.544822
Si Si2 0.223826 0.590868 0.034169
Si Si3 0.232527 0.281076 0.615742
Si Si4 0.451015 0.793749 0.159896
Si Si5 0.805571 0.846075 0.037992
Si Si6 0.378771 0.524844 0.974567
Si Si7 0.780942 0.205116 0.640596
O O1 0.708053 0.527664 0.427987
O O2 0.493181 0.164693 0.738217
O O3 0.349062 0.172247 0.744210
O O4 0.672626 0.298095 0.247951
O O5 0.212923 0.708110 0.185724
O O6 0.997216 0.344129 0.294669
O O7 0.366092 0.608060 0.887505
O O8 0.226207 0.249497 0.790769
O O9 0.397154 0.333260 0.302811
O O10 0.028874 0.087563 0.772198
O O11 0.316108 0.800294 0.345381
O O12 0.333068 0.568042 0.211158
O O13 0.648963 0.974584 0.809695
O O14 0.770423 0.717252 0.910246
#
# Coordination Sequence:
#
# PCOD8043917 Si02
#       7
#     2   2   2   2   2   2   2
#     4  11  21  40  61  96 123 152 197 262 292 345
#     4  10  19  39  67  84 116 160 206 249 298 350
#     4  10  20  36  60  94 121 160 199 239 294 378
#     4  10  23  40  60  89 127 154 202 252 304 349
#     4  10  20  36  59  96 122 158 200 239 295 374
#     4  10  19  37  61  85 122 166 190 240 296 366
#     4   9  22  42  60  88 114 166 207 240 302 372
#
# _framework density 21.628594
#
# number of rings (size 3 to 8) (size 9 to 14) (size 15 to 20)
#    0.000    2.000    2.857    0.857    2.000    3.429 
#   10.286    1.429    0.000    0.000    0.000    0.000 
#    0.000    0.000    0.000    0.000    0.000    0.000 
#
# Total GULP energy -173526.069937 kJ/mol
# GULP energy per Si atom -12394.719281 kJ/mol
# Density = 2.157937 g / cm^3
# Si number density = 21.628594 Si / 1000 Ang^3
#
#
#
# Elastic Constant Matrix: (Units=GPa)
#
#
# Indices 1 2 3 4 5 6 
#
# 1 97.5260 32.9688 64.1239 -4.3676 3.4348 11.2751
# 2 32.9688 66.6989 31.8905 -9.9260 -18.2801 10.5600
# 3 64.1239 31.8905 88.3837 -6.4567 -16.6211 12.7556
# 4 -4.3676 -9.9260 -6.4567 32.1278 6.7326 -8.2565
# 5 3.4348 -18.2801 -16.6211 6.7326 20.9340 -6.2722
# 6 11.2751 10.5600 12.7556 -8.2565 -6.2722 24.0496
#
#
#
# Elastic Compliance Matrix: (Units=1/GPa)
#
#
# Indices 1 2 3 4 5 6 
#
# 1 0.036142 -0.015261 -0.027941 0.002226 -0.043994 -0.006134
# 2 -0.015261 0.028217 0.007079 0.001260 0.032321 -0.000128
# 3 -0.027941 0.007079 0.036432 -0.002725 0.040671 0.000339
# 4 0.002226 0.001260 -0.002725 0.035832 -0.010102 0.009516
# 5 -0.043994 0.032321 0.040671 -0.010102 0.122770 0.013413
# 6 -0.006134 -0.000128 0.000339 0.009516 0.013413 0.051098
#
#
# Mechanical properties :
#
#
# Convention : Reuss Voigt Hill
#
# Bulk Modulus (GPa) = 35.03046 56.73054 45.88050
# Shear Modulus (GPa) = 12.74691 23.66397 18.20544
#
# Velocity S-wave (km/s) = 2.43030 3.31132 2.90441
# Velocity P-wave (km/s) = 4.90985 6.39579 5.70144
#
# Compressibility (1/GPa) = 0.02854659
#
# Stress axis : x y z
#
# Youngs Moduli (GPa) = 27.66850 35.43942 27.44841
#
# Poissons Ratio (x) = 0.54082 0.76694
# Poissons Ratio (y) = 0.42224 -0.19431
# Poissons Ratio (z) = 0.77309 -0.25088
#
# Static dielectric constant tensor:
#      x y z
#    x 3.732750 0.207370 -0.159290 
#    y 0.207370 3.952800 -0.081680 
#    z -0.159290 -0.081680 3.834440 
# 
# 
# High freq. dielectric constant tensor:
#      x y z
#    x 1.836850 0.007920 -0.014900 
#    y 0.007920 1.848750 -0.000380 
#    z -0.014900 -0.000380 1.832350 
# 
# From -- ./inp_files/175735.got.cif
#   From: 2010.06.25/outbox.cif.g09.slc.cpg/sg2_88_cif.got.tgz:175735.got - 2010.06.27 13:26:56.
