data_PCOD8043941
_publ_section_title
;
Structure prediction by ZEFSAII (Michael W. Deem and Ramdas Pophale) SiO2 
 PCOD8043941
Probable space group: P -1
;
_chemical_formula_sum "Si O2"
_cell_formula_units_Z 14
_cell_length_a 22.296564
_cell_length_b 13.065494
_cell_length_c 22.321177
_cell_angle_alpha 17.755550
_cell_angle_beta 18.708988
_cell_angle_gamma 26.505195
_cell_volume 634.363389
_symmetry_space_group_name_H-M "P -1"
_symmetry_group_IT_number 2
_symmetry_cell_setting 'triclinic'
loop_
_space_group_symop_operation_xyz
x,y,z
-x,-y,-z
loop_
_atom_site_type_symbol
_atom_site_label
_atom_site_fract_x
_atom_site_fract_y
_atom_site_fract_z
Si Si1 0.780035 0.369753 0.575534
Si Si2 0.021673 0.484616 0.579314
Si Si3 0.881383 0.738392 0.159127
Si Si4 0.701649 0.665395 0.699685
Si Si5 0.492098 0.839762 0.459245
Si Si6 0.778565 0.637841 0.942676
Si Si7 0.564205 0.327090 0.221243
O O1 0.933888 0.328211 0.504626
O O2 0.825133 0.689679 0.310167
O O3 0.589254 0.402714 0.774364
O O4 0.767753 0.035706 0.732867
O O5 0.197443 0.519661 0.347323
O O6 0.842729 0.660488 0.624851
O O7 0.988556 0.092828 0.845369
O O8 0.684920 0.701682 0.327603
O O9 0.022998 0.456650 0.165167
O O10 0.658544 0.050466 0.508341
O O11 0.500000 0.500000 0.000000
O O12 0.570628 0.194281 0.220837
O O13 0.396839 0.544950 0.754392
O O14 0.758881 0.502995 0.967043
O O15 0.500000 0.000000 0.500000
#
# Coordination Sequence:
#
# PCOD8043941 Si02
#       7
#     2   2   2   2   2   2   2
#     4  12  23  40  62  98 134 168 196 256 322 380
#     4  11  24  39  67  95 124 158 219 262 306 370
#     4  12  23  38  65  95 128 167 203 257 318 372
#     4  11  22  42  67  94 115 162 218 273 303 353
#     4  11  22  40  64  92 122 165 214 265 303 364
#     4  11  24  39  58  94 140 165 203 247 317 387
#     4  10  19  37  61  88 126 163 206 253 305 365
#
# _framework density 22.069369999999999
#
# number of rings (size 3 to 8) (size 9 to 14) (size 15 to 20)
#    0.000    0.857    7.143    2.143    2.000    0.000 
#    0.000    0.714    0.000    1.714    0.000    0.000 
#    0.000    0.000    0.000    0.000    0.000    0.000 
#
# Total GULP energy -173434.429092 kJ/mol
# GULP energy per Si atom -12388.173507 kJ/mol
# Density = 2.201914 g / cm^3
# Si number density = 22.069370 Si / 1000 Ang^3
#
#
#
# Elastic Constant Matrix: (Units=GPa)
#
#
# Indices 1 2 3 4 5 6 
#
# 1 97.7244 21.5537 29.6399 -7.2564 -4.2682 -28.4847
# 2 21.5537 101.8033 33.3448 13.4666 -12.9194 -25.6139
# 3 29.6399 33.3448 78.7656 12.4113 4.6102 -0.1185
# 4 -7.2564 13.4666 12.4113 40.0937 -2.3233 -2.8814
# 5 -4.2682 -12.9194 4.6102 -2.3233 22.2950 6.4842
# 6 -28.4847 -25.6139 -0.1185 -2.8814 6.4842 33.4269
#
#
#
# Elastic Compliance Matrix: (Units=1/GPa)
#
#
# Indices 1 2 3 4 5 6 
#
# 1 0.018228 0.003228 -0.009396 0.006577 0.002752 0.018006
# 2 0.003228 0.016498 -0.008498 -0.000883 0.007840 0.013766
# 3 -0.009396 -0.008498 0.021359 -0.006888 -0.007932 -0.013498
# 4 0.006577 -0.000883 -0.006888 0.029237 0.003242 0.006795
# 5 0.002752 0.007840 -0.007932 0.003242 0.052352 -0.001552
# 6 0.018006 0.013766 -0.013498 0.006795 -0.001552 0.056647
#
#
# Mechanical properties :
#
#
# Convention : Reuss Voigt Hill
#
# Bulk Modulus (GPa) = 37.38025 49.70779 43.54402
# Shear Modulus (GPa) = 21.49891 32.08011 26.78951
#
# Velocity S-wave (km/s) = 3.12453 3.81675 3.48785
# Velocity P-wave (km/s) = 5.47643 6.48042 5.99946
#
# Compressibility (1/GPa) = 0.02675210
#
# Stress axis : x y z
#
# Youngs Moduli (GPa) = 54.86154 60.61299 46.81965
#
# Poissons Ratio (x) = -0.19566 0.43992
# Poissons Ratio (y) = -0.17709 0.39788
# Poissons Ratio (z) = 0.51548 0.51510
#
# Static dielectric constant tensor:
#      x y z
#    x 4.470860 -0.282830 -0.018100 
#    y -0.282830 4.115110 0.340310 
#    z -0.018100 0.340310 4.060770 
# 
# 
# High freq. dielectric constant tensor:
#      x y z
#    x 1.847140 -0.039190 0.008590 
#    y -0.039190 1.866730 0.031340 
#    z 0.008590 0.031340 1.857460 
# 
# From -- ./inp_files/352571.got.cif
#   From: 2010.06.25/outbox.cif.g09.slc.cpg/sg2_177_cif.got.tgz:352571.got - 2010.06.27 13:26:56.
