data_PCOD8043328
_publ_section_title
;
Structure prediction by ZEFSAII (Michael W. Deem and Ramdas Pophale) SiO2 
 PCOD8043328
Probable space group: P -1
;
_chemical_formula_sum "Si O2"
_cell_formula_units_Z 14
_cell_length_a 14.029621
_cell_length_b 10.647107
_cell_length_c 13.969647
_cell_angle_alpha 149.121681
_cell_angle_beta 41.009419
_cell_angle_gamma 120.697466
_cell_volume 641.822905
_symmetry_space_group_name_H-M "P -1"
_symmetry_group_IT_number 2
_symmetry_cell_setting 'triclinic'
loop_
_space_group_symop_operation_xyz
x,y,z
-x,-y,-z
loop_
_atom_site_type_symbol
_atom_site_label
_atom_site_fract_x
_atom_site_fract_y
_atom_site_fract_z
Si Si1 0.974469 0.428520 0.366528
Si Si2 0.867469 0.905521 0.630722
Si Si3 0.640248 0.923750 0.482720
Si Si4 0.699743 0.619036 0.956504
Si Si5 0.070682 0.219344 0.708036
Si Si6 0.719709 0.287180 0.534485
Si Si7 0.618099 0.433306 0.092848
O O1 0.881482 0.231160 0.315026
O O2 0.000000 0.500000 0.500000
O O3 0.146313 0.305012 0.102826
O O4 0.852362 0.696584 0.580866
O O5 0.978233 0.032723 0.681767
O O6 0.947368 0.737785 0.364490
O O7 0.697426 0.135272 0.880854
O O8 0.745428 0.935617 0.501160
O O9 0.660752 0.621545 0.256492
O O10 0.700179 0.013652 0.397088
O O11 0.456534 0.110912 0.762972
O O12 0.718751 0.428443 0.728028
O O13 0.688973 0.452106 0.947609
O O14 0.000000 0.500000 0.000000
O O15 0.570449 0.478782 0.710046
#
# Coordination Sequence:
#
# PCOD8043328 Si02
#       7
#     2   2   2   2   2   2   2
#     4  10  22  39  63  88 122 170 207 248 314 373
#     4  11  22  39  64  90 129 160 205 258 314 365
#     4  11  21  37  61  92 124 155 209 262 303 364
#     4  10  19  36  61  87 120 159 209 256 304 360
#     4  11  21  37  63  98 124 156 207 263 309 358
#     4  10  20  37  61  89 122 167 208 248 308 372
#     4  11  21  37  61  94 120 161 207 260 310 357
#
# _framework density 21.81287
#
# number of rings (size 3 to 8) (size 9 to 14) (size 15 to 20)
#    0.000    1.429    1.429    8.571    0.000    0.571 
#    0.000    2.857   12.571    4.286    0.000    0.000 
#    0.000    0.000    0.000    0.000    0.000    0.000 
#
# Total GULP energy -173551.016776 kJ/mol
# GULP energy per Si atom -12396.501198 kJ/mol
# Density = 2.176322 g / cm^3
# Si number density = 21.812870 Si / 1000 Ang^3
#
#
#
# Elastic Constant Matrix: (Units=GPa)
#
#
# Indices 1 2 3 4 5 6 
#
# 1 106.7086 22.8014 29.7898 -4.1792 -23.3777 3.5201
# 2 22.8014 91.2890 29.8598 -12.1261 -18.0164 5.7069
# 3 29.7898 29.8598 74.7634 3.9498 -12.5222 4.5097
# 4 -4.1792 -12.1261 3.9498 28.9031 7.0396 -14.2122
# 5 -23.3777 -18.0164 -12.5222 7.0396 39.1715 -2.1875
# 6 3.5201 5.7069 4.5097 -14.2122 -2.1875 36.5342
#
#
#
# Elastic Compliance Matrix: (Units=1/GPa)
#
#
# Indices 1 2 3 4 5 6 
#
# 1 0.011711 -0.000612 -0.003531 0.000561 0.005475 -0.000051
# 2 -0.000612 0.014290 -0.005294 0.006365 0.003436 0.001162
# 3 -0.003531 -0.005294 0.017930 -0.007666 0.002350 -0.003887
# 4 0.000561 0.006365 -0.007666 0.049271 -0.007002 0.018646
# 5 0.005475 0.003436 0.002350 -0.007002 0.032266 -0.002146
# 6 -0.000051 0.001162 -0.003887 0.018646 -0.002146 0.034800
#
#
# Mechanical properties :
#
#
# Convention : Reuss Voigt Hill
#
# Bulk Modulus (GPa) = 39.91071 48.62922 44.26997
# Shear Modulus (GPa) = 26.66734 33.60908 30.13821
#
# Velocity S-wave (km/s) = 3.50029 3.92955 3.72112
# Velocity P-wave (km/s) = 5.88835 6.55215 6.22910
#
# Compressibility (1/GPa) = 0.02505593
#
# Stress axis : x y z
#
# Youngs Moduli (GPa) = 85.38913 69.98105 55.77188
#
# Poissons Ratio (x) = 0.04281 0.19696
# Poissons Ratio (y) = 0.05224 0.29527
# Poissons Ratio (z) = 0.30155 0.37050
#
# Static dielectric constant tensor:
#      x y z
#    x 4.287740 0.255980 -0.273760 
#    y 0.255980 4.100170 -0.164760 
#    z -0.273760 -0.164760 3.884940 
# 
# 
# High freq. dielectric constant tensor:
#      x y z
#    x 1.879810 0.008570 -0.012310 
#    y 0.008570 1.827460 0.007430 
#    z -0.012310 0.007430 1.848500 
# 
# From -- ./inp_files/532765.got.cif
#   From: 2010.06.25/outbox.cif.g09.slc.cpg/sg2_267_cif.got.tgz:532765.got - 2010.06.27 13:26:56.
