data_PCOD8043359
_publ_section_title
;
Structure prediction by ZEFSAII (Michael W. Deem and Ramdas Pophale) SiO2 
 PCOD8043359
Probable space group: P -1
;
_chemical_formula_sum "Si O2"
_cell_formula_units_Z 14
_cell_length_a 8.477841
_cell_length_b 8.134799
_cell_length_c 11.931783
_cell_angle_alpha 85.593398
_cell_angle_beta 125.169876
_cell_angle_gamma 68.820537
_cell_volume 581.753487
_symmetry_space_group_name_H-M "P -1"
_symmetry_group_IT_number 2
_symmetry_cell_setting 'triclinic'
loop_
_space_group_symop_operation_xyz
x,y,z
-x,-y,-z
loop_
_atom_site_type_symbol
_atom_site_label
_atom_site_fract_x
_atom_site_fract_y
_atom_site_fract_z
Si Si1 0.146983 0.603999 0.926606
Si Si2 0.746405 0.271691 0.651082
Si Si3 0.147232 0.963841 0.955425
Si Si4 0.620168 0.063422 0.454814
Si Si5 0.704665 0.785972 0.885007
Si Si6 0.989899 0.312840 0.383411
Si Si7 0.698915 0.535427 0.443101
O O1 0.922849 0.703174 0.902178
O O2 0.093795 0.589543 0.776505
O O3 0.262371 0.738774 0.979930
O O4 0.301978 0.386944 0.043429
O O5 0.610713 0.248607 0.493000
O O6 0.784016 0.435674 0.605785
O O7 0.572788 0.340820 0.681650
O O8 0.978713 0.087460 0.781436
O O9 0.308943 0.051698 0.042404
O O10 0.000000 0.000000 0.000000
O O11 0.510002 0.107804 0.285824
O O12 0.500000 0.000000 0.500000
O O13 0.884653 0.914145 0.563500
O O14 0.187594 0.334994 0.521783
O O15 0.781164 0.392290 0.378184
#
# Coordination Sequence:
#
# PCOD8043359 Si02
#       7
#     2   2   2   2   2   2   2
#     4  10  19  36  61  90 126 168 213 259 319 380
#     4  11  21  41  65  96 121 164 229 261 315 390
#     4  10  20  35  62  93 124 166 215 266 312 383
#     4  12  20  38  67  96 125 168 215 265 315 388
#     4  10  21  35  62  98 127 168 215 262 319 386
#     4  11  21  41  63  96 132 166 209 272 331 372
#     4  10  24  36  65  97 127 162 214 279 320 376
#
# _framework density 24.065176000000001
#
# number of rings (size 3 to 8) (size 9 to 14) (size 15 to 20)
#    0.000    1.429    4.286    1.714    0.000    6.286 
#    0.000    0.000    3.143    6.857    3.714    0.000 
#    0.000    0.000    0.000    0.000    0.000    0.000 
#
# Total GULP energy -173454.874936 kJ/mol
# GULP energy per Si atom -12389.633924 kJ/mol
# Density = 2.401040 g / cm^3
# Si number density = 24.065176 Si / 1000 Ang^3
#
#
#
# Elastic Constant Matrix: (Units=GPa)
#
#
# Indices 1 2 3 4 5 6 
#
# 1 57.1418 31.9789 23.3716 0.9166 -7.8762 -11.7283
# 2 31.9789 121.4944 51.9103 0.3408 -1.6151 6.4107
# 3 23.3716 51.9103 149.7495 -6.0713 -4.7902 5.9870
# 4 0.9166 0.3408 -6.0713 35.5827 6.2317 -6.8954
# 5 -7.8762 -1.6151 -4.7902 6.2317 19.1108 5.0408
# 6 -11.7283 6.4107 5.9870 -6.8954 5.0408 27.3844
#
#
#
# Elastic Compliance Matrix: (Units=1/GPa)
#
#
# Indices 1 2 3 4 5 6 
#
# 1 0.025039 -0.006269 -0.001990 0.000233 0.006169 0.011550
# 2 -0.006269 0.011345 -0.002829 -0.001277 -0.000617 -0.004930
# 3 -0.001990 -0.002829 0.008122 0.000870 0.001212 -0.001970
# 4 0.000233 -0.001277 0.000870 0.032705 -0.013333 0.010898
# 5 0.006169 -0.000617 0.001212 -0.013333 0.062735 -0.012384
# 6 0.011550 -0.004930 -0.001970 0.010898 -0.012384 0.048072
#
#
# Mechanical properties :
#
#
# Convention : Reuss Voigt Hill
#
# Bulk Modulus (GPa) = 44.77945 60.32302 52.55124
# Shear Modulus (GPa) = 22.97407 31.15723 27.06565
#
# Velocity S-wave (km/s) = 3.09311 3.60210 3.35726
# Velocity P-wave (km/s) = 5.60396 6.51315 6.07559
#
# Compressibility (1/GPa) = 0.02233167
#
# Stress axis : x y z
#
# Youngs Moduli (GPa) = 39.93695 88.14481 123.12568
#
# Poissons Ratio (x) = 0.55254 0.24501
# Poissons Ratio (y) = 0.25035 0.34829
# Poissons Ratio (z) = 0.07947 0.24934
#
# Static dielectric constant tensor:
#      x y z
#    x 4.758740 0.239250 2.382690 
#    y 0.239250 4.998560 0.373600 
#    z 2.382690 0.373600 15.111520 
# 
# 
# High freq. dielectric constant tensor:
#      x y z
#    x 1.914490 0.011380 -0.013220 
#    y 0.011380 1.971860 0.001500 
#    z -0.013220 0.001500 1.948570 
# 
# From -- ./inp_files/378847.got.cif
#   From: 2010.06.25/outbox.cif.g09.slc.cpg/sg2_190_cif.got.tgz:378847.got - 2010.06.27 13:26:56.
