data_PCOD8043258
_publ_section_title
;
Structure prediction by ZEFSAII (Michael W. Deem and Ramdas Pophale) SiO2 
 PCOD8043258
Probable space group: P -1
;
_chemical_formula_sum "Si O2"
_cell_formula_units_Z 16
_cell_length_a 9.118528
_cell_length_b 11.612837
_cell_length_c 8.828451
_cell_angle_alpha 96.492843
_cell_angle_beta 71.003497
_cell_angle_gamma 112.137435
_cell_volume 818.736756
_symmetry_space_group_name_H-M "P -1"
_symmetry_group_IT_number 2
_symmetry_cell_setting 'triclinic'
loop_
_space_group_symop_operation_xyz
x,y,z
-x,-y,-z
loop_
_atom_site_type_symbol
_atom_site_label
_atom_site_fract_x
_atom_site_fract_y
_atom_site_fract_z
Si Si1 0.341527 0.924334 0.943550
Si Si2 0.149309 0.578883 0.620548
Si Si3 0.038922 0.317497 0.497491
Si Si4 0.861392 0.550945 0.947690
Si Si5 0.009153 0.228690 0.830185
Si Si6 0.817386 0.906696 0.074935
Si Si7 0.628714 0.328411 0.179365
Si Si8 0.723862 0.709212 0.822676
O O1 0.172166 0.872255 0.089674
O O2 0.376701 0.811638 0.838713
O O3 0.500000 0.000000 0.000000
O O4 0.306869 0.017285 0.843154
O O5 0.150450 0.463012 0.503262
O O6 0.323198 0.627006 0.658039
O O7 0.130088 0.685314 0.531546
O O8 0.998952 0.537610 0.786448
O O9 0.002693 0.248334 0.657578
O O10 0.134538 0.253181 0.348377
O O11 0.734353 0.597927 0.906628
O O12 0.954339 0.646326 0.065021
O O13 0.761305 0.414880 0.027751
O O14 0.161493 0.179297 0.807092
O O15 0.747961 0.828448 0.934435
O O16 0.000000 0.000000 0.000000
O O17 0.452515 0.337268 0.206637
#
# Coordination Sequence:
#
# PCOD8043258 Si02
#       8
#     2   2   2   2   2   2   2   2
#     4  11  21  36  60  87 111 143 193 247 281 310
#     4  10  20  35  57  86 119 147 185 230 282 349
#     4  10  21  37  55  85 118 153 185 220 292 349
#     4  10  19  36  60  90 108 148 193 232 286 329
#     4  10  19  38  63  83 110 148 195 236 272 346
#     4   9  20  38  60  82 105 150 200 232 269 325
#     4  12  20  34  61  85 119 145 186 242 281 337
#     4  10  22  36  56  87 123 147 179 235 289 344
#
# _framework density 19.542300999999998
#
# number of rings (size 3 to 8) (size 9 to 14) (size 15 to 20)
#    0.000    1.750    3.750    1.500    1.750    0.500 
#    0.000    3.750    0.000    1.500    0.000    0.000 
#    0.000    0.000    0.000    0.000    0.000    0.000 
#
# Total GULP energy -198281.489089 kJ/mol
# GULP energy per Si atom -12392.593068 kJ/mol
# Density = 1.949782 g / cm^3
# Si number density = 19.542301 Si / 1000 Ang^3
#
#
#
# Elastic Constant Matrix: (Units=GPa)
#
#
# Indices 1 2 3 4 5 6 
#
# 1 147.1000 28.2586 21.9925 -0.4601 27.4102 -4.9276
# 2 28.2586 60.5604 9.4564 8.9403 1.3787 -3.6375
# 3 21.9925 9.4564 62.8874 -7.6863 22.1836 -8.0592
# 4 -0.4601 8.9403 -7.6863 17.9520 -2.8277 2.7327
# 5 27.4102 1.3787 22.1836 -2.8277 28.5797 4.4179
# 6 -4.9276 -3.6375 -8.0592 2.7327 4.4179 34.3476
#
#
#
# Elastic Compliance Matrix: (Units=1/GPa)
#
#
# Indices 1 2 3 4 5 6 
#
# 1 0.009413 -0.004387 0.001398 0.001051 -0.010174 0.002439
# 2 -0.004387 0.021014 -0.005072 -0.011918 0.005859 0.000600
# 3 0.001398 -0.005072 0.025851 0.009066 -0.021465 0.007768
# 4 0.001051 -0.011918 0.009066 0.066146 -0.000275 -0.004211
# 5 -0.010174 0.005859 -0.021465 -0.000275 0.063262 -0.013991
# 6 0.002439 0.000600 0.007768 -0.004211 -0.013991 0.033485
#
#
# Mechanical properties :
#
#
# Convention : Reuss Voigt Hill
#
# Bulk Modulus (GPa) = 24.90411 43.32920 34.11665
# Shear Modulus (GPa) = 20.10637 30.23189 25.16913
#
# Velocity S-wave (km/s) = 3.21107 3.93746 3.59267
# Velocity P-wave (km/s) = 5.14969 6.54916 5.89113
#
# Compressibility (1/GPa) = 0.04015402
#
# Stress axis : x y z
#
# Youngs Moduli (GPa) = 106.23936 47.58794 38.68350
#
# Poissons Ratio (x) = 0.20879 -0.05407
# Poissons Ratio (y) = 0.46612 0.19620
# Poissons Ratio (z) = -0.14850 0.24136
#
# Static dielectric constant tensor:
#      x y z
#    x 4.029720 -0.303710 0.349160 
#    y -0.303710 3.633350 0.105500 
#    z 0.349160 0.105500 3.328280 
# 
# 
# High freq. dielectric constant tensor:
#      x y z
#    x 1.782400 -0.020900 0.026810 
#    y -0.020900 1.759740 0.014080 
#    z 0.026810 0.014080 1.724780 
# 
# From -- ./inp_files/188394.got.cif
#   From: 2010.06.25/outbox.cif.g09.slc.cpg/sg2_95_cif.got.tgz:188394.got - 2010.06.27 13:26:56.
