data_PCOD8043162
_publ_section_title
;
Structure prediction by ZEFSAII (Michael W. Deem and Ramdas Pophale) SiO2 
 PCOD8043162
Probable space group: P -1
;
_chemical_formula_sum "Si O2"
_cell_formula_units_Z 16
_cell_length_a 12.469621
_cell_length_b 20.581626
_cell_length_c 10.757929
_cell_angle_alpha 123.630639
_cell_angle_beta 37.731123
_cell_angle_gamma 143.249264
_cell_volume 986.603976
_symmetry_space_group_name_H-M "P -1"
_symmetry_group_IT_number 2
_symmetry_cell_setting 'triclinic'
loop_
_space_group_symop_operation_xyz
x,y,z
-x,-y,-z
loop_
_atom_site_type_symbol
_atom_site_label
_atom_site_fract_x
_atom_site_fract_y
_atom_site_fract_z
Si Si1 0.242172 0.550393 0.192784
Si Si2 0.091780 0.655425 0.569117
Si Si3 0.505722 0.898312 0.506568
Si Si4 0.876966 0.420521 0.911894
Si Si5 0.971506 0.290803 0.580826
Si Si6 0.348496 0.284550 0.179718
Si Si7 0.541522 0.945496 0.232675
Si Si8 0.957881 0.966022 0.860820
O O1 0.231350 0.619276 0.370678
O O2 0.060994 0.511288 0.198686
O O3 0.152185 0.442220 0.227058
O O4 0.528088 0.635808 0.972256
O O5 0.284750 0.766696 0.593142
O O6 0.011187 0.676809 0.543819
O O7 0.536929 0.924583 0.360171
O O8 0.432342 0.953772 0.705928
O O9 0.772963 0.950173 0.366584
O O10 0.990299 0.369631 0.740866
O O11 0.572693 0.321277 0.099293
O O12 0.000000 0.500000 0.000000
O O13 0.712696 0.165195 0.713270
O O14 0.196850 0.302376 0.412896
O O15 0.165452 0.158315 0.169325
O O16 0.773053 0.973994 0.983978
O O17 0.000000 0.000000 0.000000
#
# Coordination Sequence:
#
# PCOD8043162 Si02
#       8
#     2   2   2   2   2   2   2   2
#     4   8  17  31  46  62  93 123 155 179 227 269
#     4   9  16  30  44  65  96 129 146 176 223 279
#     4   9  16  23  40  61  88 121 145 174 214 265
#     4   9  19  34  48  65  87 117 158 199 227 254
#     4  10  17  28  47  67  96 117 146 186 231 274
#     4  10  18  29  45  70  92 120 154 182 229 270
#     4   9  15  25  37  62  91 118 142 176 221 262
#     4  10  16  24  41  64  94 119 143 180 218 273
#
# _framework density 16.217245999999999
#
# number of rings (size 3 to 8) (size 9 to 14) (size 15 to 20)
#    0.750    2.000    2.500    1.500    1.750    1.000 
#    0.000    0.000    0.000    0.000    0.000    1.750 
#    0.000    0.000    0.000    0.000    0.000    0.000 
#
# Total GULP energy -198223.807551 kJ/mol
# GULP energy per Si atom -12388.987972 kJ/mol
# Density = 1.618033 g / cm^3
# Si number density = 16.217246 Si / 1000 Ang^3
#
#
#
# Elastic Constant Matrix: (Units=GPa)
#
#
# Indices 1 2 3 4 5 6 
#
# 1 24.7126 26.2342 25.7759 7.8305 -7.4498 4.5437
# 2 26.2342 116.8292 45.8003 16.7465 -1.0901 4.1207
# 3 25.7759 45.8003 96.6081 15.1763 -30.1845 4.3892
# 4 7.8305 16.7465 15.1763 23.2828 2.1106 -1.2922
# 5 -7.4498 -1.0901 -30.1845 2.1106 24.8391 2.1720
# 6 4.5437 4.1207 4.3892 -1.2922 2.1720 17.9669
#
#
#
# Elastic Compliance Matrix: (Units=1/GPa)
#
#
# Indices 1 2 3 4 5 6 
#
# 1 0.070511 -0.010905 -0.005097 -0.015071 0.017265 -0.017257
# 2 -0.010905 0.013733 -0.007453 -0.000108 -0.011967 0.002868
# 3 -0.005097 -0.007453 0.029516 -0.015988 0.036223 -0.009741
# 4 -0.015071 -0.000108 -0.015988 0.062178 -0.030629 0.015917
# 5 0.017265 -0.011967 0.036223 -0.030629 0.093631 -0.023992
# 6 -0.017257 0.002868 -0.009741 0.015917 -0.023992 0.065789
#
#
# Mechanical properties :
#
#
# Convention : Reuss Voigt Hill
#
# Bulk Modulus (GPa) = 14.95904 48.19673 31.57788
# Shear Modulus (GPa) = 12.35934 22.57371 17.46653
#
# Velocity S-wave (km/s) = 2.76363 3.73494 3.28538
# Velocity P-wave (km/s) = 4.40769 6.95584 5.82286
#
# Compressibility (1/GPa) = 0.06684920
#
# Stress axis : x y z
#
# Youngs Moduli (GPa) = 14.18211 72.81857 33.87964
#
# Poissons Ratio (x) = 0.79409 0.17269
# Poissons Ratio (y) = 0.15466 0.25251
# Poissons Ratio (z) = 0.07229 0.54273
#
# Static dielectric constant tensor:
#      x y z
#    x 2.622810 0.020510 -0.387140 
#    y 0.020510 3.176720 -0.025600 
#    z -0.387140 -0.025600 3.137280 
# 
# 
# High freq. dielectric constant tensor:
#      x y z
#    x 1.560160 0.007900 -0.037580 
#    y 0.007900 1.630890 0.008630 
#    z -0.037580 0.008630 1.614990 
# 
# From -- ./inp_files/303598.got.cif
#   From: 2010.06.25/outbox.cif.g09.slc.cpg/sg2_152_cif.got.tgz:303598.got - 2010.06.27 13:26:56.
