data_PCOD8043469
_publ_section_title
;
Structure prediction by ZEFSAII (Michael W. Deem and Ramdas Pophale) SiO2 
 PCOD8043469
Probable space group: P -1
;
_chemical_formula_sum "Si O2"
_cell_formula_units_Z 14
_cell_length_a 9.836344
_cell_length_b 12.658618
_cell_length_c 12.445790
_cell_angle_alpha 120.640433
_cell_angle_beta 34.173081
_cell_angle_gamma 122.479936
_cell_volume 727.272609
_symmetry_space_group_name_H-M "P -1"
_symmetry_group_IT_number 2
_symmetry_cell_setting 'triclinic'
loop_
_space_group_symop_operation_xyz
x,y,z
-x,-y,-z
loop_
_atom_site_type_symbol
_atom_site_label
_atom_site_fract_x
_atom_site_fract_y
_atom_site_fract_z
Si Si1 0.078622 0.636512 0.466954
Si Si2 0.582978 0.585934 0.131479
Si Si3 0.547973 0.166702 0.163274
Si Si4 0.453666 0.889067 0.109711
Si Si5 0.709026 0.680734 0.880843
Si Si6 0.952839 0.636527 0.101410
Si Si7 0.079286 0.264261 0.591825
O O1 0.376801 0.667704 0.288433
O O2 0.000000 0.500000 0.500000
O O3 0.963314 0.726543 0.668600
O O4 0.970381 0.641579 0.420345
O O5 0.479181 0.433044 0.121746
O O6 0.716106 0.634843 0.180555
O O7 0.767288 0.622653 0.927154
O O8 0.331607 0.221313 0.384997
O O9 0.560164 0.035838 0.147171
O O10 0.479969 0.135861 0.068627
O O11 0.812729 0.264670 0.051809
O O12 0.157793 0.855532 0.309740
O O13 0.588821 0.799178 0.042568
O O14 0.889095 0.665232 0.278936
O O15 0.000000 0.500000 0.000000
#
# Coordination Sequence:
#
# PCOD8043469 Si02
#       7
#     2   2   2   2   2   2   2
#     4  10  21  33  60  89 114 148 198 239 290 344
#     4  10  21  38  57  87 120 151 193 242 293 352
#     4  10  22  38  59  89 121 153 198 239 299 345
#     4  10  19  37  63  89 113 155 199 250 282 344
#     4  10  19  36  63  84 115 149 203 241 290 341
#     4  11  26  39  58  87 127 157 189 239 302 355
#     4  11  21  39  61  91 119 152 196 248 292 346
#
# _framework density 19.250003
#
# number of rings (size 3 to 8) (size 9 to 14) (size 15 to 20)
#    0.000    1.714    2.857    2.143    6.000    1.714 
#    0.000    0.714    0.000    1.714    0.000    0.000 
#    0.000    0.000    0.000    0.000    0.000    0.000 
#
# Total GULP energy -173530.433231 kJ/mol
# GULP energy per Si atom -12395.030945 kJ/mol
# Density = 1.920619 g / cm^3
# Si number density = 19.250003 Si / 1000 Ang^3
#
#
#
# Elastic Constant Matrix: (Units=GPa)
#
#
# Indices 1 2 3 4 5 6 
#
# 1 117.2146 48.1997 54.2829 5.3660 3.7923 -6.3888
# 2 48.1997 119.6493 44.9026 7.0508 -1.7053 -8.8847
# 3 54.2829 44.9026 128.3657 1.1003 0.4973 -6.6266
# 4 5.3660 7.0508 1.1003 21.7565 -12.4123 -0.5891
# 5 3.7923 -1.7053 0.4973 -12.4123 26.8553 0.7760
# 6 -6.3888 -8.8847 -6.6266 -0.5891 0.7760 20.9308
#
#
#
# Elastic Compliance Matrix: (Units=1/GPa)
#
#
# Indices 1 2 3 4 5 6 
#
# 1 0.011947 -0.003110 -0.003860 -0.003757 -0.003582 0.001132
# 2 -0.003110 0.010841 -0.002307 -0.002624 -0.000125 0.002853
# 3 -0.003860 -0.002307 0.010267 0.001780 0.000999 0.001106
# 4 -0.003757 -0.002624 0.001780 0.064956 0.030382 -0.000995
# 5 -0.003582 -0.000125 0.000999 0.030382 0.051813 -0.001896
# 6 0.001132 0.002853 0.001106 -0.000995 -0.001896 0.049725
#
#
# Mechanical properties :
#
#
# Convention : Reuss Voigt Hill
#
# Bulk Modulus (GPa) = 68.95429 73.33334 71.14382
# Shear Modulus (GPa) = 22.42776 28.43148 25.42962
#
# Velocity S-wave (km/s) = 3.41703 3.84729 3.63853
# Velocity P-wave (km/s) = 7.17400 7.61009 7.39526
#
# Compressibility (1/GPa) = 0.01450236
#
# Stress axis : x y z
#
# Youngs Moduli (GPa) = 83.70100 92.24267 97.39562
#
# Poissons Ratio (x) = 0.28687 0.37593
# Poissons Ratio (y) = 0.26031 0.22467
# Poissons Ratio (z) = 0.32307 0.21279
#
# Static dielectric constant tensor:
#      x y z
#    x 3.595570 -0.203970 -0.012570 
#    y -0.203970 3.571150 -0.130630 
#    z -0.012570 -0.130630 4.198120 
# 
# 
# High freq. dielectric constant tensor:
#      x y z
#    x 1.725370 -0.029220 0.001560 
#    y -0.029220 1.731950 -0.008940 
#    z 0.001560 -0.008940 1.769910 
# 
# From -- ./inp_files/251327.got.cif
#   From: 2010.06.25/outbox.cif.g09.slc.cpg/sg2_126_cif.got.tgz:251327.got - 2010.06.27 13:26:56.
