data_PCOD8043656
_publ_section_title
;
Structure prediction by ZEFSAII (Michael W. Deem and Ramdas Pophale) SiO2 
 PCOD8043656
Probable space group: P -1
;
_chemical_formula_sum "Si O2"
_cell_formula_units_Z 16
_cell_length_a 8.183277
_cell_length_b 5.740185
_cell_length_c 17.573787
_cell_angle_alpha 102.251918
_cell_angle_beta 96.858226
_cell_angle_gamma 56.652607
_cell_volume 673.876256
_symmetry_space_group_name_H-M "P -1"
_symmetry_group_IT_number 2
_symmetry_cell_setting 'triclinic'
loop_
_space_group_symop_operation_xyz
x,y,z
-x,-y,-z
loop_
_atom_site_type_symbol
_atom_site_label
_atom_site_fract_x
_atom_site_fract_y
_atom_site_fract_z
Si Si1 0.949375 0.154417 0.735977
Si Si2 0.709551 0.773604 0.465305
Si Si3 0.422916 0.276941 0.203776
Si Si4 0.731161 0.351959 0.013213
Si Si5 0.293543 0.164821 0.041947
Si Si6 0.705217 0.820008 0.295744
Si Si7 0.232531 0.685413 0.818798
Si Si8 0.015352 0.831620 0.563075
O O1 0.099452 0.255304 0.743058
O O2 0.729829 0.404571 0.756473
O O3 0.021195 0.943974 0.797504
O O4 0.952832 0.005409 0.648384
O O5 0.729384 0.872135 0.389069
O O6 0.764042 0.449956 0.437031
O O7 0.857232 0.748548 0.536145
O O8 0.500000 0.000000 0.500000
O O9 0.318708 0.168932 0.134790
O O10 0.602397 0.240626 0.162468
O O11 0.506984 0.094590 0.272592
O O12 0.785164 0.408388 0.104219
O O13 0.500000 0.500000 0.000000
O O14 0.811713 0.505254 0.973013
O O15 0.819242 0.007187 0.985575
O O16 0.500000 0.000000 0.000000
O O17 0.688240 0.554936 0.258501
O O18 0.000000 0.000000 0.500000
#
# Coordination Sequence:
#
# PCOD8043656 Si02
#       8
#     2   2   2   2   2   2   2   2
#     4  11  26  44  63 100 134 175 222 278 349 406
#     4  11  26  42  69 100 126 177 229 269 338 416
#     4  11  25  40  70  95 131 178 227 276 346 417
#     4  10  19  36  69  93 136 179 232 288 353 407
#     4  10  19  39  65 100 131 182 234 287 350 414
#     4  11  24  43  64  97 134 171 221 283 339 405
#     4  11  23  43  67  94 134 178 221 283 338 413
#     4  11  24  46  65  90 140 171 212 284 334 396
#
# _framework density 23.743231999999999
#
# number of rings (size 3 to 8) (size 9 to 14) (size 15 to 20)
#    0.000    1.250    5.000    1.500    5.250    1.500 
#    0.000    1.250    0.000    0.000    0.000    0.000 
#    0.000    0.000    0.000    0.000    0.000    0.000 
#
# Total GULP energy -198272.363280 kJ/mol
# GULP energy per Si atom -12392.022705 kJ/mol
# Density = 2.368919 g / cm^3
# Si number density = 23.743232 Si / 1000 Ang^3
#
#
#
# Elastic Constant Matrix: (Units=GPa)
#
#
# Indices 1 2 3 4 5 6 
#
# 1 40.5324 30.7822 13.5012 -2.1201 7.2535 10.5490
# 2 30.7822 166.2588 42.4010 -9.7663 -0.3800 -7.4412
# 3 13.5012 42.4010 132.4620 -10.7353 19.0332 -2.1071
# 4 -2.1201 -9.7663 -10.7353 47.8306 6.6428 -0.3379
# 5 7.2535 -0.3800 19.0332 6.6428 25.3265 5.3439
# 6 10.5490 -7.4412 -2.1071 -0.3379 5.3439 39.7211
#
#
#
# Elastic Compliance Matrix: (Units=1/GPa)
#
#
# Indices 1 2 3 4 5 6 
#
# 1 0.033522 -0.006498 -0.000255 0.001134 -0.007892 -0.009062
# 2 -0.006498 0.007939 -0.002227 0.000440 0.002969 0.002699
# 3 -0.000255 -0.002227 0.009737 0.002883 -0.008310 0.001310
# 4 0.001134 0.000440 0.002883 0.022922 -0.008773 0.001309
# 5 -0.007892 0.002969 -0.008310 -0.008773 0.051342 -0.004771
# 6 -0.009062 0.002699 0.001310 0.001309 -0.004771 0.028810
#
#
# Mechanical properties :
#
#
# Convention : Reuss Voigt Hill
#
# Bulk Modulus (GPa) = 30.08685 56.95801 43.52243
# Shear Modulus (GPa) = 27.27593 39.41354 33.34473
#
# Velocity S-wave (km/s) = 3.39305 4.07872 3.75158
# Velocity P-wave (km/s) = 5.29620 6.79871 6.09394
#
# Compressibility (1/GPa) = 0.03323711
#
# Stress axis : x y z
#
# Youngs Moduli (GPa) = 29.83128 125.95587 102.70419
#
# Poissons Ratio (x) = 0.81852 0.02618
# Poissons Ratio (y) = 0.19386 0.22872
# Poissons Ratio (z) = 0.00760 0.28051
#
# Static dielectric constant tensor:
#      x y z
#    x 4.359510 0.470850 0.386880 
#    y 0.470850 5.018610 -0.172570 
#    z 0.386880 -0.172570 4.540230 
# 
# 
# High freq. dielectric constant tensor:
#      x y z
#    x 1.912860 0.005620 0.018510 
#    y 0.005620 1.954290 -0.007050 
#    z 0.018510 -0.007050 1.953840 
# 
# From -- ./inp_files/106312.got.cif
#   From: 2010.06.25/outbox.cif.g09.slc.cpg/sg2_54_cif.got.tgz:106312.got - 2010.06.27 13:26:56.
