data_PCOD8043090
_publ_section_title
;
Structure prediction by ZEFSAII (Michael W. Deem and Ramdas Pophale) SiO2 
 PCOD8043090
Probable space group: P -1
;
_chemical_formula_sum "Si O2"
_cell_formula_units_Z 12
_cell_length_a 16.288794
_cell_length_b 15.651244
_cell_length_c 9.201205
_cell_angle_alpha 144.746724
_cell_angle_beta 136.564499
_cell_angle_gamma 27.890997
_cell_volume 633.281637
_symmetry_space_group_name_H-M "P -1"
_symmetry_group_IT_number 2
_symmetry_cell_setting 'triclinic'
loop_
_space_group_symop_operation_xyz
x,y,z
-x,-y,-z
loop_
_atom_site_type_symbol
_atom_site_label
_atom_site_fract_x
_atom_site_fract_y
_atom_site_fract_z
Si Si1 0.244572 0.983140 0.158642
Si Si2 0.062677 0.347822 0.233555
Si Si3 0.128054 0.812838 0.611522
Si Si4 0.418442 0.436777 0.890189
Si Si5 0.180260 0.704207 0.210908
Si Si6 0.906820 0.379713 0.458887
O O1 0.431514 0.826580 0.263002
O O2 0.233280 0.101258 0.166892
O O3 0.236460 0.820839 0.868321
O O4 0.085482 0.160297 0.309552
O O5 0.101445 0.433079 0.275598
O O6 0.000000 0.500000 0.500000
O O7 0.916925 0.365676 0.017200
O O8 0.231770 0.689676 0.423756
O O9 0.103294 0.679037 0.475410
O O10 0.939449 0.055227 0.671316
O O11 0.255347 0.519401 0.709442
O O12 0.500000 0.500000 0.000000
O O13 0.356237 0.542254 0.117405
#
# Coordination Sequence:
#
# PCOD8043090 Si02
#       6
#     2   2   2   2   2   2
#     4  10  20  35  58  82 110 148 179 226 273 315
#     4   9  18  37  57  79 110 146 179 229 264 328
#     4  10  19  36  58  80 114 144 176 236 265 321
#     4  12  21  33  60  86 106 142 190 224 268 326
#     4  10  21  36  57  85 109 145 186 214 288 322
#     4  11  20  38  58  83 111 140 192 222 266 325
#
# _framework density 18.948917000000002
#
# number of rings (size 3 to 8) (size 9 to 14) (size 15 to 20)
#    0.000    1.667    6.667    1.500    0.000    2.000 
#    0.000    0.000    0.000    1.000    0.000    0.000 
#    0.000    0.000    0.000    0.000    0.000    0.000 
#
# Total GULP energy -148738.175816 kJ/mol
# GULP energy per Si atom -12394.847985 kJ/mol
# Density = 1.890579 g / cm^3
# Si number density = 18.948917 Si / 1000 Ang^3
#
#
#
# Elastic Constant Matrix: (Units=GPa)
#
#
# Indices 1 2 3 4 5 6 
#
# 1 136.6429 49.5898 36.7428 17.4213 5.9554 19.5588
# 2 49.5898 111.1138 18.7119 16.5729 -9.6954 -3.7141
# 3 36.7428 18.7119 42.7747 9.1066 -0.2842 5.0969
# 4 17.4213 16.5729 9.1066 13.4562 11.1652 1.1282
# 5 5.9554 -9.6954 -0.2842 11.1652 29.8392 9.2626
# 6 19.5588 -3.7141 5.0969 1.1282 9.2626 32.1007
#
#
#
# Elastic Compliance Matrix: (Units=1/GPa)
#
#
# Indices 1 2 3 4 5 6 
#
# 1 0.012206 -0.003185 -0.006456 -0.008407 0.001786 -0.007001
# 2 -0.003185 0.016679 0.002980 -0.034294 0.019207 -0.000940
# 3 -0.006456 0.002980 0.035110 -0.031989 0.016052 -0.004804
# 4 -0.008407 -0.034294 -0.031989 0.235216 -0.106709 0.028758
# 5 0.001786 0.019207 0.016052 -0.106709 0.086502 -0.022625
# 6 -0.007001 -0.000940 -0.004804 0.028758 -0.022625 0.041589
#
#
# Mechanical properties :
#
#
# Convention : Reuss Voigt Hill
#
# Bulk Modulus (GPa) = 19.73416 55.62449 37.67933
# Shear Modulus (GPa) = 10.92866 27.44499 19.18683
#
# Velocity S-wave (km/s) = 2.40415 3.80987 3.18552
# Velocity P-wave (km/s) = 4.25953 6.98371 5.78428
#
# Compressibility (1/GPa) = 0.05067354
#
# Stress axis : x y z
#
# Youngs Moduli (GPa) = 81.92657 59.95658 28.48219
#
# Poissons Ratio (x) = 0.19094 0.18388
# Poissons Ratio (y) = 0.26090 -0.08488
# Poissons Ratio (z) = 0.52891 -0.17867
#
# Static dielectric constant tensor:
#      x y z
#    x 3.909990 0.318970 0.334250 
#    y 0.318970 3.589790 0.151850 
#    z 0.334250 0.151850 3.591560 
# 
# 
# High freq. dielectric constant tensor:
#      x y z
#    x 1.735450 0.019690 0.010130 
#    y 0.019690 1.734830 0.004730 
#    z 0.010130 0.004730 1.715210 
# 
# From -- ./inp_files/166375.got.cif
#   From: 2010.06.25/outbox.cif.g09.slc.cpg/sg2_84_cif.got.tgz:166375.got - 2010.06.27 13:26:56.
