data_PCOD8043791
_publ_section_title
;
Structure prediction by ZEFSAII (Michael W. Deem and Ramdas Pophale) SiO2 
 PCOD8043791
Probable space group: P -1
;
_chemical_formula_sum "Si O2"
_cell_formula_units_Z 16
_cell_length_a 8.206226
_cell_length_b 8.850152
_cell_length_c 15.062296
_cell_angle_alpha 131.490794
_cell_angle_beta 109.340724
_cell_angle_gamma 83.433984
_cell_volume 764.581113
_symmetry_space_group_name_H-M "P -1"
_symmetry_group_IT_number 2
_symmetry_cell_setting 'triclinic'
loop_
_space_group_symop_operation_xyz
x,y,z
-x,-y,-z
loop_
_atom_site_type_symbol
_atom_site_label
_atom_site_fract_x
_atom_site_fract_y
_atom_site_fract_z
Si Si1 0.862805 0.835794 0.521775
Si Si2 0.685169 0.094348 0.108877
Si Si3 0.021244 0.132667 0.967007
Si Si4 0.090646 0.544367 0.818318
Si Si5 0.386650 0.829697 0.674707
Si Si6 0.767884 0.871034 0.703468
Si Si7 0.212264 0.148525 0.681409
Si Si8 0.091760 0.530959 0.416632
O O1 0.742161 0.900340 0.604546
O O2 0.750915 0.826257 0.407869
O O3 0.928629 0.614430 0.470699
O O4 0.037128 0.995334 0.608629
O O5 0.775272 0.277060 0.134218
O O6 0.667932 0.187097 0.239310
O O7 0.798265 0.906397 0.061259
O O8 0.500000 0.000000 0.000000
O O9 0.860327 0.073676 0.847233
O O10 0.013928 0.366560 0.085042
O O11 0.000000 0.000000 0.000000
O O12 0.198416 0.370403 0.807310
O O13 0.947984 0.427066 0.678239
O O14 0.586218 0.793471 0.688223
O O15 0.276059 0.654433 0.527638
O O16 0.369558 0.054076 0.719676
O O17 0.905913 0.710337 0.673408
#
# Coordination Sequence:
#
# PCOD8043791 Si02
#       8
#     2   2   2   2   2   2   2   2
#     4   9  20  36  61  82 118 158 199 243 296 349
#     4  11  23  40  62  89 121 155 195 252 298 345
#     4  10  19  37  59  84 115 154 200 242 287 348
#     4  10  21  39  66  86 118 161 200 243 292 354
#     4  11  24  37  59  92 128 154 193 246 297 352
#     4  12  21  36  60  90 121 156 200 246 296 349
#     4   9  20  40  58  86 119 158 196 240 298 356
#     4  10  20  35  60  91 117 150 198 249 290 347
#
# _framework density 20.926490000000001
#
# number of rings (size 3 to 8) (size 9 to 14) (size 15 to 20)
#    0.000    1.750    2.500    4.500    3.500    0.500 
#    0.000    6.250    0.000    0.000    0.000    0.000 
#    0.000    0.000    0.000    0.000    0.000    0.000 
#
# Total GULP energy -198326.186438 kJ/mol
# GULP energy per Si atom -12395.386652 kJ/mol
# Density = 2.087886 g / cm^3
# Si number density = 20.926490 Si / 1000 Ang^3
#
#
#
# Elastic Constant Matrix: (Units=GPa)
#
#
# Indices 1 2 3 4 5 6 
#
# 1 84.3327 0.8034 39.7448 -0.7017 -9.1548 1.4250
# 2 0.8034 51.6310 9.0900 8.9761 -8.3134 -11.7725
# 3 39.7448 9.0900 122.9855 10.6534 -9.4565 -8.5972
# 4 -0.7017 8.9761 10.6534 22.1405 -3.5959 -6.1107
# 5 -9.1548 -8.3134 -9.4565 -3.5959 40.5419 -3.0689
# 6 1.4250 -11.7725 -8.5972 -6.1107 -3.0689 16.1626
#
#
#
# Elastic Compliance Matrix: (Units=1/GPa)
#
#
# Indices 1 2 3 4 5 6 
#
# 1 0.014464 -0.000032 -0.004900 0.002469 0.002141 -0.002565
# 2 -0.000032 0.025186 0.000262 -0.004359 0.006195 0.018015
# 3 -0.004900 0.000262 0.010480 -0.003664 0.001452 0.005088
# 4 0.002469 -0.004359 -0.003664 0.053964 0.004804 0.015973
# 5 0.002141 0.006195 0.001452 0.004804 0.028112 0.012250
# 6 -0.002565 0.018015 0.005088 0.015973 0.012250 0.086291
#
#
# Mechanical properties :
#
#
# Convention : Reuss Voigt Hill
#
# Bulk Modulus (GPa) = 24.51599 39.80283 32.15941
# Shear Modulus (GPa) = 20.70973 29.72307 25.21640
#
# Velocity S-wave (km/s) = 3.14927 3.77285 3.47508
# Velocity P-wave (km/s) = 4.99646 6.16772 5.61273
#
# Compressibility (1/GPa) = 0.04078971
#
# Stress axis : x y z
#
# Youngs Moduli (GPa) = 69.13742 39.70511 95.41967
#
# Poissons Ratio (x) = 0.00125 0.46760
# Poissons Ratio (y) = 0.00218 -0.02500
# Poissons Ratio (z) = 0.33880 -0.01040
#
# Static dielectric constant tensor:
#      x y z
#    x 3.595950 -0.252530 -0.394690 
#    y -0.252530 3.813060 0.037170 
#    z -0.394690 0.037170 4.143050 
# 
# 
# High freq. dielectric constant tensor:
#      x y z
#    x 1.794200 -0.013450 -0.020160 
#    y -0.013450 1.801260 -0.001980 
#    z -0.020160 -0.001980 1.834310 
# 
# From -- ./inp_files/267811.got.cif
#   From: 2010.06.25/outbox.cif.g09.slc.cpg/sg2_134_cif.got.tgz:267811.got - 2010.06.27 13:26:56.
