data_PCOD8043244
_publ_section_title
;
Structure prediction by ZEFSAII (Michael W. Deem and Ramdas Pophale) SiO2 
 PCOD8043244
Probable space group: P -1
;
_chemical_formula_sum "Si O2"
_cell_formula_units_Z 16
_cell_length_a 9.907244
_cell_length_b 13.636031
_cell_length_c 18.771457
_cell_angle_alpha 20.166922
_cell_angle_beta 100.315496
_cell_angle_gamma 91.394791
_cell_volume 779.082542
_symmetry_space_group_name_H-M "P -1"
_symmetry_group_IT_number 2
_symmetry_cell_setting 'triclinic'
loop_
_space_group_symop_operation_xyz
x,y,z
-x,-y,-z
loop_
_atom_site_type_symbol
_atom_site_label
_atom_site_fract_x
_atom_site_fract_y
_atom_site_fract_z
Si Si1 0.961616 0.474632 0.766456
Si Si2 0.063858 0.665045 0.290900
Si Si3 0.355213 0.768218 0.230054
Si Si4 0.278777 0.964640 0.791366
Si Si5 0.123594 0.276494 0.064477
Si Si6 0.231987 0.841956 0.021243
Si Si7 0.436778 0.925648 0.269481
Si Si8 0.935464 0.121280 0.264234
O O1 0.016715 0.244869 0.857792
O O2 0.792274 0.482478 0.753617
O O3 0.055522 0.303076 0.961141
O O4 0.967158 0.805184 0.527429
O O5 0.213271 0.719346 0.280767
O O6 0.125886 0.289420 0.558725
O O7 0.933429 0.857167 0.203979
O O8 0.326857 0.891687 0.061806
O O9 0.382357 0.004295 0.127458
O O10 0.507607 0.445601 0.462211
O O11 0.226248 0.756122 0.876056
O O12 0.427580 0.978979 0.763724
O O13 0.322263 0.819611 0.972859
O O14 0.072952 0.625507 0.851086
O O15 0.066178 0.079306 0.247046
O O16 0.304346 0.101164 0.193855
#
# Coordination Sequence:
#
# PCOD8043244 Si02
#       8
#     2   2   2   2   2   2   2   2
#     4  10  19  36  60  87 114 141 189 245 283 328
#     4   9  18  32  57  86 113 150 193 230 279 340
#     4   9  19  34  54  81 117 151 187 222 289 342
#     4  10  21  36  53  87 116 151 194 229 283 343
#     4  11  21  40  64  81 116 148 189 246 290 325
#     4  11  18  33  59  83 119 153 187 238 277 332
#     4  10  21  38  55  80 120 154 180 232 287 347
#     4  10  23  39  61  90 104 147 204 240 280 335
#
# _framework density 20.536975999999999
#
# number of rings (size 3 to 8) (size 9 to 14) (size 15 to 20)
#    0.000    2.000    1.250    4.500    0.000    1.000 
#    9.000    0.000    0.000    1.500    0.000    0.000 
#    0.000    0.000    0.000    0.000    0.000    0.000 
#
# Total GULP energy -198243.992991 kJ/mol
# GULP energy per Si atom -12390.249562 kJ/mol
# Density = 2.049023 g / cm^3
# Si number density = 20.536976 Si / 1000 Ang^3
#
#
#
# Elastic Constant Matrix: (Units=GPa)
#
#
# Indices 1 2 3 4 5 6 
#
# 1 93.7017 35.7051 29.7167 -6.2539 3.1675 -6.0089
# 2 35.7051 82.5841 17.9086 8.4355 5.9443 1.0748
# 3 29.7167 17.9086 54.6499 1.4349 1.9387 -10.0981
# 4 -6.2539 8.4355 1.4349 26.1806 2.9173 -1.6216
# 5 3.1675 5.9443 1.9387 2.9173 24.2620 0.4626
# 6 -6.0089 1.0748 -10.0981 -1.6216 0.4626 32.0906
#
#
#
# Elastic Compliance Matrix: (Units=1/GPa)
#
#
# Indices 1 2 3 4 5 6 
#
# 1 0.015456 -0.005890 -0.006343 0.006118 -0.000830 0.001416
# 2 -0.005890 0.015989 -0.002283 -0.006358 -0.002151 -0.002647
# 3 -0.006343 -0.002283 0.023713 -0.001643 -0.000430 0.006274
# 4 0.006118 -0.006358 -0.001643 0.042461 -0.004273 0.003049
# 5 -0.000830 -0.002151 -0.000430 -0.004273 0.042420 -0.001046
# 6 0.001416 -0.002647 0.006274 0.003049 -0.001046 0.033659
#
#
# Mechanical properties :
#
#
# Convention : Reuss Voigt Hill
#
# Bulk Modulus (GPa) = 38.27673 44.17740 41.22707
# Shear Modulus (GPa) = 23.64742 26.34698 24.99720
#
# Velocity S-wave (km/s) = 3.39699 3.58565 3.49260
# Velocity P-wave (km/s) = 5.83648 6.22096 6.03179
#
# Compressibility (1/GPa) = 0.02612553
#
# Stress axis : x y z
#
# Youngs Moduli (GPa) = 64.70151 62.54236 42.17046
#
# Poissons Ratio (x) = 0.36838 0.26751
# Poissons Ratio (y) = 0.38110 0.09626
# Poissons Ratio (z) = 0.41043 0.14276
#
# Static dielectric constant tensor:
#      x y z
#    x 3.639210 0.151650 -0.072770 
#    y 0.151650 3.817520 0.128860 
#    z -0.072770 0.128860 3.521250 
# 
# 
# High freq. dielectric constant tensor:
#      x y z
#    x 1.794210 0.014720 -0.007640 
#    y 0.014720 1.809600 0.014360 
#    z -0.007640 0.014360 1.774530 
# 
# From -- ./inp_files/590193.got.cif
#   From: 2010.06.25/outbox.cif.g09.slc.cpg/sg2_296_cif.got.tgz:590193.got - 2010.06.27 13:26:56.
