data_PCOD8043655
_publ_section_title
;
Structure prediction by ZEFSAII (Michael W. Deem and Ramdas Pophale) SiO2 
 PCOD8043655
Probable space group: P -1
;
_chemical_formula_sum "Si O2"
_cell_formula_units_Z 14
_cell_length_a 7.960307
_cell_length_b 11.275829
_cell_length_c 8.684904
_cell_angle_alpha 65.154745
_cell_angle_beta 113.183148
_cell_angle_gamma 100.420201
_cell_volume 650.165132
_symmetry_space_group_name_H-M "P -1"
_symmetry_group_IT_number 2
_symmetry_cell_setting 'triclinic'
loop_
_space_group_symop_operation_xyz
x,y,z
-x,-y,-z
loop_
_atom_site_type_symbol
_atom_site_label
_atom_site_fract_x
_atom_site_fract_y
_atom_site_fract_z
Si Si1 0.495822 0.014081 0.741206
Si Si2 0.614732 0.355319 0.465763
Si Si3 0.378653 0.347320 0.688429
Si Si4 0.355703 0.179622 0.328657
Si Si5 0.332766 0.826336 0.018484
Si Si6 0.027340 0.353924 0.021123
Si Si7 0.013922 0.362263 0.659984
O O1 0.366846 0.094204 0.535688
O O2 0.634845 0.916722 0.760246
O O3 0.346927 0.939148 0.834613
O O4 0.632025 0.109199 0.835300
O O5 0.461324 0.339349 0.552365
O O6 0.632302 0.504200 0.339531
O O7 0.538912 0.271813 0.340443
O O8 0.810915 0.296493 0.618484
O O9 0.170958 0.286083 0.661447
O O10 0.502449 0.273078 0.895948
O O11 0.181935 0.274137 0.210888
O O12 0.149321 0.741061 0.983328
O O13 0.000000 0.500000 0.000000
O O14 0.082334 0.375524 0.852497
O O15 0.000000 0.500000 0.500000
#
# Coordination Sequence:
#
# PCOD8043655 Si02
#       7
#     2   2   2   2   2   2   2
#     4  10  24  43  67  89 129 188 227 268 324 391
#     4  10  20  39  66  94 131 175 216 279 340 390
#     4  10  19  36  69  91 127 172 223 271 330 397
#     4  11  23  43  64  97 134 170 223 283 329 387
#     4  11  22  44  66  93 131 181 226 267 326 407
#     4  12  26  41  67 103 138 166 216 288 345 391
#     4  10  22  38  63  95 127 177 215 252 335 419
#
# _framework density 21.532993999999999
#
# number of rings (size 3 to 8) (size 9 to 14) (size 15 to 20)
#    0.000    1.429    2.857    1.714    4.000    3.429 
#    0.000   10.714    0.000    0.000    0.000    0.000 
#    0.000    0.000    0.000    0.000    0.000    0.000 
#
# Total GULP energy -173433.971002 kJ/mol
# GULP energy per Si atom -12388.140786 kJ/mol
# Density = 2.148398 g / cm^3
# Si number density = 21.532994 Si / 1000 Ang^3
#
#
#
# Elastic Constant Matrix: (Units=GPa)
#
#
# Indices 1 2 3 4 5 6 
#
# 1 153.1124 56.6371 57.9101 7.0213 21.2731 0.4152
# 2 56.6371 127.4208 54.7439 2.4360 9.1901 9.5483
# 3 57.9101 54.7439 127.3297 -6.2776 15.7472 -3.9347
# 4 7.0213 2.4360 -6.2776 32.6250 1.7293 9.7371
# 5 21.2731 9.1901 15.7472 1.7293 37.2482 -4.9694
# 6 0.4152 9.5483 -3.9347 9.7371 -4.9694 27.0560
#
#
#
# Elastic Compliance Matrix: (Units=1/GPa)
#
#
# Indices 1 2 3 4 5 6 
#
# 1 0.009077 -0.002655 -0.002684 -0.002294 -0.003202 0.000645
# 2 -0.002655 0.010914 -0.003567 0.000442 -0.000295 -0.004543
# 3 -0.002684 -0.003567 0.011054 0.002619 -0.002173 0.001566
# 4 -0.002294 0.000442 0.002619 0.035735 -0.003327 -0.013212
# 5 -0.003202 -0.000295 -0.002173 -0.003327 0.030712 0.006676
# 6 0.000645 -0.004543 0.001566 -0.013212 0.006676 0.044762
#
#
# Mechanical properties :
#
#
# Convention : Reuss Voigt Hill
#
# Bulk Modulus (GPa) = 75.56837 82.93834 79.25336
# Shear Modulus (GPa) = 30.39951 35.29064 32.84507
#
# Velocity S-wave (km/s) = 3.76142 4.05274 3.90979
# Velocity P-wave (km/s) = 7.35084 7.77818 7.56752
#
# Compressibility (1/GPa) = 0.01323305
#
# Stress axis : x y z
#
# Youngs Moduli (GPa) = 110.17352 91.62716 90.46457
#
# Poissons Ratio (x) = 0.24326 0.24279
# Poissons Ratio (y) = 0.29250 0.32268
# Poissons Ratio (z) = 0.29569 0.32683
#
# Static dielectric constant tensor:
#      x y z
#    x 3.438980 0.103590 0.174350 
#    y 0.103590 4.136370 -0.165830 
#    z 0.174350 -0.165830 4.029910 
# 
# 
# High freq. dielectric constant tensor:
#      x y z
#    x 1.841540 0.003910 0.000440 
#    y 0.003910 1.845930 -0.015400 
#    z 0.000440 -0.015400 1.851340 
# 
# From -- ./inp_files/168899.got.cif
#   From: 2010.06.25/outbox.cif.g09.slc.cpg/sg2_85_cif.got.tgz:168899.got - 2010.06.27 13:26:56.
