data_PCOD8043679
_publ_section_title
;
Structure prediction by ZEFSAII (Michael W. Deem and Ramdas Pophale) SiO2 
 PCOD8043679
Probable space group: P -1
;
_chemical_formula_sum "Si O2"
_cell_formula_units_Z 16
_cell_length_a 8.725106
_cell_length_b 12.743682
_cell_length_c 23.261994
_cell_angle_alpha 154.946339
_cell_angle_beta 127.947560
_cell_angle_gamma 63.575917
_cell_volume 813.629963
_symmetry_space_group_name_H-M "P -1"
_symmetry_group_IT_number 2
_symmetry_cell_setting 'triclinic'
loop_
_space_group_symop_operation_xyz
x,y,z
-x,-y,-z
loop_
_atom_site_type_symbol
_atom_site_label
_atom_site_fract_x
_atom_site_fract_y
_atom_site_fract_z
Si Si1 0.168179 0.705165 0.603260
Si Si2 0.577640 0.652187 0.153679
Si Si3 0.563280 0.578941 0.443222
Si Si4 0.244084 0.538921 0.121558
Si Si5 0.775314 0.284234 0.505979
Si Si6 0.985959 0.715778 0.334587
Si Si7 0.377159 0.717389 0.355945
Si Si8 0.946697 0.066481 0.764464
O O1 0.389325 0.696072 0.673419
O O2 0.134578 0.613767 0.484361
O O3 0.000000 0.500000 0.500000
O O4 0.133924 0.987134 0.739507
O O5 0.392220 0.580116 0.120932
O O6 0.762330 0.562631 0.179056
O O7 0.666182 0.967059 0.322668
O O8 0.500000 0.500000 0.000000
O O9 0.393196 0.582330 0.451368
O O10 0.500857 0.616154 0.382087
O O11 0.772390 0.814439 0.625000
O O12 0.351348 0.522143 0.198642
O O13 0.158234 0.784557 0.229964
O O14 0.050494 0.271724 0.940552
O O15 0.963076 0.406439 0.655031
O O16 0.160420 0.724960 0.333148
O O17 0.000000 0.000000 0.500000
O O18 0.500000 0.000000 0.500000
#
# Coordination Sequence:
#
# PCOD8043679 Si02
#       8
#     2   2   2   2   2   2   2   2
#     4  10  22  35  58  83 109 151 196 235 275 337
#     4  11  22  34  54  85 118 151 182 230 290 346
#     4  10  20  38  57  85 112 151 194 230 282 335
#     4  11  22  35  57  86 119 148 183 234 296 334
#     4  10  19  37  55  80 114 146 188 236 280 334
#     4   9  21  32  51  80 114 146 183 226 283 334
#     4  11  20  34  58  84 116 149 184 237 283 336
#     4  10  21  36  54  85 115 145 191 229 286 332
#
# _framework density 19.664959
#
# number of rings (size 3 to 8) (size 9 to 14) (size 15 to 20)
#    0.000    1.750    2.500    2.625    7.000    2.000 
#    0.000    0.625    0.000    3.000    0.000   12.250 
#    0.000    0.000    0.000    0.000    0.000    0.000 
#
# Total GULP energy -198216.170088 kJ/mol
# GULP energy per Si atom -12388.510631 kJ/mol
# Density = 1.962020 g / cm^3
# Si number density = 19.664959 Si / 1000 Ang^3
#
#
#
# Elastic Constant Matrix: (Units=GPa)
#
#
# Indices 1 2 3 4 5 6 
#
# 1 111.1816 79.1400 38.3407 -14.9363 -19.5948 -6.2745
# 2 79.1400 111.7941 40.9063 -21.2580 -13.0830 -14.6675
# 3 38.3407 40.9063 77.6282 -28.5320 -4.8494 -2.0728
# 4 -14.9363 -21.2580 -28.5320 29.9975 -0.1280 -7.7688
# 5 -19.5948 -13.0830 -4.8494 -0.1280 30.2195 -4.1103
# 6 -6.2745 -14.6675 -2.0728 -7.7688 -4.1103 45.3024
#
#
#
# Elastic Compliance Matrix: (Units=1/GPa)
#
#
# Indices 1 2 3 4 5 6 
#
# 1 0.020177 -0.012849 -0.004005 -0.003228 0.006660 -0.001498
# 2 -0.012849 0.021351 -0.001156 0.009415 0.001698 0.006849
# 3 -0.004005 -0.001156 0.022996 0.020013 0.001176 0.003662
# 4 -0.003228 0.009415 0.020013 0.061275 0.007454 0.014701
# 5 0.006660 0.001698 0.001176 0.007454 0.039231 0.006364
# 6 -0.001498 0.006849 0.003662 0.014701 0.006364 0.027350
#
#
# Mechanical properties :
#
#
# Convention : Reuss Voigt Hill
#
# Bulk Modulus (GPa) = 35.08160 68.59755 51.83957
# Shear Modulus (GPa) = 21.01718 30.58502 25.80110
#
# Velocity S-wave (km/s) = 3.27274 3.94801 3.62613
# Velocity P-wave (km/s) = 5.67093 7.46601 6.62951
#
# Compressibility (1/GPa) = 0.02850497
#
# Stress axis : x y z
#
# Youngs Moduli (GPa) = 49.56137 46.83546 43.48621
#
# Poissons Ratio (x) = 0.60178 0.17417
# Poissons Ratio (y) = 0.63681 0.05025
# Poissons Ratio (z) = 0.19850 0.05412
#
# Static dielectric constant tensor:
#      x y z
#    x 3.834300 -0.476460 -0.164680 
#    y -0.476460 4.289010 -0.350700 
#    z -0.164680 -0.350700 3.697990 
# 
# 
# High freq. dielectric constant tensor:
#      x y z
#    x 1.778920 -0.014620 -0.011140 
#    y -0.014620 1.765400 -0.022250 
#    z -0.011140 -0.022250 1.739250 
# 
# From -- ./inp_files/261512.got.cif
#   From: 2010.06.25/outbox.cif.g09.slc.cpg/sg2_131_cif.got.tgz:261512.got - 2010.06.27 13:26:56.
