data_PCOD8043397
_publ_section_title
;
Structure prediction by ZEFSAII (Michael W. Deem and Ramdas Pophale) SiO2 
 PCOD8043397
Probable space group: P -1
;
_chemical_formula_sum "Si O2"
_cell_formula_units_Z 14
_cell_length_a 8.286762
_cell_length_b 12.388436
_cell_length_c 20.010228
_cell_angle_alpha 143.382151
_cell_angle_beta 49.032562
_cell_angle_gamma 145.825437
_cell_volume 688.058853
_symmetry_space_group_name_H-M "P -1"
_symmetry_group_IT_number 2
_symmetry_cell_setting 'triclinic'
loop_
_space_group_symop_operation_xyz
x,y,z
-x,-y,-z
loop_
_atom_site_type_symbol
_atom_site_label
_atom_site_fract_x
_atom_site_fract_y
_atom_site_fract_z
Si Si1 0.693886 0.636127 0.116012
Si Si2 0.417843 0.425811 0.223724
Si Si3 0.049539 0.258231 0.682666
Si Si4 0.798182 0.349740 0.543294
Si Si5 0.861833 0.097091 0.509348
Si Si6 0.283924 0.599502 0.120155
Si Si7 0.802358 0.075595 0.961604
O O1 0.633768 0.600559 0.192440
O O2 0.526422 0.712220 0.166716
O O3 0.595024 0.396280 0.983481
O O4 0.037890 0.852463 0.118578
O O5 0.625468 0.497343 0.265527
O O6 0.208495 0.473287 0.321502
O O7 0.234746 0.149228 0.112865
O O8 0.010238 0.267039 0.618601
O O9 0.817686 0.250610 0.780775
O O10 0.998980 0.021324 0.600326
O O11 0.926096 0.259617 0.508789
O O12 0.000000 0.500000 0.500000
O O13 0.478691 0.116316 0.490071
O O14 0.010935 0.312904 0.070628
O O15 0.500000 0.000000 0.000000
#
# Coordination Sequence:
#
# PCOD8043397 Si02
#       7
#     2   2   2   2   2   2   2
#     4   9  21  38  56  87 124 159 202 239 295 363
#     4  11  21  36  62  85 120 159 197 247 303 357
#     4  10  19  36  62  86 118 163 194 246 302 353
#     4  10  22  41  63  89 113 154 205 255 298 362
#     4   9  21  40  61  84 119 155 200 249 308 350
#     4   9  19  38  59  84 126 158 200 245 293 358
#     4  10  20  36  58  88 120 156 198 247 290 358
#
# _framework density 20.347096000000001
#
# number of rings (size 3 to 8) (size 9 to 14) (size 15 to 20)
#    0.857    1.429    1.429    0.857    0.000    7.429 
#    0.000    7.857    0.000    0.000    0.000    0.000 
#    0.000    0.000    0.000    0.000    0.000    0.000 
#
# Total GULP energy -173478.339617 kJ/mol
# GULP energy per Si atom -12391.309973 kJ/mol
# Density = 2.030079 g / cm^3
# Si number density = 20.347096 Si / 1000 Ang^3
#
#
#
# Elastic Constant Matrix: (Units=GPa)
#
#
# Indices 1 2 3 4 5 6 
#
# 1 110.4191 45.6885 50.7762 -7.0301 -13.8075 -5.3382
# 2 45.6885 116.7629 30.8210 -18.9204 -9.1169 -6.3085
# 3 50.7762 30.8210 94.2805 -11.0483 -26.7188 -2.5625
# 4 -7.0301 -18.9204 -11.0483 24.9468 4.9260 0.1615
# 5 -13.8075 -9.1169 -26.7188 4.9260 41.0042 -0.3773
# 6 -5.3382 -6.3085 -2.5625 0.1615 -0.3773 27.5416
#
#
#
# Elastic Compliance Matrix: (Units=1/GPa)
#
#
# Indices 1 2 3 4 5 6 
#
# 1 0.013424 -0.003871 -0.006193 -0.001875 -0.000139 0.001148
# 2 -0.003871 0.011572 -0.000829 0.007334 -0.000135 0.001778
# 3 -0.006193 -0.000829 0.017010 0.003500 0.008397 0.000287
# 4 -0.001875 0.007334 0.003500 0.047128 -0.002370 0.001333
# 5 -0.000139 -0.000135 0.008397 -0.002370 0.030077 0.001149
# 6 0.001148 0.001778 0.000287 0.001333 0.001149 0.036973
#
#
# Mechanical properties :
#
#
# Convention : Reuss Voigt Hill
#
# Bulk Modulus (GPa) = 49.45157 64.00377 56.72767
# Shear Modulus (GPa) = 27.06945 31.64365 29.35655
#
# Velocity S-wave (km/s) = 3.65140 3.94787 3.80253
# Velocity P-wave (km/s) = 6.49105 7.23223 6.87164
#
# Compressibility (1/GPa) = 0.02022180
#
# Stress axis : x y z
#
# Youngs Moduli (GPa) = 74.49091 86.41789 58.78828
#
# Poissons Ratio (x) = 0.33453 0.36405
# Poissons Ratio (y) = 0.28836 0.04872
# Poissons Ratio (z) = 0.46129 0.07161
#
# Static dielectric constant tensor:
#      x y z
#    x 3.670580 0.138210 -0.136810 
#    y 0.138210 3.344350 0.020790 
#    z -0.136810 0.020790 3.814370 
# 
# 
# High freq. dielectric constant tensor:
#      x y z
#    x 1.793250 0.012830 -0.014330 
#    y 0.012830 1.756800 -0.004610 
#    z -0.014330 -0.004610 1.802850 
# 
# From -- ./inp_files/589623.got.cif
#   From: 2010.06.25/outbox.cif.g09.slc.cpg/sg2_295_cif.got.tgz:589623.got - 2010.06.27 13:26:56.
