data_PCOD8043558
_publ_section_title
;
Structure prediction by ZEFSAII (Michael W. Deem and Ramdas Pophale) SiO2 
 PCOD8043558
Probable space group: P -1
;
_chemical_formula_sum "Si O2"
_cell_formula_units_Z 16
_cell_length_a 12.158099
_cell_length_b 9.090442
_cell_length_c 9.014001
_cell_angle_alpha 96.683286
_cell_angle_beta 83.739826
_cell_angle_gamma 56.563041
_cell_volume 807.489492
_symmetry_space_group_name_H-M "P -1"
_symmetry_group_IT_number 2
_symmetry_cell_setting 'triclinic'
loop_
_space_group_symop_operation_xyz
x,y,z
-x,-y,-z
loop_
_atom_site_type_symbol
_atom_site_label
_atom_site_fract_x
_atom_site_fract_y
_atom_site_fract_z
Si Si1 0.960187 0.707015 0.152227
Si Si2 0.527293 0.818983 0.038520
Si Si3 0.540357 0.526094 0.835481
Si Si4 0.805104 0.544733 0.105580
Si Si5 0.727132 0.309217 0.239518
Si Si6 0.873157 0.997908 0.979032
Si Si7 0.282341 0.869287 0.259948
Si Si8 0.879896 0.015375 0.429658
O O1 0.888504 0.606762 0.189003
O O2 0.943936 0.833906 0.303679
O O3 0.117199 0.561790 0.070307
O O4 0.889213 0.823250 0.026178
O O5 0.659430 0.718951 0.108247
O O6 0.405283 0.867917 0.172386
O O7 0.552501 0.693586 0.876247
O O8 0.500000 0.000000 0.000000
O O9 0.436054 0.558697 0.722171
O O10 0.679092 0.335037 0.752366
O O11 0.500000 0.500000 0.000000
O O12 0.793975 0.415164 0.203519
O O13 0.799698 0.195914 0.362853
O O14 0.743935 0.177655 0.088590
O O15 0.850484 0.008487 0.808398
O O16 0.000000 0.000000 0.000000
O O17 0.232241 0.965528 0.438763
O O18 0.000000 0.000000 0.500000
#
# Coordination Sequence:
#
# PCOD8043558 Si02
#       8
#     2   2   2   2   2   2   2   2
#     4  10  24  39  63  94 127 162 211 263 312 382
#     4  11  22  37  66  97 124 159 213 269 317 358
#     4  10  19  36  64  93 119 155 215 268 296 366
#     4  11  21  40  66  93 121 164 217 263 312 363
#     4  11  20  39  64  90 120 165 210 261 305 368
#     4  11  18  32  64  88 118 160 213 258 303 355
#     4  11  21  40  61  94 127 161 210 264 311 376
#     4  11  27  41  63  93 134 168 206 253 327 381
#
# _framework density 19.814498
#
# number of rings (size 3 to 8) (size 9 to 14) (size 15 to 20)
#    0.000    1.250    6.250    2.250    3.500    0.500 
#    0.000    2.500    0.000    0.000    0.000    0.000 
#    0.000    0.000    0.000    0.000    0.000    0.000 
#
# Total GULP energy -198292.172694 kJ/mol
# GULP energy per Si atom -12393.260793 kJ/mol
# Density = 1.976940 g / cm^3
# Si number density = 19.814498 Si / 1000 Ang^3
#
#
#
# Elastic Constant Matrix: (Units=GPa)
#
#
# Indices 1 2 3 4 5 6 
#
# 1 89.8591 38.6572 41.3583 -4.7886 2.5317 -1.3279
# 2 38.6572 108.8906 46.4798 -5.7366 2.1538 8.0791
# 3 41.3583 46.4798 109.7337 -0.0804 0.9738 -2.9312
# 4 -4.7886 -5.7366 -0.0804 32.6795 -4.7055 4.6825
# 5 2.5317 2.1538 0.9738 -4.7055 27.0078 -3.2597
# 6 -1.3279 8.0791 -2.9312 4.6825 -3.2597 39.5952
#
#
#
# Elastic Compliance Matrix: (Units=1/GPa)
#
#
# Indices 1 2 3 4 5 6 
#
# 1 0.014543 -0.003420 -0.004008 0.001333 -0.000632 0.000679
# 2 -0.003420 0.012505 -0.004088 0.002070 -0.000562 -0.003260
# 3 -0.004008 -0.004088 0.012401 -0.001504 0.000211 0.001813
# 4 0.001333 0.002070 -0.001504 0.032428 0.004941 -0.003917
# 5 -0.000632 -0.000562 0.000211 0.004941 0.038307 0.002678
# 6 0.000679 -0.003260 0.001813 -0.003917 0.002678 0.026761
#
#
# Mechanical properties :
#
#
# Convention : Reuss Voigt Hill
#
# Bulk Modulus (GPa) = 60.91471 62.38601 61.65036
# Shear Modulus (GPa) = 30.22066 31.98903 31.10484
#
# Velocity S-wave (km/s) = 3.90959 4.02235 3.96637
# Velocity P-wave (km/s) = 7.15466 7.28874 7.22201
#
# Compressibility (1/GPa) = 0.01641639
#
# Stress axis : x y z
#
# Youngs Moduli (GPa) = 68.75987 79.96980 80.64055
#
# Poissons Ratio (x) = 0.27349 0.32321
# Poissons Ratio (y) = 0.23515 0.32968
# Poissons Ratio (z) = 0.27559 0.32694
#
# Static dielectric constant tensor:
#      x y z
#    x 3.739050 -0.029250 0.030510 
#    y -0.029250 4.112030 0.243280 
#    z 0.030510 0.243280 3.780490 
# 
# 
# High freq. dielectric constant tensor:
#      x y z
#    x 1.773120 -0.015560 -0.001220 
#    y -0.015560 1.789580 -0.000050 
#    z -0.001220 -0.000050 1.737200 
# 
# From -- ./inp_files/238894.got.cif
#   From: 2010.06.25/outbox.cif.g09.slc.cpg/sg2_120_cif.got.tgz:238894.got - 2010.06.27 13:26:56.
