data_PCOD8043135
_publ_section_title
;
Structure prediction by ZEFSAII (Michael W. Deem and Ramdas Pophale) SiO2 
 PCOD8043135
Probable space group: P -1
;
_chemical_formula_sum "Si O2"
_cell_formula_units_Z 16
_cell_length_a 16.361400
_cell_length_b 9.375257
_cell_length_c 12.317281
_cell_angle_alpha 125.718292
_cell_angle_beta 130.963591
_cell_angle_gamma 93.484075
_cell_volume 799.771347
_symmetry_space_group_name_H-M "P -1"
_symmetry_group_IT_number 2
_symmetry_cell_setting 'triclinic'
loop_
_space_group_symop_operation_xyz
x,y,z
-x,-y,-z
loop_
_atom_site_type_symbol
_atom_site_label
_atom_site_fract_x
_atom_site_fract_y
_atom_site_fract_z
Si Si1 0.339094 0.389019 0.934899
Si Si2 0.175384 0.160004 0.261001
Si Si3 0.084467 0.646676 0.246508
Si Si4 0.689533 0.825786 0.405718
Si Si5 0.167753 0.521759 0.455462
Si Si6 0.825037 0.107712 0.035143
Si Si7 0.113571 0.445940 0.785650
Si Si8 0.790382 0.067878 0.232179
O O1 0.315585 0.330647 0.760130
O O2 0.229603 0.420973 0.885345
O O3 0.302740 0.178912 0.884804
O O4 0.518454 0.653219 0.231637
O O5 0.185620 0.071053 0.344953
O O6 0.264511 0.452991 0.492053
O O7 0.250501 0.127075 0.216651
O O8 0.000000 0.000000 0.000000
O O9 0.109488 0.503189 0.275942
O O10 0.974533 0.652790 0.219281
O O11 0.253009 0.929488 0.493694
O O12 0.000000 0.500000 0.000000
O O13 0.260960 0.794132 0.712449
O O14 0.012737 0.301860 0.294711
O O15 0.790070 0.262330 0.026874
O O16 0.747416 0.992578 0.034930
O O17 0.977711 0.261863 0.495155
#
# Coordination Sequence:
#
# PCOD8043135 Si02
#       8
#     2   2   2   2   2   2   2   2
#     4  11  24  38  59  90 126 167 191 254 308 360
#     4  10  21  36  60  85 114 159 199 245 304 356
#     4  10  19  37  62  88 121 152 205 257 292 365
#     4  11  23  41  58  88 131 154 204 250 308 362
#     4   9  18  33  53  89 113 149 198 247 302 340
#     4   9  19  34  57  88 117 145 199 262 291 344
#     4  10  20  35  59  92 115 159 211 240 306 355
#     4  10  19  36  58  89 120 150 211 249 290 361
#
# _framework density 20.005718000000002
#
# number of rings (size 3 to 8) (size 9 to 14) (size 15 to 20)
#    0.000    2.250    2.500    4.125    5.250    1.000 
#    0.000    5.000    0.000    0.000    0.000    0.000 
#    0.000    0.000    0.000    0.000    0.000    0.000 
#
# Total GULP energy -198266.672094 kJ/mol
# GULP energy per Si atom -12391.667006 kJ/mol
# Density = 1.996018 g / cm^3
# Si number density = 20.005718 Si / 1000 Ang^3
#
#
#
# Elastic Constant Matrix: (Units=GPa)
#
#
# Indices 1 2 3 4 5 6 
#
# 1 83.9649 61.5844 36.5047 17.4967 -21.6891 3.7906
# 2 61.5844 84.6879 34.8445 5.8368 -11.0837 14.6185
# 3 36.5047 34.8445 58.0396 1.7179 -8.6997 8.9205
# 4 17.4967 5.8368 1.7179 29.1421 6.7316 -13.6465
# 5 -21.6891 -11.0837 -8.6997 6.7316 32.6158 -3.4228
# 6 3.7906 14.6185 8.9205 -13.6465 -3.4228 32.8338
#
#
#
# Elastic Compliance Matrix: (Units=1/GPa)
#
#
# Indices 1 2 3 4 5 6 
#
# 1 0.047368 -0.024594 -0.009968 -0.029691 0.026464 -0.001392
# 2 -0.024594 0.030744 -0.003357 0.007220 -0.009121 -0.007887
# 3 -0.009968 -0.003357 0.025470 0.004406 -0.002165 -0.002669
# 4 -0.029691 0.007220 0.004406 0.068303 -0.027639 0.024523
# 5 0.026464 -0.009121 -0.002165 -0.027639 0.049792 -0.004703
# 6 -0.001392 -0.007887 -0.002669 0.024523 -0.004703 0.044555
#
#
# Mechanical properties :
#
#
# Convention : Reuss Voigt Hill
#
# Bulk Modulus (GPa) = 36.04488 54.72887 45.38687
# Shear Modulus (GPa) = 14.23207 25.16893 19.70050
#
# Velocity S-wave (km/s) = 2.67010 3.55080 3.14147
# Velocity P-wave (km/s) = 5.24998 6.65033 5.99121
#
# Compressibility (1/GPa) = 0.02774319
#
# Stress axis : x y z
#
# Youngs Moduli (GPa) = 21.11126 32.52631 39.26227
#
# Poissons Ratio (x) = 0.79997 0.39136
# Poissons Ratio (y) = 0.51922 0.13182
# Poissons Ratio (z) = 0.21043 0.10920
#
# Static dielectric constant tensor:
#      x y z
#    x 3.687130 -0.114180 -0.432450 
#    y -0.114180 3.784150 0.239080 
#    z -0.432450 0.239080 3.479930 
# 
# 
# High freq. dielectric constant tensor:
#      x y z
#    x 1.766540 0.004580 -0.033810 
#    y 0.004580 1.789870 0.005580 
#    z -0.033810 0.005580 1.748640 
# 
# From -- ./inp_files/357775.got.cif
#   From: 2010.06.25/outbox.cif.g09.slc.cpg/sg2_179_cif.got.tgz:357775.got - 2010.06.27 13:26:56.
