data_PCOD8043071
_publ_section_title
;
Structure prediction by ZEFSAII (Michael W. Deem and Ramdas Pophale) SiO2 
 PCOD8043071
Probable space group: P -1
;
_chemical_formula_sum "Si O2"
_cell_formula_units_Z 14
_cell_length_a 13.924044
_cell_length_b 11.066636
_cell_length_c 13.019227
_cell_angle_alpha 128.856989
_cell_angle_beta 38.764689
_cell_angle_gamma 147.437907
_cell_volume 673.407841
_symmetry_space_group_name_H-M "P -1"
_symmetry_group_IT_number 2
_symmetry_cell_setting 'triclinic'
loop_
_space_group_symop_operation_xyz
x,y,z
-x,-y,-z
loop_
_atom_site_type_symbol
_atom_site_label
_atom_site_fract_x
_atom_site_fract_y
_atom_site_fract_z
Si Si1 0.683378 0.906208 0.477022
Si Si2 0.405775 0.254584 0.135908
Si Si3 0.700762 0.492246 0.543950
Si Si4 0.094455 0.044900 0.100375
Si Si5 0.142256 0.950730 0.370820
Si Si6 0.177419 0.697011 0.535477
Si Si7 0.109689 0.323923 0.081621
O O1 0.462878 0.649890 0.492220
O O2 0.696784 0.923302 0.597610
O O3 0.667913 0.066763 0.527013
O O4 0.902518 0.981115 0.294462
O O5 0.358724 0.393886 0.287943
O O6 0.299991 0.150212 0.056976
O O7 0.303031 0.051566 0.191871
O O8 0.669037 0.418625 0.995337
O O9 0.667306 0.328318 0.566074
O O10 0.959121 0.679215 0.389832
O O11 0.180448 0.228757 0.041421
O O12 0.007305 0.823735 0.002766
O O13 0.000000 0.000000 0.500000
O O14 0.000000 0.500000 0.500000
O O15 0.059033 0.687526 0.726474
#
# Coordination Sequence:
#
# PCOD8043071 Si02
#       7
#     2   2   2   2   2   2   2
#     4  11  20  37  62  92 118 156 197 247 296 346
#     4  11  21  38  63  89 116 159 198 243 295 339
#     4  11  21  37  61  89 122 154 198 242 295 348
#     4  10  19  36  57  87 123 144 194 250 289 350
#     4  10  21  36  59  91 119 157 202 245 284 345
#     4  11  22  42  63  87 123 154 195 248 299 361
#     4  10  22  37  58  88 120 152 192 248 302 344
#
# _framework density 20.789777999999998
#
# number of rings (size 3 to 8) (size 9 to 14) (size 15 to 20)
#    0.000    1.429    5.714    1.714    0.000    3.429 
#    2.571    0.714    0.000    1.714    0.000    0.000 
#    0.000    0.000    0.000    0.000    0.000    0.000 
#
# Total GULP energy -173632.250204 kJ/mol
# GULP energy per Si atom -12402.303586 kJ/mol
# Density = 2.074246 g / cm^3
# Si number density = 20.789778 Si / 1000 Ang^3
#
#
#
# Elastic Constant Matrix: (Units=GPa)
#
#
# Indices 1 2 3 4 5 6 
#
# 1 86.9762 39.7292 12.7113 2.5419 19.3917 12.0501
# 2 39.7292 91.9016 14.4976 2.1114 21.3526 29.8152
# 3 12.7113 14.4976 32.6669 -3.1006 16.3582 0.9040
# 4 2.5419 2.1114 -3.1006 27.8842 -1.3543 2.5314
# 5 19.3917 21.3526 16.3582 -1.3543 27.1343 6.3451
# 6 12.0501 29.8152 0.9040 2.5314 6.3451 40.6295
#
#
#
# Elastic Compliance Matrix: (Units=1/GPa)
#
#
# Indices 1 2 3 4 5 6 
#
# 1 0.015411 -0.005057 -0.000432 -0.001435 -0.006920 0.000320
# 2 -0.005057 0.018690 -0.002576 -0.000579 -0.006990 -0.011030
# 3 -0.000432 -0.002576 0.045026 0.003553 -0.025757 0.004818
# 4 -0.001435 -0.000579 0.003553 0.036669 0.001581 -0.001760
# 5 -0.006920 -0.006990 -0.025757 0.001581 0.063433 -0.002250
# 6 0.000320 -0.011030 0.004818 -0.001760 -0.002250 0.032966
#
#
# Mechanical properties :
#
#
# Convention : Reuss Voigt Hill
#
# Bulk Modulus (GPa) = 15.87427 38.38010 27.12719
# Shear Modulus (GPa) = 20.05433 28.77005 24.41219
#
# Velocity S-wave (km/s) = 3.10921 3.72406 3.43044
# Velocity P-wave (km/s) = 4.53230 6.08215 5.36350
#
# Compressibility (1/GPa) = 0.06299501
#
# Stress axis : x y z
#
# Youngs Moduli (GPa) = 64.88881 53.50591 22.20961
#
# Poissons Ratio (x) = 0.27058 0.00960
# Poissons Ratio (y) = 0.32815 0.05722
# Poissons Ratio (z) = 0.02805 0.13784
#
# Static dielectric constant tensor:
#      x y z
#    x 3.800880 -0.186460 0.286000 
#    y -0.186460 4.333620 -0.174870 
#    z 0.286000 -0.174870 3.643970 
# 
# 
# High freq. dielectric constant tensor:
#      x y z
#    x 1.806460 0.011830 0.018810 
#    y 0.011830 1.823170 -0.002550 
#    z 0.018810 -0.002550 1.789070 
# 
# From -- ./inp_files/270035.got.cif
#   From: 2010.06.25/outbox.cif.g09.slc.cpg/sg2_136_cif.got.tgz:270035.got - 2010.06.27 13:26:56.
