data_PCOD8043745
_publ_section_title
;
Structure prediction by ZEFSAII (Michael W. Deem and Ramdas Pophale) SiO2 
 PCOD8043745
Probable space group: P -1
;
_chemical_formula_sum "Si O2"
_cell_formula_units_Z 14
_cell_length_a 12.401548
_cell_length_b 9.478467
_cell_length_c 15.758310
_cell_angle_alpha 120.482712
_cell_angle_beta 143.809683
_cell_angle_gamma 36.801489
_cell_volume 602.540282
_symmetry_space_group_name_H-M "P -1"
_symmetry_group_IT_number 2
_symmetry_cell_setting 'triclinic'
loop_
_space_group_symop_operation_xyz
x,y,z
-x,-y,-z
loop_
_atom_site_type_symbol
_atom_site_label
_atom_site_fract_x
_atom_site_fract_y
_atom_site_fract_z
Si Si1 0.783011 0.793165 0.946714
Si Si2 0.840720 0.909826 0.650307
Si Si3 0.665311 0.564829 0.089076
Si Si4 0.835522 0.811528 0.293848
Si Si5 0.711604 0.123297 0.891367
Si Si6 0.841630 0.020699 0.200741
Si Si7 0.696826 0.657429 0.450801
O O1 0.472827 0.921650 0.787012
O O2 0.810012 0.871027 0.899015
O O3 0.837561 0.880460 0.085112
O O4 0.000000 0.500000 0.000000
O O5 0.852240 0.726188 0.552299
O O6 0.068695 0.743717 0.823650
O O7 0.524250 0.162965 0.558466
O O8 0.917213 0.008298 0.668186
O O9 0.805475 0.646377 0.191960
O O10 0.440606 0.694133 0.065229
O O11 0.473506 0.672627 0.914290
O O12 0.917599 0.885313 0.296573
O O13 0.077951 0.638711 0.468113
O O14 0.458452 0.302530 0.717713
O O15 0.000000 0.000000 0.000000
#
# Coordination Sequence:
#
# PCOD8043745 Si02
#       7
#     2   2   2   2   2   2   2
#     4  10  22  37  59  86 114 153 192 232 281 329
#     4  10  21  34  57  86 112 149 188 234 280 334
#     4   9  19  35  58  85 110 145 190 235 282 328
#     4   9  20  36  56  82 117 153 182 235 285 328
#     4  10  21  39  62  83 112 149 189 238 280 337
#     4  10  19  37  58  83 115 146 192 234 276 334
#     4  10  21  38  56  84 118 148 186 229 292 339
#
# _framework density 23.234961999999999
#
# number of rings (size 3 to 8) (size 9 to 14) (size 15 to 20)
#    0.000    2.571    0.000    3.857    0.000   11.429 
#    0.000    1.429    0.000    7.714    0.000    0.000 
#    0.000    0.000    0.000    0.000    0.000    0.000 
#
# Total GULP energy -173446.154461 kJ/mol
# GULP energy per Si atom -12389.011033 kJ/mol
# Density = 2.318208 g / cm^3
# Si number density = 23.234962 Si / 1000 Ang^3
#
#
#
# Elastic Constant Matrix: (Units=GPa)
#
#
# Indices 1 2 3 4 5 6 
#
# 1 137.8345 43.1343 64.6090 -13.1859 4.7421 46.2451
# 2 43.1343 68.4105 57.8340 -32.4328 4.3930 14.1320
# 3 64.6090 57.8340 158.1175 -28.0389 -5.7562 17.8494
# 4 -13.1859 -32.4328 -28.0389 42.2524 3.1308 -2.1161
# 5 4.7421 4.3930 -5.7562 3.1308 40.0355 -0.1191
# 6 46.2451 14.1320 17.8494 -2.1161 -0.1191 33.2159
#
#
#
# Elastic Compliance Matrix: (Units=1/GPa)
#
#
# Indices 1 2 3 4 5 6 
#
# 1 0.016697 -0.003793 -0.003411 -0.000807 -0.002048 -0.019859
# 2 -0.003793 0.033728 -0.006935 0.020334 -0.005851 -0.004068
# 3 -0.003411 -0.006935 0.010139 0.000261 0.002609 0.002277
# 4 -0.000807 0.020334 0.000261 0.039322 -0.005188 -0.005181
# 5 -0.002048 -0.005851 0.002609 -0.005188 0.026654 0.003703
# 6 -0.019859 -0.004068 0.002277 -0.005181 0.003703 0.057945
#
#
# Mechanical properties :
#
#
# Convention : Reuss Voigt Hill
#
# Bulk Modulus (GPa) = 30.97300 77.27967 54.12633
# Shear Modulus (GPa) = 22.36897 36.35312 29.36104
#
# Velocity S-wave (km/s) = 3.10615 3.95978 3.55865
# Velocity P-wave (km/s) = 5.12089 7.36469 6.34280
#
# Compressibility (1/GPa) = 0.03228619
#
# Stress axis : x y z
#
# Youngs Moduli (GPa) = 59.89089 29.64920 98.62880
#
# Poissons Ratio (x) = 0.11246 0.33645
# Poissons Ratio (y) = 0.22716 0.68396
# Poissons Ratio (z) = 0.20430 0.20561
#
# Static dielectric constant tensor:
#      x y z
#    x 4.268170 0.358110 0.179490 
#    y 0.358110 4.319170 -0.383600 
#    z 0.179490 -0.383600 4.464240 
# 
# 
# High freq. dielectric constant tensor:
#      x y z
#    x 1.909960 0.027910 0.016390 
#    y 0.027910 1.903120 -0.017130 
#    z 0.016390 -0.017130 1.927650 
# 
# From -- ./inp_files/401463.got.cif
#   From: 2010.06.25/outbox.cif.g09.slc.cpg/sg2_201_cif.got.tgz:401463.got - 2010.06.27 13:26:56.
