data_PCOD8043342
_publ_section_title
;
Structure prediction by ZEFSAII (Michael W. Deem and Ramdas Pophale) SiO2 
 PCOD8043342
Probable space group: P -1
;
_chemical_formula_sum "Si O2"
_cell_formula_units_Z 16
_cell_length_a 23.547670
_cell_length_b 17.943987
_cell_length_c 11.669349
_cell_angle_alpha 149.932190
_cell_angle_beta 149.815253
_cell_angle_gamma 19.342101
_cell_volume 783.512008
_symmetry_space_group_name_H-M "P -1"
_symmetry_group_IT_number 2
_symmetry_cell_setting 'triclinic'
loop_
_space_group_symop_operation_xyz
x,y,z
-x,-y,-z
loop_
_atom_site_type_symbol
_atom_site_label
_atom_site_fract_x
_atom_site_fract_y
_atom_site_fract_z
Si Si1 0.165031 0.649087 0.760468
Si Si2 0.800418 0.948966 0.415825
Si Si3 0.988475 0.688335 0.711045
Si Si4 0.076030 0.720163 0.149849
Si Si5 0.695020 0.537270 0.475775
Si Si6 0.669522 0.193731 0.723942
Si Si7 0.927714 0.939076 0.407010
Si Si8 0.686946 0.750321 0.950709
O O1 0.151179 0.573683 0.756784
O O2 0.284509 0.442568 0.597010
O O3 0.965710 0.866599 0.652531
O O4 0.242538 0.734503 0.023809
O O5 0.785028 0.007094 0.332863
O O6 0.634120 0.178039 0.508216
O O7 0.826433 0.744622 0.193203
O O8 0.000000 0.500000 0.500000
O O9 0.999019 0.761310 0.947137
O O10 0.797587 0.933960 0.654448
O O11 0.247493 0.443359 0.106246
O O12 0.927911 0.852036 0.169214
O O13 0.140535 0.823748 0.409325
O O14 0.521214 0.609734 0.283936
O O15 0.673235 0.709492 0.741035
O O16 0.870460 0.268121 0.464986
O O17 0.500000 0.000000 0.000000
#
# Coordination Sequence:
#
# PCOD8043342 Si02
#       8
#     2   2   2   2   2   2   2   2
#     4  10  21  36  59  91 109 156 200 236 277 345
#     4  10  19  36  61  89 112 148 204 234 283 345
#     4  11  22  35  58  84 119 157 191 233 287 348
#     4  10  20  37  59  81 119 147 193 232 293 340
#     4  10  21  37  63  88 120 149 198 240 289 339
#     4  11  20  37  63  85 120 154 192 240 284 345
#     4   9  20  37  62  88 109 150 195 247 281 333
#     4  11  22  38  62  85 114 153 191 244 292 343
#
# _framework density 20.420874999999999
#
# number of rings (size 3 to 8) (size 9 to 14) (size 15 to 20)
#    0.000    1.750    1.250    5.625    0.000    5.500 
#    0.000    1.250    8.250    3.000    0.000    0.000 
#    0.000    0.000    0.000    0.000    0.000    0.000 
#
# Total GULP energy -198267.553088 kJ/mol
# GULP energy per Si atom -12391.722068 kJ/mol
# Density = 2.037440 g / cm^3
# Si number density = 20.420875 Si / 1000 Ang^3
#
#
#
# Elastic Constant Matrix: (Units=GPa)
#
#
# Indices 1 2 3 4 5 6 
#
# 1 174.1828 37.9780 50.4346 8.6117 -26.8789 -6.6078
# 2 37.9780 47.9807 10.4775 14.0569 -1.9370 -5.0172
# 3 50.4346 10.4775 102.0525 11.0375 -13.1261 -2.2604
# 4 8.6117 14.0569 11.0375 27.1828 -3.3155 1.3882
# 5 -26.8789 -1.9370 -13.1261 -3.3155 40.7850 4.8648
# 6 -6.6078 -5.0172 -2.2604 1.3882 4.8648 22.3307
#
#
#
# Elastic Compliance Matrix: (Units=1/GPa)
#
#
# Indices 1 2 3 4 5 6 
#
# 1 0.008772 -0.006873 -0.003335 0.002722 0.004659 -0.000470
# 2 -0.006873 0.031025 0.001428 -0.015378 -0.004689 0.007059
# 3 -0.003335 0.001428 0.011955 -0.004406 0.001296 0.000536
# 4 0.002722 -0.015378 -0.004406 0.046539 0.004254 -0.006915
# 5 0.004659 -0.004689 0.001296 0.004254 0.028856 -0.006095
# 6 -0.000470 0.007059 0.000536 -0.006915 -0.006095 0.048040
#
#
# Mechanical properties :
#
#
# Convention : Reuss Voigt Hill
#
# Bulk Modulus (GPa) = 29.24722 57.99956 43.62339
# Shear Modulus (GPa) = 24.49245 33.08145 28.78695
#
# Velocity S-wave (km/s) = 3.46697 4.02927 3.75865
# Velocity P-wave (km/s) = 5.51179 7.07887 6.34390
#
# Compressibility (1/GPa) = 0.03419128
#
# Stress axis : x y z
#
# Youngs Moduli (GPa) = 114.00076 32.23253 83.64401
#
# Poissons Ratio (x) = 0.22155 0.27895
# Poissons Ratio (y) = 0.78358 -0.11946
# Poissons Ratio (z) = 0.38019 -0.04603
#
# Static dielectric constant tensor:
#      x y z
#    x 4.448540 -0.178680 -0.254750 
#    y -0.178680 3.388770 0.174020 
#    z -0.254750 0.174020 3.902680 
# 
# 
# High freq. dielectric constant tensor:
#      x y z
#    x 1.817890 -0.012190 -0.016590 
#    y -0.012190 1.756250 0.016650 
#    z -0.016590 0.016650 1.807290 
# 
# From -- ./inp_files/257019.got.cif
#   From: 2010.06.25/outbox.cif.g09.slc.cpg/sg2_129_cif.got.tgz:257019.got - 2010.06.27 13:26:56.
