data_PCOD8043519
_publ_section_title
;
Structure prediction by ZEFSAII (Michael W. Deem and Ramdas Pophale) SiO2 
 PCOD8043519
Probable space group: P -1
;
_chemical_formula_sum "Si O2"
_cell_formula_units_Z 14
_cell_length_a 18.204315
_cell_length_b 11.764159
_cell_length_c 18.229556
_cell_angle_alpha 27.882835
_cell_angle_beta 158.095954
_cell_angle_gamma 140.944713
_cell_volume 659.539909
_symmetry_space_group_name_H-M "P -1"
_symmetry_group_IT_number 2
_symmetry_cell_setting 'triclinic'
loop_
_space_group_symop_operation_xyz
x,y,z
-x,-y,-z
loop_
_atom_site_type_symbol
_atom_site_label
_atom_site_fract_x
_atom_site_fract_y
_atom_site_fract_z
Si Si1 0.676719 0.036878 0.743486
Si Si2 0.885901 0.925236 0.505987
Si Si3 0.395486 0.417255 0.586391
Si Si4 0.522040 0.698174 0.107241
Si Si5 0.233383 0.941134 0.925786
Si Si6 0.059316 0.219683 0.746644
Si Si7 0.694119 0.145549 0.537779
O O1 0.672146 0.283290 0.647066
O O2 0.783598 0.047092 0.757247
O O3 0.445592 0.028247 0.521586
O O4 0.798178 0.796187 0.039981
O O5 0.810660 0.672418 0.567158
O O6 0.035455 0.884249 0.737244
O O7 0.000000 0.000000 0.500000
O O8 0.685596 0.146002 0.210773
O O9 0.501290 0.312263 0.821161
O O10 0.573528 0.303299 0.757176
O O11 0.562316 0.428921 0.261151
O O12 0.708186 0.823357 0.193331
O O13 0.177545 0.017073 0.914070
O O14 0.000000 0.500000 0.500000
O O15 0.864366 0.129492 0.643766
#
# Coordination Sequence:
#
# PCOD8043519 Si02
#       7
#     2   2   2   2   2   2   2
#     4  10  25  46  67  93 131 176 221 268 319 390
#     4  11  19  34  64  97 126 168 213 267 321 377
#     4  10  21  40  63  93 130 167 215 271 316 379
#     4  10  19  36  63  95 129 159 216 271 314 374
#     4  11  22  38  61  99 128 165 210 268 328 376
#     4  12  26  43  66  97 137 170 216 270 327 394
#     4  10  23  45  69  95 126 178 221 263 326 385
#
# _framework density 21.226918000000001
#
# number of rings (size 3 to 8) (size 9 to 14) (size 15 to 20)
#    0.000    1.429    4.286    1.286    2.000    4.571 
#    2.571    1.429    0.000    0.000    0.000    0.000 
#    0.000    0.000    0.000    0.000    0.000    0.000 
#
# Total GULP energy -173605.608840 kJ/mol
# GULP energy per Si atom -12400.400631 kJ/mol
# Density = 2.117860 g / cm^3
# Si number density = 21.226918 Si / 1000 Ang^3
#
#
#
# Elastic Constant Matrix: (Units=GPa)
#
#
# Indices 1 2 3 4 5 6 
#
# 1 105.0580 33.3100 36.2512 -8.7714 17.3678 10.5066
# 2 33.3100 117.1608 47.3705 6.3378 5.7188 -1.7654
# 3 36.2512 47.3705 86.4371 6.8380 -9.8331 11.6231
# 4 -8.7714 6.3378 6.8380 30.8630 6.9102 1.1838
# 5 17.3678 5.7188 -9.8331 6.9102 33.5896 1.6676
# 6 10.5066 -1.7654 11.6231 1.1838 1.6676 20.0225
#
#
#
# Elastic Compliance Matrix: (Units=1/GPa)
#
#
# Indices 1 2 3 4 5 6 
#
# 1 0.015516 -0.001458 -0.007253 0.009048 -0.011579 -0.003630
# 2 -0.001458 0.012216 -0.007302 -0.000739 -0.003631 0.006427
# 3 -0.007253 -0.007302 0.022212 -0.008150 0.013689 -0.010390
# 4 0.009048 -0.000739 -0.008150 0.040376 -0.015185 -0.001205
# 5 -0.011579 -0.003631 0.013689 -0.015185 0.043753 -0.004937
# 6 -0.003630 0.006427 -0.010390 -0.001205 -0.004937 0.058929
#
#
# Mechanical properties :
#
#
# Convention : Reuss Voigt Hill
#
# Bulk Modulus (GPa) = 55.81106 60.27994 58.04550
# Shear Modulus (GPa) = 21.64472 29.67663 25.66068
#
# Velocity S-wave (km/s) = 3.19671 3.74313 3.48066
# Velocity P-wave (km/s) = 6.32257 6.86592 6.59984
#
# Compressibility (1/GPa) = 0.01791760
#
# Stress axis : x y z
#
# Youngs Moduli (GPa) = 64.44801 81.85788 45.02017
#
# Poissons Ratio (x) = 0.11932 0.32655
# Poissons Ratio (y) = 0.09395 0.32876
# Poissons Ratio (z) = 0.46747 0.59777
#
# Static dielectric constant tensor:
#      x y z
#    x 3.837450 0.031140 0.064070 
#    y 0.031140 3.882340 0.062190 
#    z 0.064070 0.062190 3.747930 
# 
# 
# High freq. dielectric constant tensor:
#      x y z
#    x 1.829340 0.001340 0.007540 
#    y 0.001340 1.834390 0.003730 
#    z 0.007540 0.003730 1.826450 
# 
# From -- ./inp_files/68754.got.cif
#   From: 2010.06.25/outbox.cif.g09.slc.cpg/sg2_35_cif.got.tgz:68754.got - 2010.06.27 13:26:56.
