data_PCOD8043245
_publ_section_title
;
Structure prediction by ZEFSAII (Michael W. Deem and Ramdas Pophale) SiO2 
 PCOD8043245
Probable space group: P -1
;
_chemical_formula_sum "Si O2"
_cell_formula_units_Z 16
_cell_length_a 8.831914
_cell_length_b 8.749056
_cell_length_c 11.797311
_cell_angle_alpha 72.047517
_cell_angle_beta 93.874359
_cell_angle_gamma 71.823345
_cell_volume 810.301979
_symmetry_space_group_name_H-M "P -1"
_symmetry_group_IT_number 2
_symmetry_cell_setting 'triclinic'
loop_
_space_group_symop_operation_xyz
x,y,z
-x,-y,-z
loop_
_atom_site_type_symbol
_atom_site_label
_atom_site_fract_x
_atom_site_fract_y
_atom_site_fract_z
Si Si1 0.517524 0.297023 0.172694
Si Si2 0.735242 0.537306 0.458516
Si Si3 0.102168 0.514971 0.742190
Si Si4 0.828907 0.142162 0.590200
Si Si5 0.406439 0.713369 0.279807
Si Si6 0.419487 0.347928 0.911346
Si Si7 0.840143 0.127745 0.340278
Si Si8 0.745062 0.563961 0.699428
O O1 0.538291 0.479980 0.131293
O O2 0.685819 0.149189 0.248515
O O3 0.381078 0.297105 0.257033
O O4 0.465592 0.253815 0.055578
O O5 0.851328 0.572664 0.360599
O O6 0.808616 0.339898 0.542549
O O7 0.555915 0.581799 0.387895
O O8 0.731449 0.640487 0.552224
O O9 0.227603 0.397420 0.867991
O O10 0.114518 0.702231 0.694301
O O11 0.924246 0.526430 0.766428
O O12 0.696903 0.127406 0.680401
O O13 0.798739 0.082403 0.476423
O O14 0.008883 0.027688 0.666667
O O15 0.475559 0.775960 0.156076
O O16 0.289791 0.612354 0.258147
#
# Coordination Sequence:
#
# PCOD8043245 Si02
#       8
#     2   2   2   2   2   2   2   2
#     4   9  16  28  44  60  82 113 144 171 200 242
#     4   9  16  28  45  64  86 108 136 173 207 242
#     4   9  17  27  41  65  91 109 129 169 216 249
#     4   9  15  26  46  65  82 107 142 172 200 241
#     4   9  16  28  47  65  81 107 142 175 203 240
#     4   8  16  29  43  61  83 108 142 177 206 235
#     4   9  17  28  43  62  87 113 136 168 205 245
#     4  10  16  24  44  67  86 107 134 170 213 249
#
# _framework density 19.745725
#
# number of rings (size 3 to 8) (size 9 to 14) (size 15 to 20)
#    0.000    3.000    0.000    4.875    0.000    0.500 
#    0.000    0.625    0.000   24.750    0.000    4.375 
#    0.000    0.000    0.000    0.000    0.000    0.000 
#
# Total GULP energy -198253.573816 kJ/mol
# GULP energy per Si atom -12390.848364 kJ/mol
# Density = 1.970078 g / cm^3
# Si number density = 19.745725 Si / 1000 Ang^3
#
#
#
# Elastic Constant Matrix: (Units=GPa)
#
#
# Indices 1 2 3 4 5 6 
#
# 1 132.7800 36.3391 63.5306 4.1871 20.4444 -38.1495
# 2 36.3391 48.7474 41.0340 6.2638 -0.2396 -36.4897
# 3 63.5306 41.0340 139.8038 12.5902 19.5775 -35.3055
# 4 4.1871 6.2638 12.5902 12.8698 -6.0998 -0.8620
# 5 20.4444 -0.2396 19.5775 -6.0998 24.1021 0.7793
# 6 -38.1495 -36.4897 -35.3055 -0.8620 0.7793 37.7938
#
#
#
# Elastic Compliance Matrix: (Units=1/GPa)
#
#
# Indices 1 2 3 4 5 6 
#
# 1 0.015117 0.007465 0.000907 -0.016620 -0.018446 0.023316
# 2 0.007465 0.096948 0.003051 -0.057937 -0.025846 0.103200
# 3 0.000907 0.003051 0.015649 -0.025588 -0.020519 0.018320
# 4 -0.016620 -0.057937 -0.025588 0.167856 0.079841 -0.094435
# 5 -0.018446 -0.025846 -0.020519 0.079841 0.095787 -0.062896
# 6 0.023316 0.103200 0.018320 -0.094435 -0.062896 0.165890
#
#
# Mechanical properties :
#
#
# Convention : Reuss Voigt Hill
#
# Bulk Modulus (GPa) = 6.64183 67.01539 36.82861
# Shear Modulus (GPa) = 8.55301 26.98162 17.76731
#
# Velocity S-wave (km/s) = 2.08350 3.70057 3.00293
# Velocity P-wave (km/s) = 3.02638 7.22992 5.54215
#
# Compressibility (1/GPa) = 0.15056092
#
# Stress axis : x y z
#
# Youngs Moduli (GPa) = 66.14852 10.31478 63.90059
#
# Poissons Ratio (x) = -0.07700 -0.05797
# Poissons Ratio (y) = -0.49378 -0.19496
# Poissons Ratio (z) = -0.06001 -0.03147
#
# Static dielectric constant tensor:
#      x y z
#    x 3.590490 -0.528930 -0.093970 
#    y -0.528930 3.266160 0.427820 
#    z -0.093970 0.427820 3.898690 
# 
# 
# High freq. dielectric constant tensor:
#      x y z
#    x 1.764910 -0.039050 0.006210 
#    y -0.039050 1.718810 0.024610 
#    z 0.006210 0.024610 1.762490 
# 
# From -- ./inp_files/196942.got.cif
#   From: 2010.06.25/outbox.cif.g09.slc.cpg/sg2_99_cif.got.tgz:196942.got - 2010.06.27 13:26:56.
