data_PCOD8043170
_publ_section_title
;
Structure prediction by ZEFSAII (Michael W. Deem and Ramdas Pophale) SiO2 
 PCOD8043170
Probable space group: P -1
;
_chemical_formula_sum "Si O2"
_cell_formula_units_Z 16
_cell_length_a 12.676170
_cell_length_b 9.563302
_cell_length_c 11.471314
_cell_angle_alpha 77.604889
_cell_angle_beta 100.198812
_cell_angle_gamma 144.053171
_cell_volume 797.301114
_symmetry_space_group_name_H-M "P -1"
_symmetry_group_IT_number 2
_symmetry_cell_setting 'triclinic'
loop_
_space_group_symop_operation_xyz
x,y,z
-x,-y,-z
loop_
_atom_site_type_symbol
_atom_site_label
_atom_site_fract_x
_atom_site_fract_y
_atom_site_fract_z
Si Si1 0.682999 0.261733 0.034370
Si Si2 0.986391 0.851899 0.369566
Si Si3 0.674779 0.786861 0.773330
Si Si4 0.951029 0.754913 0.639118
Si Si5 0.818833 0.884424 0.022312
Si Si6 0.630025 0.408360 0.799331
Si Si7 0.786460 0.088679 0.168122
Si Si8 0.322027 0.525969 0.803993
O O1 0.662821 0.314249 0.146727
O O2 0.821872 0.278876 0.076392
O O3 0.739688 0.438481 0.915980
O O4 0.500000 0.000000 0.000000
O O5 0.949169 0.730598 0.504509
O O6 0.847486 0.648804 0.282469
O O7 0.184014 0.021794 0.333302
O O8 0.971012 0.005677 0.354878
O O9 0.626220 0.568621 0.804431
O O10 0.501330 0.699074 0.730291
O O11 0.747053 0.899330 0.896860
O O12 0.746055 0.511834 0.685818
O O13 0.087711 0.786262 0.715733
O O14 0.848209 0.027561 0.106417
O O15 0.682064 0.615191 0.085386
O O16 0.000000 0.000000 0.000000
O O17 0.423078 0.139289 0.791937
#
# Coordination Sequence:
#
# PCOD8043170 Si02
#       8
#     2   2   2   2   2   2   2   2
#     4  10  23  38  58  90 123 150 192 235 291 361
#     4  10  22  37  58  91 115 148 203 248 280 338
#     4  11  19  33  61  87 118 151 188 244 294 342
#     4  10  21  38  59  86 119 150 199 247 285 334
#     4  12  20  35  61  90 118 149 189 241 295 349
#     4  10  19  36  59  85 118 156 189 236 295 347
#     4  11  22  39  57  87 121 156 188 236 296 346
#     4  12  21  38  60  87 119 155 193 237 293 347
#
# _framework density 20.067699999999999
#
# number of rings (size 3 to 8) (size 9 to 14) (size 15 to 20)
#    0.000    1.250    5.000    2.625    0.000    1.500 
#    0.000    5.625    0.000    3.750    0.000    0.000 
#    0.000    0.000    0.000    0.000    0.000    0.000 
#
# Total GULP energy -198378.054194 kJ/mol
# GULP energy per Si atom -12398.628387 kJ/mol
# Density = 2.002202 g / cm^3
# Si number density = 20.067700 Si / 1000 Ang^3
#
#
#
# Elastic Constant Matrix: (Units=GPa)
#
#
# Indices 1 2 3 4 5 6 
#
# 1 101.7487 37.8040 36.7395 -8.9150 -2.4270 4.3621
# 2 37.8040 62.6825 27.7553 5.1487 -13.6983 5.3958
# 3 36.7395 27.7553 98.1243 -5.1823 -15.2665 1.9397
# 4 -8.9150 5.1487 -5.1823 21.9531 2.8712 -7.4142
# 5 -2.4270 -13.6983 -15.2665 2.8712 25.3211 -0.5687
# 6 4.3621 5.3958 1.9397 -7.4142 -0.5687 32.0380
#
#
#
# Elastic Compliance Matrix: (Units=1/GPa)
#
#
# Indices 1 2 3 4 5 6 
#
# 1 0.015522 -0.010316 -0.003563 0.009476 -0.007272 0.001903
# 2 -0.010316 0.028305 -0.002599 -0.015531 0.014371 -0.006544
# 3 -0.003563 -0.002599 0.013285 0.001714 0.006082 0.000623
# 4 0.009476 -0.015531 0.001714 0.060179 -0.012949 0.014918
# 5 -0.007272 0.014371 0.006082 -0.012949 0.051618 -0.003879
# 6 0.001903 -0.006544 0.000623 0.014918 -0.003879 0.035402
#
#
# Mechanical properties :
#
#
# Convention : Reuss Voigt Hill
#
# Bulk Modulus (GPa) = 41.39465 51.90592 46.65029
# Shear Modulus (GPa) = 20.38171 26.54621 23.46396
#
# Velocity S-wave (km/s) = 3.19038 3.64102 3.42313
# Velocity P-wave (km/s) = 5.85181 6.60285 6.23864
#
# Compressibility (1/GPa) = 0.02415771
#
# Stress axis : x y z
#
# Youngs Moduli (GPa) = 64.42297 35.32915 75.27493
#
# Poissons Ratio (x) = 0.36444 0.26818
# Poissons Ratio (y) = 0.66456 0.19564
# Poissons Ratio (z) = 0.22952 0.09182
#
# Static dielectric constant tensor:
#      x y z
#    x 3.736560 0.062830 0.044780 
#    y 0.062830 3.630070 -0.140000 
#    z 0.044780 -0.140000 3.721550 
# 
# 
# High freq. dielectric constant tensor:
#      x y z
#    x 1.780560 0.015370 -0.003910 
#    y 0.015370 1.770760 -0.000530 
#    z -0.003910 -0.000530 1.770950 
# 
# From -- ./inp_files/222850.got.cif
#   From: 2010.06.25/outbox.cif.g09.slc.cpg/sg2_112_cif.got.tgz:222850.got - 2010.06.27 13:26:56.
