data_PCOD8043011
_publ_section_title
;
Structure prediction by ZEFSAII (Michael W. Deem and Ramdas Pophale) SiO2 
 PCOD8043011
Probable space group: P -1
;
_chemical_formula_sum "Si O2"
_cell_formula_units_Z 16
_cell_length_a 11.235435
_cell_length_b 16.952033
_cell_length_c 13.059583
_cell_angle_alpha 58.252644
_cell_angle_beta 156.736737
_cell_angle_gamma 125.413943
_cell_volume 800.498400
_symmetry_space_group_name_H-M "P -1"
_symmetry_group_IT_number 2
_symmetry_cell_setting 'triclinic'
loop_
_space_group_symop_operation_xyz
x,y,z
-x,-y,-z
loop_
_atom_site_type_symbol
_atom_site_label
_atom_site_fract_x
_atom_site_fract_y
_atom_site_fract_z
Si Si1 0.269975 0.316136 0.136774
Si Si2 0.982800 0.445961 0.717772
Si Si3 0.175142 0.591436 0.941549
Si Si4 0.155378 0.612008 0.587698
Si Si5 0.082215 0.899832 0.255890
Si Si6 0.678603 0.566089 0.719068
Si Si7 0.773137 0.891296 0.802744
Si Si8 0.393214 0.291521 0.938948
O O1 0.651296 0.368848 0.384347
O O2 0.130028 0.357781 0.096074
O O3 0.200924 0.202046 0.176042
O O4 0.106919 0.349956 0.884825
O O5 0.667075 0.425179 0.549274
O O6 0.203457 0.530731 0.903857
O O7 0.046096 0.498391 0.618911
O O8 0.829673 0.595544 0.705169
O O9 0.318940 0.544409 0.181083
O O10 0.391082 0.695895 0.002833
O O11 0.845489 0.644511 0.306814
O O12 0.399642 0.682610 0.810882
O O13 0.407994 0.875455 0.555457
O O14 0.794823 0.821919 0.135181
O O15 0.111409 0.010106 0.240975
O O16 0.011109 0.898112 0.080105
#
# Coordination Sequence:
#
# PCOD8043011 Si02
#       8
#     2   2   2   2   2   2   2   2
#     4  11  22  33  50  81 111 143 173 220 274 329
#     4  10  21  34  51  78 107 150 179 223 264 314
#     4   9  20  36  52  76 102 143 197 221 254 311
#     4  11  22  34  53  82 113 140 178 213 273 328
#     4  10  19  36  56  79 107 140 176 217 273 314
#     4  10  20  35  53  72 108 147 185 222 263 307
#     4  10  21  34  55  81 109 139 174 219 264 336
#     4  11  19  36  58  79 106 144 177 229 262 312
#
# _framework density 19.987545999999998
#
# number of rings (size 3 to 8) (size 9 to 14) (size 15 to 20)
#    0.000    1.750    3.750    0.750    3.500    0.500 
#    0.000    0.000    0.000    0.750    0.000    0.875 
#    0.000    0.000    0.000    0.000    0.000    0.000 
#
# Total GULP energy -198224.724492 kJ/mol
# GULP energy per Si atom -12389.045281 kJ/mol
# Density = 1.994205 g / cm^3
# Si number density = 19.987546 Si / 1000 Ang^3
#
#
#
# Elastic Constant Matrix: (Units=GPa)
#
#
# Indices 1 2 3 4 5 6 
#
# 1 94.5124 33.7768 17.1007 -2.1906 13.3806 13.6799
# 2 33.7768 146.3415 16.0988 -4.2275 7.7909 13.6916
# 3 17.1007 16.0988 85.9807 -0.4498 0.4002 5.5007
# 4 -2.1906 -4.2275 -0.4498 29.1646 3.9420 3.6530
# 5 13.3806 7.7909 0.4002 3.9420 27.1683 8.2050
# 6 13.6799 13.6916 5.5007 3.6530 8.2050 24.5310
#
#
#
# Elastic Compliance Matrix: (Units=1/GPa)
#
#
# Indices 1 2 3 4 5 6 
#
# 1 0.013010 -0.002082 -0.001887 0.001832 -0.004732 -0.004360
# 2 -0.002082 0.007755 -0.000834 0.001398 -0.000474 -0.003030
# 3 -0.001887 -0.000834 0.012265 -0.000062 0.001520 -0.001731
# 4 0.001832 0.001398 -0.000062 0.035975 -0.004854 -0.005522
# 5 -0.004732 -0.000474 0.001520 -0.004854 0.043342 -0.011212
# 6 -0.004360 -0.003030 -0.001731 -0.005522 -0.011212 0.049847
#
#
# Mechanical properties :
#
#
# Convention : Reuss Voigt Hill
#
# Bulk Modulus (GPa) = 42.69491 51.19858 46.94675
# Shear Modulus (GPa) = 27.83816 33.49666 30.66741
#
# Velocity S-wave (km/s) = 3.73604 4.09819 3.92130
# Velocity P-wave (km/s) = 6.32596 6.93285 6.63635
#
# Compressibility (1/GPa) = 0.02342199
#
# Stress axis : x y z
#
# Youngs Moduli (GPa) = 76.86601 128.95169 81.52990
#
# Poissons Ratio (x) = 0.26853 0.15385
# Poissons Ratio (y) = 0.16007 0.06803
# Poissons Ratio (z) = 0.14505 0.10761
#
# Static dielectric constant tensor:
#      x y z
#    x 4.029620 0.069880 -0.234550 
#    y 0.069880 3.906940 0.111200 
#    z -0.234550 0.111200 3.894180 
# 
# 
# High freq. dielectric constant tensor:
#      x y z
#    x 1.752550 0.008520 -0.015280 
#    y 0.008520 1.767280 0.013490 
#    z -0.015280 0.013490 1.803320 
# 
# From -- ./inp_files/70471.got.cif
#   From: 2010.06.25/outbox.cif.g09.slc.cpg/sg2_36_cif.got.tgz:70471.got - 2010.06.27 13:26:56.
