data_PCOD8043191
_publ_section_title
;
Structure prediction by ZEFSAII (Michael W. Deem and Ramdas Pophale) SiO2 
 PCOD8043191
Probable space group: P -1
;
_chemical_formula_sum "Si O2"
_cell_formula_units_Z 16
_cell_length_a 12.143666
_cell_length_b 7.709679
_cell_length_c 20.378946
_cell_angle_alpha 59.645192
_cell_angle_beta 38.030986
_cell_angle_gamma 89.063754
_cell_volume 706.002811
_symmetry_space_group_name_H-M "P -1"
_symmetry_group_IT_number 2
_symmetry_cell_setting 'triclinic'
loop_
_space_group_symop_operation_xyz
x,y,z
-x,-y,-z
loop_
_atom_site_type_symbol
_atom_site_label
_atom_site_fract_x
_atom_site_fract_y
_atom_site_fract_z
Si Si1 0.599479 0.414743 0.669902
Si Si2 0.771556 0.966735 0.538571
Si Si3 0.692565 0.313542 0.275924
Si Si4 0.205621 0.214399 0.203871
Si Si5 0.112076 0.182058 0.993692
Si Si6 0.652340 0.002274 0.732228
Si Si7 0.569907 0.544274 0.383247
Si Si8 0.127078 0.363866 0.087314
O O1 0.724970 0.690023 0.602848
O O2 0.632812 0.503891 0.560150
O O3 0.710850 0.285462 0.656901
O O4 0.296627 0.165632 0.877332
O O5 0.554147 0.921608 0.610760
O O6 0.770692 0.017872 0.605614
O O7 0.055510 0.237771 0.322271
O O8 0.599292 0.337115 0.384202
O O9 0.847000 0.235094 0.232046
O O10 0.890832 0.621820 0.087471
O O11 0.193458 0.976057 0.283396
O O12 0.074692 0.147890 0.207544
O O13 0.500000 0.500000 0.000000
O O14 0.225638 0.332589 0.982388
O O15 0.833396 0.872024 0.189012
O O16 0.348720 0.702860 0.938283
O O17 0.500000 0.500000 0.500000
#
# Coordination Sequence:
#
# PCOD8043191 Si02
#       8
#     2   2   2   2   2   2   2   2
#     4  10  22  39  65  92 122 165 210 258 303 374
#     4  10  22  42  65  96 123 158 216 256 313 368
#     4  10  21  37  61  94 123 163 206 253 309 388
#     4  10  25  42  64  90 127 169 207 266 308 365
#     4  10  19  36  59  88 130 166 202 251 307 381
#     4  11  21  43  68  88 124 169 217 250 305 371
#     4  10  21  34  53  89 134 162 199 255 313 366
#     4  11  21  37  65  93 129 165 204 254 322 364
#
# _framework density 22.662797999999999
#
# number of rings (size 3 to 8) (size 9 to 14) (size 15 to 20)
#    0.000    2.000    2.500    3.750    5.250    2.000 
#    0.000    0.625    2.750    0.000    0.000    0.000 
#    0.000    0.000    0.000    0.000    0.000    0.000 
#
# Total GULP energy -198249.746547 kJ/mol
# GULP energy per Si atom -12390.609159 kJ/mol
# Density = 2.261122 g / cm^3
# Si number density = 22.662798 Si / 1000 Ang^3
#
#
#
# Elastic Constant Matrix: (Units=GPa)
#
#
# Indices 1 2 3 4 5 6 
#
# 1 149.1580 69.4476 39.5308 25.4280 32.0355 -25.7393
# 2 69.4476 96.3329 20.6521 18.8180 20.7699 -9.5452
# 3 39.5308 20.6521 109.2077 22.1910 10.5284 -9.9608
# 4 25.4280 18.8180 22.1910 19.6283 12.1428 0.2689
# 5 32.0355 20.7699 10.5284 12.1428 38.8236 8.9372
# 6 -25.7393 -9.5452 -9.9608 0.2689 8.9372 32.2743
#
#
#
# Elastic Compliance Matrix: (Units=1/GPa)
#
#
# Indices 1 2 3 4 5 6 
#
# 1 0.015343 -0.006048 -0.000802 -0.007192 -0.009954 0.013016
# 2 -0.006048 0.016599 0.000944 -0.008008 -0.001862 0.000959
# 3 -0.000802 0.000944 0.012439 -0.014249 0.000440 0.003476
# 4 -0.007192 -0.008008 -0.014249 0.091842 -0.012378 -0.009839
# 5 -0.009954 -0.001862 0.000440 -0.012378 0.043385 -0.020264
# 6 0.013016 0.000959 0.003476 -0.009839 -0.020264 0.048415
#
#
# Mechanical properties :
#
#
# Convention : Reuss Voigt Hill
#
# Bulk Modulus (GPa) = 30.70376 68.21776 49.46076
# Shear Modulus (GPa) = 19.94493 33.14977 26.54735
#
# Velocity S-wave (km/s) = 2.96982 3.82873 3.42629
# Velocity P-wave (km/s) = 5.03362 7.05068 6.12574
#
# Compressibility (1/GPa) = 0.03256930
#
# Stress axis : x y z
#
# Youngs Moduli (GPa) = 65.17658 60.24379 80.39546
#
# Poissons Ratio (x) = 0.36437 0.06446
# Poissons Ratio (y) = 0.39421 -0.07593
# Poissons Ratio (z) = 0.05226 -0.05690
#
# Static dielectric constant tensor:
#      x y z
#    x 4.966820 0.157210 0.103590 
#    y 0.157210 3.935960 0.231030 
#    z 0.103590 0.231030 4.432300 
# 
# 
# High freq. dielectric constant tensor:
#      x y z
#    x 1.899170 0.000650 0.000950 
#    y 0.000650 1.859110 0.011220 
#    z 0.000950 0.011220 1.910310 
# 
# From -- ./inp_files/314772.got.cif
#   From: 2010.06.25/outbox.cif.g09.slc.cpg/sg2_158_cif.got.tgz:314772.got - 2010.06.27 13:26:56.
