data_PCOD8043693
_publ_section_title
;
Structure prediction by ZEFSAII (Michael W. Deem and Ramdas Pophale) SiO2 
 PCOD8043693
Probable space group: P -1
;
_chemical_formula_sum "Si O2"
_cell_formula_units_Z 16
_cell_length_a 11.182449
_cell_length_b 12.324086
_cell_length_c 9.098606
_cell_angle_alpha 97.681400
_cell_angle_beta 65.706296
_cell_angle_gamma 129.069042
_cell_volume 873.217362
_symmetry_space_group_name_H-M "P -1"
_symmetry_group_IT_number 2
_symmetry_cell_setting 'triclinic'
loop_
_space_group_symop_operation_xyz
x,y,z
-x,-y,-z
loop_
_atom_site_type_symbol
_atom_site_label
_atom_site_fract_x
_atom_site_fract_y
_atom_site_fract_z
Si Si1 0.534952 0.433296 0.181553
Si Si2 0.476779 0.740954 0.318059
Si Si3 0.403795 0.965272 0.694405
Si Si4 0.892648 0.959121 0.403015
Si Si5 0.287551 0.472584 0.199832
Si Si6 0.523723 0.805416 0.635677
Si Si7 0.223234 0.261394 0.807181
Si Si8 0.986330 0.189919 0.180821
O O1 0.361849 0.410914 0.246856
O O2 0.497811 0.298347 0.250486
O O3 0.670994 0.570458 0.239319
O O4 0.608751 0.452898 0.987412
O O5 0.309937 0.597156 0.302925
O O6 0.438414 0.726138 0.509218
O O7 0.644850 0.758524 0.199908
O O8 0.516750 0.881037 0.250558
O O9 0.443706 0.876536 0.752130
O O10 0.201837 0.866406 0.761467
O O11 0.500000 0.000000 0.500000
O O12 0.721803 0.932247 0.527473
O O13 0.851818 0.819070 0.325138
O O14 0.992684 0.085179 0.258020
O O15 0.000000 0.000000 0.500000
O O16 0.091558 0.342385 0.237339
O O17 0.071250 0.200585 0.986665
#
# Coordination Sequence:
#
# PCOD8043693 Si02
#       8
#     2   2   2   2   2   2   2   2
#     4   9  18  35  55  77 115 138 172 223 274 322
#     4   9  18  34  57  80 107 143 181 215 265 327
#     4  10  19  37  56  73 109 154 183 204 264 334
#     4  11  21  31  54  85 111 131 174 238 269 305
#     4   9  19  33  55  85 105 137 176 227 275 305
#     4  10  20  36  54  76 106 152 179 210 264 330
#     4   9  19  34  55  83 104 144 179 216 276 320
#     4  11  19  35  58  80 108 141 180 223 264 323
#
# _framework density 18.323046000000001
#
# number of rings (size 3 to 8) (size 9 to 14) (size 15 to 20)
#    0.000    2.250    3.750    1.875    0.000    5.500 
#    0.000    5.625    2.750    0.000    0.000    0.000 
#    0.000    0.000    0.000    0.000    0.000    0.000 
#
# Total GULP energy -198310.588241 kJ/mol
# GULP energy per Si atom -12394.411765 kJ/mol
# Density = 1.828134 g / cm^3
# Si number density = 18.323046 Si / 1000 Ang^3
#
#
#
# Elastic Constant Matrix: (Units=GPa)
#
#
# Indices 1 2 3 4 5 6 
#
# 1 72.2705 49.2188 31.7413 3.4423 3.4898 -12.0453
# 2 49.2188 116.5644 17.3587 6.8777 12.2064 -10.4376
# 3 31.7413 17.3587 38.4389 -4.8161 0.2122 -5.1638
# 4 3.4423 6.8777 -4.8161 30.0826 3.4128 6.7047
# 5 3.4898 12.2064 0.2122 3.4128 25.1528 2.4322
# 6 -12.0453 -10.4376 -5.1638 6.7047 2.4322 32.2682
#
#
#
# Elastic Compliance Matrix: (Units=1/GPa)
#
#
# Indices 1 2 3 4 5 6 
#
# 1 0.030462 -0.008820 -0.021105 -0.006332 0.000470 0.006421
# 2 -0.008820 0.012844 0.001563 -0.001512 -0.004991 0.001803
# 3 -0.021105 0.001563 0.043596 0.009493 0.000748 -0.002424
# 4 -0.006332 -0.001512 0.009493 0.038164 -0.002770 -0.009055
# 5 0.000470 -0.004991 0.000748 -0.002770 0.042868 -0.003975
# 6 0.006421 0.001803 -0.002424 -0.009055 -0.003975 0.035763
#
#
# Mechanical properties :
#
#
# Convention : Reuss Voigt Hill
#
# Bulk Modulus (GPa) = 33.13535 47.10126 40.11830
# Shear Modulus (GPa) = 18.48566 26.09772 22.29169
#
# Velocity S-wave (km/s) = 3.17972 3.77810 3.49175
# Velocity P-wave (km/s) = 5.62175 6.69282 6.18053
#
# Compressibility (1/GPa) = 0.03017925
#
# Stress axis : x y z
#
# Youngs Moduli (GPa) = 32.82773 77.85877 22.93781
#
# Poissons Ratio (x) = 0.68673 0.48409
# Poissons Ratio (y) = 0.28955 -0.03586
# Poissons Ratio (z) = 0.69282 -0.12173
#
# Static dielectric constant tensor:
#      x y z
#    x 3.503050 -0.170180 -0.050880 
#    y -0.170180 3.899470 0.112900 
#    z -0.050880 0.112900 3.229470 
# 
# 
# High freq. dielectric constant tensor:
#      x y z
#    x 1.683340 0.002280 -0.002740 
#    y 0.002280 1.726240 -0.000430 
#    z -0.002740 -0.000430 1.693160 
# 
# From -- ./inp_files/262672.got.cif
#   From: 2010.06.25/outbox.cif.g09.slc.cpg/sg2_132_cif.got.tgz:262672.got - 2010.06.27 13:26:56.
