data_PCOD8043613
_publ_section_title
;
Structure prediction by ZEFSAII (Michael W. Deem and Ramdas Pophale) SiO2 
 PCOD8043613
Probable space group: P -1
;
_chemical_formula_sum "Si O2"
_cell_formula_units_Z 16
_cell_length_a 15.645124
_cell_length_b 11.819161
_cell_length_c 12.161106
_cell_angle_alpha 71.895323
_cell_angle_beta 128.088209
_cell_angle_gamma 152.221488
_cell_volume 633.306208
_symmetry_space_group_name_H-M "P -1"
_symmetry_group_IT_number 2
_symmetry_cell_setting 'triclinic'
loop_
_space_group_symop_operation_xyz
x,y,z
-x,-y,-z
loop_
_atom_site_type_symbol
_atom_site_label
_atom_site_fract_x
_atom_site_fract_y
_atom_site_fract_z
Si Si1 0.697171 0.238376 0.294551
Si Si2 0.787593 0.587811 0.763495
Si Si3 0.184515 0.167866 0.779915
Si Si4 0.598819 0.800117 0.623945
Si Si5 0.283144 0.656651 0.033616
Si Si6 0.769797 0.557225 0.142789
Si Si7 0.642938 0.689387 0.358783
Si Si8 0.315996 0.877423 0.300276
O O1 0.734605 0.414185 0.243663
O O2 0.000000 0.500000 0.500000
O O3 0.581531 0.034934 0.166471
O O4 0.433195 0.952994 0.254688
O O5 0.619728 0.370854 0.588980
O O6 0.854175 0.539121 0.903704
O O7 0.584307 0.460824 0.715596
O O8 0.063393 0.944627 0.835062
O O9 0.365659 0.454871 0.909636
O O10 0.345876 0.264833 0.776749
O O11 0.940306 0.996356 0.571323
O O12 0.469270 0.557870 0.656239
O O13 0.637112 0.933955 0.709448
O O14 0.897311 0.069561 0.720341
O O15 0.354212 0.620483 0.016768
O O16 0.029204 0.489997 0.842621
O O17 0.500000 0.000000 0.500000
#
# Coordination Sequence:
#
# PCOD8043613 Si02
#       8
#     2   2   2   2   2   2   2   2
#     4  12  25  44  71 102 135 178 233 296 355 417
#     4  11  20  41  65  98 143 181 229 290 348 409
#     4  10  20  36  65 101 134 187 235 283 343 417
#     4  10  19  39  66  96 133 184 228 281 352 407
#     4  11  26  44  67  99 141 187 229 290 359 417
#     4  11  21  40  63  94 137 178 229 287 342 411
#     4  10  19  36  66 100 139 181 238 284 340 415
#     4  11  24  45  71  95 131 186 237 287 354 426
#
# _framework density 25.264239
#
# number of rings (size 3 to 8) (size 9 to 14) (size 15 to 20)
#    0.000    1.250    2.500    5.250    0.000    0.500 
#    2.250    0.625    0.000    0.000    0.000    0.000 
#    0.000    0.000    0.000    0.000    0.000    0.000 
#
# Total GULP energy -198301.838582 kJ/mol
# GULP energy per Si atom -12393.864911 kJ/mol
# Density = 2.520674 g / cm^3
# Si number density = 25.264239 Si / 1000 Ang^3
#
#
#
# Elastic Constant Matrix: (Units=GPa)
#
#
# Indices 1 2 3 4 5 6 
#
# 1 100.9863 34.4908 25.7551 16.1702 -6.6051 2.4788
# 2 34.4908 67.8465 -4.7651 -3.1038 -1.3753 9.8659
# 3 25.7551 -4.7651 68.9445 12.6608 -10.2502 1.2938
# 4 16.1702 -3.1038 12.6608 40.5799 -4.1041 -4.6424
# 5 -6.6051 -1.3753 -10.2502 -4.1041 33.9253 -0.7396
# 6 2.4788 9.8659 1.2938 -4.6424 -0.7396 37.6658
#
#
#
# Elastic Compliance Matrix: (Units=1/GPa)
#
#
# Indices 1 2 3 4 5 6 
#
# 1 0.014798 -0.008209 -0.005169 -0.004781 0.000425 0.000773
# 2 -0.008209 0.020000 0.004071 0.003095 0.000720 -0.004443
# 3 -0.005169 0.004071 0.017916 -0.002982 0.004175 -0.001627
# 4 -0.004781 0.003095 -0.002982 0.028252 0.001779 0.003123
# 5 0.000425 0.000720 0.004175 0.001779 0.031076 0.000469
# 6 0.000773 -0.004443 -0.001627 0.003123 0.000469 0.028112
#
#
# Mechanical properties :
#
#
# Convention : Reuss Voigt Hill
#
# Bulk Modulus (GPa) = 29.32459 38.74877 34.03668
# Shear Modulus (GPa) = 29.38850 34.58730 31.98790
#
# Velocity S-wave (km/s) = 3.41434 3.70404 3.56214
# Velocity P-wave (km/s) = 5.21306 5.80206 5.51543
#
# Compressibility (1/GPa) = 0.03410108
#
# Stress axis : x y z
#
# Youngs Moduli (GPa) = 67.57468 49.99948 55.81707
#
# Poissons Ratio (x) = 0.41042 0.28851
# Poissons Ratio (y) = 0.55469 -0.22722
# Poissons Ratio (z) = 0.34928 -0.20354
#
# Static dielectric constant tensor:
#      x y z
#    x 4.461140 0.269490 -0.400750 
#    y 0.269490 5.219030 -0.362440 
#    z -0.400750 -0.362440 4.859510 
# 
# 
# High freq. dielectric constant tensor:
#      x y z
#    x 2.018070 0.001130 -0.010230 
#    y 0.001130 2.004420 -0.000870 
#    z -0.010230 -0.000870 2.021640 
# 
# From -- ./inp_files/452296.got.cif
#   From: 2010.06.25/outbox.cif.g09.slc.cpg/sg2_227_cif.got.tgz:452296.got - 2010.06.27 13:26:56.
