data_PCOD8043898
_publ_section_title
;
Structure prediction by ZEFSAII (Michael W. Deem and Ramdas Pophale) SiO2 
 PCOD8043898
Probable space group: P -1
;
_chemical_formula_sum "Si O2"
_cell_formula_units_Z 12
_cell_length_a 10.156835
_cell_length_b 14.069640
_cell_length_c 9.316077
_cell_angle_alpha 139.834453
_cell_angle_beta 57.019808
_cell_angle_gamma 100.261273
_cell_volume 646.985003
_symmetry_space_group_name_H-M "P -1"
_symmetry_group_IT_number 2
_symmetry_cell_setting 'triclinic'
loop_
_space_group_symop_operation_xyz
x,y,z
-x,-y,-z
loop_
_atom_site_type_symbol
_atom_site_label
_atom_site_fract_x
_atom_site_fract_y
_atom_site_fract_z
Si Si1 0.696368 0.972618 0.836980
Si Si2 0.820699 0.164189 0.796603
Si Si3 0.168072 0.030141 0.933676
Si Si4 0.747566 0.786142 0.128097
Si Si5 0.388973 0.853169 0.354773
Si Si6 0.052286 0.331351 0.853349
O O1 0.807625 0.813852 0.492569
O O2 0.698396 0.137279 0.957947
O O3 0.781454 0.944020 0.908653
O O4 0.500000 0.000000 0.000000
O O5 0.716601 0.212119 0.762597
O O6 0.876032 0.309244 0.963623
O O7 0.000000 0.000000 0.500000
O O8 0.317247 0.870862 0.581332
O O9 0.137013 0.193687 0.047965
O O10 0.000000 0.000000 0.000000
O O11 0.598094 0.736454 0.098044
O O12 0.867259 0.657615 0.026803
O O13 0.646586 0.965086 0.473479
O O14 0.000000 0.500000 0.000000
#
# Coordination Sequence:
#
# PCOD8043898 Si02
#       6
#     2   2   2   2   2   2
#     4  11  19  32  57  85  99 130 182 225 252 304
#     4  10  17  33  54  78 105 140 181 213 250 318
#     4  10  16  25  48  80 100 120 164 225 258 283
#     4   9  17  32  49  73 105 134 166 211 265 306
#     4   9  16  30  52  75 102 129 174 218 255 295
#     4  11  22  37  53  75 110 147 174 209 266 321
#
# _framework density 18.547571000000001
#
# number of rings (size 3 to 8) (size 9 to 14) (size 15 to 20)
#    1.000    1.000    3.333    5.000    0.000    0.000 
#    0.000    2.500    0.000    0.000    0.000    0.000 
#    0.000    0.000    0.000    0.000    0.000    0.000 
#
# Total GULP energy -148664.489959 kJ/mol
# GULP energy per Si atom -12388.707497 kJ/mol
# Density = 1.850536 g / cm^3
# Si number density = 18.547571 Si / 1000 Ang^3
#
#
#
# Elastic Constant Matrix: (Units=GPa)
#
#
# Indices 1 2 3 4 5 6 
#
# 1 159.0387 53.4699 22.7952 -12.6938 -4.6382 5.9031
# 2 53.4699 121.8873 34.4654 -15.2275 -5.8517 9.6610
# 3 22.7952 34.4654 31.9771 -15.2727 -2.4757 3.4749
# 4 -12.6938 -15.2275 -15.2727 29.4082 1.2064 -1.0068
# 5 -4.6382 -5.8517 -2.4757 1.2064 19.8984 -17.7601
# 6 5.9031 9.6610 3.4749 -1.0068 -17.7601 37.7420
#
#
#
# Elastic Compliance Matrix: (Units=1/GPa)
#
#
# Indices 1 2 3 4 5 6 
#
# 1 0.007545 -0.002560 -0.002206 0.000757 0.000718 0.000036
# 2 -0.002560 0.012812 -0.012203 -0.000874 0.000204 -0.001683
# 3 -0.002206 -0.012203 0.056714 0.022118 0.000990 -0.000697
# 4 0.000757 -0.000874 0.022118 0.045371 -0.001246 -0.001307
# 5 0.000718 0.000204 0.000990 -0.001246 0.086937 0.040621
# 6 0.000036 -0.001683 -0.000697 -0.001307 0.040621 0.046065
#
#
# Mechanical properties :
#
#
# Convention : Reuss Voigt Hill
#
# Bulk Modulus (GPa) = 23.18425 59.37380 41.27902
# Shear Modulus (GPa) = 16.46049 30.88788 23.67419
#
# Velocity S-wave (km/s) = 2.98228 4.08528 3.57655
# Velocity P-wave (km/s) = 4.93819 7.37114 6.27373
#
# Compressibility (1/GPa) = 0.04313273
#
# Stress axis : x y z
#
# Youngs Moduli (GPa) = 132.54525 78.05388 17.63247
#
# Poissons Ratio (x) = 0.19979 0.03890
# Poissons Ratio (y) = 0.33928 0.21517
# Poissons Ratio (z) = 0.29240 0.95248
#
# Static dielectric constant tensor:
#      x y z
#    x 3.736340 0.181710 -0.001550 
#    y 0.181710 3.688100 -0.342140 
#    z -0.001550 -0.342140 2.888780 
# 
# 
# High freq. dielectric constant tensor:
#      x y z
#    x 1.746910 0.003330 -0.000580 
#    y 0.003330 1.712570 -0.039220 
#    z -0.000580 -0.039220 1.651680 
# 
# From -- ./inp_files/209158.got.cif
#   From: 2010.06.25/outbox.cif.g09.slc.cpg/sg2_105_cif.got.tgz:209158.got - 2010.06.27 13:26:56.
