data_PCOD8043034
_publ_section_title
;
Structure prediction by ZEFSAII (Michael W. Deem and Ramdas Pophale) SiO2 
 PCOD8043034
Probable space group: P -1
;
_chemical_formula_sum "Si O2"
_cell_formula_units_Z 12
_cell_length_a 5.100821
_cell_length_b 12.038197
_cell_length_c 12.174649
_cell_angle_alpha 93.643506
_cell_angle_beta 114.496304
_cell_angle_gamma 114.781458
_cell_volume 591.608350
_symmetry_space_group_name_H-M "P -1"
_symmetry_group_IT_number 2
_symmetry_cell_setting 'triclinic'
loop_
_space_group_symop_operation_xyz
x,y,z
-x,-y,-z
loop_
_atom_site_type_symbol
_atom_site_label
_atom_site_fract_x
_atom_site_fract_y
_atom_site_fract_z
Si Si1 0.667913 0.645373 0.504644
Si Si2 0.484979 0.219673 0.683381
Si Si3 0.178606 0.929607 0.345263
Si Si4 0.413802 0.123936 0.884090
Si Si5 0.625584 0.919706 0.890730
Si Si6 0.564173 0.206889 0.375568
O O1 0.500000 0.500000 0.500000
O O2 0.478817 0.654790 0.362936
O O3 0.636496 0.729749 0.601479
O O4 0.048800 0.695487 0.546502
O O5 0.692054 0.171358 0.645954
O O6 0.595122 0.240792 0.833547
O O7 0.092087 0.112649 0.606743
O O8 0.985453 0.927748 0.197251
O O9 0.478257 0.075539 0.419847
O O10 0.465747 0.008383 0.840677
O O11 0.550997 0.164338 0.033855
O O12 0.556867 0.822637 0.773433
O O13 0.000000 0.000000 0.000000
#
# Coordination Sequence:
#
# PCOD8043034 Si02
#       6
#     2   2   2   2   2   2
#     4  12  28  44  60  81 121 176 217 248 277 342
#     4  10  20  39  59  87 125 158 195 249 303 367
#     4  10  19  36  57 101 116 150 185 241 329 364
#     4   9  19  32  58  92 131 154 177 233 313 385
#     4  11  18  34  59  95 135 148 181 240 323 392
#     4  12  23  40  63  93 124 157 199 250 308 366
#
# _framework density 20.28369
#
# number of rings (size 3 to 8) (size 9 to 14) (size 15 to 20)
#    1.000    0.333    3.333    3.500    2.333    4.000 
#    0.000    0.000    0.000    2.000    0.000    0.000 
#    0.000    0.000    0.000    0.000    0.000    0.000 
#
# Total GULP energy -148679.556873 kJ/mol
# GULP energy per Si atom -12389.963073 kJ/mol
# Density = 2.023752 g / cm^3
# Si number density = 20.283690 Si / 1000 Ang^3
#
#
#
# Elastic Constant Matrix: (Units=GPa)
#
#
# Indices 1 2 3 4 5 6 
#
# 1 95.3151 21.2433 -3.3007 -5.4758 7.5392 -6.0382
# 2 21.2433 119.1729 22.6130 -24.8147 0.2538 6.4528
# 3 -3.3007 22.6130 55.8597 -29.0999 -16.4398 0.6601
# 4 -5.4758 -24.8147 -29.0999 28.8280 2.1420 -0.9828
# 5 7.5392 0.2538 -16.4398 2.1420 40.6367 -3.3933
# 6 -6.0382 6.4528 0.6601 -0.9828 -3.3933 21.8871
#
#
#
# Elastic Compliance Matrix: (Units=1/GPa)
#
#
# Indices 1 2 3 4 5 6 
#
# 1 0.011593 -0.002078 0.003357 0.003981 -0.000673 0.003784
# 2 -0.002078 0.010781 0.000029 0.008829 -0.000421 -0.003421
# 3 0.003357 0.000029 0.047861 0.047887 0.016565 0.004193
# 4 0.003981 0.008829 0.047887 0.090449 0.014087 0.003296
# 5 -0.000673 -0.000421 0.016565 0.014087 0.031104 0.004893
# 6 0.003784 -0.003421 0.004193 0.003296 0.004893 0.048522
#
#
# Mechanical properties :
#
#
# Convention : Reuss Voigt Hill
#
# Bulk Modulus (GPa) = 13.72667 39.05099 26.38883
# Shear Modulus (GPa) = 19.08574 33.58983 26.33779
#
# Velocity S-wave (km/s) = 3.07080 4.07382 3.60734
# Velocity P-wave (km/s) = 4.39945 6.43601 5.51259
#
# Compressibility (1/GPa) = 0.07285087
#
# Stress axis : x y z
#
# Youngs Moduli (GPa) = 86.26190 92.75882 20.89385
#
# Poissons Ratio (x) = 0.19275 -0.07015
# Poissons Ratio (y) = 0.17925 -0.00060
# Poissons Ratio (z) = -0.28961 -0.00268
#
# Static dielectric constant tensor:
#      x y z
#    x 3.931410 0.028600 -0.203180 
#    y 0.028600 3.325980 -0.583800 
#    z -0.203180 -0.583800 3.857360 
# 
# 
# High freq. dielectric constant tensor:
#      x y z
#    x 1.821490 -0.006180 -0.012100 
#    y -0.006180 1.739210 -0.058050 
#    z -0.012100 -0.058050 1.788230 
# 
# From -- ./inp_files/480605.got.cif
#   From: 2010.06.25/outbox.cif.g09.slc.cpg/sg2_241_cif.got.tgz:480605.got - 2010.06.27 13:26:56.
