data_PCOD8043988
_publ_section_title
;
Structure prediction by ZEFSAII (Michael W. Deem and Ramdas Pophale) SiO2 
 PCOD8043988
Probable space group: P -1
;
_chemical_formula_sum "Si O2"
_cell_formula_units_Z 16
_cell_length_a 18.531411
_cell_length_b 18.308711
_cell_length_c 11.698562
_cell_angle_alpha 152.613115
_cell_angle_beta 40.778455
_cell_angle_gamma 153.915142
_cell_volume 786.759479
_symmetry_space_group_name_H-M "P -1"
_symmetry_group_IT_number 2
_symmetry_cell_setting 'triclinic'
loop_
_space_group_symop_operation_xyz
x,y,z
-x,-y,-z
loop_
_atom_site_type_symbol
_atom_site_label
_atom_site_fract_x
_atom_site_fract_y
_atom_site_fract_z
Si Si1 0.364134 0.630426 0.002500
Si Si2 0.272885 0.965966 0.932689
Si Si3 0.639788 0.035875 0.832408
Si Si4 0.622441 0.811450 0.112062
Si Si5 0.236423 0.815294 0.360823
Si Si6 0.853514 0.413730 0.281259
Si Si7 0.355353 0.510179 0.428557
Si Si8 0.692763 0.669660 0.521281
O O1 0.249684 0.375225 0.718607
O O2 0.431785 0.636848 0.052297
O O3 0.256743 0.673623 0.210879
O O4 0.526735 0.845582 0.026423
O O5 0.173597 0.702243 0.725094
O O6 0.246723 0.970882 0.834948
O O7 0.212341 0.058094 0.203975
O O8 0.553308 0.769162 0.562611
O O9 0.701411 0.151977 0.795196
O O10 0.500000 0.000000 0.000000
O O11 0.797287 0.222500 0.988041
O O12 0.650494 0.924095 0.356719
O O13 0.654230 0.657686 0.871154
O O14 0.045641 0.666131 0.383628
O O15 0.748265 0.462539 0.471135
O O16 0.278295 0.396481 0.488068
O O17 0.500000 0.500000 0.500000
#
# Coordination Sequence:
#
# PCOD8043988 Si02
#       8
#     2   2   2   2   2   2   2   2
#     4   9  17  34  59  81 109 149 196 235 274 324
#     4   8  18  35  60  85 108 148 203 224 280 341
#     4  10  21  37  61  82 107 149 198 236 283 338
#     4   9  22  36  63  82 114 157 198 233 275 338
#     4  12  23  37  54  88 126 148 186 241 293 341
#     4  11  22  35  60  88 119 152 183 240 292 340
#     4  10  19  37  62  87 109 152 202 231 279 343
#     4   9  14  31  62  85 104 135 197 247 264 317
#
# _framework density 20.336584999999999
#
# number of rings (size 3 to 8) (size 9 to 14) (size 15 to 20)
#    0.750    1.500    1.250    5.250    0.000    1.500 
#    0.000    0.625    5.500    0.000    0.000    0.000 
#    0.000    0.000    0.000    0.000    0.000    0.000 
#
# Total GULP energy -198234.160668 kJ/mol
# GULP energy per Si atom -12389.635042 kJ/mol
# Density = 2.029030 g / cm^3
# Si number density = 20.336585 Si / 1000 Ang^3
#
#
#
# Elastic Constant Matrix: (Units=GPa)
#
#
# Indices 1 2 3 4 5 6 
#
# 1 58.3283 17.0787 25.7847 5.6338 -24.0938 -0.7998
# 2 17.0787 27.7992 2.6365 -2.2726 -5.9017 -0.0323
# 3 25.7847 2.6365 80.6661 -16.4082 -16.1178 7.6028
# 4 5.6338 -2.2726 -16.4082 17.8616 -3.0044 -3.3622
# 5 -24.0938 -5.9017 -16.1178 -3.0044 33.0839 0.4128
# 6 -0.7998 -0.0323 7.6028 -3.3622 0.4128 22.9432
#
#
#
# Elastic Compliance Matrix: (Units=1/GPa)
#
#
# Indices 1 2 3 4 5 6 
#
# 1 0.037651 -0.020627 -0.013414 -0.023931 0.015008 0.001952
# 2 -0.020627 0.049585 0.009481 0.021469 0.000400 -0.000652
# 3 -0.013414 0.009481 0.023493 0.027189 0.005891 -0.004361
# 4 -0.023931 0.021469 0.027189 0.093299 0.008074 0.003714
# 5 0.015008 0.000400 0.005891 0.008074 0.044844 -0.001052
# 6 0.001952 -0.000652 -0.004361 0.003714 -0.001052 0.045661
#
#
# Mechanical properties :
#
#
# Convention : Reuss Voigt Hill
#
# Bulk Modulus (GPa) = 16.23122 28.64370 22.43746
# Shear Modulus (GPa) = 13.72909 22.86401 18.29655
#
# Velocity S-wave (km/s) = 2.60107 3.35667 3.00273
# Velocity P-wave (km/s) = 4.12546 5.39799 4.80405
#
# Compressibility (1/GPa) = 0.06160966
#
# Stress axis : x y z
#
# Youngs Moduli (GPa) = 26.55944 20.16744 42.56540
#
# Poissons Ratio (x) = 0.41600 0.57097
# Poissons Ratio (y) = 0.54785 -0.40357
# Poissons Ratio (z) = 0.35627 -0.19121
#
# Static dielectric constant tensor:
#      x y z
#    x 3.540690 -0.043340 -0.020960 
#    y -0.043340 3.215130 -0.044230 
#    z -0.020960 -0.044230 3.993190 
# 
# 
# High freq. dielectric constant tensor:
#      x y z
#    x 1.786280 -0.007410 -0.009090 
#    y -0.007410 1.737620 -0.009070 
#    z -0.009090 -0.009070 1.798280 
# 
# From -- ./inp_files/466652.got.cif
#   From: 2010.06.25/outbox.cif.g09.slc.cpg/sg2_234_cif.got.tgz:466652.got - 2010.06.27 13:26:56.
