data_PCOD8043461
_publ_section_title
;
Structure prediction by ZEFSAII (Michael W. Deem and Ramdas Pophale) SiO2 
 PCOD8043461
Probable space group: P -1
;
_chemical_formula_sum "Si O2"
_cell_formula_units_Z 16
_cell_length_a 8.741763
_cell_length_b 8.310812
_cell_length_c 16.062109
_cell_angle_alpha 57.787702
_cell_angle_beta 62.299389
_cell_angle_gamma 99.673668
_cell_volume 727.110918
_symmetry_space_group_name_H-M "P -1"
_symmetry_group_IT_number 2
_symmetry_cell_setting 'triclinic'
loop_
_space_group_symop_operation_xyz
x,y,z
-x,-y,-z
loop_
_atom_site_type_symbol
_atom_site_label
_atom_site_fract_x
_atom_site_fract_y
_atom_site_fract_z
Si Si1 0.480713 0.107101 0.661260
Si Si2 0.790202 0.628649 0.671522
Si Si3 0.759121 0.017192 0.521875
Si Si4 0.273293 0.420460 0.048856
Si Si5 0.599298 0.799963 0.035373
Si Si6 0.118714 0.014561 0.675403
Si Si7 0.167886 0.446962 0.496182
Si Si8 0.593247 0.096932 0.086299
O O1 0.546760 0.988088 0.610812
O O2 0.250297 0.040900 0.717254
O O3 0.653160 0.376220 0.534845
O O4 0.502497 0.045497 0.766721
O O5 0.637809 0.419057 0.828749
O O6 0.715004 0.540618 0.621512
O O7 0.034822 0.722814 0.592872
O O8 0.778781 0.849934 0.626648
O O9 0.737428 0.944722 0.451364
O O10 0.500000 0.500000 0.000000
O O11 0.254577 0.295424 0.998275
O O12 0.251785 0.637783 0.994569
O O13 0.093604 0.234964 0.206396
O O14 0.693707 0.982308 0.038135
O O15 0.586255 0.926882 0.921683
O O16 0.059684 0.201165 0.636768
O O17 0.000000 0.500000 0.500000
#
# Coordination Sequence:
#
# PCOD8043461 Si02
#       8
#     2   2   2   2   2   2   2   2
#     4  12  23  42  64  97 138 170 208 270 341 403
#     4  10  19  36  62  98 125 159 225 279 306 379
#     4  10  21  37  65  94 128 171 214 267 335 389
#     4  10  22  41  65  91 127 172 227 273 315 378
#     4  10  20  37  63  95 126 168 226 278 317 367
#     4  11  26  43  62  96 138 171 210 270 343 395
#     4  11  23  39  69  95 125 168 219 268 325 389
#     4  10  22  36  65  92 128 171 220 266 324 387
#
# _framework density 22.004895999999999
#
# number of rings (size 3 to 8) (size 9 to 14) (size 15 to 20)
#    0.000    1.500    2.500    3.000    3.500    0.500 
#    2.250    0.625    0.000    0.000    0.000    0.000 
#    0.000    0.000    0.000    0.000    0.000    0.000 
#
# Total GULP energy -198242.020709 kJ/mol
# GULP energy per Si atom -12390.126294 kJ/mol
# Density = 2.195481 g / cm^3
# Si number density = 22.004896 Si / 1000 Ang^3
#
#
#
# Elastic Constant Matrix: (Units=GPa)
#
#
# Indices 1 2 3 4 5 6 
#
# 1 81.2855 21.6490 37.2107 -8.2690 -3.7046 -0.6852
# 2 21.6490 155.3853 44.2240 -7.0801 3.5373 -11.5305
# 3 37.2107 44.2240 100.7374 -8.7848 7.6822 -6.7847
# 4 -8.2690 -7.0801 -8.7848 39.1826 3.2287 -1.1510
# 5 -3.7046 3.5373 7.6822 3.2287 18.7367 0.0967
# 6 -0.6852 -11.5305 -6.7847 -1.1510 0.0967 23.1824
#
#
#
# Elastic Compliance Matrix: (Units=1/GPa)
#
#
# Indices 1 2 3 4 5 6 
#
# 1 0.015521 -0.000678 -0.005830 0.001359 0.005361 -0.001539
# 2 -0.000678 0.007587 -0.002771 0.000741 -0.000573 0.002982
# 3 -0.005830 -0.002771 0.014183 0.002091 -0.006819 0.002733
# 4 0.001359 0.000741 0.002091 0.026924 -0.005381 0.002380
# 5 0.005361 -0.000573 -0.006819 -0.005381 0.058276 -0.002633
# 6 -0.001539 0.002982 0.002733 0.002380 -0.002633 0.045503
#
#
# Mechanical properties :
#
#
# Convention : Reuss Voigt Hill
#
# Bulk Modulus (GPa) = 53.37861 60.39732 56.88796
# Shear Modulus (GPa) = 25.93417 31.84195 28.88806
#
# Velocity S-wave (km/s) = 3.43675 3.80812 3.62719
# Velocity P-wave (km/s) = 6.32918 6.84416 6.59170
#
# Compressibility (1/GPa) = 0.01873410
#
# Stress axis : x y z
#
# Youngs Moduli (GPa) = 64.42844 131.80777 70.50624
#
# Poissons Ratio (x) = 0.08932 0.41103
# Poissons Ratio (y) = 0.04366 0.19538
# Poissons Ratio (z) = 0.37560 0.36526
#
# Static dielectric constant tensor:
#      x y z
#    x 3.372840 -0.070720 0.134940 
#    y -0.070720 4.892920 -0.093360 
#    z 0.134940 -0.093360 3.856500 
# 
# 
# High freq. dielectric constant tensor:
#      x y z
#    x 1.805930 0.002430 0.010680 
#    y 0.002430 1.892940 -0.004150 
#    z 0.010680 -0.004150 1.861570 
# 
# From -- ./inp_files/184131.got.cif
#   From: 2010.06.25/outbox.cif.g09.slc.cpg/sg2_93_cif.got.tgz:184131.got - 2010.06.27 13:26:56.
