data_PCOD8043213
_publ_section_title
;
Structure prediction by ZEFSAII (Michael W. Deem and Ramdas Pophale) SiO2 
 PCOD8043213
Probable space group: P -1
;
_chemical_formula_sum "Si O2"
_cell_formula_units_Z 16
_cell_length_a 9.125190
_cell_length_b 15.783946
_cell_length_c 21.190676
_cell_angle_alpha 16.288473
_cell_angle_beta 102.965874
_cell_angle_gamma 111.793418
_cell_volume 685.211100
_symmetry_space_group_name_H-M "P -1"
_symmetry_group_IT_number 2
_symmetry_cell_setting 'triclinic'
loop_
_space_group_symop_operation_xyz
x,y,z
-x,-y,-z
loop_
_atom_site_type_symbol
_atom_site_label
_atom_site_fract_x
_atom_site_fract_y
_atom_site_fract_z
Si Si1 0.353884 0.994976 0.648673
Si Si2 0.020990 0.240307 0.956509
Si Si3 0.180389 0.844173 0.302688
Si Si4 0.854709 0.908952 0.347799
Si Si5 0.821354 0.795042 0.744353
Si Si6 0.034642 0.692260 0.742449
Si Si7 0.746034 0.247272 0.484500
Si Si8 0.314998 0.465197 0.523027
O O1 0.238150 0.940318 0.613713
O O2 0.325520 0.229822 0.528803
O O3 0.566666 0.244845 0.474809
O O4 0.294947 0.617455 0.946773
O O5 0.031543 0.581837 0.748039
O O6 0.085505 0.353776 0.809450
O O7 0.172034 0.190983 0.039468
O O8 0.813068 0.876215 0.197311
O O9 0.194226 0.834844 0.385600
O O10 0.346212 0.834858 0.292776
O O11 0.000000 0.500000 0.500000
O O12 0.802433 0.629594 0.484871
O O13 0.003581 0.927911 0.393246
O O14 0.931623 0.314326 0.041366
O O15 0.901604 0.835638 0.649299
O O16 0.697233 0.946049 0.639240
O O17 0.500000 0.500000 0.500000
#
# Coordination Sequence:
#
# PCOD8043213 Si02
#       8
#     2   2   2   2   2   2   2   2
#     4   9  17  31  55  85 114 145 183 222 269 332
#     4  10  23  39  56  82 115 147 183 227 280 335
#     4  10  22  40  59  77 110 150 181 227 289 331
#     4   8  15  32  55  77 104 143 183 222 273 326
#     4   9  17  31  55  80 111 151 182 217 272 328
#     4   8  16  34  53  75 113 150 178 218 270 325
#     4  12  22  34  57  87 113 143 188 232 270 326
#     4  10  19  36  60  80 104 143 190 235 275 323
#
# _framework density 23.350466999999998
#
# number of rings (size 3 to 8) (size 9 to 14) (size 15 to 20)
#    0.000    2.500    0.000    5.625    0.000    3.000 
#    0.000    2.500    0.000    6.750    0.000    0.000 
#    0.000    0.000    0.000    0.000    0.000    0.000 
#
# Total GULP energy -198227.354907 kJ/mol
# GULP energy per Si atom -12389.209682 kJ/mol
# Density = 2.329732 g / cm^3
# Si number density = 23.350467 Si / 1000 Ang^3
#
#
#
# Elastic Constant Matrix: (Units=GPa)
#
#
# Indices 1 2 3 4 5 6 
#
# 1 118.3664 20.5539 41.7188 9.3366 -2.8064 -24.1132
# 2 20.5539 76.9505 26.3986 4.0288 -1.8878 -17.4624
# 3 41.7188 26.3986 53.5762 4.1683 -0.7187 -13.8147
# 4 9.3366 4.0288 4.1683 23.5901 -8.4124 2.6634
# 5 -2.8064 -1.8878 -0.7187 -8.4124 38.5557 -1.9155
# 6 -24.1132 -17.4624 -13.8147 2.6634 -1.9155 40.2488
#
#
#
# Elastic Compliance Matrix: (Units=1/GPa)
#
#
# Indices 1 2 3 4 5 6 
#
# 1 0.012789 0.001035 -0.008744 -0.004246 0.000160 0.005398
# 2 0.001035 0.016638 -0.007399 -0.002383 0.000504 0.005481
# 3 -0.008744 -0.007399 0.029636 -0.000909 -0.000557 0.001757
# 4 -0.004246 -0.002383 -0.000909 0.048921 0.009901 -0.006656
# 5 0.000160 0.000504 -0.000557 0.009901 0.028163 0.000809
# 6 0.005398 0.005481 0.001757 -0.006656 0.000809 0.031539
#
#
# Mechanical properties :
#
#
# Convention : Reuss Voigt Hill
#
# Bulk Modulus (GPa) = 34.66527 47.35950 41.01238
# Shear Modulus (GPa) = 24.09445 31.16037 27.62741
#
# Velocity S-wave (km/s) = 3.21575 3.65700 3.44345
# Velocity P-wave (km/s) = 5.35405 6.17718 5.78029
#
# Compressibility (1/GPa) = 0.02884732
#
# Stress axis : x y z
#
# Youngs Moduli (GPa) = 78.19271 60.10358 33.74315
#
# Poissons Ratio (x) = -0.06221 0.29505
# Poissons Ratio (y) = -0.08093 0.24965
# Poissons Ratio (z) = 0.68372 0.44468
#
# Static dielectric constant tensor:
#      x y z
#    x 4.745760 -0.447390 0.300980 
#    y -0.447390 4.626520 0.029990 
#    z 0.300980 0.029990 4.040920 
# 
# 
# High freq. dielectric constant tensor:
#      x y z
#    x 1.938030 -0.034610 0.016380 
#    y -0.034610 1.926120 0.013710 
#    z 0.016380 0.013710 1.898090 
# 
# From -- ./inp_files/282314.got.cif
#   From: 2010.06.25/outbox.cif.g09.slc.cpg/sg2_142_cif.got.tgz:282314.got - 2010.06.27 13:26:56.
