data_PCOD8043984
_publ_section_title
;
Structure prediction by ZEFSAII (Michael W. Deem and Ramdas Pophale) SiO2 
 PCOD8043984
Probable space group: P -1
;
_chemical_formula_sum "Si O2"
_cell_formula_units_Z 12
_cell_length_a 11.550923
_cell_length_b 14.533275
_cell_length_c 13.872250
_cell_angle_alpha 33.974340
_cell_angle_beta 153.608256
_cell_angle_gamma 147.854873
_cell_volume 525.488717
_symmetry_space_group_name_H-M "P -1"
_symmetry_group_IT_number 2
_symmetry_cell_setting 'triclinic'
loop_
_space_group_symop_operation_xyz
x,y,z
-x,-y,-z
loop_
_atom_site_type_symbol
_atom_site_label
_atom_site_fract_x
_atom_site_fract_y
_atom_site_fract_z
Si Si1 0.967584 0.596470 0.291211
Si Si2 0.818062 0.681760 0.384070
Si Si3 0.793536 0.595913 0.851230
Si Si4 0.835065 0.603703 0.665469
Si Si5 0.567173 0.703440 0.763813
Si Si6 0.164166 0.934834 0.257412
O O1 0.747058 0.468514 0.320459
O O2 0.101923 0.488250 0.423965
O O3 0.219132 0.774710 0.379229
O O4 0.782360 0.663523 0.027887
O O5 0.474985 0.600981 0.191091
O O6 0.929176 0.745280 0.522094
O O7 0.956009 0.846741 0.269544
O O8 0.907098 0.695873 0.745623
O O9 0.707060 0.726495 0.741923
O O10 0.036766 0.545962 0.122336
O O11 0.500000 0.500000 0.500000
O O12 0.562374 0.888725 0.647735
O O13 0.000000 0.000000 0.000000
#
# Coordination Sequence:
#
# PCOD8043984 Si02
#       6
#     2   2   2   2   2   2
#     4  10  20  37  57  87 123 159 195 235 292 350
#     4  11  20  37  61  86 121 156 197 242 289 351
#     4  10  19  37  62  86 115 153 198 245 297 343
#     4   9  20  36  63  89 108 153 204 244 294 350
#     4  10  20  36  59  85 122 160 192 238 295 349
#     4  10  22  35  54  90 126 157 192 238 291 350
#
# _framework density 22.835885999999999
#
# number of rings (size 3 to 8) (size 9 to 14) (size 15 to 20)
#    0.000    2.000    3.333    0.500    0.000    0.667 
#    0.000    0.833    0.000    9.000    0.000    0.000 
#    0.000    0.000    0.000    0.000    0.000    0.000 
#
# Total GULP energy -148690.563269 kJ/mol
# GULP energy per Si atom -12390.880272 kJ/mol
# Density = 2.278391 g / cm^3
# Si number density = 22.835886 Si / 1000 Ang^3
#
#
#
# Elastic Constant Matrix: (Units=GPa)
#
#
# Indices 1 2 3 4 5 6 
#
# 1 162.6574 33.7567 53.8582 -9.8477 -24.0110 -5.9081
# 2 33.7567 120.6431 39.9050 13.0046 -4.8387 -16.3608
# 3 53.8582 39.9050 102.1212 0.0093 -9.9302 -6.4389
# 4 -9.8477 13.0046 0.0093 30.8799 7.7540 -0.1132
# 5 -24.0110 -4.8387 -9.9302 7.7540 50.0427 -3.3490
# 6 -5.9081 -16.3608 -6.4389 -0.1132 -3.3490 28.1163
#
#
#
# Elastic Compliance Matrix: (Units=1/GPa)
#
#
# Indices 1 2 3 4 5 6 
#
# 1 0.008132 -0.001184 -0.003524 0.002404 0.002753 0.000550
# 2 -0.001184 0.011056 -0.003244 -0.005275 0.001046 0.005545
# 3 -0.003524 -0.003244 0.013002 0.000092 0.000589 0.000420
# 4 0.002404 -0.005275 0.000092 0.036672 -0.005222 -0.003018
# 5 0.002753 0.001046 0.000589 -0.005222 0.022598 0.003992
# 6 0.000550 0.005545 0.000420 -0.003018 0.003992 0.039468
#
#
# Mechanical properties :
#
#
# Convention : Reuss Voigt Hill
#
# Bulk Modulus (GPa) = 61.40157 71.16239 66.28198
# Shear Modulus (GPa) = 32.83826 39.00124 35.91975
#
# Velocity S-wave (km/s) = 3.79623 4.13715 3.97035
# Velocity P-wave (km/s) = 6.79424 7.35197 7.07860
#
# Compressibility (1/GPa) = 0.01628623
#
# Stress axis : x y z
#
# Youngs Moduli (GPa) = 122.96568 90.45140 76.90921
#
# Poissons Ratio (x) = 0.10708 0.27104
# Poissons Ratio (y) = 0.14557 0.24949
# Poissons Ratio (z) = 0.43336 0.29342
#
# Static dielectric constant tensor:
#      x y z
#    x 4.751240 -0.261600 -0.358850 
#    y -0.261600 4.133570 0.278690 
#    z -0.358850 0.278690 4.795510 
# 
# 
# High freq. dielectric constant tensor:
#      x y z
#    x 1.910630 -0.014880 -0.016840 
#    y -0.014880 1.863070 0.034870 
#    z -0.016840 0.034870 1.955010 
# 
# From -- ./inp_files/379201.got.cif
#   From: 2010.06.25/outbox.cif.g09.slc.cpg/sg2_190_cif.got.tgz:379201.got - 2010.06.27 13:26:56.
