data_PCOD8043160
_publ_section_title
;
Structure prediction by ZEFSAII (Michael W. Deem and Ramdas Pophale) SiO2 
 PCOD8043160
Probable space group: P -1
;
_chemical_formula_sum "Si O2"
_cell_formula_units_Z 16
_cell_length_a 8.558137
_cell_length_b 14.658330
_cell_length_c 11.441198
_cell_angle_alpha 58.336143
_cell_angle_beta 42.284594
_cell_angle_gamma 84.416285
_cell_volume 707.850992
_symmetry_space_group_name_H-M "P -1"
_symmetry_group_IT_number 2
_symmetry_cell_setting 'triclinic'
loop_
_space_group_symop_operation_xyz
x,y,z
-x,-y,-z
loop_
_atom_site_type_symbol
_atom_site_label
_atom_site_fract_x
_atom_site_fract_y
_atom_site_fract_z
Si Si1 0.063163 0.882163 0.301149
Si Si2 0.680002 0.279751 0.454914
Si Si3 0.951896 0.721723 0.931242
Si Si4 0.289826 0.377666 0.633203
Si Si5 0.641904 0.446009 0.711871
Si Si6 0.997668 0.372966 0.440767
Si Si7 0.273726 0.000586 0.546223
Si Si8 0.532126 0.009639 0.794248
O O1 0.948625 0.739914 0.494637
O O2 0.264386 0.975457 0.225444
O O3 0.813712 0.906193 0.413655
O O4 0.223888 0.914295 0.067694
O O5 0.430883 0.301489 0.564547
O O6 0.907233 0.375796 0.355780
O O7 0.558436 0.140771 0.662183
O O8 0.816852 0.298584 0.239502
O O9 0.015672 0.861038 0.777060
O O10 0.945263 0.701587 0.088591
O O11 0.676751 0.626753 0.080260
O O12 0.500000 0.500000 0.500000
O O13 0.198780 0.424162 0.539676
O O14 0.753107 0.356457 0.670834
O O15 0.730319 0.496506 0.762211
O O16 0.396250 0.047264 0.318011
O O17 0.500000 0.000000 0.500000
#
# Coordination Sequence:
#
# PCOD8043160 Si02
#       8
#     2   2   2   2   2   2   2   2
#     4  10  21  39  66  86 121 162 196 243 304 359
#     4  10  19  37  61  90 118 152 200 241 292 363
#     4  10  22  38  64  84 118 161 193 241 303 353
#     4  10  19  36  59  82 116 159 197 240 289 347
#     4  10  22  39  60  85 122 156 199 249 293 348
#     4  10  21  39  59  91 119 152 202 250 289 347
#     4  11  24  40  61  94 125 150 199 254 296 357
#     4   9  21  38  64  93 117 159 199 240 303 365
#
# _framework density 22.603625999999998
#
# number of rings (size 3 to 8) (size 9 to 14) (size 15 to 20)
#    0.000    2.000    2.500    1.125    3.500    6.000 
#    0.000    0.000    0.000    0.000    0.000    0.000 
#    0.000    0.000    0.000    0.000    0.000    0.000 
#
# Total GULP energy -198358.820919 kJ/mol
# GULP energy per Si atom -12397.426307 kJ/mol
# Density = 2.255218 g / cm^3
# Si number density = 22.603626 Si / 1000 Ang^3
#
#
#
# Elastic Constant Matrix: (Units=GPa)
#
#
# Indices 1 2 3 4 5 6 
#
# 1 55.4704 18.5650 21.7912 7.7672 -0.2550 -11.4373
# 2 18.5650 101.0129 33.1585 22.4829 0.7504 -17.4327
# 3 21.7912 33.1585 98.4076 25.9342 10.8837 -4.3953
# 4 7.7672 22.4829 25.9342 30.1947 5.3158 -3.2382
# 5 -0.2550 0.7504 10.8837 5.3158 25.6664 2.9327
# 6 -11.4373 -17.4327 -4.3953 -3.2382 2.9327 35.2997
#
#
#
# Elastic Compliance Matrix: (Units=1/GPa)
#
#
# Indices 1 2 3 4 5 6 
#
# 1 0.021320 -0.001553 -0.003954 -0.000596 0.001432 0.005475
# 2 -0.001553 0.013410 -0.002146 -0.007460 0.001471 0.005045
# 3 -0.003954 -0.002146 0.014631 -0.009336 -0.004129 -0.001032
# 4 -0.000596 -0.007460 -0.009336 0.047832 -0.005715 -0.000177
# 5 0.001432 0.001471 -0.004129 -0.005715 0.042251 -0.003358
# 6 0.005475 0.005045 -0.001032 -0.000177 -0.003358 0.032728
#
#
# Mechanical properties :
#
#
# Convention : Reuss Voigt Hill
#
# Bulk Modulus (GPa) = 29.36513 44.65782 37.01148
# Shear Modulus (GPa) = 25.14696 30.32392 27.73544
#
# Velocity S-wave (km/s) = 3.33906 3.66669 3.50671
# Velocity P-wave (km/s) = 5.28066 6.14215 5.72762
#
# Compressibility (1/GPa) = 0.03405399
#
# Stress axis : x y z
#
# Youngs Moduli (GPa) = 46.90475 74.57206 68.34622
#
# Poissons Ratio (x) = 0.11584 0.27026
# Poissons Ratio (y) = 0.07286 0.14665
# Poissons Ratio (z) = 0.18548 0.16001
#
# Static dielectric constant tensor:
#      x y z
#    x 4.514400 0.034270 0.532060 
#    y 0.034270 4.161300 0.115300 
#    z 0.532060 0.115300 4.301940 
# 
# 
# High freq. dielectric constant tensor:
#      x y z
#    x 1.882410 0.001980 0.004540 
#    y 0.001980 1.898990 0.009040 
#    z 0.004540 0.009040 1.870300 
# 
# From -- ./inp_files/398735.got.cif
#   From: 2010.06.25/outbox.cif.g09.slc.cpg/sg2_200_cif.got.tgz:398735.got - 2010.06.27 13:26:56.
