data_PCOD8043611
_publ_section_title
;
Structure prediction by ZEFSAII (Michael W. Deem and Ramdas Pophale) SiO2 
 PCOD8043611
Probable space group: P -1
;
_chemical_formula_sum "Si O2"
_cell_formula_units_Z 16
_cell_length_a 9.941613
_cell_length_b 12.493361
_cell_length_c 22.236270
_cell_angle_alpha 25.438494
_cell_angle_beta 35.791654
_cell_angle_gamma 45.425357
_cell_volume 688.620310
_symmetry_space_group_name_H-M "P -1"
_symmetry_group_IT_number 2
_symmetry_cell_setting 'triclinic'
loop_
_space_group_symop_operation_xyz
x,y,z
-x,-y,-z
loop_
_atom_site_type_symbol
_atom_site_label
_atom_site_fract_x
_atom_site_fract_y
_atom_site_fract_z
Si Si1 0.350086 0.060915 0.731965
Si Si2 0.246366 0.300083 0.532665
Si Si3 0.000515 0.263900 0.835347
Si Si4 0.465923 0.876300 0.984967
Si Si5 0.890565 0.215572 0.609844
Si Si6 0.148510 0.003634 0.384399
Si Si7 0.935375 0.463834 0.878153
Si Si8 0.356499 0.347114 0.854836
O O1 0.612331 0.105175 0.635745
O O2 0.348043 0.102667 0.639648
O O3 0.206415 0.270924 0.708100
O O4 0.256407 0.774666 0.926184
O O5 0.120897 0.491136 0.522468
O O6 0.438532 0.458077 0.343123
O O7 0.068651 0.134482 0.636515
O O8 0.056398 0.467722 0.765381
O O9 0.743660 0.288347 0.890087
O O10 0.000000 0.000000 0.000000
O O11 0.645202 0.037981 0.793564
O O12 0.342769 0.070234 0.971806
O O13 0.601178 0.687755 0.071634
O O14 0.979915 0.182861 0.525532
O O15 0.184126 0.283231 0.201047
O O16 0.000000 0.000000 0.500000
O O17 0.118578 0.455805 0.870040
#
# Coordination Sequence:
#
# PCOD8043611 Si02
#       8
#     2   2   2   2   2   2   2   2
#     4  11  23  42  67  98 126 171 223 267 321 383
#     4  10  23  39  67  98 131 163 221 278 317 371
#     4  10  20  36  66  98 124 162 222 269 314 369
#     4  10  19  36  65  97 129 161 214 274 315 377
#     4  10  23  42  64  96 133 172 214 265 328 380
#     4  12  28  45  63  94 139 177 212 260 331 397
#     4  11  23  43  65  94 132 173 212 267 325 393
#     4  10  20  36  63  98 130 162 211 270 329 369
#
# _framework density 23.234864000000002
#
# number of rings (size 3 to 8) (size 9 to 14) (size 15 to 20)
#    0.000    1.500    2.500    3.375    8.750    0.500 
#    0.000    6.250    0.000    0.000    0.000    0.000 
#    0.000    0.000    0.000    0.000    0.000    0.000 
#
# Total GULP energy -198361.915191 kJ/mol
# GULP energy per Si atom -12397.619699 kJ/mol
# Density = 2.318198 g / cm^3
# Si number density = 23.234864 Si / 1000 Ang^3
#
#
#
# Elastic Constant Matrix: (Units=GPa)
#
#
# Indices 1 2 3 4 5 6 
#
# 1 188.8902 58.8550 32.4209 4.5761 7.6219 -5.8145
# 2 58.8550 63.2703 23.0471 4.0953 -10.6692 8.5069
# 3 32.4209 23.0471 59.2709 4.4003 1.5230 2.5396
# 4 4.5761 4.0953 4.4003 21.9876 3.8844 1.2831
# 5 7.6219 -10.6692 1.5230 3.8844 28.4307 3.1661
# 6 -5.8145 8.5069 2.5396 1.2831 3.1661 33.8170
#
#
#
# Elastic Compliance Matrix: (Units=1/GPa)
#
#
# Indices 1 2 3 4 5 6 
#
# 1 0.008883 -0.009617 -0.001228 0.001083 -0.006586 0.004614
# 2 -0.009617 0.031733 -0.006693 -0.004904 0.016685 -0.010510
# 3 -0.001228 -0.006693 0.020364 -0.002056 -0.003026 0.000305
# 4 0.001083 -0.004904 -0.002056 0.048075 -0.008651 0.000560
# 5 -0.006586 0.016685 -0.003026 -0.008651 0.045551 -0.009039
# 6 0.004614 -0.010510 0.000305 0.000560 -0.009039 0.033810
#
#
# Mechanical properties :
#
#
# Convention : Reuss Voigt Hill
#
# Bulk Modulus (GPa) = 38.60576 60.00861 49.30718
# Shear Modulus (GPa) = 21.53996 29.98763 25.76379
#
# Velocity S-wave (km/s) = 3.04806 3.59643 3.33354
# Velocity P-wave (km/s) = 5.38879 6.56725 6.00699
#
# Compressibility (1/GPa) = 0.02590287
#
# Stress axis : x y z
#
# Youngs Moduli (GPa) = 112.57650 31.51303 49.10726
#
# Poissons Ratio (x) = 0.30305 0.06032
# Poissons Ratio (y) = 1.08260 0.32869
# Poissons Ratio (z) = 0.13828 0.21093
#
# Static dielectric constant tensor:
#      x y z
#    x 4.874590 0.348150 0.036280 
#    y 0.348150 4.450500 -0.028260 
#    z 0.036280 -0.028260 4.056830 
# 
# 
# High freq. dielectric constant tensor:
#      x y z
#    x 1.940160 -0.002820 0.012550 
#    y -0.002820 1.878600 0.001640 
#    z 0.012550 0.001640 1.912960 
# 
# From -- ./inp_files/187488.got.cif
#   From: 2010.06.25/outbox.cif.g09.slc.cpg/sg2_94_cif.got.tgz:187488.got - 2010.06.27 13:26:56.
