data_PCOD8043484
_publ_section_title
;
Structure prediction by ZEFSAII (Michael W. Deem and Ramdas Pophale) SiO2 
 PCOD8043484
Probable space group: P -1
;
_chemical_formula_sum "Si O2"
_cell_formula_units_Z 16
_cell_length_a 14.608230
_cell_length_b 7.583869
_cell_length_c 11.322030
_cell_angle_alpha 77.517021
_cell_angle_beta 39.878150
_cell_angle_gamma 97.828053
_cell_volume 687.743200
_symmetry_space_group_name_H-M "P -1"
_symmetry_group_IT_number 2
_symmetry_cell_setting 'triclinic'
loop_
_space_group_symop_operation_xyz
x,y,z
-x,-y,-z
loop_
_atom_site_type_symbol
_atom_site_label
_atom_site_fract_x
_atom_site_fract_y
_atom_site_fract_z
Si Si1 0.739956 0.511138 0.913770
Si Si2 0.359066 0.212307 0.733832
Si Si3 0.188944 0.090133 0.313188
Si Si4 0.875250 0.605829 0.351651
Si Si5 0.561663 0.605870 0.609650
Si Si6 0.045061 0.207714 0.993638
Si Si7 0.206242 0.860783 0.107742
Si Si8 0.091494 0.772487 0.640055
O O1 0.755048 0.322400 0.868926
O O2 0.901833 0.658832 0.805264
O O3 0.721266 0.658864 0.811734
O O4 0.577359 0.404387 0.167264
O O5 0.513026 0.390099 0.623219
O O6 0.398412 0.215882 0.554466
O O7 0.213382 0.269741 0.886783
O O8 0.310579 0.990161 0.871626
O O9 0.254488 0.014239 0.148177
O O10 0.209923 0.992148 0.428474
O O11 0.000000 0.000000 0.500000
O O12 0.724850 0.650881 0.513318
O O13 0.830169 0.370434 0.455061
O O14 0.014819 0.763026 0.279534
O O15 0.936854 0.633087 0.150171
O O16 0.907639 0.185961 0.226515
O O17 0.000000 0.000000 0.000000
#
# Coordination Sequence:
#
# PCOD8043484 Si02
#       8
#     2   2   2   2   2   2   2   2
#     4  10  21  38  66  88 125 161 211 252 304 363
#     4  10  19  36  63  87 128 167 205 241 312 382
#     4  10  21  39  67  90 122 163 215 254 299 360
#     4  10  23  35  63  95 129 151 206 261 307 368
#     4  10  20  38  60  92 129 170 190 253 326 363
#     4  11  19  35  61  93 121 153 198 259 307 351
#     4  11  21  40  66  98 115 163 219 253 292 369
#     4  10  21  39  59  93 118 167 205 254 304 366
#
# _framework density 23.264496000000001
#
# number of rings (size 3 to 8) (size 9 to 14) (size 15 to 20)
#    0.000    1.750    3.750    1.125    0.000    5.000 
#    0.000    3.125    0.000    5.250    0.000    0.000 
#    0.000    0.000    0.000    0.000    0.000    0.000 
#
# Total GULP energy -198303.747360 kJ/mol
# GULP energy per Si atom -12393.984210 kJ/mol
# Density = 2.321154 g / cm^3
# Si number density = 23.264496 Si / 1000 Ang^3
#
#
#
# Elastic Constant Matrix: (Units=GPa)
#
#
# Indices 1 2 3 4 5 6 
#
# 1 48.3964 20.3997 21.8542 -2.7392 2.9417 -12.7732
# 2 20.3997 92.3203 33.3127 -20.9457 5.9357 -20.7017
# 3 21.8542 33.3127 106.9980 -4.5900 11.5334 -19.2938
# 4 -2.7392 -20.9457 -4.5900 32.2093 -7.8978 8.1750
# 5 2.9417 5.9357 11.5334 -7.8978 26.4961 -10.0508
# 6 -12.7732 -20.7017 -19.2938 8.1750 -10.0508 25.1536
#
#
#
# Elastic Compliance Matrix: (Units=1/GPa)
#
#
# Indices 1 2 3 4 5 6 
#
# 1 0.025577 -0.003053 -0.002817 -0.002191 0.002171 0.009894
# 2 -0.003053 0.016115 -0.002957 0.008641 0.003664 0.008100
# 3 -0.002817 -0.002957 0.011948 -0.002456 -0.003117 0.004853
# 4 -0.002191 0.008641 -0.002456 0.039695 0.009283 -0.005076
# 5 0.002171 0.003664 -0.003117 0.009283 0.047516 0.017697
# 6 0.009894 0.008100 0.004853 -0.005076 0.017697 0.063889
#
#
# Mechanical properties :
#
#
# Convention : Reuss Voigt Hill
#
# Bulk Modulus (GPa) = 27.79017 44.31643 36.05330
# Shear Modulus (GPa) = 21.33195 28.24832 24.79014
#
# Velocity S-wave (km/s) = 3.03137 3.48835 3.26786
# Velocity P-wave (km/s) = 4.92174 5.94265 5.45613
#
# Compressibility (1/GPa) = 0.03598394
#
# Stress axis : x y z
#
# Youngs Moduli (GPa) = 39.09734 62.05492 83.69751
#
# Poissons Ratio (x) = 0.18946 0.23582
# Poissons Ratio (y) = 0.11937 0.24752
# Poissons Ratio (z) = 0.11016 0.18352
#
# Static dielectric constant tensor:
#      x y z
#    x 4.453750 -0.375270 0.369170 
#    y -0.375270 4.115850 -0.397310 
#    z 0.369170 -0.397310 4.516150 
# 
# 
# High freq. dielectric constant tensor:
#      x y z
#    x 1.893380 -0.009000 0.018960 
#    y -0.009000 1.907490 -0.015580 
#    z 0.018960 -0.015580 1.917450 
# 
# From -- ./inp_files/447087.got.cif
#   From: 2010.06.25/outbox.cif.g09.slc.cpg/sg2_224_cif.got.tgz:447087.got - 2010.06.27 13:26:56.
