data_PCOD8043320
_publ_section_title
;
Structure prediction by ZEFSAII (Michael W. Deem and Ramdas Pophale) SiO2 
 PCOD8043320
Probable space group: P -1
;
_chemical_formula_sum "Si O2"
_cell_formula_units_Z 16
_cell_length_a 10.184248
_cell_length_b 12.135949
_cell_length_c 12.712080
_cell_angle_alpha 34.763775
_cell_angle_beta 53.513972
_cell_angle_gamma 50.033405
_cell_volume 678.505136
_symmetry_space_group_name_H-M "P -1"
_symmetry_group_IT_number 2
_symmetry_cell_setting 'triclinic'
loop_
_space_group_symop_operation_xyz
x,y,z
-x,-y,-z
loop_
_atom_site_type_symbol
_atom_site_label
_atom_site_fract_x
_atom_site_fract_y
_atom_site_fract_z
Si Si1 0.167997 0.196252 0.630080
Si Si2 0.321462 0.442851 0.224999
Si Si3 0.456985 0.955417 0.171059
Si Si4 0.549522 0.905355 0.722308
Si Si5 0.100085 0.811056 0.917991
Si Si6 0.685305 0.363624 0.475517
Si Si7 0.661386 0.276221 0.320775
Si Si8 0.170872 0.338704 0.738381
O O1 0.175026 0.357126 0.410215
O O2 0.095022 0.329531 0.665299
O O3 0.354373 0.022302 0.688832
O O4 0.049664 0.056763 0.767625
O O5 0.393064 0.316062 0.184293
O O6 0.232141 0.679357 0.049067
O O7 0.475220 0.420633 0.251393
O O8 0.295220 0.869078 0.316759
O O9 0.625964 0.784177 0.271384
O O10 0.421591 0.137334 0.131446
O O11 0.500000 0.000000 0.000000
O O12 0.660857 0.045368 0.520542
O O13 0.922930 0.757886 0.054272
O O14 0.181475 0.741454 0.819333
O O15 0.500000 0.500000 0.500000
O O16 0.693730 0.379233 0.332576
O O17 0.839273 0.432220 0.399566
#
# Coordination Sequence:
#
# PCOD8043320 Si02
#       8
#     2   2   2   2   2   2   2   2
#     4  10  20  41  57  80 127 155 192 252 287 343
#     4  11  20  35  61  91 112 154 205 238 297 346
#     4   9  19  38  63  88 108 155 201 244 287 350
#     4   9  17  35  60  85 118 146 198 253 292 330
#     4  12  23  36  60  90 121 158 196 237 298 356
#     4   9  19  39  61  80 116 153 192 244 295 339
#     4  10  19  36  61  86 119 158 192 249 289 341
#     4  10  23  41  55  85 122 157 193 239 303 347
#
# _framework density 23.581251999999999
#
# number of rings (size 3 to 8) (size 9 to 14) (size 15 to 20)
#    0.000    2.000    2.500    3.750    0.000    3.000 
#   11.250    0.000    0.000    3.000    0.000    0.000 
#    0.000    0.000    0.000    0.000    0.000    0.000 
#
# Total GULP energy -198289.593913 kJ/mol
# GULP energy per Si atom -12393.099620 kJ/mol
# Density = 2.352758 g / cm^3
# Si number density = 23.581252 Si / 1000 Ang^3
#
#
#
# Elastic Constant Matrix: (Units=GPa)
#
#
# Indices 1 2 3 4 5 6 
#
# 1 33.2665 34.4618 26.2207 5.4004 -13.4543 24.7819
# 2 34.4618 87.1277 33.6698 17.5361 0.9993 35.3600
# 3 26.2207 33.6698 127.3726 24.7147 -6.3930 28.5916
# 4 5.4004 17.5361 24.7147 32.5609 2.5697 6.5730
# 5 -13.4543 0.9993 -6.3930 2.5697 42.6266 3.4692
# 6 24.7819 35.3600 28.5916 6.5730 3.4692 33.3017
#
#
#
# Elastic Compliance Matrix: (Units=1/GPa)
#
#
# Indices 1 2 3 4 5 6 
#
# 1 0.130008 -0.019220 -0.001774 0.002586 0.047597 -0.080285
# 2 -0.019220 0.024782 0.001243 -0.008508 -0.005064 -0.010870
# 3 -0.001774 0.001243 0.011359 -0.007456 0.002257 -0.008516
# 4 0.002586 -0.008508 -0.007456 0.039545 -0.002976 0.006016
# 5 0.047597 -0.005064 0.002257 -0.002976 0.042031 -0.035773
# 6 -0.080285 -0.010870 -0.008516 0.006016 -0.035773 0.111166
#
#
# Mechanical properties :
#
#
# Convention : Reuss Voigt Hill
#
# Bulk Modulus (GPa) = 7.89601 48.49681 28.19641
# Shear Modulus (GPa) = 11.34795 31.92547 21.63671
#
# Velocity S-wave (km/s) = 2.19607 3.68346 3.03238
# Velocity P-wave (km/s) = 3.12826 6.22101 4.92377
#
# Compressibility (1/GPa) = 0.12664626
#
# Stress axis : x y z
#
# Youngs Moduli (GPa) = 7.69184 40.35266 88.03456
#
# Poissons Ratio (x) = 0.77559 0.15613
# Poissons Ratio (y) = 0.14784 -0.10940
# Poissons Ratio (z) = 0.01364 -0.05014
#
# Static dielectric constant tensor:
#      x y z
#    x 4.506120 0.613900 -0.310430 
#    y 0.613900 4.466370 -0.025980 
#    z -0.310430 -0.025980 4.509030 
# 
# 
# High freq. dielectric constant tensor:
#      x y z
#    x 1.897800 0.021920 -0.013040 
#    y 0.021920 1.931830 0.010780 
#    z -0.013040 0.010780 1.945030 
# 
# From -- ./inp_files/269640.got.cif
#   From: 2010.06.25/outbox.cif.g09.slc.cpg/sg2_135_cif.got.tgz:269640.got - 2010.06.27 13:26:56.
