data_PCOD8043794
_publ_section_title
;
Structure prediction by ZEFSAII (Michael W. Deem and Ramdas Pophale) SiO2 
 PCOD8043794
Probable space group: P -1
;
_chemical_formula_sum "Si O2"
_cell_formula_units_Z 16
_cell_length_a 14.310421
_cell_length_b 9.111918
_cell_length_c 9.007722
_cell_angle_alpha 75.827779
_cell_angle_beta 86.257037
_cell_angle_gamma 131.096644
_cell_volume 816.045321
_symmetry_space_group_name_H-M "P -1"
_symmetry_group_IT_number 2
_symmetry_cell_setting 'triclinic'
loop_
_space_group_symop_operation_xyz
x,y,z
-x,-y,-z
loop_
_atom_site_type_symbol
_atom_site_label
_atom_site_fract_x
_atom_site_fract_y
_atom_site_fract_z
Si Si1 0.094731 0.482446 0.170747
Si Si2 0.566062 0.492471 0.132638
Si Si3 0.052693 0.723257 0.484546
Si Si4 0.233648 0.360439 0.153590
Si Si5 0.684101 0.828112 0.615322
Si Si6 0.929998 0.230198 0.983686
Si Si7 0.263486 0.170007 0.729034
Si Si8 0.019600 0.104016 0.766828
O O1 0.223337 0.522496 0.175302
O O2 0.980339 0.291739 0.335616
O O3 0.054549 0.423207 0.017254
O O4 0.116668 0.687864 0.144919
O O5 0.454814 0.266588 0.283567
O O6 0.618610 0.664752 0.211059
O O7 0.500000 0.500000 0.000000
O O8 0.685920 0.536777 0.034904
O O9 0.000000 0.500000 0.500000
O O10 0.974938 0.762440 0.392938
O O11 0.207757 0.928440 0.402301
O O12 0.293598 0.313004 0.279107
O O13 0.083591 0.144473 0.193066
O O14 0.679238 0.801667 0.445901
O O15 0.808390 0.059148 0.144993
O O16 0.972835 0.127680 0.918747
O O17 0.164304 0.199957 0.730981
#
# Coordination Sequence:
#
# PCOD8043794 Si02
#       8
#     2   2   2   2   2   2   2   2
#     4  11  21  34  53  87 118 148 183 234 294 333
#     4  10  22  37  59  82 113 156 195 237 282 337
#     4  11  21  37  58  85 119 151 184 236 291 345
#     4  10  19  37  59  85 114 145 197 239 277 341
#     4  10  22  37  58  85 114 154 194 233 284 340
#     4  11  21  32  53  87 119 148 180 230 294 341
#     4  12  20  36  60  87 118 146 196 241 280 343
#     4  11  20  34  60  89 112 149 190 239 291 330
#
# _framework density 19.606753999999999
#
# number of rings (size 3 to 8) (size 9 to 14) (size 15 to 20)
#    0.000    1.250    5.000    2.250    0.000    2.000 
#    0.000    0.000    0.000   11.250    0.000    0.000 
#    0.000    0.000    0.000    0.000    0.000    0.000 
#
# Total GULP energy -198274.833850 kJ/mol
# GULP energy per Si atom -12392.177116 kJ/mol
# Density = 1.956213 g / cm^3
# Si number density = 19.606754 Si / 1000 Ang^3
#
#
#
# Elastic Constant Matrix: (Units=GPa)
#
#
# Indices 1 2 3 4 5 6 
#
# 1 65.9573 37.7926 30.7550 -16.4714 -1.5707 -6.1283
# 2 37.7926 74.6650 31.9564 -6.8583 -2.8775 9.4832
# 3 30.7550 31.9564 130.6812 -13.5205 -10.4991 6.2415
# 4 -16.4714 -6.8583 -13.5205 33.3990 3.9839 6.0579
# 5 -1.5707 -2.8775 -10.4991 3.9839 27.7391 1.9947
# 6 -6.1283 9.4832 6.2415 6.0579 1.9947 27.4859
#
#
#
# Elastic Compliance Matrix: (Units=1/GPa)
#
#
# Indices 1 2 3 4 5 6 
#
# 1 0.026705 -0.012817 -0.003008 0.007926 -0.002779 0.009514
# 2 -0.012817 0.021898 -0.001829 -0.000971 0.001706 -0.009908
# 3 -0.003008 -0.001829 0.009411 0.002100 0.003106 -0.002865
# 4 0.007926 -0.000971 0.002100 0.036028 -0.003596 -0.006054
# 5 -0.002779 0.001706 0.003106 -0.003596 0.038041 -0.003881
# 6 0.009514 -0.009908 -0.002865 -0.006054 -0.003881 0.044189
#
#
# Mechanical properties :
#
#
# Convention : Reuss Voigt Hill
#
# Bulk Modulus (GPa) = 44.04044 52.47908 48.25976
# Shear Modulus (GPa) = 22.81551 29.11142 25.96347
#
# Velocity S-wave (km/s) = 3.41494 3.85745 3.64292
# Velocity P-wave (km/s) = 6.16926 6.83109 6.50859
#
# Compressibility (1/GPa) = 0.02270640
#
# Stress axis : x y z
#
# Youngs Moduli (GPa) = 37.44574 45.66557 106.25818
#
# Poissons Ratio (x) = 0.58530 0.31965
# Poissons Ratio (y) = 0.47995 0.19432
# Poissons Ratio (z) = 0.11265 0.08351
#
# Static dielectric constant tensor:
#      x y z
#    x 3.700350 -0.056250 -0.077910 
#    y -0.056250 3.498430 -0.054700 
#    z -0.077910 -0.054700 4.022040 
# 
# 
# High freq. dielectric constant tensor:
#      x y z
#    x 1.742380 -0.001260 0.002650 
#    y -0.001260 1.742160 0.005310 
#    z 0.002650 0.005310 1.790290 
# 
# From -- ./inp_files/178816.got.cif
#   From: 2010.06.25/outbox.cif.g09.slc.cpg/sg2_90_cif.got.tgz:178816.got - 2010.06.27 13:26:56.
