data_PCOD8043285
_publ_section_title
;
Structure prediction by ZEFSAII (Michael W. Deem and Ramdas Pophale) SiO2 
 PCOD8043285
Probable space group: P -1
;
_chemical_formula_sum "Si O2"
_cell_formula_units_Z 16
_cell_length_a 14.337232
_cell_length_b 9.035427
_cell_length_c 13.681421
_cell_angle_alpha 137.599636
_cell_angle_beta 43.173669
_cell_angle_gamma 145.902355
_cell_volume 636.625054
_symmetry_space_group_name_H-M "P -1"
_symmetry_group_IT_number 2
_symmetry_cell_setting 'triclinic'
loop_
_space_group_symop_operation_xyz
x,y,z
-x,-y,-z
loop_
_atom_site_type_symbol
_atom_site_label
_atom_site_fract_x
_atom_site_fract_y
_atom_site_fract_z
Si Si1 0.623551 0.166364 0.594613
Si Si2 0.665044 0.768724 0.691872
Si Si3 0.905025 0.828271 0.160805
Si Si4 0.874513 0.404769 0.846074
Si Si5 0.280352 0.143700 0.519984
Si Si6 0.624230 0.734678 0.204692
Si Si7 0.915471 0.626324 0.465635
Si Si8 0.746451 0.604872 0.876898
O O1 0.446655 0.083723 0.634513
O O2 0.800237 0.353688 0.488631
O O3 0.631050 0.357726 0.766996
O O4 0.601170 0.898125 0.522476
O O5 0.609839 0.678093 0.574398
O O6 0.501733 0.557878 0.782521
O O7 0.829629 0.777040 0.590735
O O8 0.721116 0.073663 0.821139
O O9 0.792496 0.726303 0.297515
O O10 0.817268 0.902344 0.183527
O O11 0.907285 0.576901 0.003397
O O12 0.100986 0.116829 0.165329
O O13 0.821773 0.514696 0.854204
O O14 0.055285 0.464307 0.705751
O O15 0.110831 0.836803 0.463329
O O16 0.630240 0.669292 0.054481
#
# Coordination Sequence:
#
# PCOD8043285 Si02
#       8
#     2   2   2   2   2   2   2   2
#     4  11  20  37  66  93 116 163 212 251 290 357
#     4  10  22  40  64  89 122 165 206 244 299 369
#     4  11  24  38  62  94 128 156 197 261 311 350
#     4  10  19  36  60  93 117 163 200 246 304 359
#     4  11  20  38  65  91 120 160 208 246 301 367
#     4  10  24  39  60  92 128 159 198 254 307 358
#     4  10  19  37  64  89 121 157 212 248 287 365
#     4  11  20  39  64  92 121 160 207 252 300 360
#
# _framework density 25.132532000000001
#
# number of rings (size 3 to 8) (size 9 to 14) (size 15 to 20)
#    0.000    1.500    3.750    4.500    0.000    3.000 
#    0.000    3.750    0.000    1.500    0.000    0.875 
#    0.000    0.000    0.000    0.000    0.000    0.000 
#
# Total GULP energy -198411.376236 kJ/mol
# GULP energy per Si atom -12400.711015 kJ/mol
# Density = 2.507533 g / cm^3
# Si number density = 25.132532 Si / 1000 Ang^3
#
#
#
# Elastic Constant Matrix: (Units=GPa)
#
#
# Indices 1 2 3 4 5 6 
#
# 1 43.7571 4.8753 -8.4513 -3.3279 -9.7617 -13.5275
# 2 4.8753 57.6430 32.5539 -13.1524 -3.7052 -23.9871
# 3 -8.4513 32.5539 152.1158 -6.9866 6.0555 -6.6862
# 4 -3.3279 -13.1524 -6.9866 44.9505 -4.3936 -0.3866
# 5 -9.7617 -3.7052 6.0555 -4.3936 32.2761 -1.7680
# 6 -13.5275 -23.9871 -6.6862 -0.3866 -1.7680 23.9393
#
#
#
# Elastic Compliance Matrix: (Units=1/GPa)
#
#
# Indices 1 2 3 4 5 6 
#
# 1 0.037460 0.016094 0.000113 0.009452 0.016563 0.038702
# 2 0.016094 0.048694 -0.006924 0.016535 0.017156 0.057486
# 3 0.000113 -0.006924 0.007903 -0.001091 -0.002659 -0.004880
# 4 0.009452 0.016535 -0.001091 0.028801 0.010132 0.022817
# 5 0.016563 0.017156 -0.002659 0.010132 0.041430 0.029030
# 6 0.038702 0.057486 -0.004880 0.022817 0.029030 0.122392
#
#
# Mechanical properties :
#
#
# Convention : Reuss Voigt Hill
#
# Bulk Modulus (GPa) = 8.87902 34.60794 21.74348
# Shear Modulus (GPa) = 16.35825 35.20238 25.78032
#
# Velocity S-wave (km/s) = 2.55400 3.74661 3.20625
# Velocity P-wave (km/s) = 3.49825 5.70230 4.73043
#
# Compressibility (1/GPa) = 0.11262500
#
# Stress axis : x y z
#
# Youngs Moduli (GPa) = 26.69482 20.53624 126.53202
#
# Poissons Ratio (x) = -0.33051 -0.01428
# Poissons Ratio (y) = -0.42963 0.87605
# Poissons Ratio (z) = -0.00301 0.14218
#
# Static dielectric constant tensor:
#      x y z
#    x 4.608690 0.038010 0.288110 
#    y 0.038010 4.256420 -0.146120 
#    z 0.288110 -0.146120 5.147410 
# 
# 
# High freq. dielectric constant tensor:
#      x y z
#    x 1.990350 0.006730 0.008590 
#    y 0.006730 1.988290 -0.004830 
#    z 0.008590 -0.004830 2.031890 
# 
# From -- ./inp_files/530220.got.cif
#   From: 2010.06.25/outbox.cif.g09.slc.cpg/sg2_266_cif.got.tgz:530220.got - 2010.06.27 13:26:56.
