data_PCOD8043599
_publ_section_title
;
Structure prediction by ZEFSAII (Michael W. Deem and Ramdas Pophale) SiO2 
 PCOD8043599
Probable space group: P -1
;
_chemical_formula_sum "Si O2"
_cell_formula_units_Z 16
_cell_length_a 9.013465
_cell_length_b 12.429738
_cell_length_c 14.474083
_cell_angle_alpha 128.215591
_cell_angle_beta 51.893092
_cell_angle_gamma 141.988989
_cell_volume 755.866404
_symmetry_space_group_name_H-M "P -1"
_symmetry_group_IT_number 2
_symmetry_cell_setting 'triclinic'
loop_
_space_group_symop_operation_xyz
x,y,z
-x,-y,-z
loop_
_atom_site_type_symbol
_atom_site_label
_atom_site_fract_x
_atom_site_fract_y
_atom_site_fract_z
Si Si1 0.304064 0.843759 0.764807
Si Si2 0.142531 0.948759 0.364979
Si Si3 0.899095 0.842996 0.206427
Si Si4 0.199229 0.041749 0.020068
Si Si5 0.817025 0.512832 0.843499
Si Si6 0.227431 0.902028 0.634191
Si Si7 0.473352 0.563333 0.917516
Si Si8 0.779964 0.220225 0.609231
O O1 0.135503 0.806283 0.718962
O O2 0.118483 0.662223 0.801380
O O3 0.557435 0.881816 0.664897
O O4 0.372827 0.013758 0.885615
O O5 0.076298 0.780026 0.359580
O O6 0.053093 0.889240 0.263756
O O7 0.000000 0.000000 0.500000
O O8 0.672954 0.624688 0.181812
O O9 0.808602 0.955541 0.296683
O O10 0.067547 0.901153 0.081500
O O11 0.380067 0.250613 0.099886
O O12 0.000000 0.000000 0.000000
O O13 0.694364 0.599398 0.910717
O O14 0.728170 0.353183 0.721869
O O15 0.719595 0.441129 0.946759
O O16 0.091981 0.746051 0.522726
O O17 0.522955 0.013856 0.587254
#
# Coordination Sequence:
#
# PCOD8043599 Si02
#       8
#     2   2   2   2   2   2   2   2
#     4  11  23  40  65  99 132 170 216 274 329 385
#     4  11  25  45  64  87 131 184 223 258 328 394
#     4  12  22  41  67  98 132 172 216 267 329 393
#     4  12  21  40  68 103 135 162 215 277 331 388
#     4  11  20  38  63  98 132 163 213 279 325 387
#     4  10  19  36  65  91 120 166 218 271 317 381
#     4  11  21  36  67 103 131 165 212 271 338 388
#     4  10  21  38  62  90 122 168 224 263 320 385
#
# _framework density 21.167760999999999
#
# number of rings (size 3 to 8) (size 9 to 14) (size 15 to 20)
#    0.000    1.000    6.250    2.250    0.000    1.000 
#    2.250    3.125    0.000    0.000    0.000    0.000 
#    0.000    0.000    0.000    0.000    0.000    0.000 
#
# Total GULP energy -198230.024231 kJ/mol
# GULP energy per Si atom -12389.376514 kJ/mol
# Density = 2.111958 g / cm^3
# Si number density = 21.167761 Si / 1000 Ang^3
#
#
#
# Elastic Constant Matrix: (Units=GPa)
#
#
# Indices 1 2 3 4 5 6 
#
# 1 92.4825 21.2882 35.5337 -8.5405 14.0254 0.2285
# 2 21.2882 86.5918 16.1516 -1.0708 -2.0997 7.1580
# 3 35.5337 16.1516 122.1181 -0.3512 -3.7548 1.9303
# 4 -8.5405 -1.0708 -0.3512 28.8599 1.3381 -3.0794
# 5 14.0254 -2.0997 -3.7548 1.3381 37.1326 -5.1268
# 6 0.2285 7.1580 1.9303 -3.0794 -5.1268 20.8506
#
#
#
# Elastic Compliance Matrix: (Units=1/GPa)
#
#
# Indices 1 2 3 4 5 6 
#
# 1 0.014336 -0.002908 -0.003967 0.004407 -0.006089 0.000362
# 2 -0.002908 0.012760 -0.000742 -0.000891 0.001209 -0.004114
# 3 -0.003967 -0.000742 0.009515 -0.001216 0.002440 -0.000162
# 4 0.004407 -0.000891 -0.001216 0.036571 -0.002442 0.005171
# 5 -0.006089 0.001209 0.002440 -0.002442 0.030541 0.006575
# 6 0.000362 -0.004114 -0.000162 0.005171 0.006575 0.051764
#
#
# Mechanical properties :
#
#
# Convention : Reuss Voigt Hill
#
# Bulk Modulus (GPa) = 46.77710 49.68215 48.22962
# Shear Modulus (GPa) = 28.11394 32.58322 30.34858
#
# Velocity S-wave (km/s) = 3.64833 3.92763 3.79055
# Velocity P-wave (km/s) = 6.31612 6.64003 6.48010
#
# Compressibility (1/GPa) = 0.02137798
#
# Stress axis : x y z
#
# Youngs Moduli (GPa) = 69.75470 78.36965 105.09296
#
# Poissons Ratio (x) = 0.22786 0.41692
# Poissons Ratio (y) = 0.20281 0.07798
# Poissons Ratio (z) = 0.27673 0.05815
#
# Static dielectric constant tensor:
#      x y z
#    x 3.655970 -0.138050 0.180490 
#    y -0.138050 3.748870 -0.188530 
#    z 0.180490 -0.188530 4.154790 
# 
# 
# High freq. dielectric constant tensor:
#      x y z
#    x 1.796470 -0.006720 -0.000880 
#    y -0.006720 1.815180 -0.005750 
#    z -0.000880 -0.005750 1.845440 
# 
# From -- ./inp_files/474844.got.cif
#   From: 2010.06.25/outbox.cif.g09.slc.cpg/sg2_238_cif.got.tgz:474844.got - 2010.06.27 13:26:56.
