data_PCOD8043218
_publ_section_title
;
Structure prediction by ZEFSAII (Michael W. Deem and Ramdas Pophale) SiO2 
 PCOD8043218
Probable space group: P -1
;
_chemical_formula_sum "Si O2"
_cell_formula_units_Z 16
_cell_length_a 8.899627
_cell_length_b 15.216551
_cell_length_c 14.849282
_cell_angle_alpha 35.203315
_cell_angle_beta 54.436915
_cell_angle_gamma 79.034742
_cell_volume 748.862586
_symmetry_space_group_name_H-M "P -1"
_symmetry_group_IT_number 2
_symmetry_cell_setting 'triclinic'
loop_
_space_group_symop_operation_xyz
x,y,z
-x,-y,-z
loop_
_atom_site_type_symbol
_atom_site_label
_atom_site_fract_x
_atom_site_fract_y
_atom_site_fract_z
Si Si1 0.570281 0.296562 0.467310
Si Si2 0.090722 0.084875 0.728312
Si Si3 0.017411 0.340789 0.293352
Si Si4 0.931419 0.978574 0.685946
Si Si5 0.400877 0.149328 0.830970
Si Si6 0.429102 0.816463 0.065682
Si Si7 0.222353 0.473153 0.297520
Si Si8 0.287961 0.413324 0.977887
O O1 0.318610 0.124145 0.659855
O O2 0.522268 0.315897 0.572716
O O3 0.753167 0.250283 0.435761
O O4 0.678940 0.491005 0.211065
O O5 0.096252 0.273299 0.563304
O O6 0.088654 0.017321 0.684909
O O7 0.858010 0.918028 0.002023
O O8 0.080039 0.449724 0.276678
O O9 0.193402 0.478510 0.035294
O O10 0.050667 0.174701 0.425115
O O11 0.908835 0.815117 0.772566
O O12 0.684860 0.917512 0.855603
O O13 0.571875 0.236267 0.784936
O O14 0.371960 0.965555 0.953272
O O15 0.245083 0.626499 0.229948
O O16 0.469014 0.538773 0.118566
#
# Coordination Sequence:
#
# PCOD8043218 Si02
#       8
#     2   2   2   2   2   2   2   2
#     4  11  22  38  54  86 119 150 182 235 283 332
#     4   9  20  37  57  80 117 150 182 231 286 334
#     4  11  20  37  62  83 112 153 190 232 278 326
#     4   9  18  38  59  84 109 149 193 231 272 337
#     4  10  19  36  60  81 114 152 184 228 288 334
#     4   9  18  35  60  88 109 140 193 240 271 332
#     4   9  20  37  59  87 111 143 192 236 274 337
#     4  10  21  38  59  83 117 149 187 233 283 331
#
# _framework density 21.365734
#
# number of rings (size 3 to 8) (size 9 to 14) (size 15 to 20)
#    0.000    2.250    1.250    1.500    1.750    0.500 
#    2.250   10.625    0.000    0.000    0.000    0.000 
#    0.000    0.000    0.000    0.000    0.000    0.000 
#
# Total GULP energy -198314.892570 kJ/mol
# GULP energy per Si atom -12394.680786 kJ/mol
# Density = 2.131710 g / cm^3
# Si number density = 21.365734 Si / 1000 Ang^3
#
#
#
# Elastic Constant Matrix: (Units=GPa)
#
#
# Indices 1 2 3 4 5 6 
#
# 1 112.3768 37.7897 30.3369 10.4664 -6.9094 16.6372
# 2 37.7897 84.6290 32.9700 1.5810 3.8307 19.6877
# 3 30.3369 32.9700 74.0935 12.8553 9.9468 16.0491
# 4 10.4664 1.5810 12.8553 36.5236 6.2915 -3.0868
# 5 -6.9094 3.8307 9.9468 6.2915 22.4298 8.3364
# 6 16.6372 19.6877 16.0491 -3.0868 8.3364 23.1598
#
#
#
# Elastic Compliance Matrix: (Units=1/GPa)
#
#
# Indices 1 2 3 4 5 6 
#
# 1 0.013225 -0.003053 -0.002420 -0.005517 0.010889 -0.009883
# 2 -0.003053 0.017140 -0.004612 0.000668 0.001581 -0.009661
# 3 -0.002420 -0.004612 0.019713 -0.005904 -0.004361 -0.007218
# 4 -0.005517 0.000668 -0.005904 0.035222 -0.015703 0.017834
# 5 0.010889 0.001581 -0.004361 -0.015703 0.065882 -0.031952
# 6 -0.009883 -0.009661 -0.007218 0.017834 -0.031952 0.077370
#
#
# Mechanical properties :
#
#
# Convention : Reuss Voigt Hill
#
# Bulk Modulus (GPa) = 33.43744 52.58808 43.01276
# Shear Modulus (GPa) = 19.32788 27.75614 23.54201
#
# Velocity S-wave (km/s) = 3.01095 3.60821 3.32303
# Velocity P-wave (km/s) = 5.26990 6.48272 5.90751
#
# Compressibility (1/GPa) = 0.02990659
#
# Stress axis : x y z
#
# Youngs Moduli (GPa) = 75.61283 58.34314 50.72757
#
# Poissons Ratio (x) = 0.17815 0.12278
# Poissons Ratio (y) = 0.23088 0.23397
# Poissons Ratio (z) = 0.18300 0.26909
#
# Static dielectric constant tensor:
#      x y z
#    x 3.827010 0.310840 -0.025140 
#    y 0.310840 3.707380 0.037630 
#    z -0.025140 0.037630 3.883230 
# 
# 
# High freq. dielectric constant tensor:
#      x y z
#    x 1.831590 0.023300 -0.003400 
#    y 0.023300 1.816460 0.018860 
#    z -0.003400 0.018860 1.836570 
# 
# From -- ./inp_files/213256.got.cif
#   From: 2010.06.25/outbox.cif.g09.slc.cpg/sg2_107_cif.got.tgz:213256.got - 2010.06.27 13:26:56.
