data_PCOD8043881
_publ_section_title
;
Structure prediction by ZEFSAII (Michael W. Deem and Ramdas Pophale) SiO2 
 PCOD8043881
Probable space group: P -1
;
_chemical_formula_sum "Si O2"
_cell_formula_units_Z 16
_cell_length_a 10.123154
_cell_length_b 18.494297
_cell_length_c 8.599617
_cell_angle_alpha 62.912135
_cell_angle_beta 89.511455
_cell_angle_gamma 135.871951
_cell_volume 839.359331
_symmetry_space_group_name_H-M "P -1"
_symmetry_group_IT_number 2
_symmetry_cell_setting 'triclinic'
loop_
_space_group_symop_operation_xyz
x,y,z
-x,-y,-z
loop_
_atom_site_type_symbol
_atom_site_label
_atom_site_fract_x
_atom_site_fract_y
_atom_site_fract_z
Si Si1 0.477976 0.581356 0.968431
Si Si2 0.033588 0.602261 0.482275
Si Si3 0.979393 0.400487 0.158285
Si Si4 0.755683 0.891794 0.178355
Si Si5 0.439017 0.639365 0.210463
Si Si6 0.472498 0.894330 0.058493
Si Si7 0.247986 0.135769 0.431426
Si Si8 0.416517 0.787483 0.859616
O O1 0.644594 0.720883 0.729147
O O2 0.500000 0.500000 0.000000
O O3 0.213475 0.470440 0.063029
O O4 0.555745 0.633854 0.096414
O O5 0.112626 0.641521 0.622952
O O6 0.781666 0.514979 0.564495
O O7 0.000000 0.500000 0.500000
O O8 0.214638 0.742701 0.246543
O O9 0.787538 0.269300 0.173523
O O10 0.000000 0.500000 0.000000
O O11 0.599954 0.745959 0.243077
O O12 0.656628 0.931725 0.109217
O O13 0.761582 0.883719 0.367890
O O14 0.000000 0.000000 0.000000
O O15 0.353981 0.674479 0.070762
O O16 0.514013 0.902662 0.865739
O O17 0.500000 0.000000 0.000000
O O18 0.397821 0.142989 0.337847
O O19 0.000000 0.000000 0.500000
#
# Coordination Sequence:
#
# PCOD8043881 Si02
#       8
#     2   2   2   2   2   2   2   2
#     4  10  22  40  60  91 129 151 197 264 307 341
#     4  11  18  34  64  88 116 160 201 241 300 361
#     4  11  18  35  65  92 115 156 209 248 292 370
#     4  11  22  41  66  87 119 169 210 238 299 381
#     4   9  19  36  62  87 119 156 204 244 293 370
#     4  11  24  41  60  91 132 153 199 265 308 346
#     4  11  22  40  68  86 118 169 210 240 299 377
#     4  10  19  37  60  91 117 157 205 246 294 369
#
# _framework density 19.062159000000001
#
# number of rings (size 3 to 8) (size 9 to 14) (size 15 to 20)
#    0.000    1.500    6.250    3.000    0.000    1.000 
#   13.500    1.875    0.000    0.000    0.000    0.000 
#    0.000    0.000    0.000    0.000    0.000    0.000 
#
# Total GULP energy -198249.394545 kJ/mol
# GULP energy per Si atom -12390.587159 kJ/mol
# Density = 1.901877 g / cm^3
# Si number density = 19.062159 Si / 1000 Ang^3
#
#
#
# Elastic Constant Matrix: (Units=GPa)
#
#
# Indices 1 2 3 4 5 6 
#
# 1 106.3415 76.4799 51.1115 3.6324 -14.5990 -12.8055
# 2 76.4799 158.9673 73.4476 19.4471 -1.3497 -0.4066
# 3 51.1115 73.4476 129.9731 10.3538 -18.2993 0.6859
# 4 3.6324 19.4471 10.3538 40.9676 3.3744 -2.9713
# 5 -14.5990 -1.3497 -18.2993 3.3744 19.8718 -1.1190
# 6 -12.8055 -0.4066 0.6859 -2.9713 -1.1190 45.4074
#
#
#
# Elastic Compliance Matrix: (Units=1/GPa)
#
#
# Indices 1 2 3 4 5 6 
#
# 1 0.018124 -0.008455 -0.000865 0.002041 0.011906 0.005476
# 2 -0.008455 0.013067 -0.005109 -0.003566 -0.009573 -0.002659
# 3 -0.000865 -0.005109 0.012578 -0.001594 0.010853 -0.000316
# 4 0.002041 -0.003566 -0.001594 0.026867 -0.004648 0.002211
# 5 0.011906 -0.009573 0.010853 -0.004648 0.069457 0.004516
# 6 0.005476 -0.002659 -0.000316 0.002211 0.004516 0.023804
#
#
# Mechanical properties :
#
#
# Convention : Reuss Voigt Hill
#
# Bulk Modulus (GPa) = 67.06053 88.59553 77.82803
# Shear Modulus (GPa) = 25.28781 34.19890 29.74335
#
# Velocity S-wave (km/s) = 3.64620 4.24024 3.95439
# Velocity P-wave (km/s) = 7.27892 8.39946 7.85919
#
# Compressibility (1/GPa) = 0.01491190
#
# Stress axis : x y z
#
# Youngs Moduli (GPa) = 55.17581 76.52963 79.50638
#
# Poissons Ratio (x) = 0.64703 0.06875
# Poissons Ratio (y) = 0.46649 0.40619
# Poissons Ratio (z) = 0.04771 0.39098
#
# Static dielectric constant tensor:
#      x y z
#    x 3.197540 0.142800 -0.445420 
#    y 0.142800 4.158080 -0.101760 
#    z -0.445420 -0.101760 3.834450 
# 
# 
# High freq. dielectric constant tensor:
#      x y z
#    x 1.705260 0.009490 -0.029260 
#    y 0.009490 1.758550 0.014050 
#    z -0.029260 0.014050 1.748260 
# 
# From -- ./inp_files/217302.got.cif
#   From: 2010.06.25/outbox.cif.g09.slc.cpg/sg2_109_cif.got.tgz:217302.got - 2010.06.27 13:26:56.
