data_PCOD8043942
_publ_section_title
;
Structure prediction by ZEFSAII (Michael W. Deem and Ramdas Pophale) SiO2 
 PCOD8043942
Probable space group: P -1
;
_chemical_formula_sum "Si O2"
_cell_formula_units_Z 14
_cell_length_a 6.339174
_cell_length_b 12.992095
_cell_length_c 7.479573
_cell_angle_alpha 115.391159
_cell_angle_beta 89.213951
_cell_angle_gamma 64.179942
_cell_volume 485.486165
_symmetry_space_group_name_H-M "P -1"
_symmetry_group_IT_number 2
_symmetry_cell_setting 'triclinic'
loop_
_space_group_symop_operation_xyz
x,y,z
-x,-y,-z
loop_
_atom_site_type_symbol
_atom_site_label
_atom_site_fract_x
_atom_site_fract_y
_atom_site_fract_z
Si Si1 0.303635 0.566881 0.275223
Si Si2 0.798695 0.635785 0.259820
Si Si3 0.817656 0.851848 0.034973
Si Si4 0.752357 0.042853 0.890659
Si Si5 0.234302 0.109268 0.540351
Si Si6 0.133223 0.569658 0.647817
Si Si7 0.602965 0.300754 0.927686
O O1 0.280217 0.595323 0.508489
O O2 0.286791 0.691113 0.260660
O O3 0.089883 0.544256 0.169156
O O4 0.550560 0.427713 0.139559
O O5 0.768948 0.764729 0.461880
O O6 0.697814 0.549515 0.302492
O O7 0.650429 0.694760 0.120073
O O8 0.961723 0.704837 0.848693
O O9 0.873823 0.957686 0.005614
O O10 0.533474 0.906362 0.059937
O O11 0.907444 0.847457 0.235736
O O12 0.772942 0.175108 0.955266
O O13 0.875108 0.949397 0.646844
O O14 0.500000 0.000000 0.500000
O O15 0.000000 0.500000 0.500000
#
# Coordination Sequence:
#
# PCOD8043942 Si02
#       7
#     2   2   2   2   2   2   2
#     4  10  24  39  60  97 122 159 211 252 311 380
#     4  11  21  38  67  87 123 162 200 259 309 364
#     4  10  20  34  58  93 122 159 216 253 301 380
#     4  10  19  37  61  88 126 166 201 261 309 364
#     4  10  20  34  59  98 118 157 219 245 304 385
#     4  10  21  36  58  91 121 161 206 255 312 366
#     4  11  22  40  63  92 124 162 205 255 317 365
#
# _framework density 28.837071999999999
#
# number of rings (size 3 to 8) (size 9 to 14) (size 15 to 20)
#    0.000    1.714    2.857    3.857    2.000    2.857 
#    0.000    2.857    0.000    1.714    0.000    0.000 
#    0.000    0.000    0.000    0.000    0.000    0.000 
#
# Total GULP energy -173506.755343 kJ/mol
# GULP energy per Si atom -12393.339667 kJ/mol
# Density = 2.877144 g / cm^3
# Si number density = 28.837072 Si / 1000 Ang^3
#
#
#
# Elastic Constant Matrix: (Units=GPa)
#
#
# Indices 1 2 3 4 5 6 
#
# 1 49.1951 49.9257 13.1569 2.1225 0.8888 -10.1929
# 2 49.9257 279.8714 101.2556 7.0421 -2.6249 -4.1598
# 3 13.1569 101.2556 185.8617 -6.6917 2.9265 11.7088
# 4 2.1225 7.0421 -6.6917 44.4427 9.6694 13.6037
# 5 0.8888 -2.6249 2.9265 9.6694 34.1481 -5.4261
# 6 -10.1929 -4.1598 11.7088 13.6037 -5.4261 57.4841
#
#
#
# Elastic Compliance Matrix: (Units=1/GPa)
#
#
# Indices 1 2 3 4 5 6 
#
# 1 0.025994 -0.004629 0.000312 -0.001950 0.000239 0.004695
# 2 -0.004629 0.005458 -0.002761 -0.001536 0.001311 0.000624
# 3 0.000312 -0.002761 0.007142 0.002666 -0.001971 -0.002416
# 4 -0.001950 -0.001536 0.002666 0.027922 -0.009555 -0.008510
# 5 0.000239 0.001311 -0.001971 -0.009555 0.033196 0.005933
# 6 0.004695 0.000624 -0.002416 -0.008510 0.005933 0.021340
#
#
# Mechanical properties :
#
#
# Convention : Reuss Voigt Hill
#
# Bulk Modulus (GPa) = 40.92026 93.73386 67.32706
# Shear Modulus (GPa) = 34.87897 50.58764 42.73330
#
# Velocity S-wave (km/s) = 3.48159 4.19293 3.85371
# Velocity P-wave (km/s) = 5.51207 7.48439 6.57263
#
# Compressibility (1/GPa) = 0.02443777
#
# Stress axis : x y z
#
# Youngs Moduli (GPa) = 38.47070 183.22168 140.02351
#
# Poissons Ratio (x) = 0.84809 -0.04367
# Poissons Ratio (y) = 0.17807 0.38660
# Poissons Ratio (z) = -0.01200 0.50586
#
# Static dielectric constant tensor:
#      x y z
#    x 5.635740 -0.108620 -0.044910 
#    y -0.108620 6.111240 -0.416560 
#    z -0.044910 -0.416560 5.596520 
# 
# 
# High freq. dielectric constant tensor:
#      x y z
#    x 2.210610 -0.012040 0.004310 
#    y -0.012040 2.208590 0.000120 
#    z 0.004310 0.000120 2.148610 
# 
# From -- ./inp_files/181203.got.cif
#   From: 2010.06.25/outbox.cif.g09.slc.cpg/sg2_91_cif.got.tgz:181203.got - 2010.06.27 13:26:56.
