data_PCOD8043290
_publ_section_title
;
Structure prediction by ZEFSAII (Michael W. Deem and Ramdas Pophale) SiO2 
 PCOD8043290
Probable space group: P -1
;
_chemical_formula_sum "Si O2"
_cell_formula_units_Z 16
_cell_length_a 26.016029
_cell_length_b 21.038915
_cell_length_c 9.469372
_cell_angle_alpha 150.448827
_cell_angle_beta 139.101241
_cell_angle_gamma 18.742947
_cell_volume 742.141211
_symmetry_space_group_name_H-M "P -1"
_symmetry_group_IT_number 2
_symmetry_cell_setting 'triclinic'
loop_
_space_group_symop_operation_xyz
x,y,z
-x,-y,-z
loop_
_atom_site_type_symbol
_atom_site_label
_atom_site_fract_x
_atom_site_fract_y
_atom_site_fract_z
Si Si1 0.154253 0.277281 0.003586
Si Si2 0.040161 0.212948 0.291242
Si Si3 0.718110 0.278461 0.613543
Si Si4 0.674413 0.819387 0.043507
Si Si5 0.943017 0.846929 0.468943
Si Si6 0.634272 0.916074 0.464693
Si Si7 0.682514 0.127888 0.018476
Si Si8 0.741931 0.528955 0.120974
O O1 0.091157 0.468450 0.363603
O O2 0.323021 0.079673 0.883590
O O3 0.167624 0.109260 0.752424
O O4 0.000000 0.500000 0.000000
O O5 0.924966 0.272674 0.091202
O O6 0.100668 0.075163 0.305370
O O7 0.219501 0.981912 0.135308
O O8 0.767587 0.091470 0.246654
O O9 0.525589 0.535190 0.777922
O O10 0.861439 0.081530 0.658892
O O11 0.726513 0.404107 0.792298
O O12 0.667994 0.894399 0.328126
O O13 0.845506 0.474432 0.727397
O O14 0.500000 0.000000 0.000000
O O15 0.741895 0.631609 0.190152
O O16 0.425976 0.195395 0.594141
O O17 0.701580 0.946664 0.744424
#
# Coordination Sequence:
#
# PCOD8043290 Si02
#       8
#     2   2   2   2   2   2   2   2
#     4   8  17  34  57  86 118 143 192 248 287 338
#     4  10  20  37  61  90 113 154 199 254 286 351
#     4  10  24  43  56  86 124 164 191 247 299 360
#     4  10  19  36  60  95 121 149 195 251 296 349
#     4  10  21  38  61  86 123 157 194 242 307 345
#     4  10  20  39  63  88 113 163 201 245 293 347
#     4  10  22  41  64  83 119 156 209 242 289 357
#     4  10  23  38  59  86 127 150 201 248 298 349
#
# _framework density 21.559239999999999
#
# number of rings (size 3 to 8) (size 9 to 14) (size 15 to 20)
#    0.000    2.500    0.000    3.750    3.500    2.000 
#    4.500    0.000    0.000    0.000    0.000    0.000 
#    0.000    0.000    0.000    0.000    0.000    0.000 
#
# Total GULP energy -198257.310287 kJ/mol
# GULP energy per Si atom -12391.081893 kJ/mol
# Density = 2.151017 g / cm^3
# Si number density = 21.559240 Si / 1000 Ang^3
#
#
#
# Elastic Constant Matrix: (Units=GPa)
#
#
# Indices 1 2 3 4 5 6 
#
# 1 91.4125 43.4816 58.3109 4.8970 -2.6741 -6.5349
# 2 43.4816 93.5768 32.8251 -7.2207 7.0739 -10.3747
# 3 58.3109 32.8251 91.1360 -13.8324 -2.8818 -7.5312
# 4 4.8970 -7.2207 -13.8324 25.7407 -6.7332 1.8389
# 5 -2.6741 7.0739 -2.8818 -6.7332 33.6731 3.1525
# 6 -6.5349 -10.3747 -7.5312 1.8389 3.1525 36.6562
#
#
#
# Elastic Compliance Matrix: (Units=1/GPa)
#
#
# Indices 1 2 3 4 5 6 
#
# 1 0.025556 -0.007360 -0.016135 -0.015856 -0.000979 0.000038
# 2 -0.007360 0.014967 0.000179 0.004682 -0.003057 0.002989
# 3 -0.016135 0.000179 0.024018 0.017023 0.004055 0.000906
# 4 -0.015856 0.004682 0.017023 0.055166 0.010401 -0.001666
# 5 -0.000979 -0.003057 0.004055 0.010401 0.033023 -0.003568
# 6 0.000038 0.002989 0.000906 -0.001666 -0.003568 0.028710
#
#
# Mechanical properties :
#
#
# Convention : Reuss Voigt Hill
#
# Bulk Modulus (GPa) = 55.83432 60.59559 58.21496
# Shear Modulus (GPa) = 21.36373 28.64783 25.00578
#
# Velocity S-wave (km/s) = 3.15132 3.64922 3.40937
# Velocity P-wave (km/s) = 6.26062 6.77667 6.52375
#
# Compressibility (1/GPa) = 0.01791013
#
# Stress axis : x y z
#
# Youngs Moduli (GPa) = 39.12962 66.81208 41.63531
#
# Poissons Ratio (x) = 0.49177 0.67177
# Poissons Ratio (y) = 0.28801 -0.00747
# Poissons Ratio (z) = 0.63134 -0.01199
#
# Static dielectric constant tensor:
#      x y z
#    x 4.680270 -0.698570 1.339030 
#    y -0.698570 3.827800 -0.498570 
#    z 1.339030 -0.498570 5.158750 
# 
# 
# High freq. dielectric constant tensor:
#      x y z
#    x 1.842870 -0.018440 -0.002480 
#    y -0.018440 1.838280 -0.010160 
#    z -0.002480 -0.010160 1.834590 
# 
# From -- ./inp_files/355323.got.cif
#   From: 2010.06.25/outbox.cif.g09.slc.cpg/sg2_178_cif.got.tgz:355323.got - 2010.06.27 13:26:56.
