data_PCOD8043741
_publ_section_title
;
Structure prediction by ZEFSAII (Michael W. Deem and Ramdas Pophale) SiO2 
 PCOD8043741
Probable space group: P -1
;
_chemical_formula_sum "Si O2"
_cell_formula_units_Z 14
_cell_length_a 5.141738
_cell_length_b 20.961250
_cell_length_c 9.591774
_cell_angle_alpha 48.678049
_cell_angle_beta 121.222523
_cell_angle_gamma 102.120252
_cell_volume 649.685691
_symmetry_space_group_name_H-M "P -1"
_symmetry_group_IT_number 2
_symmetry_cell_setting 'triclinic'
loop_
_space_group_symop_operation_xyz
x,y,z
-x,-y,-z
loop_
_atom_site_type_symbol
_atom_site_label
_atom_site_fract_x
_atom_site_fract_y
_atom_site_fract_z
Si Si1 0.364468 0.996554 0.622516
Si Si2 0.027646 0.402203 0.095484
Si Si3 0.371586 0.597426 0.278016
Si Si4 0.173745 0.144843 0.874794
Si Si5 0.339478 0.596154 0.769143
Si Si6 0.521086 0.086443 0.796982
Si Si7 0.966014 0.664488 0.319500
O O1 0.500000 0.000000 0.500000
O O2 0.402683 0.077722 0.617085
O O3 0.547882 0.908888 0.875161
O O4 0.000000 0.000000 0.500000
O O5 0.851330 0.352842 0.228499
O O6 0.388386 0.352850 0.266546
O O7 0.895537 0.401926 0.907146
O O8 0.000000 0.500000 0.000000
O O9 0.500000 0.500000 0.500000
O O10 0.207392 0.656591 0.272083
O O11 0.640195 0.640065 0.223533
O O12 0.292726 0.156227 0.731491
O O13 0.873612 0.100526 0.864066
O O14 0.074720 0.239908 0.771714
O O15 0.114819 0.593980 0.579436
O O16 0.500000 0.500000 0.000000
O O17 0.500000 0.000000 0.000000
#
# Coordination Sequence:
#
# PCOD8043741 Si02
#       7
#     2   2   2   2   2   2   2
#     4  11  21  38  66  96 125 163 205 251 296 364
#     4  10  20  36  57  81 109 145 200 260 297 353
#     4  12  23  40  63  89 119 166 217 257 312 381
#     4  11  23  42  62  93 131 163 205 253 310 374
#     4  10  19  37  58  81 111 153 201 244 296 361
#     4  10  20  40  67  92 123 171 208 238 296 387
#     4  12  25  41  63  92 125 163 204 269 320 354
#
# _framework density 21.548878999999999
#
# number of rings (size 3 to 8) (size 9 to 14) (size 15 to 20)
#    0.000    1.143    0.000   10.714    0.000    0.000 
#    0.000    8.571    0.000    0.000    0.000    0.000 
#    0.000    0.000    0.000    0.000    0.000    0.000 
#
# Total GULP energy -173467.877974 kJ/mol
# GULP energy per Si atom -12390.562712 kJ/mol
# Density = 2.149983 g / cm^3
# Si number density = 21.548879 Si / 1000 Ang^3
#
#
#
# Elastic Constant Matrix: (Units=GPa)
#
#
# Indices 1 2 3 4 5 6 
#
# 1 193.1516 42.0684 40.3876 17.1104 14.3628 -14.1301
# 2 42.0684 109.6877 40.4461 16.4867 8.2488 -13.5463
# 3 40.3876 40.4461 81.8350 29.0434 7.5989 -7.2904
# 4 17.1104 16.4867 29.0434 31.2893 -3.6655 -5.5421
# 5 14.3628 8.2488 7.5989 -3.6655 34.4244 13.9383
# 6 -14.1301 -13.5463 -7.2904 -5.5421 13.9383 44.2600
#
#
#
# Elastic Compliance Matrix: (Units=1/GPa)
#
#
# Indices 1 2 3 4 5 6 
#
# 1 0.006254 -0.001118 -0.001592 -0.001321 -0.003011 0.002175
# 2 -0.001118 0.011982 -0.004261 -0.001502 -0.002985 0.003360
# 3 -0.001592 -0.004261 0.022069 -0.017787 -0.005635 0.001370
# 4 -0.001321 -0.001502 -0.017787 0.051091 0.010579 -0.000745
# 5 -0.003011 -0.002985 -0.005635 0.010579 0.038957 -0.013747
# 6 0.002175 0.003360 0.001370 -0.000745 -0.013747 0.028778
#
#
# Mechanical properties :
#
#
# Convention : Reuss Voigt Hill
#
# Bulk Modulus (GPa) = 37.93081 70.05318 53.99199
# Shear Modulus (GPa) = 27.49381 39.44622 33.47001
#
# Velocity S-wave (km/s) = 3.57582 4.28313 3.94536
# Velocity P-wave (km/s) = 5.88975 7.55247 6.77233
#
# Compressibility (1/GPa) = 0.02636380
#
# Stress axis : x y z
#
# Youngs Moduli (GPa) = 159.90730 83.45994 45.31229
#
# Poissons Ratio (x) = 0.09330 0.07212
# Poissons Ratio (y) = 0.17877 0.19306
# Poissons Ratio (z) = 0.25452 0.35560
#
# Static dielectric constant tensor:
#      x y z
#    x 4.088760 -0.226530 0.252270 
#    y -0.226530 4.048660 0.297230 
#    z 0.252270 0.297230 3.824240 
# 
# 
# High freq. dielectric constant tensor:
#      x y z
#    x 1.885350 -0.013170 0.008780 
#    y -0.013170 1.832890 0.026080 
#    z 0.008780 0.026080 1.828670 
# 
# From -- ./inp_files/138822.got.cif
#   From: 2010.06.25/outbox.cif.g09.slc.cpg/sg2_70_cif.got.tgz:138822.got - 2010.06.27 13:26:56.
