data_PCOD8043721
_publ_section_title
;
Structure prediction by ZEFSAII (Michael W. Deem and Ramdas Pophale) SiO2 
 PCOD8043721
Probable space group: P -1
;
_chemical_formula_sum "Si O2"
_cell_formula_units_Z 16
_cell_length_a 12.762395
_cell_length_b 10.302369
_cell_length_c 18.260836
_cell_angle_alpha 123.463458
_cell_angle_beta 152.443254
_cell_angle_gamma 45.358302
_cell_volume 771.426431
_symmetry_space_group_name_H-M "P -1"
_symmetry_group_IT_number 2
_symmetry_cell_setting 'triclinic'
loop_
_space_group_symop_operation_xyz
x,y,z
-x,-y,-z
loop_
_atom_site_type_symbol
_atom_site_label
_atom_site_fract_x
_atom_site_fract_y
_atom_site_fract_z
Si Si1 0.881791 0.286284 0.484787
Si Si2 0.884555 0.511868 0.227382
Si Si3 0.296153 0.880543 0.556405
Si Si4 0.875517 0.733718 0.833157
Si Si5 0.592451 0.095029 0.677892
Si Si6 0.196904 0.973220 0.367458
Si Si7 0.448383 0.561551 0.190916
Si Si8 0.675379 0.309447 0.116765
O O1 0.807924 0.222086 0.492380
O O2 0.610147 0.403218 0.303812
O O3 0.979071 0.421145 0.610474
O O4 0.118356 0.104222 0.531092
O O5 0.864573 0.341948 0.191226
O O6 0.059880 0.430535 0.235790
O O7 0.573250 0.686537 0.075003
O O8 0.614497 0.792994 0.740331
O O9 0.275827 0.838531 0.444578
O O10 0.817804 0.913602 0.806928
O O11 0.121868 0.659409 0.020702
O O12 0.329069 0.092860 0.497114
O O13 0.487076 0.280747 0.716358
O O14 0.707456 0.127090 0.683164
O O15 0.869680 0.106342 0.208866
O O16 0.549357 0.475611 0.147712
#
# Coordination Sequence:
#
# PCOD8043721 Si02
#       8
#     2   2   2   2   2   2   2   2
#     4  11  24  42  62  85 116 160 209 238 285 350
#     4  10  22  37  61  90 120 154 191 243 297 356
#     4  10  24  42  61  82 121 159 201 249 287 335
#     4  10  22  41  59  88 126 152 187 248 300 347
#     4  10  21  34  59  91 122 150 193 241 302 358
#     4  10  19  37  57  85 120 155 189 247 297 344
#     4  11  23  36  62  91 118 155 198 238 297 355
#     4  10  20  37  59  90 123 149 188 246 302 351
#
# _framework density 20.740798999999999
#
# number of rings (size 3 to 8) (size 9 to 14) (size 15 to 20)
#    0.000    1.750    2.500    1.125    7.000    3.000 
#    0.000    0.625    0.000    0.000    0.000    0.000 
#    0.000    0.000    0.000    0.000    0.000    0.000 
#
# Total GULP energy -198319.511825 kJ/mol
# GULP energy per Si atom -12394.969489 kJ/mol
# Density = 2.069359 g / cm^3
# Si number density = 20.740799 Si / 1000 Ang^3
#
#
#
# Elastic Constant Matrix: (Units=GPa)
#
#
# Indices 1 2 3 4 5 6 
#
# 1 81.0114 5.4287 28.3782 -5.3142 7.1734 3.4773
# 2 5.4287 39.4117 24.2831 -13.2304 1.6264 -0.2711
# 3 28.3782 24.2831 120.2513 -30.6390 -3.7888 -3.0622
# 4 -5.3142 -13.2304 -30.6390 32.7680 -5.8268 -1.9160
# 5 7.1734 1.6264 -3.7888 -5.8268 28.2519 -3.4832
# 6 3.4773 -0.2711 -3.0622 -1.9160 -3.4832 16.9816
#
#
#
# Elastic Compliance Matrix: (Units=1/GPa)
#
#
# Indices 1 2 3 4 5 6 
#
# 1 0.014444 -0.000092 -0.004522 -0.003225 -0.005585 -0.005284
# 2 -0.000092 0.030765 -0.003983 0.008649 -0.000414 0.000683
# 3 -0.004522 -0.003983 0.013547 0.011803 0.006361 0.005942
# 4 -0.003225 0.008649 0.011803 0.047484 0.013049 0.010961
# 5 -0.005585 -0.000414 0.006361 0.013049 0.041905 0.012352
# 6 -0.005284 0.000683 0.005942 0.010961 0.012352 0.064822
#
#
# Mechanical properties :
#
#
# Convention : Reuss Voigt Hill
#
# Bulk Modulus (GPa) = 24.06066 39.65048 31.85557
# Shear Modulus (GPa) = 20.49050 27.77258 24.13154
#
# Velocity S-wave (km/s) = 3.14655 3.66325 3.41468
# Velocity P-wave (km/s) = 4.98265 6.08697 5.56228
#
# Compressibility (1/GPa) = 0.04156162
#
# Stress axis : x y z
#
# Youngs Moduli (GPa) = 69.23232 32.50438 73.81908
#
# Poissons Ratio (x) = 0.00298 0.33385
# Poissons Ratio (y) = 0.00635 0.29401
# Poissons Ratio (z) = 0.31310 0.12946
#
# Static dielectric constant tensor:
#      x y z
#    x 3.781580 -0.206650 -0.067010 
#    y -0.206650 3.462780 -0.309820 
#    z -0.067010 -0.309820 3.922590 
# 
# 
# High freq. dielectric constant tensor:
#      x y z
#    x 1.807190 -0.022710 -0.007850 
#    y -0.022710 1.785580 -0.027180 
#    z -0.007850 -0.027180 1.818240 
# 
# From -- ./inp_files/208196.got.cif
#   From: 2010.06.25/outbox.cif.g09.slc.cpg/sg2_105_cif.got.tgz:208196.got - 2010.06.27 13:26:56.
