data_PCOD8043536
_publ_section_title
;
Structure prediction by ZEFSAII (Michael W. Deem and Ramdas Pophale) SiO2 
 PCOD8043536
Probable space group: P -1
;
_chemical_formula_sum "Si O2"
_cell_formula_units_Z 16
_cell_length_a 24.560807
_cell_length_b 11.658676
_cell_length_c 18.150961
_cell_angle_alpha 27.847485
_cell_angle_beta 20.144359
_cell_angle_gamma 27.049081
_cell_volume 774.709447
_symmetry_space_group_name_H-M "P -1"
_symmetry_group_IT_number 2
_symmetry_cell_setting 'triclinic'
loop_
_space_group_symop_operation_xyz
x,y,z
-x,-y,-z
loop_
_atom_site_type_symbol
_atom_site_label
_atom_site_fract_x
_atom_site_fract_y
_atom_site_fract_z
Si Si1 0.187275 0.129039 0.483807
Si Si2 0.431623 0.137253 0.835209
Si Si3 0.332512 0.697457 0.292561
Si Si4 0.897247 0.208783 0.340597
Si Si5 0.584415 0.689781 0.090160
Si Si6 0.836647 0.359335 0.852490
Si Si7 0.252222 0.224930 0.865315
Si Si8 0.549160 0.160917 0.284382
O O1 0.181427 0.423298 0.310509
O O2 0.034085 0.152753 0.721952
O O3 0.370198 0.976390 0.375628
O O4 0.167037 0.985331 0.515359
O O5 0.411941 0.351951 0.803037
O O6 0.316813 0.281347 0.830610
O O7 0.364350 0.920866 0.077672
O O8 0.148589 0.803780 0.506544
O O9 0.462223 0.575151 0.266757
O O10 0.384240 0.435902 0.323843
O O11 0.810365 0.507659 0.253091
O O12 0.100788 0.115516 0.130671
O O13 0.776764 0.525989 0.909966
O O14 0.500000 0.000000 0.000000
O O15 0.722272 0.196075 0.068538
O O16 0.410183 0.000089 0.752310
O O17 0.500000 0.000000 0.500000
#
# Coordination Sequence:
#
# PCOD8043536 Si02
#       8
#     2   2   2   2   2   2   2   2
#     4  11  19  36  63  90 122 156 209 259 298 361
#     4  11  21  38  61  95 124 154 206 272 301 355
#     4  10  19  36  64  87 115 166 212 242 302 372
#     4  11  22  42  62  84 123 172 207 246 309 390
#     4   9  15  33  57  86 114 152 196 243 293 357
#     4  10  20  34  63  94 113 162 214 246 299 369
#     4  11  26  39  58  93 128 161 205 255 321 365
#     4  11  20  39  62  87 121 167 206 244 304 387
#
# _framework density 20.652903999999999
#
# number of rings (size 3 to 8) (size 9 to 14) (size 15 to 20)
#    0.000    1.500    7.500    0.750    0.000    1.500 
#    0.000    1.250    0.000    1.500    0.000    0.000 
#    0.000    0.000    0.000    0.000    0.000    0.000 
#
# Total GULP energy -198244.680855 kJ/mol
# GULP energy per Si atom -12390.292553 kJ/mol
# Density = 2.060590 g / cm^3
# Si number density = 20.652904 Si / 1000 Ang^3
#
#
#
# Elastic Constant Matrix: (Units=GPa)
#
#
# Indices 1 2 3 4 5 6 
#
# 1 69.9601 12.0492 8.3420 13.3904 1.7140 9.6765
# 2 12.0492 62.1390 19.6929 20.7435 10.6510 23.7824
# 3 8.3420 19.6929 104.6359 15.6039 4.4103 4.5944
# 4 13.3904 20.7435 15.6039 35.0217 12.6204 4.2771
# 5 1.7140 10.6510 4.4103 12.6204 23.1881 9.5933
# 6 9.6765 23.7824 4.5944 4.2771 9.5933 24.8514
#
#
#
# Elastic Compliance Matrix: (Units=1/GPa)
#
#
# Indices 1 2 3 4 5 6 
#
# 1 0.016820 0.002461 -0.000318 -0.008931 0.006630 -0.009868
# 2 0.002461 0.033953 -0.002674 -0.018970 0.008734 -0.033063
# 3 -0.000318 -0.002674 0.010509 -0.003332 0.000623 0.001073
# 4 -0.008931 -0.018970 -0.003332 0.051918 -0.028272 0.024225
# 5 0.006630 0.008734 0.000623 -0.028272 0.067183 -0.032124
# 6 -0.009868 -0.033063 0.001073 0.024225 -0.032124 0.083755
#
#
# Mechanical properties :
#
#
# Convention : Reuss Voigt Hill
#
# Bulk Modulus (GPa) = 16.60603 35.21147 25.90875
# Shear Modulus (GPa) = 17.52707 29.72232 23.62469
#
# Velocity S-wave (km/s) = 2.91632 3.79771 3.38582
# Velocity P-wave (km/s) = 4.40430 6.02630 5.27798
#
# Compressibility (1/GPa) = 0.06021909
#
# Stress axis : x y z
#
# Youngs Moduli (GPa) = 59.45399 29.45273 95.15544
#
# Poissons Ratio (x) = -0.07248 0.03030
# Poissons Ratio (y) = -0.14632 0.25442
# Poissons Ratio (z) = 0.01893 0.07875
#
# Static dielectric constant tensor:
#      x y z
#    x 3.704730 0.609390 0.074460 
#    y 0.609390 4.069470 0.442970 
#    z 0.074460 0.442970 4.134180 
# 
# 
# High freq. dielectric constant tensor:
#      x y z
#    x 1.761970 0.036650 0.005440 
#    y 0.036650 1.805150 0.012050 
#    z 0.005440 0.012050 1.824160 
# 
# From -- ./inp_files/579219.got.cif
#   From: 2010.06.25/outbox.cif.g09.slc.cpg/sg2_290_cif.got.tgz:579219.got - 2010.06.27 13:26:56.
