data_PCOD8043651
_publ_section_title
;
Structure prediction by ZEFSAII (Michael W. Deem and Ramdas Pophale) SiO2 
 PCOD8043651
Probable space group: P -1
;
_chemical_formula_sum "Si O2"
_cell_formula_units_Z 14
_cell_length_a 20.096806
_cell_length_b 13.596279
_cell_length_c 13.469360
_cell_angle_alpha 148.459368
_cell_angle_beta 26.211384
_cell_angle_gamma 157.068560
_cell_volume 626.099524
_symmetry_space_group_name_H-M "P -1"
_symmetry_group_IT_number 2
_symmetry_cell_setting 'triclinic'
loop_
_space_group_symop_operation_xyz
x,y,z
-x,-y,-z
loop_
_atom_site_type_symbol
_atom_site_label
_atom_site_fract_x
_atom_site_fract_y
_atom_site_fract_z
Si Si1 0.632953 0.235397 0.792851
Si Si2 0.620545 0.815791 0.387122
Si Si3 0.818440 0.102875 0.820136
Si Si4 0.272500 0.828238 0.193185
Si Si5 0.674042 0.644581 0.973544
Si Si6 0.869540 0.907241 0.299805
Si Si7 0.796443 0.668072 0.386130
O O1 0.756430 0.350471 0.833407
O O2 0.703912 0.465664 0.827886
O O3 0.690866 0.092252 0.534603
O O4 0.389138 0.030849 0.958533
O O5 0.781876 0.810685 0.222226
O O6 0.401008 0.612538 0.558098
O O7 0.609762 0.744398 0.226346
O O8 0.861106 0.286169 0.828382
O O9 0.006925 0.281995 0.796638
O O10 0.799250 0.878057 0.608241
O O11 0.242155 0.000233 0.434939
O O12 0.500000 0.000000 0.000000
O O13 0.500000 0.500000 0.000000
O O14 0.885880 0.876766 0.837749
O O15 0.802335 0.681677 0.269374
#
# Coordination Sequence:
#
# PCOD8043651 Si02
#       7
#     2   2   2   2   2   2   2
#     4  10  21  41  64  92 132 166 217 264 317 385
#     4  11  24  41  67  94 130 167 219 267 319 380
#     4   9  17  34  63  94 130 163 215 261 322 377
#     4   8  17  33  60  92 122 162 206 260 308 373
#     4  12  26  44  69  91 130 180 211 263 324 384
#     4  10  22  40  65  97 133 170 217 259 322 386
#     4  10  19  36  68  97 126 170 211 269 323 376
#
# _framework density 22.360662000000001
#
# number of rings (size 3 to 8) (size 9 to 14) (size 15 to 20)
#    0.000    2.000    1.429    1.714    4.000    3.429 
#    2.571    0.000    6.286    0.000    0.000    0.000 
#    0.000    0.000    0.000    0.000    0.000    0.000 
#
# Total GULP energy -173497.409432 kJ/mol
# GULP energy per Si atom -12392.672102 kJ/mol
# Density = 2.230977 g / cm^3
# Si number density = 22.360662 Si / 1000 Ang^3
#
#
#
# Elastic Constant Matrix: (Units=GPa)
#
#
# Indices 1 2 3 4 5 6 
#
# 1 119.4388 -10.0874 26.7691 0.4911 -2.5504 -4.8548
# 2 -10.0874 37.3695 15.7727 -9.4173 0.8300 -14.0431
# 3 26.7691 15.7727 75.0656 -10.7444 4.5089 -6.6833
# 4 0.4911 -9.4173 -10.7444 24.7199 -0.6259 -11.0842
# 5 -2.5504 0.8300 4.5089 -0.6259 32.8373 -4.5455
# 6 -4.8548 -14.0431 -6.6833 -11.0842 -4.5455 37.5114
#
#
#
# Elastic Compliance Matrix: (Units=1/GPa)
#
#
# Indices 1 2 3 4 5 6 
#
# 1 0.010102 0.006515 -0.004441 0.002097 0.001795 0.003792
# 2 0.006515 0.047775 -0.006416 0.027101 0.004311 0.026116
# 3 -0.004441 -0.006416 0.017364 0.005838 -0.002238 0.001571
# 4 0.002097 0.027101 0.005838 0.067736 0.004398 0.032006
# 5 0.001795 0.004311 -0.002238 0.004398 0.031788 0.006599
# 6 0.003792 0.026116 0.001571 0.032006 0.006599 0.047463
#
#
# Mechanical properties :
#
#
# Convention : Reuss Voigt Hill
#
# Bulk Modulus (GPa) = 15.02519 32.97586 24.00052
# Shear Modulus (GPa) = 19.75513 32.30835 26.03174
#
# Velocity S-wave (km/s) = 2.97556 3.80527 3.41570
# Velocity P-wave (km/s) = 4.30573 5.83833 5.12959
#
# Compressibility (1/GPa) = 0.06655491
#
# Stress axis : x y z
#
# Youngs Moduli (GPa) = 98.99007 20.93157 57.59125
#
# Poissons Ratio (x) = -0.13637 0.25579
# Poissons Ratio (y) = -0.64493 0.36953
# Poissons Ratio (z) = 0.43966 0.13431
#
# Static dielectric constant tensor:
#      x y z
#    x 4.810870 -0.167710 -0.128660 
#    y -0.167710 3.573470 -0.062740 
#    z -0.128660 -0.062740 3.967170 
# 
# 
# High freq. dielectric constant tensor:
#      x y z
#    x 1.903420 -0.006530 -0.007400 
#    y -0.006530 1.844950 -0.003180 
#    z -0.007400 -0.003180 1.884290 
# 
# From -- ./inp_files/278949.got.cif
#   From: 2010.06.25/outbox.cif.g09.slc.cpg/sg2_140_cif.got.tgz:278949.got - 2010.06.27 13:26:56.
