data_PCOD8043348
_publ_section_title
;
Structure prediction by ZEFSAII (Michael W. Deem and Ramdas Pophale) SiO2 
 PCOD8043348
Probable space group: P -1
;
_chemical_formula_sum "Si O2"
_cell_formula_units_Z 14
_cell_length_a 10.627835
_cell_length_b 24.266733
_cell_length_c 18.716260
_cell_angle_alpha 157.242112
_cell_angle_beta 153.778892
_cell_angle_gamma 23.085935
_cell_volume 693.253371
_symmetry_space_group_name_H-M "P -1"
_symmetry_group_IT_number 2
_symmetry_cell_setting 'triclinic'
loop_
_space_group_symop_operation_xyz
x,y,z
-x,-y,-z
loop_
_atom_site_type_symbol
_atom_site_label
_atom_site_fract_x
_atom_site_fract_y
_atom_site_fract_z
Si Si1 0.048297 0.563203 0.025099
Si Si2 0.145372 0.004014 0.002403
Si Si3 0.242181 0.470777 0.490393
Si Si4 0.265160 0.050400 0.677989
Si Si5 0.127841 0.206601 0.413387
Si Si6 0.210750 0.636647 0.817921
Si Si7 0.225114 0.578916 0.391349
O O1 0.438704 0.443045 0.055680
O O2 0.941890 0.753475 0.212213
O O3 0.000000 0.500000 0.000000
O O4 0.826548 0.554704 0.837906
O O5 0.132588 0.855531 0.778795
O O6 0.510531 0.977972 0.170502
O O7 0.000000 0.000000 0.000000
O O8 0.910007 0.176807 0.046339
O O9 0.294365 0.508688 0.642508
O O10 0.613549 0.354112 0.503739
O O11 0.012023 0.650138 0.547384
O O12 0.064156 0.364163 0.271487
O O13 0.498260 0.943431 0.600553
O O14 0.000000 0.000000 0.500000
O O15 0.126960 0.279531 0.579483
O O16 0.500000 0.500000 0.500000
#
# Coordination Sequence:
#
# PCOD8043348 Si02
#       7
#     2   2   2   2   2   2   2
#     4  12  23  38  63  96 119 158 214 254 294 366
#     4  10  19  37  60  86 120 163 207 240 302 368
#     4  10  19  36  61  89 117 162 199 251 306 355
#     4  11  22  36  59  94 124 156 202 256 304 360
#     4  10  20  40  62  84 120 167 205 243 302 373
#     4  11  21  35  62  91 122 150 209 261 295 349
#     4  10  22  40  63  89 124 167 205 247 308 375
#
# _framework density 20.194638000000001
#
# number of rings (size 3 to 8) (size 9 to 14) (size 15 to 20)
#    0.000    1.429    4.286    4.286    2.000    0.000 
#    0.000   11.429    0.000    0.000    0.000    0.000 
#    0.000    0.000    0.000    0.000    0.000    0.000 
#
# Total GULP energy -173448.959465 kJ/mol
# GULP energy per Si atom -12389.211390 kJ/mol
# Density = 2.014867 g / cm^3
# Si number density = 20.194638 Si / 1000 Ang^3
#
#
#
# Elastic Constant Matrix: (Units=GPa)
#
#
# Indices 1 2 3 4 5 6 
#
# 1 95.9584 35.4036 60.4700 5.2043 12.1425 -15.9554
# 2 35.4036 105.9551 41.9011 9.6617 16.2065 7.2731
# 3 60.4700 41.9011 122.2327 2.9282 19.6046 1.2646
# 4 5.2043 9.6617 2.9282 35.2639 -1.0206 3.4501
# 5 12.1425 16.2065 19.6046 -1.0206 35.5906 -2.0797
# 6 -15.9554 7.2731 1.2646 3.4501 -2.0797 24.2518
#
#
#
# Elastic Compliance Matrix: (Units=1/GPa)
#
#
# Indices 1 2 3 4 5 6 
#
# 1 0.020036 -0.004180 -0.008684 -0.002569 0.000672 0.015311
# 2 -0.004180 0.012692 -0.001528 -0.002212 -0.003955 -0.006501
# 3 -0.008684 -0.001528 0.013724 0.001072 -0.004249 -0.006487
# 4 -0.002569 -0.002212 0.001072 0.029813 0.001846 -0.005166
# 5 0.000672 -0.003955 -0.004249 0.001846 0.032317 0.004359
# 6 0.015311 -0.006501 -0.006487 -0.005166 0.004359 0.054704
#
#
# Mechanical properties :
#
#
# Convention : Reuss Voigt Hill
#
# Bulk Modulus (GPa) = 56.60135 66.63284 61.61710
# Shear Modulus (GPa) = 25.25784 31.44603 28.35193
#
# Velocity S-wave (km/s) = 3.54039 3.95035 3.75098
# Velocity P-wave (km/s) = 6.69337 7.33989 7.02407
#
# Compressibility (1/GPa) = 0.01766742
#
# Stress axis : x y z
#
# Youngs Moduli (GPa) = 49.91091 78.79008 72.86584
#
# Poissons Ratio (x) = 0.32936 0.63274
# Poissons Ratio (y) = 0.20864 0.11136
# Poissons Ratio (z) = 0.43341 0.12041
#
# Static dielectric constant tensor:
#      x y z
#    x 3.999860 -0.293200 -0.111810 
#    y -0.293200 3.790040 -0.053920 
#    z -0.111810 -0.053920 4.528010 
# 
# 
# High freq. dielectric constant tensor:
#      x y z
#    x 1.772290 -0.006480 0.014240 
#    y -0.006480 1.777380 -0.000030 
#    z 0.014240 -0.000030 1.792610 
# 
# From -- ./inp_files/199718.got.cif
#   From: 2010.06.25/outbox.cif.g09.slc.cpg/sg2_100_cif.got.tgz:199718.got - 2010.06.27 13:26:56.
