data_PCOD8043201
_publ_section_title
;
Structure prediction by ZEFSAII (Michael W. Deem and Ramdas Pophale) SiO2 
 PCOD8043201
Probable space group: P -1
;
_chemical_formula_sum "Si O2"
_cell_formula_units_Z 12
_cell_length_a 7.595233
_cell_length_b 13.592655
_cell_length_c 7.557436
_cell_angle_alpha 69.280587
_cell_angle_beta 57.736582
_cell_angle_gamma 95.686414
_cell_volume 574.741681
_symmetry_space_group_name_H-M "P -1"
_symmetry_group_IT_number 2
_symmetry_cell_setting 'triclinic'
loop_
_space_group_symop_operation_xyz
x,y,z
-x,-y,-z
loop_
_atom_site_type_symbol
_atom_site_label
_atom_site_fract_x
_atom_site_fract_y
_atom_site_fract_z
Si Si1 0.344026 0.518507 0.827547
Si Si2 0.077474 0.125223 0.807501
Si Si3 0.186117 0.462937 0.330759
Si Si4 0.955673 0.213037 0.484989
Si Si5 0.826369 0.726764 0.025254
Si Si6 0.457999 0.741777 0.426640
O O1 0.598258 0.521138 0.671446
O O2 0.317220 0.622053 0.669590
O O3 0.276274 0.531442 0.057632
O O4 0.174295 0.400592 0.910957
O O5 0.347535 0.177199 0.599749
O O6 0.953730 0.120060 0.690360
O O7 0.020430 0.206013 0.933758
O O8 0.000000 0.000000 0.000000
O O9 0.000000 0.500000 0.500000
O O10 0.074742 0.331425 0.439668
O O11 0.704156 0.193041 0.576343
O O12 0.089740 0.203310 0.244293
O O13 0.572038 0.719818 0.198706
#
# Coordination Sequence:
#
# PCOD8043201 Si02
#       6
#     2   2   2   2   2   2
#     4  10  19  36  59  91 131 158 197 245 300 365
#     4  10  24  45  63  87 123 159 209 264 299 353
#     4  10  20  33  60  95 127 165 193 240 306 370
#     4  11  22  41  63  92 121 163 204 245 313 360
#     4   9  22  40  62  92 126 158 200 254 297 364
#     4  10  22  39  63  92 123 159 202 250 300 368
#
# _framework density 20.878947
#
# number of rings (size 3 to 8) (size 9 to 14) (size 15 to 20)
#    1.000    1.000    1.667    1.500    0.000    8.000 
#    3.000    0.833    0.000    0.000    0.000    0.000 
#    0.000    0.000    0.000    0.000    0.000    0.000 
#
# Total GULP energy -148729.589258 kJ/mol
# GULP energy per Si atom -12394.132438 kJ/mol
# Density = 2.083143 g / cm^3
# Si number density = 20.878947 Si / 1000 Ang^3
#
#
#
# Elastic Constant Matrix: (Units=GPa)
#
#
# Indices 1 2 3 4 5 6 
#
# 1 107.8049 34.0034 45.8231 -3.6355 15.2234 -19.9270
# 2 34.0034 44.5541 43.1104 -5.5880 0.4700 0.0221
# 3 45.8231 43.1104 126.7457 3.0473 19.1913 -22.1273
# 4 -3.6355 -5.5880 3.0473 36.5072 -6.4828 1.7235
# 5 15.2234 0.4700 19.1913 -6.4828 30.7874 -1.2067
# 6 -19.9270 0.0221 -22.1273 1.7235 -1.2067 28.1970
#
#
#
# Elastic Compliance Matrix: (Units=1/GPa)
#
#
# Indices 1 2 3 4 5 6 
#
# 1 0.017362 -0.017753 0.004241 -0.004059 -0.011209 0.015380
# 2 -0.017753 0.060649 -0.023746 0.015346 0.024666 -0.031110
# 3 0.004241 -0.023746 0.020249 -0.008526 -0.015417 0.018767
# 4 -0.004059 0.015346 -0.008526 0.032983 0.013601 -0.011005
# 5 -0.011209 0.024666 -0.015417 0.013601 0.049386 -0.018757
# 6 0.015380 -0.031110 0.018767 -0.011005 -0.018757 0.060956
#
#
# Mechanical properties :
#
#
# Convention : Reuss Voigt Hill
#
# Bulk Modulus (GPa) = 42.11232 58.33093 50.22162
# Shear Modulus (GPa) = 15.43142 29.50950 22.47046
#
# Velocity S-wave (km/s) = 2.72157 3.76355 3.28415
# Velocity P-wave (km/s) = 5.48539 6.84719 6.20377
#
# Compressibility (1/GPa) = 0.02374602
#
# Stress axis : x y z
#
# Youngs Moduli (GPa) = 57.59831 16.48819 49.38560
#
# Poissons Ratio (x) = 0.29271 -0.20946
# Poissons Ratio (y) = 1.02252 1.17269
# Poissons Ratio (z) = -0.24430 0.39152
#
# Static dielectric constant tensor:
#      x y z
#    x 4.123440 -0.496850 -0.029510 
#    y -0.496850 4.310020 0.219800 
#    z -0.029510 0.219800 3.906650 
# 
# 
# High freq. dielectric constant tensor:
#      x y z
#    x 1.804910 0.006410 0.002760 
#    y 0.006410 1.786580 0.006180 
#    z 0.002760 0.006180 1.825160 
# 
# From -- ./inp_files/165834.got.cif
#   From: 2010.06.25/outbox.cif.g09.slc.cpg/sg2_83_cif.got.tgz:165834.got - 2010.06.27 13:26:56.
