data_PCOD8043064
_publ_section_title
;
Structure prediction by ZEFSAII (Michael W. Deem and Ramdas Pophale) SiO2 
 PCOD8043064
Probable space group: P -1
;
_chemical_formula_sum "Si O2"
_cell_formula_units_Z 16
_cell_length_a 12.221947
_cell_length_b 13.622051
_cell_length_c 11.870497
_cell_angle_alpha 66.647693
_cell_angle_beta 46.039236
_cell_angle_gamma 105.458648
_cell_volume 748.092798
_symmetry_space_group_name_H-M "P -1"
_symmetry_group_IT_number 2
_symmetry_cell_setting 'triclinic'
loop_
_space_group_symop_operation_xyz
x,y,z
-x,-y,-z
loop_
_atom_site_type_symbol
_atom_site_label
_atom_site_fract_x
_atom_site_fract_y
_atom_site_fract_z
Si Si1 0.692151 0.545735 0.601978
Si Si2 0.246463 0.594202 0.216580
Si Si3 0.920933 0.058125 0.790725
Si Si4 0.907564 0.346992 0.875519
Si Si5 0.227710 0.805297 0.730609
Si Si6 0.913709 0.816276 0.850290
Si Si7 0.515145 0.064580 0.730957
Si Si8 0.228208 0.974046 0.328538
O O1 0.725121 0.513835 0.719494
O O2 0.842099 0.746190 0.400470
O O3 0.812859 0.532093 0.430255
O O4 0.389566 0.391427 0.857300
O O5 0.180579 0.584526 0.136421
O O6 0.000000 0.500000 0.500000
O O7 0.516572 0.804342 0.968761
O O8 0.942702 0.110219 0.623102
O O9 0.948008 0.946933 0.833865
O O10 0.635581 0.924548 0.108578
O O11 0.918081 0.354997 0.000737
O O12 0.684475 0.137636 0.085154
O O13 0.292751 0.781766 0.577026
O O14 0.045067 0.802588 0.840158
O O15 0.500000 0.000000 0.500000
O O16 0.055990 0.912873 0.585257
O O17 0.692176 0.105074 0.679383
#
# Coordination Sequence:
#
# PCOD8043064 Si02
#       8
#     2   2   2   2   2   2   2   2
#     4  10  21  36  56  93 124 149 197 242 301 351
#     4   9  17  33  58  88 119 152 196 238 286 360
#     4  11  21  36  60  91 122 155 193 247 297 353
#     4   8  16  33  58  84 114 161 197 238 289 351
#     4   9  18  38  64  83 112 163 203 239 299 350
#     4  11  23  38  61  91 119 158 196 245 298 356
#     4   8  17  32  57  85 114 153 202 241 284 351
#     4  10  19  36  57  85 124 159 194 234 299 359
#
# _framework density 21.387720999999999
#
# number of rings (size 3 to 8) (size 9 to 14) (size 15 to 20)
#    0.000    2.500    1.250    2.250    0.000    1.000 
#    0.000    5.625    0.000    1.500    0.000    0.000 
#    0.000    0.000    0.000    0.000    0.000    0.000 
#
# Total GULP energy -198287.599485 kJ/mol
# GULP energy per Si atom -12392.974968 kJ/mol
# Density = 2.133904 g / cm^3
# Si number density = 21.387721 Si / 1000 Ang^3
#
#
#
# Elastic Constant Matrix: (Units=GPa)
#
#
# Indices 1 2 3 4 5 6 
#
# 1 127.5869 20.6056 40.3045 11.3526 5.4594 -10.6218
# 2 20.6056 60.7323 31.0077 4.6382 -3.4709 -15.9547
# 3 40.3045 31.0077 102.0246 6.4753 -5.9017 -7.9771
# 4 11.3526 4.6382 6.4753 26.2940 6.9848 -3.5214
# 5 5.4594 -3.4709 -5.9017 6.9848 43.4956 4.5981
# 6 -10.6218 -15.9547 -7.9771 -3.5214 4.5981 14.7918
#
#
#
# Elastic Compliance Matrix: (Units=1/GPa)
#
#
# Indices 1 2 3 4 5 6 
#
# 1 0.009599 -0.000208 -0.003314 -0.002138 -0.001851 0.004949
# 2 -0.000208 0.026151 -0.006011 0.000772 -0.001520 0.025473
# 3 -0.003314 -0.006011 0.012943 -0.001705 0.002283 -0.002999
# 4 -0.002138 0.000772 -0.001705 0.042828 -0.007947 0.011045
# 5 -0.001851 -0.001520 0.002283 -0.007947 0.025923 -0.011687
# 6 0.004949 0.025473 -0.002999 0.011045 -0.011687 0.103280
#
#
# Mechanical properties :
#
#
# Convention : Reuss Voigt Hill
#
# Bulk Modulus (GPa) = 33.75045 52.68662 43.21853
# Shear Modulus (GPa) = 20.02673 30.14467 25.08570
#
# Velocity S-wave (km/s) = 3.06333 3.75832 3.42848
# Velocity P-wave (km/s) = 5.32227 6.59703 5.99364
#
# Compressibility (1/GPa) = 0.02962923
#
# Stress axis : x y z
#
# Youngs Moduli (GPa) = 104.17215 38.23906 77.25976
#
# Poissons Ratio (x) = 0.00794 0.25601
# Poissons Ratio (y) = 0.02163 0.46443
# Poissons Ratio (z) = 0.34519 0.22986
#
# Static dielectric constant tensor:
#      x y z
#    x 4.224220 -0.028280 0.277770 
#    y -0.028280 3.415940 0.180180 
#    z 0.277770 0.180180 4.259400 
# 
# 
# High freq. dielectric constant tensor:
#      x y z
#    x 1.837720 -0.002110 0.000580 
#    y -0.002110 1.796150 0.004920 
#    z 0.000580 0.004920 1.852690 
# 
# From -- ./inp_files/427962.got.cif
#   From: 2010.06.25/outbox.cif.g09.slc.cpg/sg2_214_cif.got.tgz:427962.got - 2010.06.27 13:26:56.
