data_PCOD8043588
_publ_section_title
;
Structure prediction by ZEFSAII (Michael W. Deem and Ramdas Pophale) SiO2 
 PCOD8043588
Probable space group: P -1
;
_chemical_formula_sum "Si O2"
_cell_formula_units_Z 16
_cell_length_a 12.426259
_cell_length_b 12.563204
_cell_length_c 11.441552
_cell_angle_alpha 68.918712
_cell_angle_beta 86.621555
_cell_angle_gamma 33.566614
_cell_volume 814.973630
_symmetry_space_group_name_H-M "P -1"
_symmetry_group_IT_number 2
_symmetry_cell_setting 'triclinic'
loop_
_space_group_symop_operation_xyz
x,y,z
-x,-y,-z
loop_
_atom_site_type_symbol
_atom_site_label
_atom_site_fract_x
_atom_site_fract_y
_atom_site_fract_z
Si Si1 0.561191 0.282169 0.997336
Si Si2 0.578286 0.697223 0.422014
Si Si3 0.838316 0.251547 0.032127
Si Si4 0.014227 0.388849 0.447596
Si Si5 0.655035 0.868101 0.652088
Si Si6 0.660171 0.237680 0.760677
Si Si7 0.599810 0.102252 0.271043
Si Si8 0.345379 0.503663 0.277008
O O1 0.728102 0.230900 0.030766
O O2 0.647620 0.091722 0.137776
O O3 0.310648 0.538042 0.952692
O O4 0.564882 0.253729 0.870152
O O5 0.446301 0.714097 0.368689
O O6 0.693508 0.550920 0.594381
O O7 0.774488 0.555400 0.380033
O O8 0.406052 0.959746 0.344234
O O9 0.855519 0.293628 0.883659
O O10 0.077373 0.017326 0.164777
O O11 0.095928 0.357621 0.326533
O O12 0.000000 0.500000 0.500000
O O13 0.182347 0.141253 0.584054
O O14 0.602517 0.803229 0.756519
O O15 0.500000 0.000000 0.500000
O O16 0.587021 0.436969 0.696627
O O17 0.542047 0.272256 0.276320
#
# Coordination Sequence:
#
# PCOD8043588 Si02
#       8
#     2   2   2   2   2   2   2   2
#     4   9  19  38  60  85 113 155 205 232 274 355
#     4  12  23  37  59  91 121 152 189 242 299 344
#     4   9  20  38  62  81 117 162 197 235 276 340
#     4  11  20  35  62  87 108 153 195 246 287 335
#     4  10  19  40  56  85 118 139 199 254 284 330
#     4  11  24  38  55  89 130 154 182 238 300 348
#     4  10  19  36  65  87 108 146 208 249 274 328
#     4  10  19  39  60  87 115 156 198 235 274 351
#
# _framework density 19.632536999999999
#
# number of rings (size 3 to 8) (size 9 to 14) (size 15 to 20)
#    0.000    1.750    5.000    2.625    3.500    1.000 
#    0.000    1.250    0.000    3.750    0.000    0.000 
#    0.000    0.000    0.000    0.000    0.000    0.000 
#
# Total GULP energy -198287.486355 kJ/mol
# GULP energy per Si atom -12392.967897 kJ/mol
# Density = 1.958785 g / cm^3
# Si number density = 19.632537 Si / 1000 Ang^3
#
#
#
# Elastic Constant Matrix: (Units=GPa)
#
#
# Indices 1 2 3 4 5 6 
#
# 1 74.1170 43.7432 25.4175 -5.6838 0.7655 -1.3208
# 2 43.7432 98.8414 16.0377 -4.1879 2.3260 -5.9417
# 3 25.4175 16.0377 57.7073 -0.1067 -10.8597 -8.9654
# 4 -5.6838 -4.1879 -0.1067 23.6594 -4.7354 -8.1558
# 5 0.7655 2.3260 -10.8597 -4.7354 25.0237 2.5887
# 6 -1.3208 -5.9417 -8.9654 -8.1558 2.5887 37.2247
#
#
#
# Elastic Compliance Matrix: (Units=1/GPa)
#
#
# Indices 1 2 3 4 5 6 
#
# 1 0.021080 -0.007993 -0.007818 0.002506 -0.002647 -0.001678
# 2 -0.007993 0.013894 -0.000217 0.001061 -0.001168 0.002195
# 3 -0.007818 -0.000217 0.023573 0.002014 0.010344 0.005087
# 4 0.002506 0.001061 0.002014 0.048532 0.008769 0.010767
# 5 -0.002647 -0.001168 0.010344 0.008769 0.046205 0.000919
# 6 -0.001678 0.002195 0.005087 0.010767 0.000919 0.030675
#
#
# Mechanical properties :
#
#
# Convention : Reuss Voigt Hill
#
# Bulk Modulus (GPa) = 37.74801 44.56251 41.15526
# Shear Modulus (GPa) = 22.23732 26.87938 24.55835
#
# Velocity S-wave (km/s) = 3.36918 3.70418 3.54064
# Velocity P-wave (km/s) = 5.86551 6.40642 6.14192
#
# Compressibility (1/GPa) = 0.02649146
#
# Stress axis : x y z
#
# Youngs Moduli (GPa) = 47.43770 71.97149 42.42082
#
# Poissons Ratio (x) = 0.57528 0.33163
# Poissons Ratio (y) = 0.37918 0.00923
# Poissons Ratio (z) = 0.37085 0.01565
#
# Static dielectric constant tensor:
#      x y z
#    x 3.138380 0.957740 -0.769860 
#    y 0.957740 1.918290 0.580720 
#    z -0.769860 0.580720 3.514230 
# 
# 
# High freq. dielectric constant tensor:
#      x y z
#    x 1.747160 -0.000230 -0.029870 
#    y -0.000230 1.775780 0.002780 
#    z -0.029870 0.002780 1.739400 
# 
# From -- ./inp_files/425648.got.cif
#   From: 2010.06.25/outbox.cif.g09.slc.cpg/sg2_213_cif.got.tgz:425648.got - 2010.06.27 13:26:56.
