data_PCOD8043411
_publ_section_title
;
Structure prediction by ZEFSAII (Michael W. Deem and Ramdas Pophale) SiO2 
 PCOD8043411
Probable space group: P -1
;
_chemical_formula_sum "Si O2"
_cell_formula_units_Z 16
_cell_length_a 16.806895
_cell_length_b 18.375602
_cell_length_c 8.825118
_cell_angle_alpha 43.321401
_cell_angle_beta 148.486014
_cell_angle_gamma 146.144409
_cell_volume 791.882741
_symmetry_space_group_name_H-M "P -1"
_symmetry_group_IT_number 2
_symmetry_cell_setting 'triclinic'
loop_
_space_group_symop_operation_xyz
x,y,z
-x,-y,-z
loop_
_atom_site_type_symbol
_atom_site_label
_atom_site_fract_x
_atom_site_fract_y
_atom_site_fract_z
Si Si1 0.784654 0.810075 0.846022
Si Si2 0.279058 0.923010 0.258168
Si Si3 0.994812 0.785928 0.746396
Si Si4 0.998286 0.680612 0.343073
Si Si5 0.938794 0.590541 0.715718
Si Si6 0.441226 0.578272 0.498730
Si Si7 0.726902 0.542363 0.879196
Si Si8 0.107908 0.071930 0.847649
O O1 0.575867 0.724926 0.562171
O O2 0.779904 0.816279 0.011124
O O3 0.900250 0.955868 0.745575
O O4 0.876000 0.737117 0.059870
O O5 0.201555 0.797316 0.432443
O O6 0.500000 0.000000 0.500000
O O7 0.189679 0.876752 0.016096
O O8 0.232371 0.020422 0.095423
O O9 0.039136 0.720507 0.783870
O O10 0.828204 0.680906 0.745396
O O11 0.923966 0.869340 0.440276
O O12 0.010623 0.632386 0.598371
O O13 0.882245 0.556203 0.225920
O O14 0.713468 0.510449 0.489038
O O15 0.000000 0.500000 0.000000
O O16 0.549022 0.513165 0.729748
O O17 0.338500 0.570565 0.183825
#
# Coordination Sequence:
#
# PCOD8043411 Si02
#       8
#     2   2   2   2   2   2   2   2
#     4   9  18  33  62  89 113 145 195 248 289 339
#     4  10  22  39  61  89 121 155 193 239 296 358
#     4  10  20  40  62  84 119 154 197 242 293 349
#     4   9  18  39  59  82 118 153 191 238 296 345
#     4  11  23  39  59  82 119 161 192 238 299 345
#     4   9  18  35  54  85 113 141 199 236 281 342
#     4   8  17  34  59  82 112 149 187 245 289 336
#     4  10  19  36  62  89 118 153 194 242 299 341
#
# _framework density 20.205012
#
# number of rings (size 3 to 8) (size 9 to 14) (size 15 to 20)
#    0.000    2.500    1.250    1.125    0.000    3.000 
#    6.750    6.250    0.000    0.000    0.000    0.000 
#    0.000    0.000    0.000    0.000    0.000    0.000 
#
# Total GULP energy -198300.645363 kJ/mol
# GULP energy per Si atom -12393.790335 kJ/mol
# Density = 2.015902 g / cm^3
# Si number density = 20.205012 Si / 1000 Ang^3
#
#
#
# Elastic Constant Matrix: (Units=GPa)
#
#
# Indices 1 2 3 4 5 6 
#
# 1 80.6820 47.2870 59.7856 20.7022 -25.8572 12.0441
# 2 47.2870 92.5688 60.3308 33.5733 -14.9408 1.6958
# 3 59.7856 60.3308 98.0399 15.8182 -19.0639 13.9035
# 4 20.7022 33.5733 15.8182 43.6220 -1.8435 -9.3691
# 5 -25.8572 -14.9408 -19.0639 -1.8435 34.1789 5.6527
# 6 12.0441 1.6958 13.9035 -9.3691 5.6527 31.4584
#
#
#
# Elastic Compliance Matrix: (Units=1/GPa)
#
#
# Indices 1 2 3 4 5 6 
#
# 1 0.034207 -0.001451 -0.011579 -0.013396 0.020643 -0.015600
# 2 -0.001451 0.024418 -0.011338 -0.013964 0.002560 -0.000368
# 3 -0.011579 -0.011338 0.024323 0.004465 0.000840 -0.004527
# 4 -0.013396 -0.013964 0.004465 0.041875 -0.014634 0.019009
# 5 0.020643 0.002560 0.000840 -0.014634 0.049248 -0.021620
# 6 -0.015600 -0.000368 -0.004527 0.019009 -0.021620 0.049327
#
#
# Mechanical properties :
#
#
# Convention : Reuss Voigt Hill
#
# Bulk Modulus (GPa) = 29.23016 67.34418 48.28717
# Shear Modulus (GPa) = 17.63434 28.77768 23.20601
#
# Velocity S-wave (km/s) = 2.95747 3.77806 3.39267
# Velocity P-wave (km/s) = 5.11472 7.24117 6.26877
#
# Compressibility (1/GPa) = 0.03421124
#
# Stress axis : x y z
#
# Youngs Moduli (GPa) = 29.23420 40.95336 41.11356
#
# Poissons Ratio (x) = 0.05943 0.47604
# Poissons Ratio (y) = 0.04242 0.46615
# Poissons Ratio (z) = 0.33850 0.46433
#
# Static dielectric constant tensor:
#      x y z
#    x 3.895240 -0.143490 -0.376920 
#    y -0.143490 3.818790 0.333400 
#    z -0.376920 0.333400 3.470290 
# 
# 
# High freq. dielectric constant tensor:
#      x y z
#    x 1.794120 -0.006290 -0.023620 
#    y -0.006290 1.782680 0.020760 
#    z -0.023620 0.020760 1.766540 
# 
# From -- ./inp_files/209106.got.cif
#   From: 2010.06.25/outbox.cif.g09.slc.cpg/sg2_105_cif.got.tgz:209106.got - 2010.06.27 13:26:56.
