data_PCOD8043866
_publ_section_title
;
Structure prediction by ZEFSAII (Michael W. Deem and Ramdas Pophale) SiO2 
 PCOD8043866
Probable space group: P -1
;
_chemical_formula_sum "Si O2"
_cell_formula_units_Z 16
_cell_length_a 8.123453
_cell_length_b 15.022851
_cell_length_c 14.139063
_cell_angle_alpha 140.637721
_cell_angle_beta 116.847058
_cell_angle_gamma 43.090837
_cell_volume 721.736501
_symmetry_space_group_name_H-M "P -1"
_symmetry_group_IT_number 2
_symmetry_cell_setting 'triclinic'
loop_
_space_group_symop_operation_xyz
x,y,z
-x,-y,-z
loop_
_atom_site_type_symbol
_atom_site_label
_atom_site_fract_x
_atom_site_fract_y
_atom_site_fract_z
Si Si1 0.959583 0.728315 0.979250
Si Si2 0.393793 0.339774 0.142402
Si Si3 0.038857 0.100059 0.700408
Si Si4 0.629769 0.111051 0.822845
Si Si5 0.084513 0.760041 0.411939
Si Si6 0.321702 0.154136 0.502803
Si Si7 0.530034 0.657754 0.215338
Si Si8 0.112038 0.978020 0.910251
O O1 0.844906 0.631055 0.864274
O O2 0.263736 0.570519 0.930866
O O3 0.856417 0.858521 0.153899
O O4 0.874412 0.861672 0.975304
O O5 0.322573 0.538569 0.269287
O O6 0.605753 0.226570 0.186321
O O7 0.501167 0.216751 0.973696
O O8 0.100227 0.136964 0.643834
O O9 0.737027 0.258267 0.752233
O O10 0.156109 0.883544 0.559697
O O11 0.483000 0.256544 0.817769
O O12 0.626128 0.943266 0.666796
O O13 0.922148 0.009554 0.809768
O O14 0.954636 0.751480 0.459596
O O15 0.360843 0.301082 0.636575
O O16 0.500000 0.000000 0.500000
O O17 0.000000 0.000000 0.000000
#
# Coordination Sequence:
#
# PCOD8043866 Si02
#       8
#     2   2   2   2   2   2   2   2
#     4  12  23  39  64  95 121 160 212 258 309 360
#     4  11  25  39  66  88 126 166 214 250 294 368
#     4  11  24  35  62  93 136 154 199 257 318 370
#     4  10  21  40  63  92 124 166 201 248 313 365
#     4  11  22  40  57  98 126 164 196 255 313 362
#     4  10  19  37  60  87 132 159 189 246 320 365
#     4  11  21  36  64  93 123 161 194 257 315 375
#     4  10  23  43  62  86 123 167 212 255 298 360
#
# _framework density 22.168756999999999
#
# number of rings (size 3 to 8) (size 9 to 14) (size 15 to 20)
#    0.000    1.250    5.000    1.500    7.000    1.000 
#    0.000    2.500    0.000    1.500    0.000    0.000 
#    0.000    0.000    0.000    0.000    0.000    0.000 
#
# Total GULP energy -198282.448652 kJ/mol
# GULP energy per Si atom -12392.653041 kJ/mol
# Density = 2.211830 g / cm^3
# Si number density = 22.168757 Si / 1000 Ang^3
#
#
#
# Elastic Constant Matrix: (Units=GPa)
#
#
# Indices 1 2 3 4 5 6 
#
# 1 50.1367 15.0466 13.3483 10.1376 2.5598 -3.7117
# 2 15.0466 96.8168 42.2325 21.5396 8.2285 -1.4081
# 3 13.3483 42.2325 135.2745 14.4694 6.1620 -0.0975
# 4 10.1376 21.5396 14.4694 15.2682 5.1239 4.9492
# 5 2.5598 8.2285 6.1620 5.1239 30.4016 0.7780
# 6 -3.7117 -1.4081 -0.0975 4.9492 0.7780 27.4674
#
#
#
# Elastic Compliance Matrix: (Units=1/GPa)
#
#
# Indices 1 2 3 4 5 6 
#
# 1 0.024178 0.000768 -0.000628 -0.019025 0.000918 0.006706
# 2 0.000768 0.016610 -0.002802 -0.022838 -0.000273 0.005068
# 3 -0.000628 -0.002802 0.008773 -0.004015 -0.000304 0.000535
# 4 -0.019025 -0.022838 -0.004015 0.126715 -0.012088 -0.026246
# 5 0.000918 -0.000273 -0.000304 -0.012088 0.034955 0.001297
# 6 0.006706 0.005068 0.000535 -0.026246 0.001297 0.042267
#
#
# Mechanical properties :
#
#
# Convention : Reuss Voigt Hill
#
# Bulk Modulus (GPa) = 22.60541 47.05365 34.82953
# Shear Modulus (GPa) = 18.27697 28.73413 23.50555
#
# Velocity S-wave (km/s) = 2.87443 3.60412 3.25976
# Velocity P-wave (km/s) = 4.60821 6.21215 5.46930
#
# Compressibility (1/GPa) = 0.04423721
#
# Stress axis : x y z
#
# Youngs Moduli (GPa) = 41.35914 60.20607 113.98720
#
# Poissons Ratio (x) = -0.04626 0.07155
# Poissons Ratio (y) = -0.03178 0.31944
# Poissons Ratio (z) = 0.02596 0.16872
#
# Static dielectric constant tensor:
#      x y z
#    x 3.577470 -0.096500 -0.174330 
#    y -0.096500 4.037460 -0.069700 
#    z -0.174330 -0.069700 4.216730 
# 
# 
# High freq. dielectric constant tensor:
#      x y z
#    x 1.869720 -0.004890 -0.000220 
#    y -0.004890 1.838760 0.005170 
#    z -0.000220 0.005170 1.877930 
# 
# From -- ./inp_files/504499.got.cif
#   From: 2010.06.25/outbox.cif.g09.slc.cpg/sg2_253_cif.got.tgz:504499.got - 2010.06.27 13:26:56.
