data_PCOD8043585
_publ_section_title
;
Structure prediction by ZEFSAII (Michael W. Deem and Ramdas Pophale) SiO2 
 PCOD8043585
Probable space group: P -1
;
_chemical_formula_sum "Si O2"
_cell_formula_units_Z 14
_cell_length_a 7.486267
_cell_length_b 12.244858
_cell_length_c 7.664993
_cell_angle_alpha 96.013340
_cell_angle_beta 55.512503
_cell_angle_gamma 92.100272
_cell_volume 575.741097
_symmetry_space_group_name_H-M "P -1"
_symmetry_group_IT_number 2
_symmetry_cell_setting 'triclinic'
loop_
_space_group_symop_operation_xyz
x,y,z
-x,-y,-z
loop_
_atom_site_type_symbol
_atom_site_label
_atom_site_fract_x
_atom_site_fract_y
_atom_site_fract_z
Si Si1 0.269697 0.109009 0.460487
Si Si2 0.016159 0.533822 0.252764
Si Si3 0.087246 0.265734 0.876575
Si Si4 0.381466 0.365461 0.980170
Si Si5 0.627962 0.198684 0.035068
Si Si6 0.777694 0.361512 0.535978
Si Si7 0.187595 0.875429 0.443861
O O1 0.483329 0.130170 0.233813
O O2 0.240092 0.195483 0.648080
O O3 0.068820 0.112594 0.439808
O O4 0.281591 0.982873 0.505843
O O5 0.944859 0.605544 0.138683
O O6 0.030997 0.618900 0.421842
O O7 0.838072 0.438648 0.352909
O O8 0.258639 0.479839 0.110655
O O9 0.210197 0.273495 0.994700
O O10 0.851508 0.215968 0.018287
O O11 0.539428 0.394424 0.739078
O O12 0.508995 0.315004 0.068800
O O13 0.684397 0.137296 0.812786
O O14 0.776152 0.231553 0.471225
#
# Coordination Sequence:
#
# PCOD8043585 Si02
#       7
#     2   2   2   2   2   2   2
#     4  10  19  36  65  85 121 156 191 246 296 340
#     4  11  21  38  60  87 121 154 198 244 287 355
#     4  11  24  39  57  96 120 150 204 238 289 362
#     4  11  23  38  61  86 125 157 190 247 296 341
#     4  10  21  39  61  89 119 155 196 238 296 353
#     4  10  21  37  62  89 113 154 206 237 294 350
#     4   9  18  37  60  92 113 151 203 241 285 358
#
# _framework density 24.316486000000001
#
# number of rings (size 3 to 8) (size 9 to 14) (size 15 to 20)
#    0.000    1.714    4.286    2.143    2.000    1.714 
#    0.000    2.857    0.000   24.000    0.000    0.000 
#    0.000    0.000    0.000    0.000    0.000    0.000 
#
# Total GULP energy -173551.013498 kJ/mol
# GULP energy per Si atom -12396.500964 kJ/mol
# Density = 2.426114 g / cm^3
# Si number density = 24.316486 Si / 1000 Ang^3
#
#
#
# Elastic Constant Matrix: (Units=GPa)
#
#
# Indices 1 2 3 4 5 6 
#
# 1 51.9214 6.1237 12.6851 0.1309 -10.8202 11.2403
# 2 6.1237 150.2337 43.0853 -2.9616 -21.9232 -3.1344
# 3 12.6851 43.0853 70.4305 -18.0128 -33.5126 1.5302
# 4 0.1309 -2.9616 -18.0128 34.2014 8.3237 -2.1321
# 5 -10.8202 -21.9232 -33.5126 8.3237 29.9032 -0.6440
# 6 11.2403 -3.1344 1.5302 -2.1321 -0.6440 15.7394
#
#
#
# Elastic Compliance Matrix: (Units=1/GPa)
#
#
# Indices 1 2 3 4 5 6 
#
# 1 0.025247 0.000093 -0.001066 -0.003895 0.008704 -0.018079
# 2 0.000093 0.008284 -0.005281 -0.002151 0.000827 0.001839
# 3 -0.001066 -0.005281 0.036191 0.010419 0.033379 -0.001032
# 4 -0.003895 -0.002151 0.010419 0.035169 -0.000968 0.006065
# 5 0.008704 0.000827 0.033379 -0.000968 0.074737 -0.006369
# 6 -0.018079 0.001839 -0.001032 0.006065 -0.006369 0.077474
#
#
# Mechanical properties :
#
#
# Convention : Reuss Voigt Hill
#
# Bulk Modulus (GPa) = 17.47843 44.04153 30.75998
# Shear Modulus (GPa) = 17.32023 30.01491 23.66757
#
# Velocity S-wave (km/s) = 2.67176 3.51713 3.12318
# Velocity P-wave (km/s) = 4.08916 5.88598 5.06784
#
# Compressibility (1/GPa) = 0.05721339
#
# Stress axis : x y z
#
# Youngs Moduli (GPa) = 39.60876 120.72044 27.63133
#
# Poissons Ratio (x) = -0.01119 0.02945
# Poissons Ratio (y) = -0.00367 0.14592
# Poissons Ratio (z) = 0.04222 0.63750
#
# Static dielectric constant tensor:
#      x y z
#    x 4.146340 0.106200 -0.334420 
#    y 0.106200 4.611470 0.124960 
#    z -0.334420 0.124960 4.210600 
# 
# 
# High freq. dielectric constant tensor:
#      x y z
#    x 1.946880 0.012720 -0.028790 
#    y 0.012720 1.972820 0.006670 
#    z -0.028790 0.006670 1.953320 
# 
# From -- ./inp_files/188181.got.cif
#   From: 2010.06.25/outbox.cif.g09.slc.cpg/sg2_95_cif.got.tgz:188181.got - 2010.06.27 13:26:56.
