data_PCOD8043498
_publ_section_title
;
Structure prediction by ZEFSAII (Michael W. Deem and Ramdas Pophale) SiO2 
 PCOD8043498
Probable space group: P -1
;
_chemical_formula_sum "Si O2"
_cell_formula_units_Z 16
_cell_length_a 11.346783
_cell_length_b 11.719758
_cell_length_c 8.350748
_cell_angle_alpha 64.540591
_cell_angle_beta 127.663179
_cell_angle_gamma 120.186537
_cell_volume 747.571562
_symmetry_space_group_name_H-M "P -1"
_symmetry_group_IT_number 2
_symmetry_cell_setting 'triclinic'
loop_
_space_group_symop_operation_xyz
x,y,z
-x,-y,-z
loop_
_atom_site_type_symbol
_atom_site_label
_atom_site_fract_x
_atom_site_fract_y
_atom_site_fract_z
Si Si1 0.064111 0.379193 0.470854
Si Si2 0.129633 0.122674 0.189570
Si Si3 0.851116 0.864275 0.450257
Si Si4 0.562475 0.904227 0.006236
Si Si5 0.732029 0.348548 0.060780
Si Si6 0.845336 0.619908 0.091821
Si Si7 0.783369 0.066004 0.838038
Si Si8 0.163214 0.645384 0.218723
O O1 0.113308 0.254104 0.538699
O O2 0.079094 0.393333 0.666339
O O3 0.181733 0.517960 0.406081
O O4 0.883794 0.345210 0.287970
O O5 0.200584 0.179960 0.384527
O O6 0.192197 0.000395 0.269733
O O7 0.196263 0.243831 0.041378
O O8 0.938274 0.073152 0.068121
O O9 0.703327 0.881842 0.231713
O O10 0.000000 0.000000 0.500000
O O11 0.421599 0.767706 0.937053
O O12 0.500000 0.000000 0.000000
O O13 0.625163 0.971768 0.847679
O O14 0.700763 0.486477 0.003457
O O15 0.755857 0.337555 0.897504
O O16 0.976047 0.621424 0.062241
O O17 0.766531 0.212752 0.711363
#
# Coordination Sequence:
#
# PCOD8043498 Si02
#       8
#     2   2   2   2   2   2   2   2
#     4  11  22  41  67 100 122 170 228 264 310 380
#     4  10  21  41  67  96 125 162 231 264 310 367
#     4  12  24  41  68  95 123 170 220 263 314 387
#     4  12  24  43  62  99 136 168 208 262 339 384
#     4  11  21  39  65  95 135 170 207 269 329 379
#     4  10  21  38  66  96 128 168 221 267 313 375
#     4  10  20  39  65  92 130 171 206 270 312 379
#     4  10  19  36  63  91 130 169 216 259 312 379
#
# _framework density 21.402632000000001
#
# number of rings (size 3 to 8) (size 9 to 14) (size 15 to 20)
#    0.000    1.250    2.500    6.750    3.500    0.000 
#    2.250    8.125    0.000    0.000    0.000    0.000 
#    0.000    0.000    0.000    0.000    0.000    0.000 
#
# Total GULP energy -198317.565508 kJ/mol
# GULP energy per Si atom -12394.847844 kJ/mol
# Density = 2.135392 g / cm^3
# Si number density = 21.402632 Si / 1000 Ang^3
#
#
#
# Elastic Constant Matrix: (Units=GPa)
#
#
# Indices 1 2 3 4 5 6 
#
# 1 85.1445 62.7645 22.2287 -1.7399 -2.7392 6.2157
# 2 62.7645 172.8332 36.9131 -14.5507 11.8630 11.1301
# 3 22.2287 36.9131 63.2572 -9.0422 0.4206 6.5110
# 4 -1.7399 -14.5507 -9.0422 28.7717 -2.9252 -1.7810
# 5 -2.7392 11.8630 0.4206 -2.9252 23.3897 -6.9756
# 6 6.2157 11.1301 6.5110 -1.7810 -6.9756 41.2239
#
#
#
# Elastic Compliance Matrix: (Units=1/GPa)
#
#
# Indices 1 2 3 4 5 6 
#
# 1 0.017129 -0.006182 -0.002823 -0.002457 0.004964 0.000266
# 2 -0.006182 0.009350 -0.002635 0.002826 -0.005666 -0.002013
# 3 -0.002823 -0.002635 0.019136 0.004491 0.000757 -0.001563
# 4 -0.002457 0.002826 0.004491 0.037846 0.003255 0.001084
# 5 0.004964 -0.005666 0.000757 0.003255 0.049331 0.009150
# 6 0.000266 -0.002013 -0.001563 0.001084 0.009150 0.026603
#
#
# Mechanical properties :
#
#
# Convention : Reuss Voigt Hill
#
# Bulk Modulus (GPa) = 44.77379 62.78307 53.77843
# Shear Modulus (GPa) = 26.29901 31.96563 29.13232
#
# Velocity S-wave (km/s) = 3.50919 3.86882 3.69339
# Velocity P-wave (km/s) = 6.11428 7.02531 6.58557
#
# Compressibility (1/GPa) = 0.02233449
#
# Stress axis : x y z
#
# Youngs Moduli (GPa) = 58.38017 106.94960 52.25763
#
# Poissons Ratio (x) = 0.66118 0.14753
# Poissons Ratio (y) = 0.36092 0.13770
# Poissons Ratio (z) = 0.16482 0.28181
#
# Static dielectric constant tensor:
#      x y z
#    x 3.722370 0.031410 -0.203680 
#    y 0.031410 4.361050 -0.194130 
#    z -0.203680 -0.194130 3.615890 
# 
# 
# High freq. dielectric constant tensor:
#      x y z
#    x 1.827020 -0.015330 -0.022770 
#    y -0.015330 1.866550 -0.017840 
#    z -0.022770 -0.017840 1.810950 
# 
# From -- ./inp_files/257219.got.cif
#   From: 2010.06.25/outbox.cif.g09.slc.cpg/sg2_129_cif.got.tgz:257219.got - 2010.06.27 13:26:56.
