data_PCOD8043188
_publ_section_title
;
Structure prediction by ZEFSAII (Michael W. Deem and Ramdas Pophale) SiO2 
 PCOD8043188
Probable space group: P -1
;
_chemical_formula_sum "Si O2"
_cell_formula_units_Z 14
_cell_length_a 18.661541
_cell_length_b 12.934381
_cell_length_c 9.055590
_cell_angle_alpha 131.154412
_cell_angle_beta 101.708526
_cell_angle_gamma 37.976506
_cell_volume 740.977609
_symmetry_space_group_name_H-M "P -1"
_symmetry_group_IT_number 2
_symmetry_cell_setting 'triclinic'
loop_
_space_group_symop_operation_xyz
x,y,z
-x,-y,-z
loop_
_atom_site_type_symbol
_atom_site_label
_atom_site_fract_x
_atom_site_fract_y
_atom_site_fract_z
Si Si1 0.277618 0.342175 0.324181
Si Si2 0.279315 0.456063 0.887853
Si Si3 0.168689 0.737751 0.397017
Si Si4 0.495897 0.879658 0.572059
Si Si5 0.742938 0.178928 0.292923
Si Si6 0.026399 0.807518 0.893409
Si Si7 0.607763 0.117813 0.227431
O O1 0.208755 0.557715 0.370637
O O2 0.429410 0.158871 0.295143
O O3 0.139745 0.538348 0.571944
O O4 0.336462 0.098947 0.057652
O O5 0.360367 0.410285 0.746574
O O6 0.106305 0.695589 0.983381
O O7 0.376757 0.155725 0.674243
O O8 0.287220 0.527269 0.109771
O O9 0.175999 0.880930 0.591370
O O10 0.000000 0.000000 0.500000
O O11 0.393076 0.927660 0.644440
O O12 0.730850 0.036904 0.181297
O O13 0.571824 0.535299 0.548859
O O14 0.856414 0.014511 0.042144
O O15 0.000000 0.000000 0.000000
#
# Coordination Sequence:
#
# PCOD8043188 Si02
#       7
#     2   2   2   2   2   2   2
#     4  11  21  37  66  84 116 160 205 240 288 358
#     4  10  20  32  60  88 112 145 206 248 283 337
#     4  12  20  36  60  90 111 153 203 244 288 355
#     4  10  19  36  59  88 113 151 202 245 284 350
#     4  11  23  37  59  89 124 154 195 249 304 343
#     4  11  20  39  59  89 118 155 199 250 293 347
#     4  11  22  38  59  89 122 158 194 246 298 356
#
# _framework density 18.893958999999999
#
# number of rings (size 3 to 8) (size 9 to 14) (size 15 to 20)
#    0.000    1.143    5.714    2.143    0.000    0.571 
#    0.000    3.571    0.000    6.857    0.000    0.000 
#    0.000    0.000    0.000    0.000    0.000    0.000 
#
# Total GULP energy -173458.257001 kJ/mol
# GULP energy per Si atom -12389.875500 kJ/mol
# Density = 1.885096 g / cm^3
# Si number density = 18.893959 Si / 1000 Ang^3
#
#
#
# Elastic Constant Matrix: (Units=GPa)
#
#
# Indices 1 2 3 4 5 6 
#
# 1 145.2967 40.0882 58.5873 -6.1338 -14.4085 11.8510
# 2 40.0882 104.9152 24.2481 -0.8882 -0.5795 3.0249
# 3 58.5873 24.2481 98.9677 -15.5629 -9.9489 6.1673
# 4 -6.1338 -0.8882 -15.5629 35.9354 2.6769 -6.7977
# 5 -14.4085 -0.5795 -9.9489 2.6769 28.5208 -1.6220
# 6 11.8510 3.0249 6.1673 -6.7977 -1.6220 21.6012
#
#
#
# Elastic Compliance Matrix: (Units=1/GPa)
#
#
# Indices 1 2 3 4 5 6 
#
# 1 0.010242 -0.002617 -0.005082 -0.001524 0.003262 -0.004036
# 2 -0.002617 0.010832 -0.001359 -0.000657 -0.001515 -0.000013
# 3 -0.005082 -0.001359 0.014441 0.005335 0.001981 0.000683
# 4 -0.001524 -0.000657 0.005335 0.031720 -0.001371 0.009284
# 5 0.003262 -0.001515 0.001981 -0.001371 0.037513 0.000242
# 6 -0.004036 -0.000013 0.000683 0.009284 0.000242 0.051255
#
#
# Mechanical properties :
#
#
# Convention : Reuss Voigt Hill
#
# Bulk Modulus (GPa) = 57.47837 66.11409 61.79623
# Shear Modulus (GPa) = 27.79001 32.29522 30.04261
#
# Velocity S-wave (km/s) = 3.83931 4.13884 3.99189
# Velocity P-wave (km/s) = 7.08106 7.60974 7.35015
#
# Compressibility (1/GPa) = 0.01739785
#
# Stress axis : x y z
#
# Youngs Moduli (GPa) = 97.63488 92.31659 69.24542
#
# Poissons Ratio (x) = 0.24164 0.35192
# Poissons Ratio (y) = 0.25556 0.09413
# Poissons Ratio (z) = 0.49619 0.12549
#
# Static dielectric constant tensor:
#      x y z
#    x 3.542920 0.035830 -0.340810 
#    y 0.035830 3.705070 -0.196990 
#    z -0.340810 -0.196990 4.256090 
# 
# 
# High freq. dielectric constant tensor:
#      x y z
#    x 1.701480 0.009880 -0.027850 
#    y 0.009880 1.737730 0.002320 
#    z -0.027850 0.002320 1.755420 
# 
# From -- ./inp_files/175402.got.cif
#   From: 2010.06.25/outbox.cif.g09.slc.cpg/sg2_88_cif.got.tgz:175402.got - 2010.06.27 13:26:56.
