data_PCOD8043711
_publ_section_title
;
Structure prediction by ZEFSAII (Michael W. Deem and Ramdas Pophale) SiO2 
 PCOD8043711
Probable space group: P -1
;
_chemical_formula_sum "Si O2"
_cell_formula_units_Z 12
_cell_length_a 10.794456
_cell_length_b 11.534707
_cell_length_c 9.617056
_cell_angle_alpha 126.454748
_cell_angle_beta 97.383316
_cell_angle_gamma 39.838586
_cell_volume 476.106707
_symmetry_space_group_name_H-M "P -1"
_symmetry_group_IT_number 2
_symmetry_cell_setting 'triclinic'
loop_
_space_group_symop_operation_xyz
x,y,z
-x,-y,-z
loop_
_atom_site_type_symbol
_atom_site_label
_atom_site_fract_x
_atom_site_fract_y
_atom_site_fract_z
Si Si1 0.619436 0.849677 0.557203
Si Si2 0.177349 0.047393 0.310048
Si Si3 0.752423 0.987374 0.266196
Si Si4 0.135526 0.708405 0.317076
Si Si5 0.504767 0.555297 0.226291
Si Si6 0.986517 0.220967 0.116572
O O1 0.396643 0.014016 0.741543
O O2 0.845085 0.512281 0.330887
O O3 0.500000 0.000000 0.500000
O O4 0.724837 0.890871 0.665694
O O5 0.385444 0.741506 0.200310
O O6 0.926273 0.305385 0.554147
O O7 0.104410 0.046754 0.153606
O O8 0.589764 0.270111 0.523653
O O9 0.029049 0.709195 0.181386
O O10 0.787841 0.985149 0.107600
O O11 0.000000 0.000000 0.500000
O O12 0.429019 0.458988 0.159837
O O13 0.802482 0.281418 0.071743
#
# Coordination Sequence:
#
# PCOD8043711 Si02
#       6
#     2   2   2   2   2   2
#     4  11  19  39  57  77 112 147 178 222 274 324
#     4  10  19  37  57  81 109 147 181 218 276 322
#     4   9  19  35  57  83 108 141 185 221 268 322
#     4   8  16  36  59  76 109 150 176 219 273 317
#     4   9  20  41  57  77 115 146 178 224 269 320
#     4  11  22  34  58  84 111 139 183 229 266 321
#
# _framework density 25.204433999999999
#
# number of rings (size 3 to 8) (size 9 to 14) (size 15 to 20)
#    0.000    2.667    5.000    0.500    0.000    2.667 
#    0.000   14.167    0.000    0.000    0.000    0.000 
#    0.000    0.000    0.000    0.000    0.000    0.000 
#
# Total GULP energy -148721.714258 kJ/mol
# GULP energy per Si atom -12393.476188 kJ/mol
# Density = 2.514707 g / cm^3
# Si number density = 25.204434 Si / 1000 Ang^3
#
#
#
# Elastic Constant Matrix: (Units=GPa)
#
#
# Indices 1 2 3 4 5 6 
#
# 1 197.3495 55.4513 40.9814 0.2488 -55.1851 20.1054
# 2 55.4513 103.7904 65.6913 -43.6751 13.1161 -35.4360
# 3 40.9814 65.6913 77.0242 -22.2679 -37.2018 19.1110
# 4 0.2488 -43.6751 -22.2679 41.4414 25.9935 -15.0308
# 5 -55.1851 13.1161 -37.2018 25.9935 18.5623 33.0486
# 6 20.1054 -35.4360 19.1110 -15.0308 33.0486 -14.0276
#
#
#
# Elastic Compliance Matrix: (Units=1/GPa)
#
#
# Indices 1 2 3 4 5 6 
#
# 1 0.005677 0.000671 -0.004322 -0.000844 0.001218 0.004327
# 2 0.000671 0.007406 -0.001929 0.000477 0.005662 -0.007545
# 3 -0.004322 -0.001929 0.017590 0.010928 -0.002118 0.005942
# 4 -0.000844 0.000477 0.010928 0.025539 0.001887 -0.010443
# 5 0.001218 0.005662 -0.002118 0.001887 0.014958 0.017776
# 6 0.004327 -0.007545 0.005942 -0.010443 0.017776 0.015139
#
#
# Mechanical properties :
#
#
# Convention : Reuss Voigt Hill
#
# Bulk Modulus (GPa) = 51.24733 78.04581 64.64657
# Shear Modulus (GPa) = 48.08962 23.59790 35.84376
#
# Velocity S-wave (km/s) = 4.37278 3.06316 3.77519
# Velocity P-wave (km/s) = 6.77287 6.59870 6.68636
#
# Compressibility (1/GPa) = 0.01951321
#
# Stress axis : x y z
#
# Youngs Moduli (GPa) = 176.15044 135.02593 56.85160
#
# Poissons Ratio (x) = -0.09060 0.24572
# Poissons Ratio (y) = -0.11820 0.10965
# Poissons Ratio (z) = 0.76133 0.26042
#
# Static dielectric constant tensor:
#      x y z
#    x 5.964270 -0.412050 -0.476530 
#    y -0.412050 4.575110 0.149210 
#    z -0.476530 0.149210 4.647150 
# 
# 
# High freq. dielectric constant tensor:
#      x y z
#    x 2.026680 -0.014090 -0.019050 
#    y -0.014090 1.981880 -0.012780 
#    z -0.019050 -0.012780 1.998480 
# 
# From -- ./inp_files/263036.got.cif
#   From: 2010.06.25/outbox.cif.g09.slc.cpg/sg2_132_cif.got.tgz:263036.got - 2010.06.27 13:26:56.
