data_PCOD8043849
_publ_section_title
;
Structure prediction by ZEFSAII (Michael W. Deem and Ramdas Pophale) SiO2 
 PCOD8043849
Probable space group: P -1
;
_chemical_formula_sum "Si O2"
_cell_formula_units_Z 14
_cell_length_a 6.189338
_cell_length_b 18.854432
_cell_length_c 5.362657
_cell_angle_alpha 64.828324
_cell_angle_beta 75.271746
_cell_angle_gamma 83.350721
_cell_volume 547.744546
_symmetry_space_group_name_H-M "P -1"
_symmetry_group_IT_number 2
_symmetry_cell_setting 'triclinic'
loop_
_space_group_symop_operation_xyz
x,y,z
-x,-y,-z
loop_
_atom_site_type_symbol
_atom_site_label
_atom_site_fract_x
_atom_site_fract_y
_atom_site_fract_z
Si Si1 0.217423 0.412356 0.360609
Si Si2 0.487493 0.050624 0.178054
Si Si3 0.734524 0.406267 0.949370
Si Si4 0.719250 0.349019 0.539553
Si Si5 0.228807 0.341049 0.964352
Si Si6 0.151993 0.822343 0.227044
Si Si7 0.114360 0.172659 0.202860
O O1 0.331141 0.388588 0.099627
O O2 0.336205 0.367940 0.627762
O O3 0.961702 0.384804 0.476587
O O4 0.220995 0.504676 0.266343
O O5 0.256586 0.097488 0.192936
O O6 0.500000 0.000000 0.500000
O O7 0.689371 0.110174 0.016899
O O8 0.500000 0.000000 0.000000
O O9 0.607310 0.398786 0.266708
O O10 0.963607 0.359649 0.013247
O O11 0.600630 0.363061 0.825282
O O12 0.719491 0.257165 0.611805
O O13 0.261553 0.247534 0.130089
O O14 0.027778 0.851336 0.473415
O O15 0.007940 0.801734 0.055536
#
# Coordination Sequence:
#
# PCOD8043849 Si02
#       7
#     2   2   2   2   2   2   2
#     4  10  16  25  46  85 129 160 213 273 299 364
#     4  12  30  50  70 106 133 164 223 270 340 416
#     4  10  16  25  46  85 129 160 213 273 299 364
#     4  10  16  29  48  84 121 159 218 252 304 386
#     4  10  16  29  48  84 121 159 218 252 304 386
#     4  12  23  44  73  97 135 175 217 274 329 395
#     4  12  23  44  73  97 135 175 217 274 329 395
#
# _framework density 25.559359000000001
#
# number of rings (size 3 to 8) (size 9 to 14) (size 15 to 20)
#    0.000    1.143    5.714    6.000    0.000    3.429 
#    0.000    0.000    0.000    0.000    0.000   11.000 
#    0.000    0.000    0.000    0.000    0.000    0.000 
#
# Total GULP energy -173640.083543 kJ/mol
# GULP energy per Si atom -12402.863110 kJ/mol
# Density = 2.550118 g / cm^3
# Si number density = 25.559359 Si / 1000 Ang^3
#
#
#
# Elastic Constant Matrix: (Units=GPa)
#
#
# Indices 1 2 3 4 5 6 
#
# 1 85.2958 32.3746 52.5069 10.7198 20.5120 11.3708
# 2 32.3746 159.1043 64.1588 -3.2836 5.9119 16.2383
# 3 52.5069 64.1588 218.7809 16.5026 15.8318 8.6520
# 4 10.7198 -3.2836 16.5026 68.0908 3.6361 4.0841
# 5 20.5120 5.9119 15.8318 3.6361 56.7608 14.5338
# 6 11.3708 16.2383 8.6520 4.0841 14.5338 31.3373
#
#
#
# Elastic Compliance Matrix: (Units=1/GPa)
#
#
# Indices 1 2 3 4 5 6 
#
# 1 0.015482 -0.001742 -0.002720 -0.001532 -0.004077 -0.001873
# 2 -0.001742 0.007750 -0.001894 0.001258 0.001185 -0.003575
# 3 -0.002720 -0.001894 0.005874 -0.001101 -0.000582 0.000760
# 4 -0.001532 0.001258 -0.001101 0.015357 0.000233 -0.001901
# 5 -0.004077 0.001185 -0.000582 0.000233 0.021402 -0.008930
# 6 -0.001873 -0.003575 0.000760 -0.001901 -0.008930 0.038623
#
#
# Mechanical properties :
#
#
# Convention : Reuss Voigt Hill
#
# Bulk Modulus (GPa) = 60.99835 84.58464 72.79149
# Shear Modulus (GPa) = 40.76127 52.18049 46.47088
#
# Velocity S-wave (km/s) = 3.99779 4.52324 4.26861
# Velocity P-wave (km/s) = 6.72510 7.77463 7.26883
#
# Compressibility (1/GPa) = 0.01639389
#
# Stress axis : x y z
#
# Youngs Moduli (GPa) = 64.58930 129.02876 170.23734
#
# Poissons Ratio (x) = 0.22482 0.46306
# Poissons Ratio (y) = 0.11254 0.32242
# Poissons Ratio (z) = 0.17569 0.24437
#
# Static dielectric constant tensor:
#      x y z
#    x 4.820630 0.026800 0.071220 
#    y 0.026800 4.871300 0.833260 
#    z 0.071220 0.833260 5.830210 
# 
# 
# High freq. dielectric constant tensor:
#      x y z
#    x 2.064900 -0.002840 -0.009660 
#    y -0.002840 2.021640 0.032610 
#    z -0.009660 0.032610 2.072240 
# 
# From -- ./inp_files/10157.got.cif
#   From: 2010.06.25/outbox.cif.g09.slc.cpg/sg2_6_cif.got.tgz:10157.got - 2010.06.27 13:26:56.
