data_PCOD8043854
_publ_section_title
;
Structure prediction by ZEFSAII (Michael W. Deem and Ramdas Pophale) SiO2 
 PCOD8043854
Probable space group: P -1
;
_chemical_formula_sum "Si O2"
_cell_formula_units_Z 16
_cell_length_a 12.183058
_cell_length_b 21.088202
_cell_length_c 12.113460
_cell_angle_alpha 30.266932
_cell_angle_beta 137.820175
_cell_angle_gamma 149.622925
_cell_volume 793.135633
_symmetry_space_group_name_H-M "P -1"
_symmetry_group_IT_number 2
_symmetry_cell_setting 'triclinic'
loop_
_space_group_symop_operation_xyz
x,y,z
-x,-y,-z
loop_
_atom_site_type_symbol
_atom_site_label
_atom_site_fract_x
_atom_site_fract_y
_atom_site_fract_z
Si Si1 0.484624 0.001682 0.856185
Si Si2 0.658203 0.896892 0.989557
Si Si3 0.017984 0.903380 0.352873
Si Si4 0.154851 0.774761 0.496006
Si Si5 0.486198 0.238233 0.137095
Si Si6 0.018398 0.873743 0.650193
Si Si7 0.657155 0.510150 0.019550
Si Si8 0.848116 0.371530 0.486147
O O1 0.682860 0.188103 0.687784
O O2 0.509999 0.874952 0.011943
O O3 0.261493 0.947176 0.730905
O O4 0.500000 0.000000 0.000000
O O5 0.528262 0.745695 0.030765
O O6 0.726382 0.048110 0.737625
O O7 0.861656 0.925038 0.146680
O O8 0.996459 0.755518 0.498855
O O9 0.947082 0.847278 0.509994
O O10 0.262127 0.079036 0.264927
O O11 0.329538 0.772024 0.686895
O O12 0.026163 0.632674 0.517021
O O13 0.542597 0.403184 0.983048
O O14 0.861886 0.699749 0.859124
O O15 0.000000 0.000000 0.500000
O O16 0.500000 0.500000 0.000000
O O17 0.718757 0.421229 0.268588
O O18 0.000000 0.500000 0.500000
#
# Coordination Sequence:
#
# PCOD8043854 Si02
#       8
#     2   2   2   2   2   2   2   2
#     4  11  22  39  61  88 121 158 197 242 289 347
#     4  10  20  34  58  89 117 154 194 235 289 352
#     4  11  20  35  60  89 117 153 195 240 288 350
#     4   9  18  34  57  86 118 156 195 236 288 350
#     4  10  19  37  60  86 116 153 196 241 290 351
#     4  12  24  41  60  85 116 154 196 245 300 355
#     4  11  24  40  60  85 114 152 195 244 299 353
#     4  10  21  38  59  88 120 156 197 239 288 344
#
# _framework density 20.173095
#
# number of rings (size 3 to 8) (size 9 to 14) (size 15 to 20)
#    0.000    1.500    0.000    9.000    0.000    4.000 
#    0.000    7.500    0.000    0.000    0.000    0.000 
#    0.000    0.000    0.000    0.000    0.000    0.000 
#
# Total GULP energy -198312.081463 kJ/mol
# GULP energy per Si atom -12394.505091 kJ/mol
# Density = 2.012718 g / cm^3
# Si number density = 20.173095 Si / 1000 Ang^3
#
#
#
# Elastic Constant Matrix: (Units=GPa)
#
#
# Indices 1 2 3 4 5 6 
#
# 1 170.5800 53.9378 34.5131 7.0638 16.4053 -33.3738
# 2 53.9378 96.9576 12.4708 5.8119 6.3956 -26.2748
# 3 34.5131 12.4708 46.7579 5.4136 1.2706 -9.8390
# 4 7.0638 5.8119 5.4136 21.7014 -8.9112 -2.0737
# 5 16.4053 6.3956 1.2706 -8.9112 36.4493 2.8335
# 6 -33.3738 -26.2748 -9.8390 -2.0737 2.8335 42.5165
#
#
#
# Elastic Compliance Matrix: (Units=1/GPa)
#
#
# Indices 1 2 3 4 5 6 
#
# 1 0.009085 -0.002807 -0.004610 -0.002423 -0.004378 0.004504
# 2 -0.002807 0.013970 0.000154 -0.003273 -0.002497 0.006473
# 3 -0.004610 0.000154 0.025782 -0.004846 -0.000208 0.002221
# 4 -0.002423 -0.003273 -0.004846 0.055014 0.015548 -0.003399
# 5 -0.004378 -0.002497 -0.000208 0.015548 0.034161 -0.006547
# 6 0.004504 0.006473 0.002221 -0.003399 -0.006547 0.031840
#
#
# Mechanical properties :
#
#
# Convention : Reuss Voigt Hill
#
# Bulk Modulus (GPa) = 29.14328 57.34879 43.24603
# Shear Modulus (GPa) = 25.53423 34.35837 29.94630
#
# Velocity S-wave (km/s) = 3.56161 4.13143 3.85706
# Velocity P-wave (km/s) = 5.60280 7.15880 6.42805
#
# Compressibility (1/GPa) = 0.03431323
#
# Stress axis : x y z
#
# Youngs Moduli (GPa) = 110.06952 71.58069 38.78612
#
# Poissons Ratio (x) = 0.20090 0.17881
# Poissons Ratio (y) = 0.30892 -0.00599
# Poissons Ratio (z) = 0.50744 -0.01106
#
# Static dielectric constant tensor:
#      x y z
#    x 4.145440 -0.172350 -0.125790 
#    y -0.172350 3.264130 0.397810 
#    z -0.125790 0.397810 3.358600 
# 
# 
# High freq. dielectric constant tensor:
#      x y z
#    x 1.811560 -0.027430 0.011340 
#    y -0.027430 1.777070 0.017340 
#    z 0.011340 0.017340 1.783030 
# 
# From -- ./inp_files/281977.got.cif
#   From: 2010.06.25/outbox.cif.g09.slc.cpg/sg2_141_cif.got.tgz:281977.got - 2010.06.27 13:26:56.
