data_PCOD8043955
_publ_section_title
;
Structure prediction by ZEFSAII (Michael W. Deem and Ramdas Pophale) SiO2 
 PCOD8043955
Probable space group: P -1
;
_chemical_formula_sum "Si O2"
_cell_formula_units_Z 16
_cell_length_a 15.635809
_cell_length_b 5.156779
_cell_length_c 11.853970
_cell_angle_alpha 103.427725
_cell_angle_beta 101.109231
_cell_angle_gamma 58.150208
_cell_volume 786.836742
_symmetry_space_group_name_H-M "P -1"
_symmetry_group_IT_number 2
_symmetry_cell_setting 'triclinic'
loop_
_space_group_symop_operation_xyz
x,y,z
-x,-y,-z
loop_
_atom_site_type_symbol
_atom_site_label
_atom_site_fract_x
_atom_site_fract_y
_atom_site_fract_z
Si Si1 0.296367 0.253227 0.124753
Si Si2 0.353545 0.876221 0.646238
Si Si3 0.763850 0.771978 0.128496
Si Si4 0.753128 0.936797 0.691646
Si Si5 0.672140 0.645975 0.500177
Si Si6 0.109632 0.951983 0.901496
Si Si7 0.104114 0.918283 0.153089
Si Si8 0.420228 0.412192 0.323039
O O1 0.187889 0.561249 0.136351
O O2 0.389035 0.299313 0.190666
O O3 0.290587 0.019137 0.187444
O O4 0.311459 0.125670 0.988583
O O5 0.297446 0.695949 0.570332
O O6 0.471284 0.621445 0.671569
O O7 0.303764 0.037789 0.765851
O O8 0.351839 0.130268 0.588734
O O9 0.812232 0.410921 0.129906
O O10 0.851700 0.850892 0.136304
O O11 0.861580 0.913345 0.728643
O O12 0.666662 0.236766 0.634221
O O13 0.764393 0.639781 0.596105
O O14 0.579971 0.769618 0.581037
O O15 0.093469 0.058758 0.038962
O O16 0.002258 0.036759 0.828669
#
# Coordination Sequence:
#
# PCOD8043955 Si02
#       8
#     2   2   2   2   2   2   2   2
#     4   9  20  35  60  91 123 146 191 239 305 343
#     4  12  25  39  61  83 121 164 196 232 294 342
#     4  11  23  41  56  87 128 158 188 233 286 373
#     4  10  19  37  61  92 117 146 189 262 290 333
#     4  11  23  40  61  86 114 151 208 250 283 330
#     4  10  21  37  62  89 120 150 195 238 291 353
#     4   9  19  34  63  93 115 149 190 249 300 333
#     4  10  22  38  62  91 114 149 201 256 283 338
#
# _framework density 20.334586999999999
#
# number of rings (size 3 to 8) (size 9 to 14) (size 15 to 20)
#    0.000    1.750    2.500    1.500    5.250    2.000 
#    0.000    0.625    0.000    4.500    0.000    0.000 
#    0.000    0.000    0.000    0.000    0.000    0.000 
#
# Total GULP energy -198301.228193 kJ/mol
# GULP energy per Si atom -12393.826762 kJ/mol
# Density = 2.028830 g / cm^3
# Si number density = 20.334587 Si / 1000 Ang^3
#
#
#
# Elastic Constant Matrix: (Units=GPa)
#
#
# Indices 1 2 3 4 5 6 
#
# 1 73.7640 19.8198 55.2645 3.0769 4.4539 13.5917
# 2 19.8198 43.8592 32.4226 2.1961 5.6834 13.4578
# 3 55.2645 32.4226 142.6785 16.1539 4.4310 0.8885
# 4 3.0769 2.1961 16.1539 28.5992 4.6392 4.1218
# 5 4.4539 5.6834 4.4310 4.6392 24.5971 4.5223
# 6 13.5917 13.4578 0.8885 4.1218 4.5223 24.1278
#
#
#
# Elastic Compliance Matrix: (Units=1/GPa)
#
#
# Indices 1 2 3 4 5 6 
#
# 1 0.022778 0.000716 -0.009428 0.004938 -0.001035 -0.013533
# 2 0.000716 0.035264 -0.008679 0.005660 -0.004114 -0.019948
# 3 -0.009428 -0.008679 0.013399 -0.007566 0.000738 0.010813
# 4 0.004938 0.005660 -0.007566 0.040972 -0.006462 -0.011448
# 5 -0.001035 -0.004114 0.000738 -0.006462 0.043656 -0.004228
# 6 -0.013533 -0.019948 0.010813 -0.011448 -0.004228 0.062546
#
#
# Mechanical properties :
#
#
# Convention : Reuss Voigt Hill
#
# Bulk Modulus (GPa) = 27.27967 52.81282 40.04625
# Shear Modulus (GPa) = 18.82402 25.65115 22.23758
#
# Velocity S-wave (km/s) = 3.04586 3.55555 3.31053
# Velocity P-wave (km/s) = 5.08077 6.54860 5.86082
#
# Compressibility (1/GPa) = 0.03665733
#
# Stress axis : x y z
#
# Youngs Moduli (GPa) = 43.90174 28.35776 74.63102
#
# Poissons Ratio (x) = -0.02029 0.70363
# Poissons Ratio (y) = -0.03142 0.64775
# Poissons Ratio (z) = 0.41391 0.24613
#
# Static dielectric constant tensor:
#      x y z
#    x 3.635740 0.281530 0.300440 
#    y 0.281530 3.536910 -0.131590 
#    z 0.300440 -0.131590 3.964210 
# 
# 
# High freq. dielectric constant tensor:
#      x y z
#    x 1.779320 0.033990 0.025970 
#    y 0.033990 1.777290 -0.012880 
#    z 0.025970 -0.012880 1.798430 
# 
# From -- ./inp_files/76770.got.cif
#   From: 2010.06.25/outbox.cif.g09.slc.cpg/sg2_39_cif.got.tgz:76770.got - 2010.06.27 13:26:56.
