data_PCOD8043462
_publ_section_title
;
Structure prediction by ZEFSAII (Michael W. Deem and Ramdas Pophale) SiO2 
 PCOD8043462
Probable space group: P -1
;
_chemical_formula_sum "Si O2"
_cell_formula_units_Z 14
_cell_length_a 11.244431
_cell_length_b 9.143153
_cell_length_c 10.846926
_cell_angle_alpha 64.168997
_cell_angle_beta 70.740139
_cell_angle_gamma 114.207433
_cell_volume 718.697531
_symmetry_space_group_name_H-M "P -1"
_symmetry_group_IT_number 2
_symmetry_cell_setting 'triclinic'
loop_
_space_group_symop_operation_xyz
x,y,z
-x,-y,-z
loop_
_atom_site_type_symbol
_atom_site_label
_atom_site_fract_x
_atom_site_fract_y
_atom_site_fract_z
Si Si1 0.867779 0.964199 0.969232
Si Si2 0.556158 0.572644 0.120536
Si Si3 0.891863 0.244953 0.262760
Si Si4 0.151607 0.726438 0.008913
Si Si5 0.861382 0.836147 0.765800
Si Si6 0.318682 0.089983 0.351242
Si Si7 0.464585 0.832205 0.972074
O O1 0.691210 0.719885 0.129667
O O2 0.936285 0.004329 0.791798
O O3 0.841053 0.130220 0.943047
O O4 0.000000 0.000000 0.000000
O O5 0.452718 0.325182 0.280215
O O6 0.445059 0.642681 0.117815
O O7 0.663946 0.628729 0.937395
O O8 0.971914 0.489257 0.165308
O O9 0.032447 0.235414 0.257785
O O10 0.733186 0.086271 0.463982
O O11 0.829364 0.176902 0.168441
O O12 0.299587 0.726759 0.987555
O O13 0.847182 0.940704 0.612446
O O14 0.383734 0.051681 0.220966
O O15 0.500000 0.000000 0.000000
#
# Coordination Sequence:
#
# PCOD8043462 Si02
#       7
#     2   2   2   2   2   2   2
#     4  10  19  36  63  81 107 147 198 225 274 349
#     4   9  19  35  62  85 106 151 185 236 274 334
#     4  11  23  35  59  84 116 153 184 244 274 334
#     4  11  21  39  57  82 115 155 193 220 294 338
#     4   9  18  36  61  82 108 152 188 231 279 333
#     4  11  21  37  57  90 115 141 199 232 281 328
#     4  11  20  37  62  84 116 151 185 232 284 342
#
# _framework density 19.479680999999999
#
# number of rings (size 3 to 8) (size 9 to 14) (size 15 to 20)
#    0.857    0.857    2.857    3.857    0.000    0.571 
#    0.000    5.000    0.000    0.000    0.000    0.000 
#    0.000    0.000    0.000    0.000    0.000    0.000 
#
# Total GULP energy -173487.129489 kJ/mol
# GULP energy per Si atom -12391.937821 kJ/mol
# Density = 1.943534 g / cm^3
# Si number density = 19.479681 Si / 1000 Ang^3
#
#
#
# Elastic Constant Matrix: (Units=GPa)
#
#
# Indices 1 2 3 4 5 6 
#
# 1 100.5335 11.6228 13.9726 -7.8229 4.7296 6.6926
# 2 11.6228 111.8166 39.7131 -9.2366 1.2192 -3.1901
# 3 13.9726 39.7131 101.1348 -11.9222 12.7956 0.0427
# 4 -7.8229 -9.2366 -11.9222 11.2722 0.9871 -3.9779
# 5 4.7296 1.2192 12.7956 0.9871 16.2167 8.0820
# 6 6.6926 -3.1901 0.0427 -3.9779 8.0820 28.2461
#
#
#
# Elastic Compliance Matrix: (Units=1/GPa)
#
#
# Indices 1 2 3 4 5 6 
#
# 1 0.010753 -0.000502 -0.000072 0.006989 -0.003102 -0.000733
# 2 -0.000502 0.010766 -0.003694 0.005091 0.001069 0.001752
# 3 -0.000072 -0.003694 0.015385 0.016933 -0.016152 0.006583
# 4 0.006989 0.005091 0.016933 0.128710 -0.037437 0.027732
# 5 -0.003102 0.001069 -0.016152 -0.037437 0.092958 -0.030990
# 6 -0.000733 0.001752 0.006583 0.027732 -0.030990 0.048537
#
#
# Mechanical properties :
#
#
# Convention : Reuss Voigt Hill
#
# Bulk Modulus (GPa) = 35.24991 49.34465 42.29728
# Shear Modulus (GPa) = 15.37976 27.69207 21.53591
#
# Velocity S-wave (km/s) = 2.81290 3.77448 3.32860
# Velocity P-wave (km/s) = 5.35583 6.66198 6.04429
#
# Compressibility (1/GPa) = 0.02836886
#
# Stress axis : x y z
#
# Youngs Moduli (GPa) = 92.99310 92.88262 64.99711
#
# Poissons Ratio (x) = 0.04663 0.00468
# Poissons Ratio (y) = 0.04668 0.24011
# Poissons Ratio (z) = 0.00669 0.34312
#
# Static dielectric constant tensor:
#      x y z
#    x 3.722000 -0.045910 0.036010 
#    y -0.045910 3.650480 -0.030570 
#    z 0.036010 -0.030570 3.221380 
# 
# 
# High freq. dielectric constant tensor:
#      x y z
#    x 1.774400 0.005720 0.002970 
#    y 0.005720 1.763980 -0.004260 
#    z 0.002970 -0.004260 1.713510 
# 
# From -- ./inp_files/416541.got.cif
#   From: 2010.06.25/outbox.cif.g09.slc.cpg/sg2_209_cif.got.tgz:416541.got - 2010.06.27 13:26:56.
