data_PCOD8043007
_publ_section_title
;
Structure prediction by ZEFSAII (Michael W. Deem and Ramdas Pophale) SiO2 
 PCOD8043007
Probable space group: P -1
;
_chemical_formula_sum "Si O2"
_cell_formula_units_Z 12
_cell_length_a 7.685279
_cell_length_b 5.349813
_cell_length_c 13.154408
_cell_angle_alpha 90.805774
_cell_angle_beta 75.407442
_cell_angle_gamma 87.300851
_cell_volume 522.625674
_symmetry_space_group_name_H-M "P -1"
_symmetry_group_IT_number 2
_symmetry_cell_setting 'triclinic'
loop_
_space_group_symop_operation_xyz
x,y,z
-x,-y,-z
loop_
_atom_site_type_symbol
_atom_site_label
_atom_site_fract_x
_atom_site_fract_y
_atom_site_fract_z
Si Si1 0.907142 0.673457 0.298258
Si Si2 0.246358 0.860445 0.996208
Si Si3 0.538210 0.094388 0.842545
Si Si4 0.796910 0.098043 0.631779
Si Si5 0.820855 0.644886 0.085720
Si Si6 0.846701 0.175182 0.404384
O O1 0.933140 0.653850 0.173392
O O2 0.804654 0.432611 0.351501
O O3 0.103411 0.679688 0.322743
O O4 0.791893 0.933930 0.344071
O O5 0.134936 0.616483 0.982630
O O6 0.432195 0.859585 0.902026
O O7 0.128839 0.117469 0.989896
O O8 0.296146 0.847251 0.107455
O O9 0.618940 0.029919 0.719292
O O10 0.394176 0.332674 0.857762
O O11 0.738927 0.184416 0.527183
O O12 0.937688 0.855342 0.602683
#
# Coordination Sequence:
#
# PCOD8043007 Si02
#       6
#     2   2   2   2   2   2
#     4  10  19  36  56  77 108 141 170 218 269 305
#     4   9  20  36  56  76 109 140 174 215 261 313
#     4   9  20  36  58  79 103 141 182 213 257 315
#     4   9  20  36  58  79 103 141 182 213 257 315
#     4  10  19  36  56  77 108 141 170 218 269 305
#     4   9  20  36  56  76 109 140 174 215 261 313
#
# _framework density 22.960984
#
# number of rings (size 3 to 8) (size 9 to 14) (size 15 to 20)
#    2.000    0.667    0.000    2.000    0.000    1.333 
#    0.000    3.333    0.000    0.000    0.000    0.000 
#    0.000    0.000    0.000    0.000    0.000    0.000 
#
# Total GULP energy -148695.143129 kJ/mol
# GULP energy per Si atom -12391.261927 kJ/mol
# Density = 2.290872 g / cm^3
# Si number density = 22.960984 Si / 1000 Ang^3
#
#
#
# Elastic Constant Matrix: (Units=GPa)
#
#
# Indices 1 2 3 4 5 6 
#
# 1 39.5450 41.7723 37.2762 -0.8464 -5.8423 12.1377
# 2 41.7723 130.3716 7.4057 12.2711 8.0647 12.6368
# 3 37.2762 7.4057 54.6430 23.8995 1.1099 -10.7752
# 4 -0.8464 12.2711 23.8995 22.2433 2.2405 7.8758
# 5 -5.8423 8.0647 1.1099 2.2405 38.3935 5.6222
# 6 12.1377 12.6368 -10.7752 7.8758 5.6222 28.1987
#
#
#
# Elastic Compliance Matrix: (Units=1/GPa)
#
#
# Indices 1 2 3 4 5 6 
#
# 1 -0.006978 0.002251 0.023534 -0.033940 -0.003329 0.021130
# 2 0.002251 0.007596 -0.007690 0.007489 -0.000094 -0.009385
# 3 0.023534 -0.007690 -0.009198 0.020449 0.006797 -0.017265
# 4 -0.033940 0.007489 0.020449 0.012355 -0.010647 0.017739
# 5 -0.003329 -0.000094 0.006797 -0.010647 0.025703 0.001921
# 6 0.021130 -0.009385 -0.017265 0.017739 0.001921 0.018639
#
#
# Mechanical properties :
#
#
# Convention : Reuss Voigt Hill
#
# Bulk Modulus (GPa) = 36.21661 44.16310 40.18985
# Shear Modulus (GPa) = 236.62670 26.97412 131.80041
#
# Velocity S-wave (km/s) = 10.16266 3.43123 7.58462
# Velocity P-wave (km/s) = 12.39006 5.91384 9.70791
#
# Compressibility (1/GPa) = 0.02761164
#
# Stress axis : x y z
#
# Youngs Moduli (GPa) = -143.31591 131.64162 -108.72346
#
# Poissons Ratio (x) = -0.29635 2.55867
# Poissons Ratio (y) = 0.32263 -0.83605
# Poissons Ratio (z) = 3.37276 1.01228
#
# Static dielectric constant tensor:
#      x y z
#    x 3.670690 0.013300 0.017660 
#    y 0.013300 3.782390 -0.052200 
#    z 0.017660 -0.052200 3.877360 
# 
# 
# High freq. dielectric constant tensor:
#      x y z
#    x 1.883660 0.005290 -0.003570 
#    y 0.005290 1.887130 -0.004970 
#    z -0.003570 -0.004970 1.908900 
# 
# From -- ./inp_files/92114.got.cif
#   From: 2010.06.25/outbox.cif.g09.slc.cpg/sg2_47_cif.got.tgz:92114.got - 2010.06.27 13:26:56.
