data_PCOD8043470
_publ_section_title
;
Structure prediction by ZEFSAII (Michael W. Deem and Ramdas Pophale) SiO2 
 PCOD8043470
Probable space group: P -1
;
_chemical_formula_sum "Si O2"
_cell_formula_units_Z 16
_cell_length_a 20.829080
_cell_length_b 17.917071
_cell_length_c 8.651881
_cell_angle_alpha 62.200544
_cell_angle_beta 126.504498
_cell_angle_gamma 160.987573
_cell_volume 786.567120
_symmetry_space_group_name_H-M "P -1"
_symmetry_group_IT_number 2
_symmetry_cell_setting 'triclinic'
loop_
_space_group_symop_operation_xyz
x,y,z
-x,-y,-z
loop_
_atom_site_type_symbol
_atom_site_label
_atom_site_fract_x
_atom_site_fract_y
_atom_site_fract_z
Si Si1 0.949931 0.876212 0.163942
Si Si2 0.547454 0.389150 0.912171
Si Si3 0.534692 0.625484 0.501833
Si Si4 0.322172 0.818995 0.279551
Si Si5 0.456296 0.801270 0.890753
Si Si6 0.976784 0.547380 0.549917
Si Si7 0.751127 0.743775 0.313548
Si Si8 0.486219 0.076156 0.829629
O O1 0.783516 0.750470 0.177269
O O2 0.808932 0.661740 0.086321
O O3 0.194183 0.081553 0.373831
O O4 0.000000 0.000000 0.000000
O O5 0.565151 0.406606 0.732901
O O6 0.377984 0.294397 0.822698
O O7 0.459132 0.209750 0.015823
O O8 0.500000 0.500000 0.500000
O O9 0.392530 0.477474 0.601642
O O10 0.376827 0.796275 0.260402
O O11 0.075834 0.551332 0.264535
O O12 0.500000 0.000000 0.500000
O O13 0.337483 0.926663 0.116194
O O14 0.225207 0.589565 0.662754
O O15 0.404702 0.752943 0.050036
O O16 0.000000 0.500000 0.500000
O O17 0.219193 0.837436 0.638300
O O18 0.000000 0.000000 0.500000
O O19 0.500000 0.000000 0.000000
#
# Coordination Sequence:
#
# PCOD8043470 Si02
#       8
#     2   2   2   2   2   2   2   2
#     4  12  21  38  68  89 112 165 207 242 301 363
#     4  11  23  40  60  90 127 151 201 260 304 349
#     4  10  20  38  61  87 119 150 203 244 296 361
#     4   9  18  36  64  86 117 155 204 236 283 360
#     4  10  23  39  57  91 125 151 198 255 299 344
#     4  11  19  38  65  86 118 160 204 240 287 358
#     4  11  20  39  67  84 116 159 204 245 296 370
#     4  10  19  36  63  85 115 160 200 233 294 354
#
# _framework density 20.341557000000002
#
# number of rings (size 3 to 8) (size 9 to 14) (size 15 to 20)
#    0.000    1.500    8.750    0.375    0.000    3.000 
#    0.000    5.000    0.000    0.000    0.000    0.000 
#    0.000    0.000    0.000    0.000    0.000    0.000 
#
# Total GULP energy -198238.551327 kJ/mol
# GULP energy per Si atom -12389.909458 kJ/mol
# Density = 2.029526 g / cm^3
# Si number density = 20.341557 Si / 1000 Ang^3
#
#
#
# Elastic Constant Matrix: (Units=GPa)
#
#
# Indices 1 2 3 4 5 6 
#
# 1 78.6845 52.2169 44.5920 -16.7817 -9.6149 12.2876
# 2 52.2169 100.4239 42.7168 -4.6977 -0.1070 13.6264
# 3 44.5920 42.7168 96.3570 3.3579 -4.8373 -2.1782
# 4 -16.7817 -4.6977 3.3579 39.8778 3.4393 -7.0121
# 5 -9.6149 -0.1070 -4.8373 3.4393 32.9117 -8.2100
# 6 12.2876 13.6264 -2.1782 -7.0121 -8.2100 36.3892
#
#
#
# Elastic Compliance Matrix: (Units=1/GPa)
#
#
# Indices 1 2 3 4 5 6 
#
# 1 0.027063 -0.009594 -0.008446 0.010020 0.004830 -0.003031
# 2 -0.009594 0.016857 -0.003268 -0.002234 -0.004151 -0.004635
# 3 -0.008446 -0.003268 0.016073 -0.004633 0.001486 0.004481
# 4 0.010020 -0.002234 -0.004633 0.029946 -0.000165 0.002909
# 5 0.004830 -0.004151 0.001486 -0.000165 0.033922 0.007634
# 6 -0.003031 -0.004635 0.004481 0.002909 0.007634 0.032791
#
#
# Mechanical properties :
#
#
# Convention : Reuss Voigt Hill
#
# Bulk Modulus (GPa) = 57.55165 61.61296 59.58230
# Shear Modulus (GPa) = 24.38303 30.89840 27.64072
#
# Velocity S-wave (km/s) = 3.46595 3.90164 3.69023
# Velocity P-wave (km/s) = 6.66117 7.11702 6.89286
#
# Compressibility (1/GPa) = 0.01737570
#
# Stress axis : x y z
#
# Youngs Moduli (GPa) = 36.95064 59.32404 62.21595
#
# Poissons Ratio (x) = 0.56916 0.52549
# Poissons Ratio (y) = 0.35451 0.20334
# Poissons Ratio (z) = 0.31209 0.19389
#
# Static dielectric constant tensor:
#      x y z
#    x 4.251280 0.027590 -1.030240 
#    y 0.027590 5.116370 0.654210 
#    z -1.030240 0.654210 4.982750 
# 
# 
# High freq. dielectric constant tensor:
#      x y z
#    x 1.769580 0.014070 -0.028560 
#    y 0.014070 1.780360 0.008080 
#    z -0.028560 0.008080 1.807400 
# 
# From -- ./inp_files/348452.got.cif
#   From: 2010.06.25/outbox.cif.g09.slc.cpg/sg2_175_cif.got.tgz:348452.got - 2010.06.27 13:26:56.
