data_PCOD8043157
_publ_section_title
;
Structure prediction by ZEFSAII (Michael W. Deem and Ramdas Pophale) SiO2 
 PCOD8043157
Probable space group: P -1
;
_chemical_formula_sum "Si O2"
_cell_formula_units_Z 16
_cell_length_a 8.930007
_cell_length_b 11.524231
_cell_length_c 12.505948
_cell_angle_alpha 49.982509
_cell_angle_beta 62.442163
_cell_angle_gamma 74.166779
_cell_volume 873.246864
_symmetry_space_group_name_H-M "P -1"
_symmetry_group_IT_number 2
_symmetry_cell_setting 'triclinic'
loop_
_space_group_symop_operation_xyz
x,y,z
-x,-y,-z
loop_
_atom_site_type_symbol
_atom_site_label
_atom_site_fract_x
_atom_site_fract_y
_atom_site_fract_z
Si Si1 0.441626 0.545363 0.833165
Si Si2 0.994257 0.621006 0.267883
Si Si3 0.336557 0.443760 0.709627
Si Si4 0.989943 0.290371 0.556241
Si Si5 0.489224 0.992421 0.688648
Si Si6 0.679839 0.833153 0.545377
Si Si7 0.670303 0.311352 0.007580
Si Si8 0.616856 0.267880 0.621002
O O1 0.318022 0.483137 0.817163
O O2 0.579436 0.670555 0.670569
O O3 0.320095 0.616832 0.919252
O O4 0.535705 0.401334 0.931269
O O5 0.968818 0.718712 0.325635
O O6 0.831269 0.633471 0.239227
O O7 0.028065 0.453420 0.395544
O O8 0.148500 0.683581 0.109675
O O9 0.486848 0.325647 0.718696
O O10 0.377021 0.604468 0.546587
O O11 0.796036 0.239217 0.633468
O O12 0.118329 0.182848 0.516847
O O13 0.643810 0.919243 0.616843
O O14 0.385811 0.864176 0.864172
O O15 0.368313 0.068747 0.598652
O O16 0.558233 0.109668 0.683592
#
# Coordination Sequence:
#
# PCOD8043157 Si02
#       8
#     2   2   2   2   2   2   2   2
#     4  10  19  36  59  82 112 151 190 224 272 336
#     4  10  20  35  56  87 112 144 191 232 278 324
#     4  10  20  34  60  83 110 147 191 237 265 330
#     4  10  20  34  60  83 110 147 191 237 265 330
#     4  10  21  36  57  84 116 148 181 230 283 333
#     4  10  19  36  59  82 112 151 190 224 272 336
#     4  10  21  36  57  84 116 148 181 230 283 333
#     4  10  20  35  56  87 112 144 191 232 278 324
#
# _framework density 18.322424000000002
#
# number of rings (size 3 to 8) (size 9 to 14) (size 15 to 20)
#    0.000    2.000    2.500    1.500    3.500    1.000 
#    0.000    6.250    0.000    0.000    0.000    0.000 
#    0.000    0.000    0.000    0.000    0.000    0.000 
#
# Total GULP energy -198402.323490 kJ/mol
# GULP energy per Si atom -12400.145218 kJ/mol
# Density = 1.828072 g / cm^3
# Si number density = 18.322424 Si / 1000 Ang^3
#
#
#
# Elastic Constant Matrix: (Units=GPa)
#
#
# Indices 1 2 3 4 5 6 
#
# 1 107.8295 61.2797 45.8070 11.9513 -5.0305 3.9989
# 2 61.2797 92.0086 56.4514 13.8131 -4.5178 9.3968
# 3 45.8070 56.4514 87.3800 -8.2273 -12.6496 -0.8990
# 4 11.9513 13.8131 -8.2273 27.8229 -1.2276 -4.5224
# 5 -5.0305 -4.5178 -12.6496 -1.2276 24.9503 7.7133
# 6 3.9989 9.3968 -0.8990 -4.5224 7.7133 35.1810
#
#
#
# Elastic Compliance Matrix: (Units=1/GPa)
#
#
# Indices 1 2 3 4 5 6 
#
# 1 0.015550 -0.007312 -0.003868 -0.004270 -0.000233 -0.000411
# 2 -0.007312 0.030761 -0.018420 -0.019285 -0.003215 -0.009630
# 3 -0.003868 -0.018420 0.028765 0.020818 0.009420 0.006706
# 4 -0.004270 -0.019285 0.020818 0.055717 0.005172 0.012197
# 5 -0.000233 -0.003215 0.009420 0.005172 0.047121 -0.008540
# 6 -0.000411 -0.009630 0.006706 0.012197 -0.008540 0.034655
#
#
# Mechanical properties :
#
#
# Convention : Reuss Voigt Hill
#
# Bulk Modulus (GPa) = 62.98820 68.25492 65.62156
# Shear Modulus (GPa) = 18.04666 25.83618 21.94142
#
# Velocity S-wave (km/s) = 3.14179 3.75918 3.46427
# Velocity P-wave (km/s) = 6.90025 7.49499 7.20376
#
# Compressibility (1/GPa) = 0.01587599
#
# Stress axis : x y z
#
# Youngs Moduli (GPa) = 64.30837 32.50909 34.76472
#
# Poissons Ratio (x) = 0.23770 0.13447
# Poissons Ratio (y) = 0.47021 0.64036
# Poissons Ratio (z) = 0.24875 0.59882
#
# Static dielectric constant tensor:
#      x y z
#    x 3.223120 -0.031370 0.071730 
#    y -0.031370 3.448020 0.086260 
#    z 0.071730 0.086260 3.335550 
# 
# 
# High freq. dielectric constant tensor:
#      x y z
#    x 1.700900 -0.003140 0.006740 
#    y -0.003140 1.714850 0.009900 
#    z 0.006740 0.009900 1.702040 
# 
# From -- ./inp_files/254495.got.cif
#   From: 2010.06.25/outbox.cif.g09.slc.cpg/sg2_128_cif.got.tgz:254495.got - 2010.06.27 13:26:56.
