data_PCOD8043872
_publ_section_title
;
Structure prediction by ZEFSAII (Michael W. Deem and Ramdas Pophale) SiO2 
 PCOD8043872
Probable space group: P -1
;
_chemical_formula_sum "Si O2"
_cell_formula_units_Z 14
_cell_length_a 11.841321
_cell_length_b 9.268294
_cell_length_c 21.015671
_cell_angle_alpha 138.856999
_cell_angle_beta 151.714026
_cell_angle_gamma 39.639221
_cell_volume 675.489844
_symmetry_space_group_name_H-M "P -1"
_symmetry_group_IT_number 2
_symmetry_cell_setting 'triclinic'
loop_
_space_group_symop_operation_xyz
x,y,z
-x,-y,-z
loop_
_atom_site_type_symbol
_atom_site_label
_atom_site_fract_x
_atom_site_fract_y
_atom_site_fract_z
Si Si1 0.700353 0.431761 0.520668
Si Si2 0.651223 0.662982 0.999847
Si Si3 0.455510 0.721485 0.735896
Si Si4 0.778156 0.924214 0.030884
Si Si5 0.011747 0.169277 0.693774
Si Si6 0.483075 0.911227 0.532107
Si Si7 0.645158 0.294538 0.781574
O O1 0.500000 0.500000 0.500000
O O2 0.604934 0.300356 0.374697
O O3 0.957274 0.258139 0.622925
O O4 0.723433 0.672726 0.584858
O O5 0.698901 0.785540 0.001138
O O6 0.880555 0.646932 0.156521
O O7 0.649343 0.410621 0.891366
O O8 0.378815 0.801450 0.943869
O O9 0.517958 0.478743 0.723935
O O10 0.687006 0.823865 0.888548
O O11 0.213244 0.910081 0.711707
O O12 0.075742 0.869645 0.157209
O O13 0.767604 0.156143 0.605718
O O14 0.500000 0.000000 0.500000
O O15 0.488177 0.116973 0.651354
#
# Coordination Sequence:
#
# PCOD8043872 Si02
#       7
#     2   2   2   2   2   2   2
#     4  10  22  37  59  83 116 156 196 237 283 350
#     4   9  18  35  56  86 112 153 195 236 286 338
#     4  10  19  37  60  89 110 156 200 238 288 337
#     4   9  19  32  58  86 116 147 198 240 280 345
#     4  10  22  38  62  83 119 152 198 240 280 356
#     4  11  22  38  56  90 119 152 193 238 297 340
#     4  11  21  34  60  88 123 145 191 242 301 333
#
# _framework density 20.725698999999999
#
# number of rings (size 3 to 8) (size 9 to 14) (size 15 to 20)
#    0.000    2.000    1.429    3.857    6.000    0.571 
#    2.571    0.714    0.000    1.714    0.000    0.000 
#    0.000    0.000    0.000    0.000    0.000    0.000 
#
# Total GULP energy -173495.599874 kJ/mol
# GULP energy per Si atom -12392.542848 kJ/mol
# Density = 2.067853 g / cm^3
# Si number density = 20.725699 Si / 1000 Ang^3
#
#
#
# Elastic Constant Matrix: (Units=GPa)
#
#
# Indices 1 2 3 4 5 6 
#
# 1 49.2000 31.6217 34.4342 -2.0578 -20.9528 5.0581
# 2 31.6217 97.5089 54.1858 -7.2928 2.9019 1.2706
# 3 34.4342 54.1858 129.0489 -0.5546 -36.8920 0.4019
# 4 -2.0578 -7.2928 -0.5546 36.8985 -5.7946 -6.4654
# 5 -20.9528 2.9019 -36.8920 -5.7946 32.7720 0.6797
# 6 5.0581 1.2706 0.4019 -6.4654 0.6797 27.6027
#
#
#
# Elastic Compliance Matrix: (Units=1/GPa)
#
#
# Indices 1 2 3 4 5 6 
#
# 1 0.046294 -0.020299 0.007999 0.003800 0.041234 -0.007791
# 2 -0.020299 0.025734 -0.014475 -0.000657 -0.031738 0.003374
# 3 0.007999 -0.014475 0.020140 0.002296 0.029500 -0.001281
# 4 0.003800 -0.000657 0.002296 0.029885 0.010231 0.006048
# 5 0.041234 -0.031738 0.029500 0.010231 0.094839 -0.006464
# 6 -0.007791 0.003374 -0.001281 0.006048 -0.006464 0.039095
#
#
# Mechanical properties :
#
#
# Convention : Reuss Voigt Hill
#
# Bulk Modulus (GPa) = 25.89580 57.36014 41.62797
# Shear Modulus (GPa) = 15.50822 29.82238 22.66530
#
# Velocity S-wave (km/s) = 2.73840 3.79741 3.31053
# Velocity P-wave (km/s) = 4.74554 6.85296 5.89420
#
# Compressibility (1/GPa) = 0.03861630
#
# Stress axis : x y z
#
# Youngs Moduli (GPa) = 21.60129 38.85921 49.65258
#
# Poissons Ratio (x) = 0.78882 -0.39718
# Poissons Ratio (y) = 0.43849 0.71874
# Poissons Ratio (z) = -0.17279 0.56250
#
# Static dielectric constant tensor:
#      x y z
#    x 3.461710 0.017790 -0.479450 
#    y 0.017790 4.623690 -0.042590 
#    z -0.479450 -0.042590 4.404530 
# 
# 
# High freq. dielectric constant tensor:
#      x y z
#    x 1.769400 -0.020550 -0.028660 
#    y -0.020550 1.814690 -0.004770 
#    z -0.028660 -0.004770 1.822680 
# 
# From -- ./inp_files/257434.got.cif
#   From: 2010.06.25/outbox.cif.g09.slc.cpg/sg2_129_cif.got.tgz:257434.got - 2010.06.27 13:26:56.
