data_PCOD8043688
_publ_section_title
;
Structure prediction by ZEFSAII (Michael W. Deem and Ramdas Pophale) SiO2 
 PCOD8043688
Probable space group: P -1
;
_chemical_formula_sum "Si O2"
_cell_formula_units_Z 16
_cell_length_a 11.529726
_cell_length_b 11.393897
_cell_length_c 18.008270
_cell_angle_alpha 141.607568
_cell_angle_beta 42.716982
_cell_angle_gamma 109.517908
_cell_volume 816.269771
_symmetry_space_group_name_H-M "P -1"
_symmetry_group_IT_number 2
_symmetry_cell_setting 'triclinic'
loop_
_space_group_symop_operation_xyz
x,y,z
-x,-y,-z
loop_
_atom_site_type_symbol
_atom_site_label
_atom_site_fract_x
_atom_site_fract_y
_atom_site_fract_z
Si Si1 0.602185 0.967164 0.164908
Si Si2 0.782595 0.071098 0.327195
Si Si3 0.000287 0.694651 0.258671
Si Si4 0.733531 0.178681 0.566514
Si Si5 0.304529 0.254940 0.831620
Si Si6 0.134079 0.899083 0.958876
Si Si7 0.640249 0.638573 0.421840
Si Si8 0.340787 0.477660 0.110896
O O1 0.721329 0.837111 0.121577
O O2 0.728870 0.997099 0.056371
O O3 0.412186 0.227601 0.407466
O O4 0.548261 0.798331 0.069403
O O5 0.786778 0.182866 0.457689
O O6 0.567437 0.249436 0.474284
O O7 0.783322 0.844898 0.234364
O O8 0.992114 0.992704 0.145399
O O9 0.114011 0.611158 0.243923
O O10 0.815951 0.661146 0.316067
O O11 0.168977 0.531731 0.034826
O O12 0.924493 0.955562 0.408715
O O13 0.539943 0.158861 0.655310
O O14 0.690950 0.408794 0.737399
O O15 0.275522 0.625805 0.744233
O O16 0.000000 0.000000 0.000000
O O17 0.500000 0.500000 0.000000
#
# Coordination Sequence:
#
# PCOD8043688 Si02
#       8
#     2   2   2   2   2   2   2   2
#     4  10  20  36  62  88 114 155 201 253 287 343
#     4  11  24  38  58  93 128 160 192 246 310 365
#     4  11  20  35  64  91 117 159 203 243 303 351
#     4  12  23  38  61  87 128 165 195 244 302 361
#     4  10  19  37  55  89 123 148 195 250 297 351
#     4  12  21  39  62  90 123 154 203 250 299 359
#     4  11  21  38  64  94 119 151 201 248 315 348
#     4  11  21  42  61  87 123 158 208 249 286 355
#
# _framework density 19.601361000000001
#
# number of rings (size 3 to 8) (size 9 to 14) (size 15 to 20)
#    0.000    1.000    8.750    1.875    0.000    1.500 
#    0.000    0.625    0.000    0.750    0.000    0.000 
#    0.000    0.000    0.000    0.000    0.000    0.000 
#
# Total GULP energy -198219.029500 kJ/mol
# GULP energy per Si atom -12388.689344 kJ/mol
# Density = 1.955675 g / cm^3
# Si number density = 19.601361 Si / 1000 Ang^3
#
#
#
# Elastic Constant Matrix: (Units=GPa)
#
#
# Indices 1 2 3 4 5 6 
#
# 1 60.0037 37.3540 53.0931 -1.0044 25.4158 8.2179
# 2 37.3540 97.5102 61.7067 3.2840 12.2303 17.4781
# 3 53.0931 61.7067 143.1986 -1.9261 22.9497 4.6976
# 4 -1.0044 3.2840 -1.9261 24.4828 5.8703 6.0718
# 5 25.4158 12.2303 22.9497 5.8703 40.5475 0.5124
# 6 8.2179 17.4781 4.6976 6.0718 0.5124 20.5511
#
#
#
# Elastic Compliance Matrix: (Units=1/GPa)
#
#
# Indices 1 2 3 4 5 6 
#
# 1 0.035600 -0.004935 -0.007828 0.008234 -0.017458 -0.010247
# 2 -0.004935 0.017635 -0.005573 -0.000385 0.001132 -0.011665
# 3 -0.007828 -0.005573 0.012191 0.000238 -0.000411 0.005023
# 4 0.008234 -0.000385 0.000238 0.048338 -0.011963 -0.017003
# 5 -0.017458 0.001132 -0.000411 -0.011963 0.037118 0.008721
# 6 -0.010247 -0.011665 0.005023 -0.017003 0.008721 0.066335
#
#
# Mechanical properties :
#
#
# Convention : Reuss Voigt Hill
#
# Bulk Modulus (GPa) = 34.77774 67.22445 51.00109
# Shear Modulus (GPa) = 18.97720 27.02019 22.99869
#
# Velocity S-wave (km/s) = 3.11490 3.71682 3.42909
# Velocity P-wave (km/s) = 5.54237 7.26567 6.46173
#
# Compressibility (1/GPa) = 0.02875402
#
# Stress axis : x y z
#
# Youngs Moduli (GPa) = 28.08984 56.70700 82.02451
#
# Poissons Ratio (x) = 0.27984 0.64209
# Poissons Ratio (y) = 0.13862 0.45714
# Poissons Ratio (z) = 0.21989 0.31604
#
# Static dielectric constant tensor:
#      x y z
#    x 3.201390 0.533760 -0.692060 
#    y 0.533760 1.441540 2.861460 
#    z -0.692060 2.861460 -0.102780 
# 
# 
# High freq. dielectric constant tensor:
#      x y z
#    x 1.728750 0.018970 0.002370 
#    y 0.018970 1.739380 0.010160 
#    z 0.002370 0.010160 1.789900 
# 
# From -- ./inp_files/568870.got.cif
#   From: 2010.06.25/outbox.cif.g09.slc.cpg/sg2_285_cif.got.tgz:568870.got - 2010.06.27 13:26:56.
