data_PCOD8043467
_publ_section_title
;
Structure prediction by ZEFSAII (Michael W. Deem and Ramdas Pophale) SiO2 
 PCOD8043467
Probable space group: P -1
;
_chemical_formula_sum "Si O2"
_cell_formula_units_Z 16
_cell_length_a 11.509074
_cell_length_b 15.009537
_cell_length_c 10.397369
_cell_angle_alpha 91.619616
_cell_angle_beta 46.136046
_cell_angle_gamma 125.424187
_cell_volume 814.731389
_symmetry_space_group_name_H-M "P -1"
_symmetry_group_IT_number 2
_symmetry_cell_setting 'triclinic'
loop_
_space_group_symop_operation_xyz
x,y,z
-x,-y,-z
loop_
_atom_site_type_symbol
_atom_site_label
_atom_site_fract_x
_atom_site_fract_y
_atom_site_fract_z
Si Si1 0.027260 0.212073 0.196558
Si Si2 0.097508 0.902520 0.435269
Si Si3 0.766257 0.393270 0.894921
Si Si4 0.883880 0.280001 0.644340
Si Si5 0.226257 0.061163 0.739998
Si Si6 0.316805 0.163868 0.394853
Si Si7 0.219382 0.712283 0.559090
Si Si8 0.569062 0.450706 0.850036
O O1 0.042717 0.194072 0.334398
O O2 0.913283 0.261396 0.266388
O O3 0.848396 0.071447 0.244643
O O4 0.328053 0.332909 0.932363
O O5 0.209487 0.863282 0.273966
O O6 0.903209 0.866827 0.488314
O O7 0.310403 0.064653 0.324610
O O8 0.781940 0.296229 0.839417
O O9 0.637259 0.391797 0.876528
O O10 0.047452 0.552186 0.718669
O O11 0.592748 0.324013 0.154000
O O12 0.769754 0.270475 0.600510
O O13 0.192218 0.417612 0.414548
O O14 0.269088 0.137773 0.582330
O O15 0.490817 0.176397 0.616987
O O16 0.000000 0.000000 0.000000
O O17 0.500000 0.500000 0.000000
#
# Coordination Sequence:
#
# PCOD8043467 Si02
#       8
#     2   2   2   2   2   2   2   2
#     4  10  19  36  63  84 113 150 193 237 280 344
#     4   9  18  36  58  88 114 147 192 233 289 341
#     4  11  21  34  60  92 121 144 187 248 288 342
#     4  10  21  32  59  96 120 142 186 246 288 335
#     4  11  26  40  58  81 113 158 197 236 281 349
#     4  10  21  38  59  82 115 159 191 230 292 342
#     4  10  21  38  58  88 118 154 190 228 287 343
#     4  11  16  32  60  92 116 148 182 234 300 333
#
# _framework density 19.638375
#
# number of rings (size 3 to 8) (size 9 to 14) (size 15 to 20)
#    0.000    1.750    5.000    1.875    3.500    1.000 
#    0.000    3.750    0.000    1.500    0.000    0.000 
#    0.000    0.000    0.000    0.000    0.000    0.000 
#
# Total GULP energy -198326.440544 kJ/mol
# GULP energy per Si atom -12395.402534 kJ/mol
# Density = 1.959368 g / cm^3
# Si number density = 19.638375 Si / 1000 Ang^3
#
#
#
# Elastic Constant Matrix: (Units=GPa)
#
#
# Indices 1 2 3 4 5 6 
#
# 1 72.0019 38.4692 48.2187 -9.6129 -13.8567 3.7169
# 2 38.4692 104.5659 29.5105 -1.8587 -7.5105 -4.7821
# 3 48.2187 29.5105 98.9243 -9.3249 -14.4582 12.8193
# 4 -9.6129 -1.8587 -9.3249 32.8589 6.1457 -8.8686
# 5 -13.8567 -7.5105 -14.4582 6.1457 30.9348 -6.6646
# 6 3.7169 -4.7821 12.8193 -8.8686 -6.6646 28.7572
#
#
#
# Elastic Compliance Matrix: (Units=1/GPa)
#
#
# Indices 1 2 3 4 5 6 
#
# 1 0.024776 -0.005885 -0.009541 0.003939 0.004952 0.002435
# 2 -0.005885 0.012243 -0.001175 -0.000592 0.000611 0.003280
# 3 -0.009541 -0.001175 0.016100 -0.000179 0.001754 -0.005788
# 4 0.003939 -0.000592 -0.000179 0.034657 -0.003326 0.009390
# 5 0.004952 0.000611 0.001754 -0.003326 0.037542 0.006355
# 6 0.002435 0.003280 -0.005788 0.009390 0.006355 0.041953
#
#
# Mechanical properties :
#
#
# Convention : Reuss Voigt Hill
#
# Bulk Modulus (GPa) = 50.21258 56.43207 53.32233
# Shear Modulus (GPa) = 24.14142 29.12977 26.63559
#
# Velocity S-wave (km/s) = 3.50994 3.85555 3.68680
# Velocity P-wave (km/s) = 6.48462 6.97269 6.73308
#
# Compressibility (1/GPa) = 0.01991533
#
# Stress axis : x y z
#
# Youngs Moduli (GPa) = 40.36239 81.67609 62.11354
#
# Poissons Ratio (x) = 0.48067 0.59264
# Poissons Ratio (y) = 0.23753 0.07300
# Poissons Ratio (z) = 0.38511 0.09599
#
# Static dielectric constant tensor:
#      x y z
#    x 3.387050 -0.166560 -0.190210 
#    y -0.166560 3.905760 -0.220860 
#    z -0.190210 -0.220860 3.674690 
# 
# 
# High freq. dielectric constant tensor:
#      x y z
#    x 1.732570 -0.015360 -0.017790 
#    y -0.015360 1.774900 -0.010680 
#    z -0.017790 -0.010680 1.762030 
# 
# From -- ./inp_files/274607.got.cif
#   From: 2010.06.25/outbox.cif.g09.slc.cpg/sg2_138_cif.got.tgz:274607.got - 2010.06.27 13:26:56.
