data_PCOD8043863
_publ_section_title
;
Structure prediction by ZEFSAII (Michael W. Deem and Ramdas Pophale) SiO2 
 PCOD8043863
Probable space group: P -1
;
_chemical_formula_sum "Si O2"
_cell_formula_units_Z 14
_cell_length_a 22.392731
_cell_length_b 9.922601
_cell_length_c 17.268933
_cell_angle_alpha 154.749508
_cell_angle_beta 155.980389
_cell_angle_gamma 23.979895
_cell_volume 575.352285
_symmetry_space_group_name_H-M "P -1"
_symmetry_group_IT_number 2
_symmetry_cell_setting 'triclinic'
loop_
_space_group_symop_operation_xyz
x,y,z
-x,-y,-z
loop_
_atom_site_type_symbol
_atom_site_label
_atom_site_fract_x
_atom_site_fract_y
_atom_site_fract_z
Si Si1 0.868378 0.214400 0.264888
Si Si2 0.576614 0.756058 0.723243
Si Si3 0.095953 0.514445 0.757731
Si Si4 0.401925 0.296513 0.920987
Si Si5 0.059864 0.582116 0.336058
Si Si6 0.970584 0.299148 0.941523
Si Si7 0.620906 0.606921 0.301762
O O1 0.756640 0.528861 0.235093
O O2 0.744186 0.250226 0.207871
O O3 0.016824 0.288206 0.506413
O O4 0.943709 0.816271 0.104107
O O5 0.500000 0.500000 0.500000
O O6 0.771704 0.535938 0.819236
O O7 0.545001 0.916705 0.856742
O O8 0.485040 0.055878 0.704287
O O9 0.304702 0.284461 0.877477
O O10 0.054485 0.537919 0.812090
O O11 0.017084 0.921111 0.842594
O O12 0.489672 0.542901 0.163593
O O13 0.258368 0.328581 0.463546
O O14 0.041909 0.516645 0.190025
O O15 0.000000 0.000000 0.500000
#
# Coordination Sequence:
#
# PCOD8043863 Si02
#       7
#     2   2   2   2   2   2   2
#     4   9  18  37  64  92 119 161 209 251 301 372
#     4  11  20  34  61  98 126 155 203 263 312 360
#     4  10  21  41  65  90 125 168 208 253 311 378
#     4  10  19  37  60  87 122 165 204 252 309 362
#     4  11  24  43  63  91 127 169 210 255 309 374
#     4  11  21  38  67  96 122 163 212 254 307 374
#     4  10  22  42  64  88 128 167 202 256 312 364
#
# _framework density 24.332916999999998
#
# number of rings (size 3 to 8) (size 9 to 14) (size 15 to 20)
#    0.000    1.714    0.000    8.143    0.000    1.143 
#    0.000   27.857    0.000   15.429    0.000    1.000 
#    0.000    0.000    0.000    0.000    0.000    0.000 
#
# Total GULP energy -173550.333606 kJ/mol
# GULP energy per Si atom -12396.452400 kJ/mol
# Density = 2.427753 g / cm^3
# Si number density = 24.332917 Si / 1000 Ang^3
#
#
#
# Elastic Constant Matrix: (Units=GPa)
#
#
# Indices 1 2 3 4 5 6 
#
# 1 134.2044 37.8595 63.1544 -21.8498 10.3615 -19.0207
# 2 37.8595 98.9586 40.8532 -2.8129 0.4093 -26.7539
# 3 63.1544 40.8532 132.0223 1.3525 4.9590 -16.1975
# 4 -21.8498 -2.8129 1.3525 36.7459 -9.1519 3.2844
# 5 10.3615 0.4093 4.9590 -9.1519 50.6683 -8.1779
# 6 -19.0207 -26.7539 -16.1975 3.2844 -8.1779 28.9685
#
#
#
# Elastic Compliance Matrix: (Units=1/GPa)
#
#
# Indices 1 2 3 4 5 6 
#
# 1 0.011645 -0.001546 -0.004820 0.006679 -0.000256 0.002693
# 2 -0.001546 0.014990 -0.002499 -0.000174 0.002364 0.012119
# 3 -0.004820 -0.002499 0.010815 -0.003675 -0.000583 0.000826
# 4 0.006679 -0.000174 -0.003675 0.032528 0.004846 -0.000150
# 5 -0.000256 0.002364 -0.000583 0.004846 0.021883 0.007318
# 6 0.002693 0.012119 0.000826 -0.000150 0.007318 0.050026
#
#
# Mechanical properties :
#
#
# Convention : Reuss Voigt Hill
#
# Bulk Modulus (GPa) = 50.71436 72.10216 61.40826
# Shear Modulus (GPa) = 30.08620 38.16442 34.12531
#
# Velocity S-wave (km/s) = 3.52012 3.96463 3.74897
# Velocity P-wave (km/s) = 6.11627 7.11714 6.63560
#
# Compressibility (1/GPa) = 0.01971828
#
# Stress axis : x y z
#
# Youngs Moduli (GPa) = 85.87616 66.71070 92.46796
#
# Poissons Ratio (x) = 0.10313 0.44573
# Poissons Ratio (y) = 0.13276 0.23110
# Poissons Ratio (z) = 0.41395 0.16673
#
# Static dielectric constant tensor:
#      x y z
#    x 5.024660 -0.239480 0.082450 
#    y -0.239480 4.687500 -0.007540 
#    z 0.082450 -0.007540 4.637230 
# 
# 
# High freq. dielectric constant tensor:
#      x y z
#    x 1.971320 -0.004620 0.014320 
#    y -0.004620 1.972220 -0.001380 
#    z 0.014320 -0.001380 1.966320 
# 
# From -- ./inp_files/602381.got.cif
#   From: 2010.06.25/outbox.cif.g09.slc.cpg/sg2_302_cif.got.tgz:602381.got - 2010.06.27 13:26:56.
