data_PCOD8043901
_publ_section_title
;
Structure prediction by ZEFSAII (Michael W. Deem and Ramdas Pophale) SiO2 
 PCOD8043901
Probable space group: P -1
;
_chemical_formula_sum "Si O2"
_cell_formula_units_Z 16
_cell_length_a 10.293217
_cell_length_b 16.175276
_cell_length_c 5.163173
_cell_angle_alpha 72.098751
_cell_angle_beta 95.630656
_cell_angle_gamma 91.130686
_cell_volume 814.032013
_symmetry_space_group_name_H-M "P -1"
_symmetry_group_IT_number 2
_symmetry_cell_setting 'triclinic'
loop_
_space_group_symop_operation_xyz
x,y,z
-x,-y,-z
loop_
_atom_site_type_symbol
_atom_site_label
_atom_site_fract_x
_atom_site_fract_y
_atom_site_fract_z
Si Si1 0.107733 0.072737 0.979127
Si Si2 0.985126 0.838014 0.617103
Si Si3 0.710684 0.141427 0.339578
Si Si4 0.360734 0.960492 0.078184
Si Si5 0.031667 0.642535 0.815121
Si Si6 0.687949 0.338866 0.256361
Si Si7 0.380394 0.562930 0.372656
Si Si8 0.115341 0.502221 0.327870
O O1 0.082323 0.146746 0.688000
O O2 0.095515 0.111446 0.227066
O O3 0.252931 0.036897 0.994074
O O4 0.000000 0.000000 0.000000
O O5 0.133464 0.870336 0.594099
O O6 0.975160 0.736687 0.783391
O O7 0.637486 0.085958 0.597481
O O8 0.663384 0.240473 0.261285
O O9 0.672593 0.109959 0.077882
O O10 0.500000 0.000000 0.000000
O O11 0.157924 0.650174 0.642884
O O12 0.909717 0.581697 0.776699
O O13 0.103496 0.598109 0.113122
O O14 0.611500 0.360468 0.485996
O O15 0.631414 0.400762 0.956805
O O16 0.500000 0.500000 0.500000
O O17 0.259524 0.498368 0.477458
O O18 0.000000 0.500000 0.500000
#
# Coordination Sequence:
#
# PCOD8043901 Si02
#       8
#     2   2   2   2   2   2   2   2
#     4  12  22  40  63  90 121 153 200 249 305 356
#     4  11  22  37  65  95 118 151 206 259 297 344
#     4  11  21  40  65  88 117 155 204 251 292 355
#     4  12  25  41  62  88 121 162 196 237 307 368
#     4   9  21  35  59  93 117 155 198 252 296 346
#     4  10  21  38  62  88 114 153 207 243 287 349
#     4  11  22  38  59  89 120 159 197 240 291 353
#     4  10  19  37  61  82 123 156 198 238 296 354
#
# _framework density 19.655246999999999
#
# number of rings (size 3 to 8) (size 9 to 14) (size 15 to 20)
#    0.000    1.250    3.750    2.625    1.750    2.000 
#    0.000    3.750    0.000    0.000    0.000    0.000 
#    0.000    0.000    0.000    0.000    0.000    0.000 
#
# Total GULP energy -198307.369502 kJ/mol
# GULP energy per Si atom -12394.210594 kJ/mol
# Density = 1.961051 g / cm^3
# Si number density = 19.655247 Si / 1000 Ang^3
#
#
#
# Elastic Constant Matrix: (Units=GPa)
#
#
# Indices 1 2 3 4 5 6 
#
# 1 122.5878 44.8780 24.2149 -8.8030 -0.3126 -10.4398
# 2 44.8780 95.9923 34.6612 -9.9039 -2.1641 -16.3286
# 3 24.2149 34.6612 69.8440 10.9877 -4.5935 -0.2112
# 4 -8.8030 -9.9039 10.9877 32.9887 -1.8923 -7.5506
# 5 -0.3126 -2.1641 -4.5935 -1.8923 27.2198 -0.4094
# 6 -10.4398 -16.3286 -0.2112 -7.5506 -0.4094 23.6076
#
#
#
# Elastic Compliance Matrix: (Units=1/GPa)
#
#
# Indices 1 2 3 4 5 6 
#
# 1 0.010317 -0.002810 -0.002767 0.003678 -0.000259 0.003766
# 2 -0.002810 0.019632 -0.010622 0.012447 0.000845 0.016236
# 3 -0.002767 -0.010622 0.022894 -0.014412 0.001791 -0.012944
# 4 0.003678 0.012447 -0.014412 0.045616 0.002143 0.024733
# 5 -0.000259 0.000845 0.001791 0.002143 0.037281 0.001818
# 6 0.003766 0.016236 -0.012944 0.024733 0.001818 0.063081
#
#
# Mechanical properties :
#
#
# Convention : Reuss Voigt Hill
#
# Bulk Modulus (GPa) = 48.90991 55.10360 52.00675
# Shear Modulus (GPa) = 21.00560 29.07456 25.04008
#
# Velocity S-wave (km/s) = 3.27265 3.85024 3.57314
# Velocity P-wave (km/s) = 6.26244 6.91822 6.59848
#
# Compressibility (1/GPa) = 0.02044576
#
# Stress axis : x y z
#
# Youngs Moduli (GPa) = 96.92926 50.93809 43.67979
#
# Poissons Ratio (x) = 0.14315 0.12084
# Poissons Ratio (y) = 0.27239 0.46395
# Poissons Ratio (z) = 0.26816 0.54104
#
# Static dielectric constant tensor:
#      x y z
#    x 3.278770 -0.280810 -0.017250 
#    y -0.280810 3.238340 -0.016430 
#    z -0.017250 -0.016430 3.658050 
# 
# 
# High freq. dielectric constant tensor:
#      x y z
#    x 1.748890 -0.005400 -0.002280 
#    y -0.005400 1.770490 0.003900 
#    z -0.002280 0.003900 1.774120 
# 
# From -- ./inp_files/37427.got.cif
#   From: 2010.06.25/outbox.cif.g09.slc.cpg/sg2_19_cif.got.tgz:37427.got - 2010.06.27 13:26:56.
