data_PCOD8043301
_publ_section_title
;
Structure prediction by ZEFSAII (Michael W. Deem and Ramdas Pophale) SiO2 
 PCOD8043301
Probable space group: P -1
;
_chemical_formula_sum "Si O2"
_cell_formula_units_Z 14
_cell_length_a 12.193926
_cell_length_b 9.827249
_cell_length_c 9.460481
_cell_angle_alpha 43.588926
_cell_angle_beta 62.265961
_cell_angle_gamma 66.805499
_cell_volume 688.846851
_symmetry_space_group_name_H-M "P -1"
_symmetry_group_IT_number 2
_symmetry_cell_setting 'triclinic'
loop_
_space_group_symop_operation_xyz
x,y,z
-x,-y,-z
loop_
_atom_site_type_symbol
_atom_site_label
_atom_site_fract_x
_atom_site_fract_y
_atom_site_fract_z
Si Si1 0.659457 0.768941 0.522300
Si Si2 0.024978 0.692045 0.924176
Si Si3 0.750255 0.203797 0.460503
Si Si4 0.238523 0.187545 0.079219
Si Si5 0.633049 0.578657 0.382600
Si Si6 0.217621 0.475608 0.139684
Si Si7 0.613837 0.206024 0.257719
O O1 0.653550 0.638255 0.485651
O O2 0.776401 0.673735 0.618565
O O3 0.534625 0.767437 0.693427
O O4 0.675036 0.999377 0.307616
O O5 0.891756 0.818432 0.925470
O O6 0.117468 0.820007 0.682142
O O7 0.000000 0.500000 0.000000
O O8 0.088931 0.621257 0.090019
O O9 0.739174 0.404604 0.408232
O O10 0.640377 0.209681 0.406976
O O11 0.730284 0.025225 0.711154
O O12 0.233020 0.357185 0.073245
O O13 0.347886 0.232207 0.871127
O O14 0.500000 0.500000 0.500000
O O15 0.329481 0.614219 0.990658
#
# Coordination Sequence:
#
# PCOD8043301 Si02
#       7
#     2   2   2   2   2   2   2
#     4  11  22  36  58  84 122 155 195 241 298 346
#     4   9  18  37  64  91 111 151 212 250 276 350
#     4  11  20  38  64  90 116 157 202 243 297 344
#     4  11  21  38  64  89 118 158 203 246 292 345
#     4  12  24  40  56  92 130 153 191 250 295 358
#     4  10  19  36  61  84 111 154 202 244 288 342
#     4  10  20  37  58  85 114 157 203 239 282 363
#
# _framework density 20.323822
#
# number of rings (size 3 to 8) (size 9 to 14) (size 15 to 20)
#    0.000    1.429    7.143    0.857    0.000    1.714 
#    0.000    0.714    0.000    4.286    0.000    0.000 
#    0.000    0.000    0.000    0.000    0.000    0.000 
#
# Total GULP energy -173536.939474 kJ/mol
# GULP energy per Si atom -12395.495677 kJ/mol
# Density = 2.027756 g / cm^3
# Si number density = 20.323822 Si / 1000 Ang^3
#
#
#
# Elastic Constant Matrix: (Units=GPa)
#
#
# Indices 1 2 3 4 5 6 
#
# 1 76.1425 18.6795 34.7264 4.5870 6.4858 1.5016
# 2 18.6795 71.0446 15.8766 -4.5407 7.6501 11.6297
# 3 34.7264 15.8766 103.1101 -11.0568 0.5026 -10.1179
# 4 4.5870 -4.5407 -11.0568 29.1693 2.9503 1.1584
# 5 6.4858 7.6501 0.5026 2.9503 31.2149 -2.1085
# 6 1.5016 11.6297 -10.1179 1.1584 -2.1085 25.2852
#
#
#
# Elastic Compliance Matrix: (Units=1/GPa)
#
#
# Indices 1 2 3 4 5 6 
#
# 1 0.017170 -0.002879 -0.006083 -0.005126 -0.002421 -0.002097
# 2 -0.002879 0.017574 -0.002294 0.003156 -0.004602 -0.009359
# 3 -0.006083 -0.002294 0.013303 0.005220 0.001566 0.006631
# 4 -0.005126 0.003156 0.005220 0.037951 -0.003453 -0.001085
# 5 -0.002421 -0.004602 0.001566 -0.003453 0.034367 0.005911
# 6 -0.002097 -0.009359 0.006631 -0.001085 0.005911 0.047174
#
#
# Mechanical properties :
#
#
# Convention : Reuss Voigt Hill
#
# Bulk Modulus (GPa) = 39.16015 43.20694 41.18354
# Shear Modulus (GPa) = 25.18078 29.20152 27.19115
#
# Velocity S-wave (km/s) = 3.52373 3.79464 3.66169
# Velocity P-wave (km/s) = 5.98878 6.36431 6.17940
#
# Compressibility (1/GPa) = 0.02553616
#
# Stress axis : x y z
#
# Youngs Moduli (GPa) = 58.24037 56.90065 75.16998
#
# Poissons Ratio (x) = 0.16380 0.45727
# Poissons Ratio (y) = 0.16766 0.17244
# Poissons Ratio (z) = 0.35428 0.13053
#
# Static dielectric constant tensor:
#      x y z
#    x 4.234470 -0.211350 -0.047260 
#    y -0.211350 3.604140 -0.244760 
#    z -0.047260 -0.244760 3.624510 
# 
# 
# High freq. dielectric constant tensor:
#      x y z
#    x 1.800270 0.003880 -0.001860 
#    y 0.003880 1.764290 -0.029000 
#    z -0.001860 -0.029000 1.785760 
# 
# From -- ./inp_files/181073.got.cif
#   From: 2010.06.25/outbox.cif.g09.slc.cpg/sg2_91_cif.got.tgz:181073.got - 2010.06.27 13:26:56.
