data_PCOD8043414
_publ_section_title
;
Structure prediction by ZEFSAII (Michael W. Deem and Ramdas Pophale) SiO2 
 PCOD8043414
Probable space group: P -1
;
_chemical_formula_sum "Si O2"
_cell_formula_units_Z 16
_cell_length_a 12.295923
_cell_length_b 15.841228
_cell_length_c 15.003772
_cell_angle_alpha 39.149983
_cell_angle_beta 56.943222
_cell_angle_gamma 28.152286
_cell_volume 771.068141
_symmetry_space_group_name_H-M "P -1"
_symmetry_group_IT_number 2
_symmetry_cell_setting 'triclinic'
loop_
_space_group_symop_operation_xyz
x,y,z
-x,-y,-z
loop_
_atom_site_type_symbol
_atom_site_label
_atom_site_fract_x
_atom_site_fract_y
_atom_site_fract_z
Si Si1 0.857122 0.083024 0.852166
Si Si2 0.037078 0.310411 0.639671
Si Si3 0.588832 0.838557 0.718149
Si Si4 0.250793 0.633708 0.171164
Si Si5 0.392656 0.907398 0.571139
Si Si6 0.845866 0.343446 0.531621
Si Si7 0.882516 0.638786 0.037489
Si Si8 0.492092 0.803795 0.183172
O O1 0.726390 0.273599 0.839367
O O2 0.865807 0.169139 0.690397
O O3 0.693706 0.098385 0.886994
O O4 0.151034 0.784231 0.998299
O O5 0.000000 0.500000 0.500000
O O6 0.950101 0.310171 0.766948
O O7 0.842097 0.429767 0.553716
O O8 0.340059 0.999914 0.748232
O O9 0.579109 0.795043 0.657669
O O10 0.861436 0.542925 0.875600
O O11 0.570467 0.017793 0.586136
O O12 0.532387 0.312745 0.303444
O O13 0.091514 0.176402 0.505149
O O14 0.597032 0.598099 0.373506
O O15 0.733444 0.650459 0.144593
O O16 0.000000 0.500000 0.000000
O O17 0.671224 0.947488 0.884937
#
# Coordination Sequence:
#
# PCOD8043414 Si02
#       8
#     2   2   2   2   2   2   2   2
#     4  10  23  41  60  86 119 170 204 248 307 358
#     4  10  20  32  63  91 119 157 192 255 307 358
#     4  10  20  36  57  93 125 150 199 247 314 366
#     4  10  21  38  61  92 121 154 210 252 301 366
#     4  10  19  36  62  89 121 155 199 255 302 363
#     4  10  22  40  59  87 120 167 205 245 307 363
#     4  11  26  41  64  97 122 160 202 254 311 375
#     4  11  24  45  65  85 132 162 200 259 308 364
#
# _framework density 20.750436000000001
#
# number of rings (size 3 to 8) (size 9 to 14) (size 15 to 20)
#    0.000    1.750    2.500    1.125    3.500    1.500 
#    2.250    0.625    0.000    0.000    0.000    0.000 
#    0.000    0.000    0.000    0.000    0.000    0.000 
#
# Total GULP energy -198237.245674 kJ/mol
# GULP energy per Si atom -12389.827855 kJ/mol
# Density = 2.070321 g / cm^3
# Si number density = 20.750436 Si / 1000 Ang^3
#
#
#
# Elastic Constant Matrix: (Units=GPa)
#
#
# Indices 1 2 3 4 5 6 
#
# 1 73.1918 16.2382 10.8608 -1.1368 2.7779 -1.5207
# 2 16.2382 74.9991 23.5962 3.8734 6.6262 6.0512
# 3 10.8608 23.5962 103.0866 1.0119 4.4790 7.2394
# 4 -1.1368 3.8734 1.0119 25.0833 -2.7639 -6.3702
# 5 2.7779 6.6262 4.4790 -2.7639 33.9740 -6.7752
# 6 -1.5207 6.0512 7.2394 -6.3702 -6.7752 20.1286
#
#
#
# Elastic Compliance Matrix: (Units=1/GPa)
#
#
# Indices 1 2 3 4 5 6 
#
# 1 0.014623 -0.003235 -0.001066 0.002074 0.000392 0.003249
# 2 -0.003235 0.016057 -0.002599 -0.004806 -0.004335 -0.007117
# 3 -0.001066 -0.002599 0.010794 -0.001346 -0.001777 -0.004205
# 4 0.002074 -0.004806 -0.001346 0.046747 0.008699 0.019808
# 5 0.000392 -0.004335 -0.001777 0.008699 0.034444 0.016319
# 6 0.003249 -0.007117 -0.004205 0.019808 0.016319 0.065339
#
#
# Mechanical properties :
#
#
# Convention : Reuss Voigt Hill
#
# Bulk Modulus (GPa) = 36.13439 39.18532 37.65986
# Shear Modulus (GPa) = 23.69350 29.20932 26.45141
#
# Velocity S-wave (km/s) = 3.38277 3.75593 3.57422
# Velocity P-wave (km/s) = 5.71918 6.14284 5.93479
#
# Compressibility (1/GPa) = 0.02767446
#
# Stress axis : x y z
#
# Youngs Moduli (GPa) = 68.38380 62.27786 92.64756
#
# Poissons Ratio (x) = 0.20145 0.09874
# Poissons Ratio (y) = 0.22120 0.24082
# Poissons Ratio (z) = 0.07288 0.16188
#
# Static dielectric constant tensor:
#      x y z
#    x 3.672520 -0.041210 -0.072790 
#    y -0.041210 3.815470 0.026290 
#    z -0.072790 0.026290 3.951780 
# 
# 
# High freq. dielectric constant tensor:
#      x y z
#    x 1.798970 -0.003560 -0.004570 
#    y -0.003560 1.801330 -0.003830 
#    z -0.004570 -0.003830 1.819810 
# 
# From -- ./inp_files/522275.got.cif
#   From: 2010.06.25/outbox.cif.g09.slc.cpg/sg2_262_cif.got.tgz:522275.got - 2010.06.27 13:26:56.
