data_PCOD8043682
_publ_section_title
;
Structure prediction by ZEFSAII (Michael W. Deem and Ramdas Pophale) SiO2 
 PCOD8043682
Probable space group: P -1
;
_chemical_formula_sum "Si O2"
_cell_formula_units_Z 12
_cell_length_a 11.631830
_cell_length_b 9.081179
_cell_length_c 7.574825
_cell_angle_alpha 46.498935
_cell_angle_beta 103.741056
_cell_angle_gamma 79.640129
_cell_volume 492.313174
_symmetry_space_group_name_H-M "P -1"
_symmetry_group_IT_number 2
_symmetry_cell_setting 'triclinic'
loop_
_space_group_symop_operation_xyz
x,y,z
-x,-y,-z
loop_
_atom_site_type_symbol
_atom_site_label
_atom_site_fract_x
_atom_site_fract_y
_atom_site_fract_z
Si Si1 0.070115 0.556924 0.637876
Si Si2 0.657217 0.768954 0.115829
Si Si3 0.843425 0.755055 0.674264
Si Si4 0.019065 0.038141 0.269954
Si Si5 0.375524 0.851383 0.963028
Si Si6 0.255933 0.548418 0.245071
O O1 0.224454 0.345793 0.892464
O O2 0.000000 0.500000 0.500000
O O3 0.986689 0.588070 0.762183
O O4 0.078476 0.790004 0.400369
O O5 0.707103 0.601740 0.441940
O O6 0.631921 0.023642 0.954821
O O7 0.517577 0.792228 0.969327
O O8 0.878505 0.850980 0.788061
O O9 0.766957 0.601985 0.795337
O O10 0.752794 0.983248 0.337665
O O11 0.000000 0.000000 0.500000
O O12 0.880938 0.208617 0.978488
O O13 0.374410 0.608715 0.190578
#
# Coordination Sequence:
#
# PCOD8043682 Si02
#       6
#     2   2   2   2   2   2
#     4  11  18  38  55  85 113 138 185 231 272 316
#     4  10  22  34  55  87 112 143 180 230 276 318
#     4  10  21  37  59  82 111 146 184 222 275 326
#     4  10  20  35  57  81 112 146 180 231 270 320
#     4  10  19  37  55  81 114 146 179 226 272 328
#     4  11  18  34  61  79 107 147 191 218 268 335
#
# _framework density 24.374728000000001
#
# number of rings (size 3 to 8) (size 9 to 14) (size 15 to 20)
#    0.000    1.667    6.667    1.000    0.000    0.667 
#    3.000    0.833    0.000    1.000    0.000    0.000 
#    0.000    0.000    0.000    0.000    0.000    0.000 
#
# Total GULP energy -148725.523251 kJ/mol
# GULP energy per Si atom -12393.793604 kJ/mol
# Density = 2.431925 g / cm^3
# Si number density = 24.374728 Si / 1000 Ang^3
#
#
#
# Elastic Constant Matrix: (Units=GPa)
#
#
# Indices 1 2 3 4 5 6 
#
# 1 137.7735 65.8265 25.5750 -17.8386 10.0672 37.8750
# 2 65.8265 117.5525 16.6926 -24.0323 -1.2128 37.6397
# 3 25.5750 16.6926 43.9233 -16.0717 -2.8451 2.9914
# 4 -17.8386 -24.0323 -16.0717 32.3187 6.8320 -7.6004
# 5 10.0672 -1.2128 -2.8451 6.8320 40.0024 -14.6973
# 6 37.8750 37.6397 2.9914 -7.6004 -14.6973 51.9496
#
#
#
# Elastic Compliance Matrix: (Units=1/GPa)
#
#
# Indices 1 2 3 4 5 6 
#
# 1 0.013009 -0.003640 -0.005642 0.001197 -0.007055 -0.008343
# 2 -0.003640 0.014476 -0.000341 0.007391 -0.002685 -0.007493
# 3 -0.005642 -0.000341 0.030564 0.012369 0.003450 0.005386
# 4 0.001197 0.007391 0.012369 0.044260 -0.007731 -0.002652
# 5 -0.007055 -0.002685 0.003450 -0.007731 0.033898 0.015350
# 6 -0.008343 -0.007493 0.005386 -0.002652 0.015350 0.034406
#
#
# Mechanical properties :
#
#
# Convention : Reuss Voigt Hill
#
# Bulk Modulus (GPa) = 25.77131 57.27083 41.52107
# Shear Modulus (GPa) = 24.65554 37.59783 31.12668
#
# Velocity S-wave (km/s) = 3.18389 3.93172 3.57740
# Velocity P-wave (km/s) = 4.91041 6.64516 5.84253
#
# Compressibility (1/GPa) = 0.03880284
#
# Stress axis : x y z
#
# Youngs Moduli (GPa) = 76.87013 69.07822 32.71813
#
# Poissons Ratio (x) = 0.25145 0.18459
# Poissons Ratio (y) = 0.27982 0.01116
# Poissons Ratio (z) = 0.43370 0.02357
#
# Static dielectric constant tensor:
#      x y z
#    x 4.767630 0.689030 0.055350 
#    y 0.689030 4.755110 -0.478110 
#    z 0.055350 -0.478110 4.480290 
# 
# 
# High freq. dielectric constant tensor:
#      x y z
#    x 1.958710 0.048900 0.001520 
#    y 0.048900 1.947420 -0.016760 
#    z 0.001520 -0.016760 1.978150 
# 
# From -- ./inp_files/236854.got.cif
#   From: 2010.06.25/outbox.cif.g09.slc.cpg/sg2_119_cif.got.tgz:236854.got - 2010.06.27 13:26:56.
