data_PCOD8043668
_publ_section_title
;
Structure prediction by ZEFSAII (Michael W. Deem and Ramdas Pophale) SiO2 
 PCOD8043668
Probable space group: P -1
;
_chemical_formula_sum "Si O2"
_cell_formula_units_Z 16
_cell_length_a 15.204198
_cell_length_b 9.206321
_cell_length_c 11.106370
_cell_angle_alpha 58.757602
_cell_angle_beta 126.838472
_cell_angle_gamma 135.352621
_cell_volume 862.547157
_symmetry_space_group_name_H-M "P -1"
_symmetry_group_IT_number 2
_symmetry_cell_setting 'triclinic'
loop_
_space_group_symop_operation_xyz
x,y,z
-x,-y,-z
loop_
_atom_site_type_symbol
_atom_site_label
_atom_site_fract_x
_atom_site_fract_y
_atom_site_fract_z
Si Si1 0.743941 0.779477 0.753686
Si Si2 0.230959 0.907475 0.177917
Si Si3 0.300421 0.262655 0.538404
Si Si4 0.549360 0.318091 0.845337
Si Si5 0.126229 0.886421 0.722733
Si Si6 0.629879 0.028196 0.975597
Si Si7 0.844075 0.527146 0.675530
Si Si8 0.008962 0.183450 0.126515
O O1 0.681718 0.753230 0.581995
O O2 0.678719 0.557559 0.863887
O O3 0.905718 0.894951 0.824948
O O4 0.717388 0.922738 0.748316
O O5 0.229261 0.715088 0.309706
O O6 0.333909 0.016317 0.104601
O O7 0.078243 0.812067 0.052314
O O8 0.439731 0.336663 0.681637
O O9 0.263685 0.424480 0.468487
O O10 0.175819 0.041740 0.584726
O O11 0.585611 0.183878 0.854673
O O12 0.493366 0.200053 0.978221
O O13 0.086225 0.964238 0.775483
O O14 0.987719 0.666893 0.660192
O O15 0.244562 0.864144 0.872733
O O16 0.882834 0.582612 0.826920
#
# Coordination Sequence:
#
# PCOD8043668 Si02
#       8
#     2   2   2   2   2   2   2   2
#     4  11  22  31  53  77 114 137 164 212 265 313
#     4  11  20  34  50  84 106 134 168 215 272 301
#     4  10  19  37  54  75 105 138 181 207 246 311
#     4  10  21  37  55  78  98 142 181 211 248 298
#     4   8  17  32  61  79  94 132 180 219 251 287
#     4   9  19  36  59  76 101 129 183 221 245 305
#     4   9  18  30  58  80  98 135 173 213 253 304
#     4   8  18  33  55  76 101 136 172 219 248 310
#
# _framework density 18.549710000000001
#
# number of rings (size 3 to 8) (size 9 to 14) (size 15 to 20)
#    0.750    1.750    0.000    3.000    1.750    0.500 
#    0.000    3.125    0.000    3.000    0.000    0.000 
#    0.000    0.000    0.000    0.000    0.000    0.000 
#
# Total GULP energy -198254.840327 kJ/mol
# GULP energy per Si atom -12390.927520 kJ/mol
# Density = 1.850749 g / cm^3
# Si number density = 18.549710 Si / 1000 Ang^3
#
#
#
# Elastic Constant Matrix: (Units=GPa)
#
#
# Indices 1 2 3 4 5 6 
#
# 1 96.9228 41.9296 24.3292 -14.7085 -1.8030 0.1457
# 2 41.9296 72.1858 28.2530 -24.6424 -10.1930 -6.1846
# 3 24.3292 28.2530 67.9137 -18.9957 7.3798 0.7770
# 4 -14.7085 -24.6424 -18.9957 20.9060 7.1137 4.2786
# 5 -1.8030 -10.1930 7.3798 7.1137 23.9896 0.3757
# 6 0.1457 -6.1846 0.7770 4.2786 0.3757 21.8690
#
#
#
# Elastic Compliance Matrix: (Units=1/GPa)
#
#
# Indices 1 2 3 4 5 6 
#
# 1 0.014168 -0.008038 -0.001367 0.000422 -0.002018 -0.002367
# 2 -0.008038 0.028609 -0.003593 0.021937 0.006091 0.003875
# 3 -0.001367 -0.003593 0.025679 0.025233 -0.016908 -0.006566
# 4 0.000422 0.021937 0.025233 0.110697 -0.030988 -0.015821
# 5 -0.002018 0.006091 -0.016908 -0.030988 0.058396 0.007396
# 6 -0.002367 0.003875 -0.006566 -0.015821 0.007396 0.050040
#
#
# Mechanical properties :
#
#
# Convention : Reuss Voigt Hill
#
# Bulk Modulus (GPa) = 23.55131 47.33843 35.44487
# Shear Modulus (GPa) = 15.25606 22.85363 19.05484
#
# Velocity S-wave (km/s) = 2.87094 3.51382 3.20852
# Velocity P-wave (km/s) = 4.86966 6.48365 5.73373
#
# Compressibility (1/GPa) = 0.04246049
#
# Stress axis : x y z
#
# Youngs Moduli (GPa) = 70.58090 34.95394 38.94202
#
# Poissons Ratio (x) = 0.28097 0.05324
# Poissons Ratio (y) = 0.56735 0.13991
# Poissons Ratio (z) = 0.09649 0.12558
#
# Static dielectric constant tensor:
#      x y z
#    x 3.584790 0.272870 0.094310 
#    y 0.272870 3.029540 -0.142860 
#    z 0.094310 -0.142860 3.289580 
# 
# 
# High freq. dielectric constant tensor:
#      x y z
#    x 1.729520 0.027310 0.013920 
#    y 0.027310 1.677990 -0.015240 
#    z 0.013920 -0.015240 1.710990 
# 
# From -- ./inp_files/304687.got.cif
#   From: 2010.06.25/outbox.cif.g09.slc.cpg/sg2_153_cif.got.tgz:304687.got - 2010.06.27 13:26:56.
