data_PCOD8043612
_publ_section_title
;
Structure prediction by ZEFSAII (Michael W. Deem and Ramdas Pophale) SiO2 
 PCOD8043612
Probable space group: P -1
;
_chemical_formula_sum "Si O2"
_cell_formula_units_Z 14
_cell_length_a 13.110894
_cell_length_b 18.852327
_cell_length_c 7.348261
_cell_angle_alpha 78.237008
_cell_angle_beta 80.079582
_cell_angle_gamma 19.606051
_cell_volume 595.573548
_symmetry_space_group_name_H-M "P -1"
_symmetry_group_IT_number 2
_symmetry_cell_setting 'triclinic'
loop_
_space_group_symop_operation_xyz
x,y,z
-x,-y,-z
loop_
_atom_site_type_symbol
_atom_site_label
_atom_site_fract_x
_atom_site_fract_y
_atom_site_fract_z
Si Si1 0.230792 0.412138 0.242461
Si Si2 0.724563 0.288351 0.492942
Si Si3 0.417743 0.110879 0.741123
Si Si4 0.176808 0.029721 0.178169
Si Si5 0.375838 0.373783 0.592957
Si Si6 0.129095 0.985531 0.873098
Si Si7 0.735629 0.773283 0.684615
O O1 0.292591 0.371138 0.461384
O O2 0.512349 0.266748 0.135940
O O3 0.214083 0.341865 0.203725
O O4 0.909186 0.664741 0.175943
O O5 0.500000 0.500000 0.500000
O O6 0.531453 0.343327 0.481653
O O7 0.891730 0.203490 0.304601
O O8 0.969523 0.110046 0.667214
O O9 0.418031 0.130016 0.517275
O O10 0.668955 0.994997 0.821010
O O11 0.524144 0.956366 0.798619
O O12 0.408189 0.809987 0.239089
O O13 0.073106 0.091886 0.966673
O O14 0.059574 0.602110 0.669992
O O15 0.000000 0.000000 0.000000
#
# Coordination Sequence:
#
# PCOD8043612 Si02
#       7
#     2   2   2   2   2   2   2
#     4  11  21  40  67  98 135 180 227 273 344 411
#     4  12  26  45  69 101 140 181 228 287 344 400
#     4  10  20  37  65 101 136 177 223 283 334 408
#     4  12  22  43  70  98 136 182 231 274 342 407
#     4  11  19  39  70  96 132 185 226 277 337 407
#     4  12  26  43  71 102 131 181 237 278 337 417
#     4  10  19  36  66 100 133 176 230 272 341 408
#
# _framework density 23.506754999999998
#
# number of rings (size 3 to 8) (size 9 to 14) (size 15 to 20)
#    0.000    0.857    5.714    3.000    0.000    3.429 
#    0.000    2.143    0.000    0.000    0.000    0.000 
#    0.000    0.000    0.000    0.000    0.000    0.000 
#
# Total GULP energy -173607.196148 kJ/mol
# GULP energy per Si atom -12400.514011 kJ/mol
# Density = 2.345325 g / cm^3
# Si number density = 23.506755 Si / 1000 Ang^3
#
#
#
# Elastic Constant Matrix: (Units=GPa)
#
#
# Indices 1 2 3 4 5 6 
#
# 1 150.3427 77.9349 13.0932 13.4391 3.1914 4.6487
# 2 77.9349 166.3329 25.7250 32.6299 -8.9585 9.4667
# 3 13.0932 25.7250 26.0675 16.5344 -1.2873 -0.1447
# 4 13.4391 32.6299 16.5344 27.9246 -1.5570 -3.7259
# 5 3.1914 -8.9585 -1.2873 -1.5570 27.8950 4.1148
# 6 4.6487 9.4667 -0.1447 -3.7259 4.1148 48.2849
#
#
#
# Elastic Compliance Matrix: (Units=1/GPa)
#
#
# Indices 1 2 3 4 5 6 
#
# 1 0.008981 -0.004476 -0.001171 0.001508 -0.002485 0.000337
# 2 -0.004476 0.010581 -0.002332 -0.008978 0.003694 -0.002658
# 3 -0.001171 -0.002332 0.062983 -0.034226 0.000668 -0.001939
# 4 0.001508 -0.008978 -0.034226 0.066644 -0.001921 0.006819
# 5 -0.002485 0.003694 0.000668 -0.001921 0.037811 -0.003853
# 6 0.000337 -0.002658 -0.001939 0.006819 -0.003853 0.022048
#
#
# Mechanical properties :
#
#
# Convention : Reuss Voigt Hill
#
# Bulk Modulus (GPa) = 15.01775 64.02772 39.52273
# Shear Modulus (GPa) = 20.22642 35.88691 28.05666
#
# Velocity S-wave (km/s) = 2.93653 3.91149 3.45854
# Velocity P-wave (km/s) = 4.23086 6.90629 5.72700
#
# Compressibility (1/GPa) = 0.06658789
#
# Stress axis : x y z
#
# Youngs Moduli (GPa) = 111.34432 94.50662 15.87741
#
# Poissons Ratio (x) = 0.42298 0.01860
# Poissons Ratio (y) = 0.49835 0.03702
# Poissons Ratio (z) = 0.13041 0.22036
#
# Static dielectric constant tensor:
#      x y z
#    x 4.683740 -0.116640 0.302250 
#    y -0.116640 4.518770 0.104650 
#    z 0.302250 0.104650 3.999040 
# 
# 
# High freq. dielectric constant tensor:
#      x y z
#    x 1.939220 -0.006650 0.014330 
#    y -0.006650 1.937730 0.015460 
#    z 0.014330 0.015460 1.912880 
# 
# From -- ./inp_files/279279.got.cif
#   From: 2010.06.25/outbox.cif.g09.slc.cpg/sg2_140_cif.got.tgz:279279.got - 2010.06.27 13:26:56.
