data_PCOD8043240
_publ_section_title
;
Structure prediction by ZEFSAII (Michael W. Deem and Ramdas Pophale) SiO2 
 PCOD8043240
Probable space group: P -1
;
_chemical_formula_sum "Si O2"
_cell_formula_units_Z 16
_cell_length_a 8.050795
_cell_length_b 11.586565
_cell_length_c 14.269934
_cell_angle_alpha 58.079302
_cell_angle_beta 58.183231
_cell_angle_gamma 43.438948
_cell_volume 753.070714
_symmetry_space_group_name_H-M "P -1"
_symmetry_group_IT_number 2
_symmetry_cell_setting 'triclinic'
loop_
_space_group_symop_operation_xyz
x,y,z
-x,-y,-z
loop_
_atom_site_type_symbol
_atom_site_label
_atom_site_fract_x
_atom_site_fract_y
_atom_site_fract_z
Si Si1 0.034594 0.097039 0.574756
Si Si2 0.348141 0.483242 0.925809
Si Si3 0.632553 0.228080 0.264456
Si Si4 0.220024 0.305256 0.494470
Si Si5 0.543339 0.987595 0.858696
Si Si6 0.726078 0.153109 0.051989
Si Si7 0.638241 0.105766 0.604816
Si Si8 0.819426 0.716029 0.036371
O O1 0.093813 0.211459 0.561355
O O2 0.742873 0.192598 0.595228
O O3 0.132421 0.927474 0.679635
O O4 0.164031 0.043364 0.459690
O O5 0.388143 0.599696 0.799951
O O6 0.116107 0.601898 0.017015
O O7 0.605327 0.346219 0.965797
O O8 0.258269 0.401786 0.919423
O O9 0.380395 0.274046 0.367231
O O10 0.682900 0.158125 0.173432
O O11 0.385975 0.244580 0.564832
O O12 0.000000 0.500000 0.500000
O O13 0.615290 0.991513 0.731346
O O14 0.437676 0.883144 0.938210
O O15 0.771707 0.865590 0.915233
O O16 0.338967 0.187006 0.865031
O O17 0.000000 0.000000 0.000000
#
# Coordination Sequence:
#
# PCOD8043240 Si02
#       8
#     2   2   2   2   2   2   2   2
#     4  10  22  42  65  88 119 159 208 255 307 365
#     4  10  21  37  56  85 120 156 200 248 305 366
#     4  11  22  40  63  84 119 162 199 254 312 359
#     4  11  25  42  62  93 127 158 204 258 309 369
#     4  10  19  36  60  86 118 159 204 248 303 367
#     4  11  23  36  58  88 122 161 205 247 300 371
#     4  10  21  39  65  90 116 161 208 250 303 366
#     4   9  20  36  56  86 121 154 198 254 303 361
#
# _framework density 21.246345999999999
#
# number of rings (size 3 to 8) (size 9 to 14) (size 15 to 20)
#    0.000    1.750    0.000    4.875    0.000    6.500 
#    0.000    5.000    0.000    0.000    0.000    0.000 
#    0.000    0.000    0.000    0.000    0.000    0.000 
#
# Total GULP energy -198211.925427 kJ/mol
# GULP energy per Si atom -12388.245339 kJ/mol
# Density = 2.119799 g / cm^3
# Si number density = 21.246346 Si / 1000 Ang^3
#
#
#
# Elastic Constant Matrix: (Units=GPa)
#
#
# Indices 1 2 3 4 5 6 
#
# 1 125.3902 54.4480 40.5498 -11.7732 -2.5052 -13.5338
# 2 54.4480 123.2092 45.8068 -10.7254 3.8331 -6.8388
# 3 40.5498 45.8068 115.2845 -12.8753 11.6868 0.0384
# 4 -11.7732 -10.7254 -12.8753 24.9950 9.1276 1.3103
# 5 -2.5052 3.8331 11.6868 9.1276 28.8068 -2.4144
# 6 -13.5338 -6.8388 0.0384 1.3103 -2.4144 25.3817
#
#
#
# Elastic Compliance Matrix: (Units=1/GPa)
#
#
# Indices 1 2 3 4 5 6 
#
# 1 0.011107 -0.003640 -0.002599 0.001120 0.002580 0.005133
# 2 -0.003640 0.011002 -0.002743 0.002002 -0.001235 0.000807
# 3 -0.002599 -0.002743 0.012145 0.006635 -0.007156 -0.003166
# 4 0.001120 0.002002 0.006635 0.052180 -0.019682 -0.003440
# 5 0.002580 -0.001235 -0.007156 -0.019682 0.044773 0.006329
# 6 0.005133 0.000807 -0.003166 -0.003440 0.006329 0.043137
#
#
# Mechanical properties :
#
#
# Convention : Reuss Voigt Hill
#
# Bulk Modulus (GPa) = 61.38079 71.72145 66.55112
# Shear Modulus (GPa) = 25.28610 30.70867 27.99738
#
# Velocity S-wave (km/s) = 3.45358 3.80592 3.63402
# Velocity P-wave (km/s) = 6.69744 7.28997 6.99998
#
# Compressibility (1/GPa) = 0.01629174
#
# Stress axis : x y z
#
# Youngs Moduli (GPa) = 90.03542 90.89245 82.33566
#
# Poissons Ratio (x) = 0.33085 0.21395
# Poissons Ratio (y) = 0.32773 0.22582
# Poissons Ratio (z) = 0.23396 0.24929
#
# Static dielectric constant tensor:
#      x y z
#    x 4.332170 0.033100 -0.029740 
#    y 0.033100 3.637390 0.012650 
#    z -0.029740 0.012650 3.809730 
# 
# 
# High freq. dielectric constant tensor:
#      x y z
#    x 1.845450 -0.000310 -0.002780 
#    y -0.000310 1.829140 -0.002580 
#    z -0.002780 -0.002580 1.829320 
# 
# From -- ./inp_files/314603.got.cif
#   From: 2010.06.25/outbox.cif.g09.slc.cpg/sg2_158_cif.got.tgz:314603.got - 2010.06.27 13:26:56.
