data_PCOD8043475
_publ_section_title
;
Structure prediction by ZEFSAII (Michael W. Deem and Ramdas Pophale) SiO2 
 PCOD8043475
Probable space group: P -1
;
_chemical_formula_sum "Si O2"
_cell_formula_units_Z 16
_cell_length_a 11.613677
_cell_length_b 9.896342
_cell_length_c 13.587417
_cell_angle_alpha 89.569892
_cell_angle_beta 41.835054
_cell_angle_gamma 63.210360
_cell_volume 775.672089
_symmetry_space_group_name_H-M "P -1"
_symmetry_group_IT_number 2
_symmetry_cell_setting 'triclinic'
loop_
_space_group_symop_operation_xyz
x,y,z
-x,-y,-z
loop_
_atom_site_type_symbol
_atom_site_label
_atom_site_fract_x
_atom_site_fract_y
_atom_site_fract_z
Si Si1 0.700152 0.743711 0.363566
Si Si2 0.830183 0.946183 0.821823
Si Si3 0.510650 0.068222 0.859826
Si Si4 0.395688 0.424506 0.942641
Si Si5 0.071855 0.612449 0.982671
Si Si6 0.831359 0.245102 0.777989
Si Si7 0.230648 0.599733 0.678071
Si Si8 0.653214 0.977541 0.552846
O O1 0.798610 0.544210 0.322838
O O2 0.652677 0.832936 0.499841
O O3 0.462793 0.855560 0.450517
O O4 0.873655 0.753036 0.189400
O O5 0.085586 0.758926 0.688586
O O6 0.767033 0.941219 0.747961
O O7 0.805933 0.119190 0.855819
O O8 0.630138 0.987019 0.015049
O O9 0.372633 0.276258 0.978190
O O10 0.509110 0.051263 0.744053
O O11 0.323525 0.488014 0.875610
O O12 0.659178 0.336125 0.793008
O O13 0.220759 0.596304 0.124179
O O14 0.108302 0.688860 0.863133
O O15 0.000000 0.500000 0.000000
O O16 0.092331 0.112023 0.574791
O O17 0.500000 0.500000 0.500000
#
# Coordination Sequence:
#
# PCOD8043475 Si02
#       8
#     2   2   2   2   2   2   2   2
#     4  10  21  37  60  87 120 153 203 252 290 356
#     4  10  22  39  59  87 124 157 194 241 308 355
#     4  10  21  39  65  84 117 161 201 241 294 363
#     4  10  20  39  63  89 114 160 204 240 300 356
#     4  10  19  36  63  86 111 159 202 237 288 359
#     4  10  22  38  63  88 123 151 197 259 295 349
#     4  11  22  37  58  87 123 158 192 244 304 357
#     4  11  21  38  62  92 115 153 210 253 289 340
#
# _framework density 20.627274
#
# number of rings (size 3 to 8) (size 9 to 14) (size 15 to 20)
#    0.000    1.750    1.250    4.500    0.000    3.000 
#    2.250    1.250    0.000    0.000    0.000    0.000 
#    0.000    0.000    0.000    0.000    0.000    0.000 
#
# Total GULP energy -198248.734078 kJ/mol
# GULP energy per Si atom -12390.545880 kJ/mol
# Density = 2.058033 g / cm^3
# Si number density = 20.627274 Si / 1000 Ang^3
#
#
#
# Elastic Constant Matrix: (Units=GPa)
#
#
# Indices 1 2 3 4 5 6 
#
# 1 120.5181 44.2265 35.9437 9.4985 1.8554 -14.4378
# 2 44.2265 97.0365 28.6752 14.5179 6.4467 -0.7030
# 3 35.9437 28.6752 75.7682 6.3965 -3.5482 9.0641
# 4 9.4985 14.5179 6.3965 26.8900 -6.5168 -8.5725
# 5 1.8554 6.4467 -3.5482 -6.5168 35.6494 13.3844
# 6 -14.4378 -0.7030 9.0641 -8.5725 13.3844 31.8478
#
#
#
# Elastic Compliance Matrix: (Units=1/GPa)
#
#
# Indices 1 2 3 4 5 6 
#
# 1 0.012508 -0.003809 -0.005845 0.001017 -0.003779 0.009112
# 2 -0.003809 0.014183 -0.003060 -0.006722 -0.003582 -0.000847
# 3 -0.005845 -0.003060 0.019092 -0.002960 0.006621 -0.011730
# 4 0.001017 -0.006722 -0.002960 0.046020 0.004982 0.011448
# 5 -0.003779 -0.003582 0.006621 0.004982 0.037214 -0.017975
# 6 0.009112 -0.000847 -0.011730 0.011448 -0.017975 0.049486
#
#
# Mechanical properties :
#
#
# Convention : Reuss Voigt Hill
#
# Bulk Modulus (GPa) = 49.12563 56.77930 52.95246
# Shear Modulus (GPa) = 23.72866 31.17593 27.45229
#
# Velocity S-wave (km/s) = 3.39537 3.89188 3.65207
# Velocity P-wave (km/s) = 6.26410 6.91243 6.59624
#
# Compressibility (1/GPa) = 0.02035597
#
# Stress axis : x y z
#
# Youngs Moduli (GPa) = 79.94859 70.50653 52.37704
#
# Poissons Ratio (x) = 0.26853 0.30615
# Poissons Ratio (y) = 0.30450 0.16027
# Poissons Ratio (z) = 0.46731 0.21574
#
# Static dielectric constant tensor:
#      x y z
#    x 4.067050 -0.230030 -0.083180 
#    y -0.230030 3.732790 0.174260 
#    z -0.083180 0.174260 3.803430 
# 
# 
# High freq. dielectric constant tensor:
#      x y z
#    x 1.825280 -0.013660 -0.015660 
#    y -0.013660 1.792350 0.017900 
#    z -0.015660 0.017900 1.788050 
# 
# From -- ./inp_files/515507.got.cif
#   From: 2010.06.25/outbox.cif.g09.slc.cpg/sg2_258_cif.got.tgz:515507.got - 2010.06.27 13:26:56.
