data_PCOD8043710
_publ_section_title
;
Structure prediction by ZEFSAII (Michael W. Deem and Ramdas Pophale) SiO2 
 PCOD8043710
Probable space group: P -1
;
_chemical_formula_sum "Si O2"
_cell_formula_units_Z 16
_cell_length_a 9.461731
_cell_length_b 16.867295
_cell_length_c 13.252347
_cell_angle_alpha 118.651619
_cell_angle_beta 136.342198
_cell_angle_gamma 94.709406
_cell_volume 904.705046
_symmetry_space_group_name_H-M "P -1"
_symmetry_group_IT_number 2
_symmetry_cell_setting 'triclinic'
loop_
_space_group_symop_operation_xyz
x,y,z
-x,-y,-z
loop_
_atom_site_type_symbol
_atom_site_label
_atom_site_fract_x
_atom_site_fract_y
_atom_site_fract_z
Si Si1 0.725064 0.212162 0.447294
Si Si2 0.250409 0.951872 0.969941
Si Si3 0.351464 0.420912 0.975825
Si Si4 0.403617 0.829382 0.860391
Si Si5 0.323052 0.246444 0.338598
Si Si6 0.342573 0.612046 0.742381
Si Si7 0.247994 0.507587 0.157337
Si Si8 0.658242 0.612583 0.729083
O O1 0.806440 0.253786 0.396145
O O2 0.551317 0.243567 0.419198
O O3 0.016589 0.287099 0.705705
O O4 0.512288 0.057700 0.248390
O O5 0.299806 0.030157 0.942902
O O6 0.254772 0.847882 0.877715
O O7 0.946476 0.882875 0.821829
O O8 0.500000 0.500000 0.000000
O O9 0.523092 0.389343 0.088697
O O10 0.368704 0.509506 0.115426
O O11 0.464828 0.752334 0.895160
O O12 0.483055 0.362743 0.569098
O O13 0.193273 0.261484 0.183772
O O14 0.431885 0.588388 0.672804
O O15 0.000000 0.500000 0.500000
O O16 0.132159 0.386668 0.093780
O O17 0.000000 0.500000 0.000000
O O18 0.500000 0.500000 0.500000
#
# Coordination Sequence:
#
# PCOD8043710 Si02
#       8
#     2   2   2   2   2   2   2   2
#     4  10  19  37  57  80 114 146 192 238 278 334
#     4   9  21  35  64  84 110 155 196 234 274 336
#     4  11  24  36  56  84 117 152 189 232 298 343
#     4   9  20  38  58  82 115 145 201 235 275 332
#     4  11  19  35  62  85 113 148 199 229 284 340
#     4  11  22  36  59  84 113 152 190 236 291 335
#     4  10  21  36  53  82 120 147 178 241 294 329
#     4   9  20  33  54  83 112 143 186 237 273 341
#
# _framework density 17.685320000000001
#
# number of rings (size 3 to 8) (size 9 to 14) (size 15 to 20)
#    0.750    1.250    2.500    1.125    7.000    0.000 
#    0.000    0.625    2.750    2.250    0.000    0.000 
#    0.000    0.000    0.000    0.000    0.000    0.000 
#
# Total GULP energy -198231.676679 kJ/mol
# GULP energy per Si atom -12389.479792 kJ/mol
# Density = 1.764507 g / cm^3
# Si number density = 17.685320 Si / 1000 Ang^3
#
#
#
# Elastic Constant Matrix: (Units=GPa)
#
#
# Indices 1 2 3 4 5 6 
#
# 1 97.0479 59.1684 51.3271 -3.7489 -10.0241 -8.7339
# 2 59.1684 127.1664 47.1605 -13.0163 10.1418 -10.1823
# 3 51.3271 47.1605 96.7879 -6.2206 2.9245 -4.5009
# 4 -3.7489 -13.0163 -6.2206 25.7110 -2.3512 0.3936
# 5 -10.0241 10.1418 2.9245 -2.3512 34.5556 1.2851
# 6 -8.7339 -10.1823 -4.5009 0.3936 1.2851 29.7306
#
#
#
# Elastic Compliance Matrix: (Units=1/GPa)
#
#
# Indices 1 2 3 4 5 6 
#
# 1 0.019239 -0.007005 -0.007058 -0.001741 0.008047 0.001859
# 2 -0.007005 0.012954 -0.002038 0.004512 -0.005438 0.002246
# 3 -0.007058 -0.002038 0.015219 0.001386 -0.002629 -0.000372
# 4 -0.001741 0.004512 0.001386 0.041326 0.000841 0.000660
# 5 0.008047 -0.005438 -0.002629 0.000841 0.033199 -0.001343
# 6 0.001859 0.002246 -0.000372 0.000660 -0.001343 0.034944
#
#
# Mechanical properties :
#
#
# Convention : Reuss Voigt Hill
#
# Bulk Modulus (GPa) = 65.74808 70.70156 68.22482
# Shear Modulus (GPa) = 25.75265 28.88919 27.32092
#
# Velocity S-wave (km/s) = 3.82011 4.04606 3.93470
# Velocity P-wave (km/s) = 7.53093 7.86713 7.70087
#
# Compressibility (1/GPa) = 0.01520957
#
# Stress axis : x y z
#
# Youngs Moduli (GPa) = 51.97716 77.19333 65.70665
#
# Poissons Ratio (x) = 0.54077 0.46375
# Poissons Ratio (y) = 0.36412 0.13394
# Poissons Ratio (z) = 0.36685 0.15736
#
# Static dielectric constant tensor:
#      x y z
#    x 2.928090 0.034050 -0.540420 
#    y 0.034050 3.500510 -0.042500 
#    z -0.540420 -0.042500 3.018450 
# 
# 
# High freq. dielectric constant tensor:
#      x y z
#    x 1.698860 -0.003810 -0.018960 
#    y -0.003810 1.679510 0.003360 
#    z -0.018960 0.003360 1.658210 
# 
# From -- ./inp_files/222083.got.cif
#   From: 2010.06.25/outbox.cif.g09.slc.cpg/sg2_112_cif.got.tgz:222083.got - 2010.06.27 13:26:56.
