data_PCOD8043625
_publ_section_title
;
Structure prediction by ZEFSAII (Michael W. Deem and Ramdas Pophale) SiO2 
 PCOD8043625
Probable space group: P -1
;
_chemical_formula_sum "Si O2"
_cell_formula_units_Z 16
_cell_length_a 12.044601
_cell_length_b 17.175340
_cell_length_c 20.223754
_cell_angle_alpha 20.504480
_cell_angle_beta 36.777982
_cell_angle_gamma 27.944403
_cell_volume 677.748593
_symmetry_space_group_name_H-M "P -1"
_symmetry_group_IT_number 2
_symmetry_cell_setting 'triclinic'
loop_
_space_group_symop_operation_xyz
x,y,z
-x,-y,-z
loop_
_atom_site_type_symbol
_atom_site_label
_atom_site_fract_x
_atom_site_fract_y
_atom_site_fract_z
Si Si1 0.762151 0.490922 0.313806
Si Si2 0.053779 0.122930 0.266308
Si Si3 0.436528 0.423464 0.795439
Si Si4 0.430159 0.124019 0.779037
Si Si5 0.797096 0.592224 0.802870
Si Si6 0.952100 0.588798 0.585980
Si Si7 0.459159 0.252007 0.430027
Si Si8 0.814444 0.180637 0.210910
O O1 0.566279 0.605611 0.258908
O O2 0.610728 0.656642 0.320132
O O3 0.954764 0.540175 0.171973
O O4 0.934769 0.147680 0.510654
O O5 0.838922 0.394241 0.194697
O O6 0.000335 0.182522 0.165861
O O7 0.294753 0.056764 0.230804
O O8 0.550971 0.572128 0.642919
O O9 0.603979 0.101044 0.000224
O O10 0.234728 0.310493 0.665872
O O11 0.846645 0.558102 0.727710
O O12 0.585488 0.928835 0.650289
O O13 0.721743 0.407650 0.014274
O O14 0.810564 0.597924 0.583827
O O15 0.933623 0.869716 0.371195
O O16 0.593216 0.274011 0.288354
#
# Coordination Sequence:
#
# PCOD8043625 Si02
#       8
#     2   2   2   2   2   2   2   2
#     4  11  21  40  65  96 129 163 207 269 326 374
#     4  11  21  40  65  96 129 163 207 269 326 374
#     4  11  23  40  63  95 128 171 208 260 323 380
#     4  11  23  40  63  95 128 171 208 260 323 380
#     4  10  19  36  66  96 123 162 214 267 318 372
#     4  10  22  40  59  90 130 169 214 259 309 377
#     4  10  22  40  59  90 130 169 214 259 309 377
#     4  10  19  36  66  96 123 162 214 267 318 372
#
# _framework density 23.607572999999999
#
# number of rings (size 3 to 8) (size 9 to 14) (size 15 to 20)
#    0.000    1.500    5.000    3.750    0.000    4.500 
#    0.000    0.000    0.000    0.750    0.000    0.000 
#    0.000    1.000    0.000    0.000    0.000    0.000 
#
# Total GULP energy -198350.244152 kJ/mol
# GULP energy per Si atom -12396.890260 kJ/mol
# Density = 2.355384 g / cm^3
# Si number density = 23.607573 Si / 1000 Ang^3
#
#
#
# Elastic Constant Matrix: (Units=GPa)
#
#
# Indices 1 2 3 4 5 6 
#
# 1 121.0438 22.2481 10.1663 -13.9383 7.9834 -36.0056
# 2 22.2481 30.1056 12.9410 -10.3563 -0.1261 -15.5069
# 3 10.1663 12.9410 141.3099 -3.7892 11.2067 -2.9150
# 4 -13.9383 -10.3563 -3.7892 28.9181 4.6516 4.7047
# 5 7.9834 -0.1261 11.2067 4.6516 14.9986 -5.0721
# 6 -36.0056 -15.5069 -2.9150 4.7047 -5.0721 27.7393
#
#
#
# Elastic Compliance Matrix: (Units=1/GPa)
#
#
# Indices 1 2 3 4 5 6 
#
# 1 0.014006 -0.000028 -0.000309 0.004425 -0.002898 0.016851
# 2 -0.000028 0.055213 -0.004926 0.012537 0.010449 0.030096
# 3 -0.000309 -0.004926 0.008094 0.000985 -0.007532 -0.003849
# 4 0.004425 0.012537 0.000985 0.043402 -0.015550 0.002651
# 5 -0.002898 0.010449 -0.007532 -0.015550 0.085360 0.019533
# 6 0.016851 0.030096 -0.003849 0.002651 0.019533 0.077464
#
#
# Mechanical properties :
#
#
# Convention : Reuss Voigt Hill
#
# Bulk Modulus (GPa) = 14.97283 42.57446 28.77364
# Shear Modulus (GPa) = 15.80643 30.80480 23.30562
#
# Velocity S-wave (km/s) = 2.59037 3.61622 3.14540
# Velocity P-wave (km/s) = 3.91189 5.95898 5.04045
#
# Compressibility (1/GPa) = 0.06678766
#
# Stress axis : x y z
#
# Youngs Moduli (GPa) = 71.39978 18.11168 123.54303
#
# Poissons Ratio (x) = 0.00050 0.03817
# Poissons Ratio (y) = 0.00198 0.60857
# Poissons Ratio (z) = 0.02206 0.08922
#
# Static dielectric constant tensor:
#      x y z
#    x 4.253050 -0.144580 0.017160 
#    y -0.144580 3.882070 -0.196230 
#    z 0.017160 -0.196230 4.279890 
# 
# 
# High freq. dielectric constant tensor:
#      x y z
#    x 1.926840 -0.012250 -0.000430 
#    y -0.012250 1.906140 -0.012540 
#    z -0.000430 -0.012540 1.941900 
# 
# From -- ./inp_files/595933.got.cif
#   From: 2010.06.25/outbox.cif.g09.slc.cpg/sg2_298_cif.got.tgz:595933.got - 2010.06.27 13:26:56.
