data_PCOD8043262
_publ_section_title
;
Structure prediction by ZEFSAII (Michael W. Deem and Ramdas Pophale) SiO2 
 PCOD8043262
Probable space group: P -1
;
_chemical_formula_sum "Si O2"
_cell_formula_units_Z 14
_cell_length_a 11.523055
_cell_length_b 8.058599
_cell_length_c 13.471307
_cell_angle_alpha 70.043260
_cell_angle_beta 67.140848
_cell_angle_gamma 37.800911
_cell_volume 705.200652
_symmetry_space_group_name_H-M "P -1"
_symmetry_group_IT_number 2
_symmetry_cell_setting 'triclinic'
loop_
_space_group_symop_operation_xyz
x,y,z
-x,-y,-z
loop_
_atom_site_type_symbol
_atom_site_label
_atom_site_fract_x
_atom_site_fract_y
_atom_site_fract_z
Si Si1 0.135458 0.473233 0.092230
Si Si2 0.817871 0.850595 0.686804
Si Si3 0.661248 0.360692 0.703828
Si Si4 0.404083 0.438406 0.097350
Si Si5 0.857253 0.314597 0.475431
Si Si6 0.725202 0.807475 0.099156
Si Si7 0.595515 0.628905 0.309097
O O1 0.158669 0.340298 0.212338
O O2 0.212443 0.587782 0.068583
O O3 0.913147 0.720963 0.083695
O O4 0.266188 0.247472 0.008794
O O5 0.003201 0.662109 0.588696
O O6 0.816862 0.033150 0.716390
O O7 0.611634 0.060999 0.654270
O O8 0.652672 0.451126 0.795924
O O9 0.726768 0.451490 0.590303
O O10 0.453158 0.499342 0.710410
O O11 0.540617 0.122437 0.117623
O O12 0.500000 0.500000 0.000000
O O13 0.713130 0.450174 0.403055
O O14 0.000000 0.000000 0.500000
O O15 0.717797 0.634329 0.199817
#
# Coordination Sequence:
#
# PCOD8043262 Si02
#       7
#     2   2   2   2   2   2   2
#     4  11  22  40  62  86 114 155 201 235 286 353
#     4   9  19  36  63  84 114 156 197 236 278 343
#     4   9  21  35  57  92 116 151 188 238 300 328
#     4  12  23  41  58  86 125 148 187 246 302 342
#     4  10  19  36  60  90 117 150 197 244 277 339
#     4  11  23  38  63  87 112 159 200 233 287 351
#     4  10  19  37  62  87 114 152 204 233 278 349
#
# _framework density 19.852505000000001
#
# number of rings (size 3 to 8) (size 9 to 14) (size 15 to 20)
#    0.857    0.857    2.857    2.571    0.000    0.571 
#    5.143    1.429    0.000    0.000    0.000    0.000 
#    0.000    0.000    0.000    0.000    0.000    0.000 
#
# Total GULP energy -173481.386334 kJ/mol
# GULP energy per Si atom -12391.527595 kJ/mol
# Density = 1.980732 g / cm^3
# Si number density = 19.852505 Si / 1000 Ang^3
#
#
#
# Elastic Constant Matrix: (Units=GPa)
#
#
# Indices 1 2 3 4 5 6 
#
# 1 139.4863 20.4384 66.4093 7.5626 -11.6683 -18.5091
# 2 20.4384 27.8990 23.8184 -0.0954 1.2587 -6.4512
# 3 66.4093 23.8184 128.5925 0.4103 -17.3385 -2.1209
# 4 7.5626 -0.0954 0.4103 28.4856 -4.7573 -0.4827
# 5 -11.6683 1.2587 -17.3385 -4.7573 32.2602 -4.1563
# 6 -18.5091 -6.4512 -2.1209 -0.4827 -4.1563 23.3659
#
#
#
# Elastic Compliance Matrix: (Units=1/GPa)
#
#
# Indices 1 2 3 4 5 6 
#
# 1 0.011261 -0.002222 -0.004966 -0.002421 0.002190 0.008195
# 2 -0.002222 0.046878 -0.008162 0.000056 -0.005799 0.009411
# 3 -0.004966 -0.008162 0.012447 0.001869 0.004954 -0.004137
# 4 -0.002421 0.000056 0.001869 0.036645 0.005532 0.000008
# 5 0.002190 -0.005799 0.004954 0.005532 0.036419 0.007176
# 6 0.008195 0.009411 -0.004137 0.000008 0.007176 0.052789
#
#
# Mechanical properties :
#
#
# Convention : Reuss Voigt Hill
#
# Bulk Modulus (GPa) = 25.07194 57.47892 41.27543
# Shear Modulus (GPa) = 20.79572 29.17645 24.98608
#
# Velocity S-wave (km/s) = 3.24004 3.83777 3.55150
# Velocity P-wave (km/s) = 5.16272 6.97523 6.13627
#
# Compressibility (1/GPa) = 0.03988522
#
# Stress axis : x y z
#
# Youngs Moduli (GPa) = 88.80294 21.33207 80.34299
#
# Poissons Ratio (x) = 0.04740 0.39896
# Poissons Ratio (y) = 0.19733 0.65577
# Poissons Ratio (z) = 0.44097 0.17412
#
# Static dielectric constant tensor:
#      x y z
#    x 4.016080 -0.387190 -0.455390 
#    y -0.387190 3.366790 0.081040 
#    z -0.455390 0.081040 3.801540 
# 
# 
# High freq. dielectric constant tensor:
#      x y z
#    x 1.780350 -0.026660 -0.025520 
#    y -0.026660 1.742340 -0.009420 
#    z -0.025520 -0.009420 1.779520 
# 
# From -- ./inp_files/414667.got.cif
#   From: 2010.06.25/outbox.cif.g09.slc.cpg/sg2_208_cif.got.tgz:414667.got - 2010.06.27 13:26:56.
