data_PCOD8044408
_publ_section_title
;
Structure prediction by ZEFSAII (Michael W. Deem and Ramdas Pophale) SiO2 
 PCOD8044408
Probable space group: P -1
;
_chemical_formula_sum "Si O2"
_cell_formula_units_Z 16
_cell_length_a 9.185357
_cell_length_b 21.890890
_cell_length_c 21.796346
_cell_angle_alpha 19.514557
_cell_angle_beta 39.023157
_cell_angle_gamma 50.034963
_cell_volume 833.263484
_symmetry_space_group_name_H-M "P -1"
_symmetry_group_IT_number 2
_symmetry_cell_setting 'triclinic'
loop_
_space_group_symop_operation_xyz
x,y,z
-x,-y,-z
loop_
_atom_site_type_symbol
_atom_site_label
_atom_site_fract_x
_atom_site_fract_y
_atom_site_fract_z
Si Si1 0.233404 0.366601 0.842685
Si Si2 0.244076 0.387214 0.228184
Si Si3 0.702400 0.238203 0.499737
Si Si4 0.929311 0.424129 0.785181
Si Si5 0.450155 0.058352 0.057572
Si Si6 0.705738 0.002617 0.381986
Si Si7 0.654176 0.976082 0.285977
Si Si8 0.913841 0.174310 0.709805
O O1 0.365200 0.573602 0.641958
O O2 0.181058 0.420309 0.739136
O O3 0.437688 0.272381 0.868199
O O4 0.959303 0.212058 0.106735
O O5 0.234543 0.530706 0.150507
O O6 0.217749 0.179367 0.461653
O O7 0.008874 0.329345 0.313056
O O8 0.500000 0.500000 0.000000
O O9 0.600877 0.150297 0.549258
O O10 0.572124 0.059362 0.760750
O O11 0.999766 0.586947 0.553636
O O12 0.772331 0.210791 0.004866
O O13 0.211386 0.927711 0.216584
O O14 0.718170 0.094153 0.905872
O O15 0.578509 0.971444 0.386148
O O16 0.500000 0.000000 0.500000
O O17 0.852772 0.879643 0.300156
#
# Coordination Sequence:
#
# PCOD8044408 Si02
#       8
#     2   2   2   2   2   2   2   2
#     4  10  19  38  60  88 118 160 206 250 294 356
#     4  11  20  40  65  87 116 160 207 246 294 364
#     4  11  23  40  60  91 130 157 197 258 308 353
#     4  10  19  38  60  88 118 160 206 250 294 356
#     4  11  21  38  64  91 121 164 211 251 293 360
#     4  11  20  40  65  87 116 160 207 246 294 364
#     4  11  23  40  60  91 130 157 197 258 308 353
#     4  11  21  38  64  91 121 164 211 251 293 360
#
# _framework density 19.201611
#
# number of rings (size 3 to 8) (size 9 to 14) (size 15 to 20)
#    0.000    1.250    7.500    2.250    0.000    3.000 
#    0.000    6.250    0.000    0.000    0.000    0.000 
#    0.000    0.000    0.000    0.000    0.000    0.000 
#
# Total GULP energy -198402.899952 kJ/mol
# GULP energy per Si atom -12400.181247 kJ/mol
# Density = 1.915791 g / cm^3
# Si number density = 19.201611 Si / 1000 Ang^3
#
#
#
# Elastic Constant Matrix: (Units=GPa)
#
#
# Indices 1 2 3 4 5 6 
#
# 1 82.2856 42.2138 45.7501 -6.6293 -7.9037 6.2741
# 2 42.2138 80.6500 46.3006 -3.8062 6.8106 -2.2515
# 3 45.7501 46.3006 95.8425 -21.2844 5.6293 -6.9146
# 4 -6.6293 -3.8062 -21.2844 47.5227 -2.0737 -0.1160
# 5 -7.9037 6.8106 5.6293 -2.0737 29.1980 -11.1447
# 6 6.2741 -2.2515 -6.9146 -0.1160 -11.1447 23.2324
#
#
#
# Elastic Compliance Matrix: (Units=1/GPa)
#
#
# Indices 1 2 3 4 5 6 
#
# 1 0.021160 -0.007606 -0.007364 -0.000671 0.006823 -0.005373
# 2 -0.007606 0.020517 -0.006568 -0.002627 -0.006088 -0.000846
# 3 -0.007364 -0.006568 0.019222 0.007021 -0.001170 0.006547
# 4 -0.000671 -0.002627 0.007021 0.023976 0.001953 0.003073
# 5 0.006823 -0.006088 -0.001170 0.001953 0.045076 0.018852
# 6 -0.005373 -0.000846 0.006547 0.003073 0.018852 0.055420
#
#
# Mechanical properties :
#
#
# Convention : Reuss Voigt Hill
#
# Bulk Modulus (GPa) = 56.10370 58.58968 57.34669
# Shear Modulus (GPa) = 21.33220 28.29152 24.81186
#
# Velocity S-wave (km/s) = 3.33672 3.84264 3.59858
# Velocity P-wave (km/s) = 6.64279 7.08992 6.86999
#
# Compressibility (1/GPa) = 0.01782414
#
# Stress axis : x y z
#
# Youngs Moduli (GPa) = 47.25915 48.73894 52.02392
#
# Poissons Ratio (x) = 0.37071 0.38309
# Poissons Ratio (y) = 0.35945 0.34169
# Poissons Ratio (z) = 0.34800 0.32012
#
# Static dielectric constant tensor:
#      x y z
#    x 3.413810 -0.184760 0.243120 
#    y -0.184760 3.634150 -0.212380 
#    z 0.243120 -0.212380 3.773780 
# 
# 
# High freq. dielectric constant tensor:
#      x y z
#    x 1.720780 -0.013040 0.016960 
#    y -0.013040 1.747040 -0.017800 
#    z 0.016960 -0.017800 1.758660 
# 
# From -- ./inp_files/206155.got.cif
#   From: 2010.06.25/outbox.cif.g09.slc.cpg/sg2_104_cif.got.tgz:206155.got - 2010.06.27 13:26:56.
