data_PCOD8044530
_publ_section_title
;
Structure prediction by ZEFSAII (Michael W. Deem and Ramdas Pophale) SiO2 
 PCOD8044530
Probable space group: P -1
;
_chemical_formula_sum "Si O2"
_cell_formula_units_Z 14
_cell_length_a 9.175902
_cell_length_b 11.976696
_cell_length_c 9.709580
_cell_angle_alpha 77.118722
_cell_angle_beta 81.978704
_cell_angle_gamma 134.377332
_cell_volume 673.329994
_symmetry_space_group_name_H-M "P -1"
_symmetry_group_IT_number 2
_symmetry_cell_setting 'triclinic'
loop_
_space_group_symop_operation_xyz
x,y,z
-x,-y,-z
loop_
_atom_site_type_symbol
_atom_site_label
_atom_site_fract_x
_atom_site_fract_y
_atom_site_fract_z
Si Si1 0.091293 0.661026 0.860849
Si Si2 0.002338 0.819683 0.021201
Si Si3 0.807109 0.562961 0.677100
Si Si4 0.433930 0.151744 0.238417
Si Si5 0.222362 0.202910 0.429449
Si Si6 0.040500 0.240879 0.649149
Si Si7 0.633492 0.789871 0.056639
O O1 0.359935 0.810882 0.766990
O O2 0.982509 0.600928 0.740961
O O3 0.000000 0.500000 0.000000
O O4 0.028440 0.738651 0.927581
O O5 0.936165 0.721850 0.202974
O O6 0.806503 0.788862 0.007720
O O7 0.237260 0.025156 0.948401
O O8 0.786477 0.685233 0.691485
O O9 0.897331 0.610791 0.492703
O O10 0.563778 0.360129 0.771657
O O11 0.423492 0.239523 0.340558
O O12 0.478574 0.246418 0.065025
O O13 0.210383 0.944748 0.309872
O O14 0.219931 0.244481 0.579423
O O15 0.000000 0.000000 0.500000
#
# Coordination Sequence:
#
# PCOD8044530 Si02
#       7
#     2   2   2   2   2   2   2
#     4  12  25  38  63  98 125 167 210 251 304 382
#     4  10  23  42  64  91 126 162 209 255 318 368
#     4  10  21  40  65  94 121 158 219 254 305 359
#     4  10  19  38  62  91 127 163 202 252 313 365
#     4   8  17  36  63  89 120 156 203 260 301 354
#     4   8  20  39  64  86 123 161 206 257 309 359
#     4  10  21  39  67  91 120 164 212 262 304 359
#
# _framework density 20.792182
#
# number of rings (size 3 to 8) (size 9 to 14) (size 15 to 20)
#    0.857    1.429    1.429    0.857    2.000    5.714 
#    0.000    0.714    3.143    0.000    0.000    0.000 
#    0.000    0.000    0.000    0.000    0.000    0.000 
#
# Total GULP energy -173449.686265 kJ/mol
# GULP energy per Si atom -12389.263305 kJ/mol
# Density = 2.074486 g / cm^3
# Si number density = 20.792182 Si / 1000 Ang^3
#
#
#
# Elastic Constant Matrix: (Units=GPa)
#
#
# Indices 1 2 3 4 5 6 
#
# 1 68.3778 21.6883 14.8981 -1.2875 6.5537 1.3733
# 2 21.6883 40.6520 22.2811 -10.2311 6.3551 1.4390
# 3 14.8981 22.2811 107.2625 -22.2921 15.0007 2.0372
# 4 -1.2875 -10.2311 -22.2921 28.8531 -3.7561 2.1657
# 5 6.5537 6.3551 15.0007 -3.7561 24.5487 -0.9855
# 6 1.3733 1.4390 2.0372 2.1657 -0.9855 20.3686
#
#
#
# Elastic Compliance Matrix: (Units=1/GPa)
#
#
# Indices 1 2 3 4 5 6 
#
# 1 0.018049 -0.009667 -0.000926 -0.003626 -0.002312 -0.000168
# 2 -0.009667 0.034466 -0.003512 0.008883 -0.002937 -0.002519
# 3 -0.000926 -0.003512 0.012624 0.007915 -0.005429 -0.002056
# 4 -0.003626 0.008883 0.007915 0.044249 0.000367 -0.005862
# 5 -0.002312 -0.002937 -0.005429 0.000367 0.045610 0.003074
# 6 -0.000168 -0.002519 -0.002056 -0.005862 0.003074 0.050262
#
#
# Mechanical properties :
#
#
# Convention : Reuss Voigt Hill
#
# Bulk Modulus (GPa) = 27.07909 37.11415 32.09662
# Shear Modulus (GPa) = 20.34337 25.24906 22.79621
#
# Velocity S-wave (km/s) = 3.13135 3.48854 3.31476
# Velocity P-wave (km/s) = 5.11134 5.84083 5.48822
#
# Compressibility (1/GPa) = 0.03692886
#
# Stress axis : x y z
#
# Youngs Moduli (GPa) = 55.40363 29.01452 79.21269
#
# Poissons Ratio (x) = 0.28049 0.07335
# Poissons Ratio (y) = 0.53561 0.27818
# Poissons Ratio (z) = 0.05130 0.10189
#
# Static dielectric constant tensor:
#      x y z
#    x 3.308010 -0.176150 -0.312080 
#    y -0.176150 3.541170 -0.090350 
#    z -0.312080 -0.090350 3.899230 
# 
# 
# High freq. dielectric constant tensor:
#      x y z
#    x 1.795640 0.001490 -0.000250 
#    y 0.001490 1.796150 -0.013020 
#    z -0.000250 -0.013020 1.824930 
# 
# From -- ./inp_files/387081.got.cif
#   From: 2010.06.25/outbox.cif.g09.slc.cpg/sg2_194_cif.got.tgz:387081.got - 2010.06.27 13:26:56.
