data_PCOD8044380
_publ_section_title
;
Structure prediction by ZEFSAII (Michael W. Deem and Ramdas Pophale) SiO2 
 PCOD8044380
Probable space group: P -1
;
_chemical_formula_sum "Si O2"
_cell_formula_units_Z 16
_cell_length_a 9.135560
_cell_length_b 24.914616
_cell_length_c 9.151345
_cell_angle_alpha 125.613101
_cell_angle_beta 148.026936
_cell_angle_gamma 46.076786
_cell_volume 794.320974
_symmetry_space_group_name_H-M "P -1"
_symmetry_group_IT_number 2
_symmetry_cell_setting 'triclinic'
loop_
_space_group_symop_operation_xyz
x,y,z
-x,-y,-z
loop_
_atom_site_type_symbol
_atom_site_label
_atom_site_fract_x
_atom_site_fract_y
_atom_site_fract_z
Si Si1 0.448385 0.272956 0.356115
Si Si2 0.313048 0.426157 0.384648
Si Si3 0.851789 0.797522 0.202903
Si Si4 0.577917 0.351794 0.180278
Si Si5 0.568328 0.160865 0.518598
Si Si6 0.402711 0.490110 0.065859
Si Si7 0.275616 0.086591 0.954371
Si Si8 0.720800 0.752268 0.312726
O O1 0.335411 0.360433 0.405536
O O2 0.490520 0.239389 0.500280
O O3 0.785401 0.231472 0.496855
O O4 0.186136 0.261102 0.028832
O O5 0.420531 0.398766 0.267613
O O6 0.537847 0.456795 0.688189
O O7 0.958757 0.489994 0.195071
O O8 0.699859 0.878038 0.123841
O O9 0.671520 0.800874 0.202845
O O10 0.589599 0.405098 0.145722
O O11 0.923596 0.287881 0.399064
O O12 0.379563 0.311833 0.894608
O O13 0.491294 0.182022 0.653984
O O14 0.926360 0.100221 0.706734
O O15 0.363142 0.124744 0.222146
O O16 0.500000 0.500000 0.000000
O O17 0.500000 0.000000 0.000000
#
# Coordination Sequence:
#
# PCOD8044380 Si02
#       8
#     2   2   2   2   2   2   2   2
#     4  10  20  36  61  86 110 154 197 237 288 349
#     4  12  22  43  63  82 117 156 203 241 307 358
#     4  10  19  38  59  90 115 150 195 234 279 354
#     4  12  25  41  61  85 117 163 194 245 306 355
#     4  10  23  36  62  92 123 151 194 246 289 332
#     4  12  28  41  59  86 119 152 203 254 302 359
#     4  10  21  41  63  89 124 161 193 227 286 356
#     4  12  22  40  61  91 121 148 201 251 293 339
#
# _framework density 20.142992
#
# number of rings (size 3 to 8) (size 9 to 14) (size 15 to 20)
#    0.000    1.000    2.500    4.500    3.500    0.000 
#    0.000    1.250    0.000    0.000    0.000    0.000 
#    0.000    0.000    0.000    0.000    0.000    0.000 
#
# Total GULP energy -198448.269436 kJ/mol
# GULP energy per Si atom -12403.016840 kJ/mol
# Density = 2.009715 g / cm^3
# Si number density = 20.142992 Si / 1000 Ang^3
#
#
#
# Elastic Constant Matrix: (Units=GPa)
#
#
# Indices 1 2 3 4 5 6 
#
# 1 103.0025 29.2425 17.6540 -3.1441 -12.4208 -4.5063
# 2 29.2425 94.3965 11.1629 -9.0499 -10.1183 11.1143
# 3 17.6540 11.1629 72.7903 -2.6266 0.0037 0.7286
# 4 -3.1441 -9.0499 -2.6266 30.5024 -0.3110 0.7917
# 5 -12.4208 -10.1183 0.0037 -0.3110 25.5862 4.3151
# 6 -4.5063 11.1143 0.7286 0.7917 4.3151 25.4313
#
#
#
# Elastic Compliance Matrix: (Units=1/GPa)
#
#
# Indices 1 2 3 4 5 6 
#
# 1 0.011627 -0.003250 -0.002351 -0.000004 0.003872 0.002891
# 2 -0.003250 0.013511 -0.001072 0.003826 0.005065 -0.007429
# 3 -0.002351 -0.001072 0.014498 0.000676 -0.001538 -0.000124
# 4 -0.000004 0.003826 0.000676 0.034085 0.002460 -0.003171
# 5 0.003872 0.005065 -0.001538 0.002460 0.044534 -0.009116
# 6 0.002891 -0.007429 -0.000124 -0.003171 -0.009116 0.044729
#
#
# Mechanical properties :
#
#
# Convention : Reuss Voigt Hill
#
# Bulk Modulus (GPa) = 38.03378 42.92314 40.47846
# Shear Modulus (GPa) = 27.01335 30.44599 28.72967
#
# Velocity S-wave (km/s) = 3.66605 3.89201 3.78072
# Velocity P-wave (km/s) = 6.06982 6.44612 6.26080
#
# Compressibility (1/GPa) = 0.02629242
#
# Stress axis : x y z
#
# Youngs Moduli (GPa) = 86.00447 74.01157 68.97347
#
# Poissons Ratio (x) = 0.24051 0.16215
# Poissons Ratio (y) = 0.27948 0.07392
# Poissons Ratio (z) = 0.20219 0.07932
#
# Static dielectric constant tensor:
#      x y z
#    x 3.754020 0.290440 0.036650 
#    y 0.290440 3.489810 -0.009150 
#    z 0.036650 -0.009150 3.874690 
# 
# 
# High freq. dielectric constant tensor:
#      x y z
#    x 1.784800 0.016060 0.004720 
#    y 0.016060 1.770880 -0.000570 
#    z 0.004720 -0.000570 1.807840 
# 
# From -- ./inp_files/48655.got.cif
#   From: 2010.06.25/outbox.cif.g09.slc.cpg/sg2_25_cif.got.tgz:48655.got - 2010.06.27 13:26:56.
