data_PCOD8044571
_publ_section_title
;
Structure prediction by ZEFSAII (Michael W. Deem and Ramdas Pophale) SiO2 
 PCOD8044571
Probable space group: P -1
;
_chemical_formula_sum "Si O2"
_cell_formula_units_Z 16
_cell_length_a 14.582442
_cell_length_b 9.364668
_cell_length_c 12.142512
_cell_angle_alpha 143.025611
_cell_angle_beta 47.499376
_cell_angle_gamma 112.593938
_cell_volume 688.580021
_symmetry_space_group_name_H-M "P -1"
_symmetry_group_IT_number 2
_symmetry_cell_setting 'triclinic'
loop_
_space_group_symop_operation_xyz
x,y,z
-x,-y,-z
loop_
_atom_site_type_symbol
_atom_site_label
_atom_site_fract_x
_atom_site_fract_y
_atom_site_fract_z
Si Si1 0.005475 0.735403 0.286122
Si Si2 0.217732 0.943121 0.757694
Si Si3 0.610938 0.814737 0.547271
Si Si4 0.787875 0.543477 0.437349
Si Si5 0.225818 0.451925 0.074971
Si Si6 0.169537 0.967926 0.567912
Si Si7 0.518404 0.639327 0.302573
Si Si8 0.435126 0.179886 0.066247
O O1 0.914530 0.620259 0.361322
O O2 0.155280 0.541002 0.065562
O O3 0.954399 0.796241 0.238977
O O4 0.000000 0.000000 0.500000
O O5 0.176653 0.759352 0.761029
O O6 0.138338 0.969220 0.722958
O O7 0.372627 0.845214 0.537207
O O8 0.180945 0.222193 0.015123
O O9 0.684648 0.631936 0.475033
O O10 0.579579 0.641029 0.374514
O O11 0.696801 0.977133 0.532363
O O12 0.466705 0.015884 0.827338
O O13 0.720038 0.673744 0.688813
O O14 0.184035 0.689626 0.337881
O O15 0.383330 0.323158 0.847180
O O16 0.517192 0.365519 0.108482
O O17 0.500000 0.000000 0.000000
#
# Coordination Sequence:
#
# PCOD8044571 Si02
#       8
#     2   2   2   2   2   2   2   2
#     4   9  21  42  69  86 114 162 218 253 286 362
#     4  11  24  38  59  94 133 155 194 256 309 367
#     4  10  19  38  63  88 124 161 206 244 296 366
#     4   9  21  40  58  91 126 158 200 257 303 354
#     4  11  22  39  65  89 123 163 204 251 299 356
#     4  10  21  40  63  92 119 160 210 248 296 359
#     4  11  22  37  60  97 125 155 207 246 300 369
#     4   9  19  34  59  85 125 159 189 254 305 345
#
# _framework density 23.236225999999998
#
# number of rings (size 3 to 8) (size 9 to 14) (size 15 to 20)
#    0.000    2.000    2.500    0.375    1.750    8.000 
#    0.000    3.750    0.000    0.000    0.000    0.000 
#    0.000    0.000    0.000    0.000    0.000    0.000 
#
# Total GULP energy -198238.794712 kJ/mol
# GULP energy per Si atom -12389.924670 kJ/mol
# Density = 2.318334 g / cm^3
# Si number density = 23.236226 Si / 1000 Ang^3
#
#
#
# Elastic Constant Matrix: (Units=GPa)
#
#
# Indices 1 2 3 4 5 6 
#
# 1 71.1011 29.4161 7.7770 0.5488 -2.2993 0.4070
# 2 29.4161 141.5857 31.0475 31.9044 9.2456 7.1007
# 3 7.7770 31.0475 45.5808 15.6290 6.7131 8.5010
# 4 0.5488 31.9044 15.6290 31.3965 -4.7851 -0.5431
# 5 -2.2993 9.2456 6.7131 -4.7851 19.2366 -6.2914
# 6 0.4070 7.1007 8.5010 -0.5431 -6.2914 24.4290
#
#
#
# Elastic Compliance Matrix: (Units=1/GPa)
#
#
# Indices 1 2 3 4 5 6 
#
# 1 0.017259 -0.005718 -0.005296 0.009963 0.011206 0.006325
# 2 -0.005718 0.012850 0.001132 -0.015757 -0.013768 -0.007930
# 3 -0.005296 0.001132 0.038759 -0.024982 -0.027943 -0.021480
# 4 0.009963 -0.015757 -0.024982 0.067046 0.042516 0.025548
# 5 0.011206 -0.013768 -0.027943 0.042516 0.092824 0.038390
# 6 0.006325 -0.007930 -0.021480 0.025548 0.038390 0.061064
#
#
# Mechanical properties :
#
#
# Convention : Reuss Voigt Hill
#
# Bulk Modulus (GPa) = 20.36479 43.86098 32.11289
# Shear Modulus (GPa) = 15.34052 27.68088 21.51070
#
# Velocity S-wave (km/s) = 2.57222 3.45524 3.04590
# Velocity P-wave (km/s) = 4.19583 5.90215 5.12056
#
# Compressibility (1/GPa) = 0.04910436
#
# Stress axis : x y z
#
# Youngs Moduli (GPa) = 57.94118 77.82087 25.80043
#
# Poissons Ratio (x) = 0.44501 0.13663
# Poissons Ratio (y) = 0.33133 -0.02922
# Poissons Ratio (z) = 0.30685 -0.08813
#
# Static dielectric constant tensor:
#      x y z
#    x 4.375890 -0.049610 -0.117400 
#    y -0.049610 4.139120 0.177180 
#    z -0.117400 0.177180 4.836830 
# 
# 
# High freq. dielectric constant tensor:
#      x y z
#    x 1.909940 0.002320 -0.001120 
#    y 0.002320 1.919920 0.026690 
#    z -0.001120 0.026690 1.911750 
# 
# From -- ./inp_files/448292.got.cif
#   From: 2010.06.25/outbox.cif.g09.slc.cpg/sg2_225_cif.got.tgz:448292.got - 2010.06.27 13:26:56.
