data_PCOD8044560
_publ_section_title
;
Structure prediction by ZEFSAII (Michael W. Deem and Ramdas Pophale) SiO2 
 PCOD8044560
Probable space group: P -1
;
_chemical_formula_sum "Si O2"
_cell_formula_units_Z 16
_cell_length_a 14.955728
_cell_length_b 15.903843
_cell_length_c 6.608726
_cell_angle_alpha 123.305115
_cell_angle_beta 117.767638
_cell_angle_gamma 36.619837
_cell_volume 782.647360
_symmetry_space_group_name_H-M "P -1"
_symmetry_group_IT_number 2
_symmetry_cell_setting 'triclinic'
loop_
_space_group_symop_operation_xyz
x,y,z
-x,-y,-z
loop_
_atom_site_type_symbol
_atom_site_label
_atom_site_fract_x
_atom_site_fract_y
_atom_site_fract_z
Si Si1 0.787327 0.071545 0.842325
Si Si2 0.958593 0.418344 0.388922
Si Si3 0.575444 0.819415 0.173770
Si Si4 0.790452 0.402122 0.907651
Si Si5 0.711733 0.571124 0.663587
Si Si6 0.015923 0.932437 0.223531
Si Si7 0.727379 0.899676 0.611678
Si Si8 0.540059 0.661555 0.213390
O O1 0.907005 0.040971 0.797119
O O2 0.630122 0.245038 0.888092
O O3 0.754231 0.981332 0.614893
O O4 0.854938 0.019744 0.073920
O O5 0.861877 0.486810 0.584778
O O6 0.000000 0.500000 0.500000
O O7 0.110386 0.242548 0.315251
O O8 0.863811 0.448860 0.139747
O O9 0.675111 0.845712 0.345173
O O10 0.584708 0.738136 0.268700
O O11 0.399068 0.984020 0.193297
O O12 0.639591 0.717545 0.906216
O O13 0.762356 0.441713 0.692046
O O14 0.887164 0.236172 0.850249
O O15 0.630982 0.506864 0.989798
O O16 0.579826 0.631982 0.454361
O O17 0.000000 0.000000 0.500000
#
# Coordination Sequence:
#
# PCOD8044560 Si02
#       8
#     2   2   2   2   2   2   2   2
#     4  10  23  43  63  86 122 165 209 263 311 366
#     4  11  22  38  61  93 126 167 202 252 314 378
#     4   9  20  38  59  94 129 164 203 255 303 381
#     4  10  22  40  62  89 126 162 202 266 310 366
#     4  10  21  38  63  91 130 161 209 250 308 379
#     4  11  25  42  62  91 122 160 217 266 306 363
#     4  10  19  38  63  86 128 168 201 251 321 363
#     4   9  20  41  65  90 124 166 201 255 316 374
#
# _framework density 20.443435000000001
#
# number of rings (size 3 to 8) (size 9 to 14) (size 15 to 20)
#    0.000    2.000    1.250    2.250    1.750    6.500 
#    0.000   10.000    0.000    0.000    0.000    0.000 
#    0.000    0.000    0.000    0.000    0.000    0.000 
#
# Total GULP energy -198243.203605 kJ/mol
# GULP energy per Si atom -12390.200225 kJ/mol
# Density = 2.039690 g / cm^3
# Si number density = 20.443435 Si / 1000 Ang^3
#
#
#
# Elastic Constant Matrix: (Units=GPa)
#
#
# Indices 1 2 3 4 5 6 
#
# 1 70.2370 22.9009 36.5591 -13.0591 2.9386 -6.9420
# 2 22.9009 106.2027 35.7154 -21.5587 -10.6147 -25.0163
# 3 36.5591 35.7154 95.0132 -17.2174 -16.4938 -0.3095
# 4 -13.0591 -21.5587 -17.2174 28.6127 2.1490 2.0222
# 5 2.9386 -10.6147 -16.4938 2.1490 26.4058 0.5721
# 6 -6.9420 -25.0163 -0.3095 2.0222 0.5721 36.9319
#
#
#
# Elastic Compliance Matrix: (Units=1/GPa)
#
#
# Indices 1 2 3 4 5 6 
#
# 1 0.020104 -0.000903 -0.008046 0.004044 -0.008020 0.003003
# 2 -0.000903 0.014821 -0.003199 0.007928 0.003212 0.009359
# 3 -0.008046 -0.003199 0.017268 0.003820 0.010169 -0.003902
# 4 0.004044 0.007928 0.003820 0.044701 0.001405 0.003693
# 5 -0.008020 0.003212 0.010169 0.001405 0.046293 -0.000041
# 6 0.003003 0.009359 -0.003902 0.003693 -0.000041 0.033747
#
#
# Mechanical properties :
#
#
# Convention : Reuss Voigt Hill
#
# Bulk Modulus (GPa) = 35.84513 51.31151 43.57832
# Shear Modulus (GPa) = 23.74972 30.14192 26.94582
#
# Velocity S-wave (km/s) = 3.41211 3.84397 3.63446
# Velocity P-wave (km/s) = 5.75284 6.69740 6.24301
#
# Compressibility (1/GPa) = 0.02789779
#
# Stress axis : x y z
#
# Youngs Moduli (GPa) = 49.74118 67.46997 57.90972
#
# Poissons Ratio (x) = 0.06090 0.46594
# Poissons Ratio (y) = 0.04490 0.18528
# Poissons Ratio (z) = 0.40022 0.21586
#
# Static dielectric constant tensor:
#      x y z
#    x 3.826380 -0.308760 -0.463490 
#    y -0.308760 4.037130 0.110480 
#    z -0.463490 0.110480 5.597780 
# 
# 
# High freq. dielectric constant tensor:
#      x y z
#    x 1.793340 -0.011190 0.007710 
#    y -0.011190 1.826040 0.002250 
#    z 0.007710 0.002250 1.780700 
# 
# From -- ./inp_files/98632.got.cif
#   From: 2010.06.25/outbox.cif.g09.slc.cpg/sg2_50_cif.got.tgz:98632.got - 2010.06.27 13:26:56.
