data_PCOD8044576
_publ_section_title
;
Structure prediction by ZEFSAII (Michael W. Deem and Ramdas Pophale) SiO2 
 PCOD8044576
Probable space group: P -1
;
_chemical_formula_sum "Si O2"
_cell_formula_units_Z 16
_cell_length_a 8.636166
_cell_length_b 13.005248
_cell_length_c 10.016446
_cell_angle_alpha 136.934554
_cell_angle_beta 77.295152
_cell_angle_gamma 107.392528
_cell_volume 733.064610
_symmetry_space_group_name_H-M "P -1"
_symmetry_group_IT_number 2
_symmetry_cell_setting 'triclinic'
loop_
_space_group_symop_operation_xyz
x,y,z
-x,-y,-z
loop_
_atom_site_type_symbol
_atom_site_label
_atom_site_fract_x
_atom_site_fract_y
_atom_site_fract_z
Si Si1 0.847038 0.919021 0.233496
Si Si2 0.170819 0.755616 0.408213
Si Si3 0.816655 0.432002 0.508399
Si Si4 0.819342 0.750260 0.357086
Si Si5 0.682577 0.732911 0.845833
Si Si6 0.183997 0.570914 0.991330
Si Si7 0.787772 0.943559 0.779030
Si Si8 0.681705 0.248376 0.107715
O O1 0.859459 0.847072 0.307626
O O2 0.758511 0.064366 0.402801
O O3 0.742904 0.794083 0.038016
O O4 0.026900 0.968831 0.187972
O O5 0.192882 0.650259 0.426936
O O6 0.262896 0.693519 0.206773
O O7 0.982594 0.740811 0.396065
O O8 0.715229 0.564461 0.658053
O O9 0.735810 0.303986 0.297238
O O10 0.000000 0.500000 0.500000
O O11 0.721068 0.835624 0.561151
O O12 0.725773 0.574340 0.176440
O O13 0.776280 0.844406 0.820999
O O14 0.491634 0.718293 0.862356
O O15 0.188422 0.659936 0.935274
O O16 0.000000 0.500000 0.000000
O O17 0.673681 0.066544 0.928907
#
# Coordination Sequence:
#
# PCOD8044576 Si02
#       8
#     2   2   2   2   2   2   2   2
#     4  11  21  40  65  94 124 164 214 262 308 374
#     4  10  20  36  63  95 121 154 209 264 306 359
#     4  12  23  41  66  93 122 166 212 256 308 379
#     4  10  20  37  65  97 121 154 210 270 309 357
#     4  12  26  42  60  94 132 166 207 261 320 373
#     4  10  19  38  63  90 120 160 205 253 307 371
#     4  11  21  40  65  90 124 171 213 256 309 376
#     4  12  25  42  63  93 130 165 205 264 321 371
#
# _framework density 21.826181999999999
#
# number of rings (size 3 to 8) (size 9 to 14) (size 15 to 20)
#    0.000    1.000    0.000   10.875    0.000    0.000 
#    0.000    6.250    0.000    0.000    0.000    0.000 
#    0.000    0.000    0.000    0.000    0.000    0.000 
#
# Total GULP energy -198422.009863 kJ/mol
# GULP energy per Si atom -12401.375616 kJ/mol
# Density = 2.177650 g / cm^3
# Si number density = 21.826182 Si / 1000 Ang^3
#
#
#
# Elastic Constant Matrix: (Units=GPa)
#
#
# Indices 1 2 3 4 5 6 
#
# 1 70.4631 16.0951 35.1200 -3.6348 -7.8124 -17.6114
# 2 16.0951 145.7779 47.7559 -5.8620 -10.4305 -34.2038
# 3 35.1200 47.7559 179.5250 11.6354 -15.9185 -16.8087
# 4 -3.6348 -5.8620 11.6354 43.9553 -16.3386 -2.2782
# 5 -7.8124 -10.4305 -15.9185 -16.3386 18.3853 8.6882
# 6 -17.6114 -34.2038 -16.8087 -2.2782 8.6882 24.5712
#
#
#
# Elastic Compliance Matrix: (Units=1/GPa)
#
#
# Indices 1 2 3 4 5 6 
#
# 1 0.019609 0.002880 -0.003128 0.005569 0.005328 0.014557
# 2 0.002880 0.011286 -0.002170 0.003667 0.001378 0.016144
# 3 -0.003128 -0.002170 0.006959 -0.001328 0.003098 -0.001720
# 4 0.005569 0.003667 -0.001328 0.038058 0.037917 -0.001691
# 5 0.005328 0.001378 0.003098 0.037917 0.106185 -0.026174
# 6 0.014557 0.016144 -0.001720 -0.001691 -0.026174 0.081526
#
#
# Mechanical properties :
#
#
# Convention : Reuss Voigt Hill
#
# Bulk Modulus (GPa) = 30.28452 65.96755 48.12604
# Shear Modulus (GPa) = 17.89135 37.16869 27.53002
#
# Velocity S-wave (km/s) = 2.86618 4.13115 3.55537
# Velocity P-wave (km/s) = 4.98586 7.28319 6.24114
#
# Compressibility (1/GPa) = 0.03302017
#
# Stress axis : x y z
#
# Youngs Moduli (GPa) = 50.99643 88.60217 143.69832
#
# Poissons Ratio (x) = -0.25520 0.44946
# Poissons Ratio (y) = -0.14688 0.31179
# Poissons Ratio (z) = 0.15951 0.19224
#
# Static dielectric constant tensor:
#      x y z
#    x 3.692810 -0.210450 -0.050390 
#    y -0.210450 4.104880 0.254890 
#    z -0.050390 0.254890 5.307670 
# 
# 
# High freq. dielectric constant tensor:
#      x y z
#    x 1.813170 -0.015350 -0.005570 
#    y -0.015350 1.873680 0.004420 
#    z -0.005570 0.004420 1.893810 
# 
# From -- ./inp_files/184207.got.cif
#   From: 2010.06.25/outbox.cif.g09.slc.cpg/sg2_93_cif.got.tgz:184207.got - 2010.06.27 13:26:56.
