data_PCOD8044605
_publ_section_title
;
Structure prediction by ZEFSAII (Michael W. Deem and Ramdas Pophale) SiO2 
 PCOD8044605
Probable space group: P -1
;
_chemical_formula_sum "Si O2"
_cell_formula_units_Z 16
_cell_length_a 15.311465
_cell_length_b 23.580534
_cell_length_c 18.165325
_cell_angle_alpha 158.715646
_cell_angle_beta 148.580177
_cell_angle_gamma 19.410264
_cell_volume 773.378122
_symmetry_space_group_name_H-M "P -1"
_symmetry_group_IT_number 2
_symmetry_cell_setting 'triclinic'
loop_
_space_group_symop_operation_xyz
x,y,z
-x,-y,-z
loop_
_atom_site_type_symbol
_atom_site_label
_atom_site_fract_x
_atom_site_fract_y
_atom_site_fract_z
Si Si1 0.340471 0.657844 0.339850
Si Si2 0.662186 0.143074 0.958437
Si Si3 0.301066 0.215299 0.885764
Si Si4 0.794515 0.208846 0.865514
Si Si5 0.013419 0.120045 0.265322
Si Si6 0.105095 0.029209 0.500041
Si Si7 0.316009 0.023325 0.990329
Si Si8 0.645909 0.663362 0.660206
O O1 0.529864 0.663769 0.504839
O O2 0.192950 0.703159 0.363616
O O3 0.154528 0.843989 0.363934
O O4 0.493026 0.398083 0.101927
O O5 0.483851 0.135411 0.852980
O O6 0.855041 0.927272 0.775203
O O7 0.803594 0.132675 0.114606
O O8 0.305477 0.025190 0.654778
O O9 0.440838 0.159509 0.996278
O O10 0.000000 0.500000 0.000000
O O11 0.782540 0.101279 0.796433
O O12 0.868573 0.041772 0.649913
O O13 0.500000 0.500000 0.000000
O O14 0.034372 0.162023 0.987317
O O15 0.880948 0.376211 0.511872
O O16 0.247851 0.246232 0.180819
O O17 0.419700 0.844814 0.780208
#
# Coordination Sequence:
#
# PCOD8044605 Si02
#       8
#     2   2   2   2   2   2   2   2
#     4  10  19  38  63  96 130 167 212 268 324 391
#     4  10  21  41  65  92 130 166 219 267 326 386
#     4  12  24  41  67 104 129 167 218 275 329 384
#     4  12  26  45  66  97 134 179 221 268 330 394
#     4  10  23  42  66  94 127 180 216 268 330 390
#     4  11  23  38  63  97 130 169 216 265 326 386
#     4  11  24  45  67  98 134 171 222 278 320 392
#     4  10  22  41  70  96 131 173 221 269 337 380
#
# _framework density 20.688458000000001
#
# number of rings (size 3 to 8) (size 9 to 14) (size 15 to 20)
#    0.000    1.250    5.000    0.750    1.750    1.500 
#    4.500    2.500    0.000    0.000    0.000    0.000 
#    0.000    0.000    0.000    0.000    0.000    0.000 
#
# Total GULP energy -198290.480866 kJ/mol
# GULP energy per Si atom -12393.155054 kJ/mol
# Density = 2.064137 g / cm^3
# Si number density = 20.688458 Si / 1000 Ang^3
#
#
#
# Elastic Constant Matrix: (Units=GPa)
#
#
# Indices 1 2 3 4 5 6 
#
# 1 95.4497 37.6730 33.8860 6.2844 10.4285 -4.8863
# 2 37.6730 102.1294 25.9679 13.8256 8.2390 0.5705
# 3 33.8860 25.9679 86.2000 11.7092 4.6396 -4.2683
# 4 6.2844 13.8256 11.7092 31.3654 -0.0369 3.8266
# 5 10.4285 8.2390 4.6396 -0.0369 23.8296 -0.0486
# 6 -4.8863 0.5705 -4.2683 3.8266 -0.0486 38.4803
#
#
#
# Elastic Compliance Matrix: (Units=1/GPa)
#
#
# Indices 1 2 3 4 5 6 
#
# 1 0.013917 -0.003818 -0.004074 0.000247 -0.003974 0.001342
# 2 -0.003818 0.012332 -0.001564 -0.004035 -0.002295 -0.000443
# 3 -0.004074 -0.001564 0.014319 -0.004023 -0.000468 0.001494
# 4 0.000247 -0.004035 -0.004023 0.035590 0.002118 -0.003892
# 5 -0.003974 -0.002295 -0.000468 0.002118 0.044590 -0.000677
# 6 0.001342 -0.000443 0.001494 -0.003892 -0.000677 0.026716
#
#
# Mechanical properties :
#
#
# Convention : Reuss Voigt Hill
#
# Bulk Modulus (GPa) = 46.17814 53.20365 49.69090
# Shear Modulus (GPa) = 28.80278 31.15187 29.97733
#
# Velocity S-wave (km/s) = 3.73529 3.88462 3.81069
# Velocity P-wave (km/s) = 6.40096 6.77442 6.59034
#
# Compressibility (1/GPa) = 0.02165527
#
# Stress axis : x y z
#
# Youngs Moduli (GPa) = 71.85706 81.09294 69.83671
#
# Poissons Ratio (x) = 0.30961 0.28449
# Poissons Ratio (y) = 0.27435 0.10924
# Poissons Ratio (z) = 0.29272 0.12685
#
# Static dielectric constant tensor:
#      x y z
#    x 3.726180 -0.052290 0.077190 
#    y -0.052290 3.772960 0.083380 
#    z 0.077190 0.083380 3.675560 
# 
# 
# High freq. dielectric constant tensor:
#      x y z
#    x 1.814700 0.000190 0.005700 
#    y 0.000190 1.802980 0.006250 
#    z 0.005700 0.006250 1.807050 
# 
# From -- ./inp_files/559122.got.cif
#   From: 2010.06.25/outbox.cif.g09.slc.cpg/sg2_280_cif.got.tgz:559122.got - 2010.06.27 13:26:56.
