data_PCOD8044476
_publ_section_title
;
Structure prediction by ZEFSAII (Michael W. Deem and Ramdas Pophale) SiO2 
 PCOD8044476
Probable space group: P -1
;
_chemical_formula_sum "Si O2"
_cell_formula_units_Z 16
_cell_length_a 20.813923
_cell_length_b 26.377984
_cell_length_c 9.174577
_cell_angle_alpha 150.253014
_cell_angle_beta 38.734605
_cell_angle_gamma 161.419877
_cell_volume 766.435787
_symmetry_space_group_name_H-M "P -1"
_symmetry_group_IT_number 2
_symmetry_cell_setting 'triclinic'
loop_
_space_group_symop_operation_xyz
x,y,z
-x,-y,-z
loop_
_atom_site_type_symbol
_atom_site_label
_atom_site_fract_x
_atom_site_fract_y
_atom_site_fract_z
Si Si1 0.046569 0.225437 0.698742
Si Si2 0.239399 0.323117 0.870879
Si Si3 0.096333 0.866289 0.819907
Si Si4 0.928280 0.837015 0.798307
Si Si5 0.864152 0.466488 0.237458
Si Si6 0.684040 0.760718 0.240726
Si Si7 0.974452 0.379964 0.346331
Si Si8 0.427245 0.028943 0.800527
O O1 0.208465 0.295971 0.682870
O O2 0.123973 0.289146 0.552416
O O3 0.812989 0.973248 0.498510
O O4 0.054288 0.349466 0.043027
O O5 0.265883 0.231564 0.661613
O O6 0.437141 0.566533 0.172412
O O7 0.022720 0.185358 0.963539
O O8 0.113738 0.955320 0.870924
O O9 0.952599 0.648861 0.474502
O O10 0.320843 0.023138 0.872019
O O11 0.733894 0.701881 0.907326
O O12 0.000000 0.000000 0.000000
O O13 0.888983 0.482543 0.407893
O O14 0.619688 0.246630 0.086333
O O15 0.000000 0.500000 0.000000
O O16 0.000000 0.500000 0.500000
O O17 0.732822 0.153841 0.252953
O O18 0.500000 0.000000 0.500000
#
# Coordination Sequence:
#
# PCOD8044476 Si02
#       8
#     2   2   2   2   2   2   2   2
#     4  11  21  38  62  87 127 166 203 260 326 375
#     4  10  19  38  61  91 122 157 209 266 316 379
#     4  10  21  39  64  94 125 166 216 262 323 385
#     4   9  21  41  62  90 129 167 211 263 323 390
#     4  11  22  42  68  91 128 165 219 274 313 394
#     4   9  21  38  62  89 121 162 213 260 319 381
#     4  11  26  42  62  98 135 168 217 272 327 381
#     4  11  22  42  69  94 123 174 224 267 328 386
#
# _framework density 20.875851999999998
#
# number of rings (size 3 to 8) (size 9 to 14) (size 15 to 20)
#    0.000    1.750    5.000    0.375    3.500    1.000 
#    0.000    5.000    0.000    0.000    0.000    0.000 
#    0.000    0.000    0.000    0.000    0.000    0.000 
#
# Total GULP energy -198313.658400 kJ/mol
# GULP energy per Si atom -12394.603650 kJ/mol
# Density = 2.082834 g / cm^3
# Si number density = 20.875852 Si / 1000 Ang^3
#
#
#
# Elastic Constant Matrix: (Units=GPa)
#
#
# Indices 1 2 3 4 5 6 
#
# 1 160.2932 52.3553 49.7852 0.9725 10.0454 2.0540
# 2 52.3553 72.5643 29.4184 10.1430 12.5171 19.3914
# 3 49.7852 29.4184 106.0285 0.1445 13.0113 4.6874
# 4 0.9725 10.1430 0.1445 39.3357 -1.7274 5.8259
# 5 10.0454 12.5171 13.0113 -1.7274 34.1576 6.8500
# 6 2.0540 19.3914 4.6874 5.8259 6.8500 32.9628
#
#
#
# Elastic Compliance Matrix: (Units=1/GPa)
#
#
# Indices 1 2 3 4 5 6 
#
# 1 0.009168 -0.006640 -0.002629 0.000978 0.000082 0.003519
# 2 -0.006640 0.024028 -0.002563 -0.004439 -0.003735 -0.011796
# 3 -0.002629 -0.002563 0.011700 0.000484 -0.002822 0.000509
# 4 0.000978 -0.004439 0.000484 0.027116 0.003120 -0.002959
# 5 0.000082 -0.003735 -0.002822 0.003120 0.032811 -0.004777
# 6 0.003519 -0.011796 0.000509 -0.002959 -0.004777 0.038501
#
#
# Mechanical properties :
#
#
# Convention : Reuss Voigt Hill
#
# Bulk Modulus (GPa) = 47.10070 66.88930 56.99500
# Shear Modulus (GPa) = 28.72492 35.11303 31.91898
#
# Velocity S-wave (km/s) = 3.71346 4.10566 3.91447
# Velocity P-wave (km/s) = 6.40294 7.38825 6.91317
#
# Compressibility (1/GPa) = 0.02123111
#
# Stress axis : x y z
#
# Youngs Moduli (GPa) = 109.07823 41.61894 85.46746
#
# Poissons Ratio (x) = 0.27634 0.22473
# Poissons Ratio (y) = 0.72425 0.21906
# Poissons Ratio (z) = 0.28681 0.10667
#
# Static dielectric constant tensor:
#      x y z
#    x 4.097020 -0.310320 -0.284260 
#    y -0.310320 3.342570 -1.845980 
#    z -0.284260 -1.845980 0.164850 
# 
# 
# High freq. dielectric constant tensor:
#      x y z
#    x 1.822710 0.003980 0.005940 
#    y 0.003980 1.798780 -0.007940 
#    z 0.005940 -0.007940 1.822830 
# 
# From -- ./inp_files/350263.got.cif
#   From: 2010.06.25/outbox.cif.g09.slc.cpg/sg2_176_cif.got.tgz:350263.got - 2010.06.27 13:26:56.
