data_PCOD8044153
_publ_section_title
;
Structure prediction by ZEFSAII (Michael W. Deem and Ramdas Pophale) SiO2 
 PCOD8044153
Probable space group: P -1
;
_chemical_formula_sum "Si O2"
_cell_formula_units_Z 12
_cell_length_a 11.568569
_cell_length_b 8.797247
_cell_length_c 13.700675
_cell_angle_alpha 149.380858
_cell_angle_beta 44.922256
_cell_angle_gamma 143.188448
_cell_volume 424.694894
_symmetry_space_group_name_H-M "P -1"
_symmetry_group_IT_number 2
_symmetry_cell_setting 'triclinic'
loop_
_space_group_symop_operation_xyz
x,y,z
-x,-y,-z
loop_
_atom_site_type_symbol
_atom_site_label
_atom_site_fract_x
_atom_site_fract_y
_atom_site_fract_z
Si Si1 0.217085 0.489889 0.269836
Si Si2 0.241853 0.648054 0.814905
Si Si3 0.491346 0.594778 0.843642
Si Si4 0.699322 0.701270 0.587278
Si Si5 0.854088 0.502609 0.899953
Si Si6 0.046097 0.939355 0.645120
O O1 0.426084 0.589782 0.239665
O O2 0.191212 0.387713 0.115659
O O3 0.204412 0.831992 0.485644
O O4 0.048964 0.146890 0.238180
O O5 0.355669 0.562071 0.617574
O O6 0.083721 0.715878 0.899389
O O7 0.134440 0.346324 0.793219
O O8 0.398672 0.991673 0.968752
O O9 0.517571 0.555734 0.690237
O O10 0.263202 0.410708 0.901574
O O11 0.874922 0.706154 0.541011
O O12 0.772842 0.087591 0.716816
#
# Coordination Sequence:
#
# PCOD8044153 Si02
#       6
#     2   2   2   2   2   2
#     4  10  19  37  64  93 132 170 204 270 331 372
#     4  11  22  44  70  94 122 178 224 255 320 394
#     4  11  26  39  67 101 129 166 218 269 325 383
#     4  10  20  42  65  92 130 168 212 271 312 377
#     4  11  21  42  66  94 134 169 211 275 321 377
#     4   9  18  37  66  91 125 173 214 260 322 381
#
# _framework density 28.255578
#
# number of rings (size 3 to 8) (size 9 to 14) (size 15 to 20)
#    0.000    1.667    3.333    2.000    0.000    7.333 
#    0.000    1.667    0.000    3.000    0.000    0.000 
#    0.000    0.000    0.000    0.000    0.000    0.000 
#
# Total GULP energy -148891.975075 kJ/mol
# GULP energy per Si atom -12407.664590 kJ/mol
# Density = 2.819127 g / cm^3
# Si number density = 28.255578 Si / 1000 Ang^3
#
#
#
# Elastic Constant Matrix: (Units=GPa)
#
#
# Indices 1 2 3 4 5 6 
#
# 1 110.0337 62.1405 46.0775 -24.1309 10.5211 -28.8109
# 2 62.1405 107.3356 27.2085 -37.3911 4.2232 -9.4429
# 3 46.0775 27.2085 114.3321 -43.7122 -7.5240 -8.8911
# 4 -24.1309 -37.3911 -43.7122 51.9342 -8.1466 0.7954
# 5 10.5211 4.2232 -7.5240 -8.1466 52.1938 -10.7770
# 6 -28.8109 -9.4429 -8.8911 0.7954 -10.7770 60.1024
#
#
#
# Elastic Compliance Matrix: (Units=1/GPa)
#
#
# Indices 1 2 3 4 5 6 
#
# 1 0.018204 -0.009934 -0.006633 -0.004900 -0.003423 0.005636
# 2 -0.009934 0.018193 0.004787 0.013007 0.003082 -0.000815
# 3 -0.006633 0.004787 0.016549 0.015204 0.005889 0.000875
# 4 -0.004900 0.013007 0.015204 0.040517 0.009078 0.003035
# 5 -0.003423 0.003082 0.005889 0.009078 0.022620 0.003650
# 6 0.005636 -0.000815 0.000875 0.003035 0.003650 0.019956
#
#
# Mechanical properties :
#
#
# Convention : Reuss Voigt Hill
#
# Bulk Modulus (GPa) = 34.03107 66.95047 50.49077
# Shear Modulus (GPa) = 29.51701 45.93105 37.72403
#
# Velocity S-wave (km/s) = 3.23560 4.03619 3.65787
# Velocity P-wave (km/s) = 5.10186 6.74294 5.97897
#
# Compressibility (1/GPa) = 0.02938491
#
# Stress axis : x y z
#
# Youngs Moduli (GPa) = 54.93225 54.96736 60.42720
#
# Poissons Ratio (x) = 0.54606 0.40080
# Poissons Ratio (y) = 0.54571 -0.28924
# Poissons Ratio (z) = 0.36436 -0.26311
#
# Static dielectric constant tensor:
#      x y z
#    x 5.681060 0.050680 -0.276160 
#    y 0.050680 5.177530 -0.361470 
#    z -0.276160 -0.361470 4.967080 
# 
# 
# High freq. dielectric constant tensor:
#      x y z
#    x 2.181030 -0.003570 -0.004640 
#    y -0.003570 2.133880 -0.014730 
#    z -0.004640 -0.014730 2.149280 
# 
# From -- ./inp_files/400777.got.cif
#   From: 2010.06.25/outbox.cif.g09.slc.cpg/sg2_201_cif.got.tgz:400777.got - 2010.06.27 13:26:56.
