data_PCOD8044845
_publ_section_title
;
Structure prediction by ZEFSAII (Michael W. Deem and Ramdas Pophale) SiO2 
 PCOD8044845
Probable space group: P 2
;
_chemical_formula_sum "Si O2"
_cell_formula_units_Z 16
_cell_length_a 9.124057
_cell_length_b 8.845107
_cell_length_c 20.672243
_cell_angle_alpha 90.000000
_cell_angle_beta 28.304791
_cell_angle_gamma 90.000000
_cell_volume 791.052439
_symmetry_space_group_name_H-M "P 2"
_symmetry_group_IT_number 3
_symmetry_cell_setting 'monoclinic'
loop_
_space_group_symop_operation_xyz
x,y,z
-x,y,-z
loop_
_atom_site_type_symbol
_atom_site_label
_atom_site_fract_x
_atom_site_fract_y
_atom_site_fract_z
Si Si1 0.804542 0.598880 0.513067
Si Si2 0.694271 0.740813 0.145978
Si Si3 0.677212 0.923476 0.603669
Si Si4 0.288878 0.080947 0.646423
Si Si5 0.194171 0.336975 0.146296
Si Si6 0.855443 0.575741 0.199908
Si Si7 0.152390 0.819092 0.158109
Si Si8 0.763294 0.578022 0.768813
O O1 0.767962 0.780373 0.524152
O O2 0.466437 0.524316 0.642148
O O3 0.000000 0.550302 0.500000
O O4 0.973957 0.538780 0.384513
O O5 0.496936 0.861886 0.263954
O O6 0.790495 0.589630 0.148751
O O7 0.518790 0.667744 0.153404
O O8 0.000000 0.824649 0.000000
O O9 0.000000 0.003121 0.500000
O O10 0.485739 0.043151 0.634738
O O11 0.500000 0.081989 0.500000
O O12 0.112599 0.239219 0.723774
O O13 0.005979 0.964823 0.749224
O O14 0.303276 0.418162 0.170339
O O15 0.119674 0.460283 0.118738
O O16 0.500000 0.249215 0.000000
O O17 0.951227 0.752070 0.177099
O O18 0.109242 0.687368 0.226297
O O19 0.500000 0.855056 0.000000
#
# Coordination Sequence:
#
# PCOD8044845 Si02
#       8
#     2   2   2   2   2   2   2   2
#     4  10  17  34  60  99 122 150 197 267 315 357
#     4  11  19  34  65 101 124 155 202 261 321 372
#     4  10  20  41  61  94 129 157 204 271 314 355
#     4  12  26  43  62  88 125 177 212 251 308 381
#     4  11  26  45  60  90 130 168 208 256 310 375
#     4  10  20  38  65  92 128 158 207 259 322 360
#     4  11  22  37  61  94 124 161 206 264 316 365
#     4  11  21  35  68  94 126 156 210 261 312 373
#
# _framework density 20.226219
#
# number of rings (size 3 to 8) (size 9 to 14) (size 15 to 20)
#    0.000    1.250    6.250    4.125    1.750    1.000 
#    0.000    1.875    0.000    0.750    0.000    0.000 
#    0.000    0.000    0.000    0.000    0.000    0.000 
#
# Total GULP energy -198240.542017 kJ/mol
# GULP energy per Si atom -12390.033876 kJ/mol
# Density = 2.018018 g / cm^3
# Si number density = 20.226219 Si / 1000 Ang^3
#
#
#
# Elastic Constant Matrix: (Units=GPa)
#
#
# Indices 1 2 3 4 5 6 
#
# 1 84.5533 30.4172 44.0888 0.0000 -7.6717 0.0000
# 2 30.4172 62.1424 30.4183 0.0000 3.4293 0.0000
# 3 44.0888 30.4183 171.5573 0.0000 -7.5822 0.0000
# 4 0.0000 0.0000 0.0000 14.2056 0.0000 -4.8723
# 5 -7.6717 3.4293 -7.5822 0.0000 29.2923 0.0000
# 6 0.0000 0.0000 0.0000 -4.8723 0.0000 21.5082
#
#
#
# Elastic Compliance Matrix: (Units=1/GPa)
#
#
# Indices 1 2 3 4 5 6 
#
# 1 0.016081 -0.006765 -0.002743 0.000000 0.004293 0.000000
# 2 -0.006765 0.020715 -0.002144 0.000000 -0.004752 0.000000
# 3 -0.002743 -0.002144 0.006973 0.000000 0.001338 0.000000
# 4 0.000000 0.000000 0.000000 0.076325 0.000000 0.017290
# 5 0.004293 -0.004752 0.001338 0.000000 0.036166 0.000000
# 6 0.000000 0.000000 0.000000 0.017290 0.000000 0.050411
#
#
# Mechanical properties :
#
#
# Convention : Reuss Voigt Hill
#
# Bulk Modulus (GPa) = 48.86752 58.67794 53.77273
# Shear Modulus (GPa) = 21.11508 27.22312 24.16910
#
# Velocity S-wave (km/s) = 3.23452 3.67268 3.46054
# Velocity P-wave (km/s) = 6.17757 6.85992 6.52767
#
# Compressibility (1/GPa) = 0.02046349
#
# Stress axis : x y z
#
# Youngs Moduli (GPa) = 62.18693 48.27336 143.40411
#
# Poissons Ratio (x) = 0.32658 0.39340
# Poissons Ratio (y) = 0.42070 0.30752
# Poissons Ratio (z) = 0.17060 0.10352
#
# Static dielectric constant tensor:
#      x y z
#    x 4.440780 0.000000 -0.384160 
#    y 0.000000 3.231430 0.000000 
#    z -0.384160 0.000000 3.979820 
# 
# 
# High freq. dielectric constant tensor:
#      x y z
#    x 1.801240 0.000000 -0.010270 
#    y 0.000000 1.735680 0.000000 
#    z -0.010270 0.000000 1.814760 
# 
# From -- ./inp_files/15825.got.cif
#   From: 2010.03.12/outbox.cif.g09.slc.cpg/sg3_8_cif.got.tgz:15825.got - 2010.03.31 09:20:49.
