data_PCOD8044757
_publ_section_title
;
Structure prediction by ZEFSAII (Michael W. Deem and Ramdas Pophale) SiO2 
 PCOD8044757
Probable space group: P -1
;
_chemical_formula_sum "Si O2"
_cell_formula_units_Z 16
_cell_length_a 11.274373
_cell_length_b 16.217939
_cell_length_c 9.348411
_cell_angle_alpha 80.252772
_cell_angle_beta 112.520341
_cell_angle_gamma 43.572798
_cell_volume 775.403825
_symmetry_space_group_name_H-M "P -1"
_symmetry_group_IT_number 2
_symmetry_cell_setting 'triclinic'
loop_
_space_group_symop_operation_xyz
x,y,z
-x,-y,-z
loop_
_atom_site_type_symbol
_atom_site_label
_atom_site_fract_x
_atom_site_fract_y
_atom_site_fract_z
Si Si1 0.672927 0.051230 0.461644
Si Si2 0.061395 0.718152 0.583179
Si Si3 0.892662 0.634681 0.816249
Si Si4 0.373110 0.625493 0.528170
Si Si5 0.096171 0.946475 0.225565
Si Si6 0.071110 0.519421 0.650976
Si Si7 0.379486 0.796850 0.869053
Si Si8 0.361352 0.498795 0.034179
O O1 0.386981 0.176599 0.318997
O O2 0.793748 0.026522 0.669460
O O3 0.667760 0.122194 0.315667
O O4 0.820679 0.888129 0.512811
O O5 0.113223 0.735554 0.450769
O O6 0.038711 0.634030 0.555122
O O7 0.302462 0.594747 0.843576
O O8 0.864194 0.613310 0.650282
O O9 0.000000 0.500000 0.000000
O O10 0.097919 0.593518 0.903732
O O11 0.500000 0.500000 0.500000
O O12 0.315505 0.751213 0.406282
O O13 0.591744 0.492163 0.789970
O O14 0.850251 0.060222 0.170201
O O15 0.000000 0.000000 0.000000
O O16 0.000000 0.500000 0.500000
O O17 0.357006 0.332948 0.888787
O O18 0.392055 0.696235 0.840460
#
# Coordination Sequence:
#
# PCOD8044757 Si02
#       8
#     2   2   2   2   2   2   2   2
#     4  12  21  42  69  90 130 167 220 265 306 394
#     4  10  24  41  65  94 123 171 218 255 326 370
#     4  10  19  38  66  93 115 170 222 249 314 379
#     4  12  25  41  62  93 135 163 212 270 326 376
#     4  12  27  39  63 100 130 170 211 270 329 365
#     4  10  24  42  67  92 131 167 208 266 324 384
#     4  10  20  43  65  88 124 173 216 250 318 386
#     4  10  22  41  64  92 123 173 214 257 313 389
#
# _framework density 20.634408000000001
#
# number of rings (size 3 to 8) (size 9 to 14) (size 15 to 20)
#    0.000    1.500    5.000    1.500    7.000    3.000 
#    0.000    1.875    0.000    0.000    0.000    0.000 
#    0.000    0.000    0.000    0.000    0.000    0.000 
#
# Total GULP energy -198209.244480 kJ/mol
# GULP energy per Si atom -12388.077780 kJ/mol
# Density = 2.058744 g / cm^3
# Si number density = 20.634408 Si / 1000 Ang^3
#
#
#
# Elastic Constant Matrix: (Units=GPa)
#
#
# Indices 1 2 3 4 5 6 
#
# 1 48.2737 29.1866 23.1198 11.5885 -9.6835 -1.7947
# 2 29.1866 150.7895 51.6913 9.9580 8.5270 -4.4078
# 3 23.1198 51.6913 89.5303 15.8505 -6.6286 8.0073
# 4 11.5885 9.9580 15.8505 45.3677 -1.0077 2.7578
# 5 -9.6835 8.5270 -6.6286 -1.0077 29.8781 -1.0326
# 6 -1.7947 -4.4078 8.0073 2.7578 -1.0326 39.2566
#
#
#
# Elastic Compliance Matrix: (Units=1/GPa)
#
#
# Indices 1 2 3 4 5 6 
#
# 1 0.028197 -0.004485 -0.003283 -0.004983 0.009593 0.002058
# 2 -0.004485 0.009509 -0.004970 0.000576 -0.005192 0.001699
# 3 -0.003283 -0.004970 0.016086 -0.003387 0.003683 -0.003654
# 4 -0.004983 0.000576 -0.003387 0.024408 -0.001750 -0.001233
# 5 0.009593 -0.005192 0.003683 -0.001750 0.038827 0.000249
# 6 0.002058 0.001699 -0.003654 -0.001233 0.000249 0.026597
#
#
# Mechanical properties :
#
#
# Convention : Reuss Voigt Hill
#
# Bulk Modulus (GPa) = 35.31863 55.17652 45.24758
# Shear Modulus (GPa) = 28.00513 35.20687 31.60600
#
# Velocity S-wave (km/s) = 3.68802 4.13512 3.91796
# Velocity P-wave (km/s) = 5.94045 7.04252 6.51483
#
# Compressibility (1/GPa) = 0.02831367
#
# Stress axis : x y z
#
# Youngs Moduli (GPa) = 35.46524 105.16347 62.16615
#
# Poissons Ratio (x) = 0.47171 0.20410
# Poissons Ratio (y) = 0.15908 0.30898
# Poissons Ratio (z) = 0.11644 0.52269
#
# Static dielectric constant tensor:
#      x y z
#    x 4.213990 -0.489170 0.901150 
#    y -0.489170 4.524270 -1.195770 
#    z 0.901150 -1.195770 7.447130 
# 
# 
# High freq. dielectric constant tensor:
#      x y z
#    x 1.810380 -0.010350 -0.009770 
#    y -0.010350 1.816300 -0.003040 
#    z -0.009770 -0.003040 1.808980 
# 
# From -- ./inp_files/277847.got.cif
#   From: 2010.06.25/outbox.cif.g09.slc.cpg/sg2_139_cif.got.tgz:277847.got - 2010.06.27 13:26:56.
