data_PCOD8044065
_publ_section_title
;
Structure prediction by ZEFSAII (Michael W. Deem and Ramdas Pophale) SiO2 
 PCOD8044065
Probable space group: P -1
;
_chemical_formula_sum "Si O2"
_cell_formula_units_Z 16
_cell_length_a 12.210134
_cell_length_b 11.297576
_cell_length_c 15.002007
_cell_angle_alpha 133.206947
_cell_angle_beta 150.910125
_cell_angle_gamma 57.693023
_cell_volume 721.361480
_symmetry_space_group_name_H-M "P -1"
_symmetry_group_IT_number 2
_symmetry_cell_setting 'triclinic'
loop_
_space_group_symop_operation_xyz
x,y,z
-x,-y,-z
loop_
_atom_site_type_symbol
_atom_site_label
_atom_site_fract_x
_atom_site_fract_y
_atom_site_fract_z
Si Si1 0.521691 0.693239 0.623323
Si Si2 0.763757 0.918938 0.055774
Si Si3 0.821089 0.743723 0.700193
Si Si4 0.755741 0.970117 0.606172
Si Si5 0.144061 0.638017 0.457402
Si Si6 0.289716 0.802927 0.155981
Si Si7 0.366536 0.458301 0.974279
Si Si8 0.444941 0.789651 0.906990
O O1 0.500000 0.500000 0.500000
O O2 0.712411 0.771464 0.871489
O O3 0.614651 0.773635 0.635998
O O4 0.271323 0.712640 0.494138
O O5 0.690411 0.851221 0.066823
O O6 0.624436 0.065621 0.006635
O O7 0.030835 0.994755 0.289482
O O8 0.776958 0.822182 0.614762
O O9 0.825269 0.549719 0.597281
O O10 0.073547 0.835584 0.960939
O O11 0.532759 0.913865 0.355638
O O12 0.741622 0.140259 0.735396
O O13 0.251810 0.747928 0.672791
O O14 0.879582 0.656599 0.275576
O O15 0.316862 0.613406 0.075388
O O16 0.500000 0.500000 0.000000
O O17 0.539124 0.368168 0.104664
#
# Coordination Sequence:
#
# PCOD8044065 Si02
#       8
#     2   2   2   2   2   2   2   2
#     4   9  18  37  62  88 119 152 200 248 300 358
#     4  10  22  40  65  88 123 166 200 251 304 361
#     4  10  19  37  63  88 124 159 199 255 298 358
#     4  11  22  38  62  91 123 161 201 250 308 353
#     4   9  21  40  61  91 118 165 205 244 308 359
#     4  10  23  39  56  94 124 153 207 247 302 365
#     4  11  25  41  63  92 123 160 207 253 299 365
#     4  10  23  44  61  89 125 160 207 249 302 363
#
# _framework density 22.180281999999998
#
# number of rings (size 3 to 8) (size 9 to 14) (size 15 to 20)
#    0.000    2.000    1.250    1.125    5.250    0.500 
#    4.500    6.250    0.000    0.000    0.000    0.000 
#    0.000    0.000    0.000    0.000    0.000    0.000 
#
# Total GULP energy -198260.399700 kJ/mol
# GULP energy per Si atom -12391.274981 kJ/mol
# Density = 2.212980 g / cm^3
# Si number density = 22.180282 Si / 1000 Ang^3
#
#
#
# Elastic Constant Matrix: (Units=GPa)
#
#
# Indices 1 2 3 4 5 6 
#
# 1 90.8524 14.8978 52.7471 3.1749 28.8650 -2.9985
# 2 14.8978 78.7745 18.3553 10.2632 -11.7222 -8.4076
# 3 52.7471 18.3553 120.8859 7.7406 28.1926 1.5929
# 4 3.1749 10.2632 7.7406 19.7865 -3.6287 -0.7191
# 5 28.8650 -11.7222 28.1926 -3.6287 39.9589 3.5461
# 6 -2.9985 -8.4076 1.5929 -0.7191 3.5461 15.1250
#
#
#
# Elastic Compliance Matrix: (Units=1/GPa)
#
#
# Indices 1 2 3 4 5 6 
#
# 1 0.018071 -0.003306 -0.004756 -0.001204 -0.011205 0.004816
# 2 -0.003306 0.016553 -0.002706 -0.005272 0.008081 0.006686
# 3 -0.004756 -0.002706 0.012524 -0.003985 -0.006337 -0.002470
# 4 -0.001204 -0.005272 -0.003985 0.056319 0.007409 -0.001809
# 5 -0.011205 0.008081 -0.006337 0.007409 0.041199 -0.006369
# 6 0.004816 0.006686 -0.002470 -0.001809 -0.006369 0.072454
#
#
# Mechanical properties :
#
#
# Convention : Reuss Voigt Hill
#
# Bulk Modulus (GPa) = 39.04460 51.39034 45.21747
# Shear Modulus (GPa) = 20.22689 28.60826 24.41758
#
# Velocity S-wave (km/s) = 3.02310 3.59528 3.32153
# Velocity P-wave (km/s) = 5.46141 6.36038 5.92796
#
# Compressibility (1/GPa) = 0.02561174
#
# Stress axis : x y z
#
# Youngs Moduli (GPa) = 55.33606 60.41121 79.84569
#
# Poissons Ratio (x) = 0.19971 0.37978
# Poissons Ratio (y) = 0.18293 0.21608
# Poissons Ratio (z) = 0.26320 0.16348
#
# Static dielectric constant tensor:
#      x y z
#    x 4.131170 -0.217890 0.351940 
#    y -0.217890 3.814480 0.229330 
#    z 0.351940 0.229330 4.288410 
# 
# 
# High freq. dielectric constant tensor:
#      x y z
#    x 1.870830 -0.019150 0.018630 
#    y -0.019150 1.854550 0.022390 
#    z 0.018630 0.022390 1.881280 
# 
# From -- ./inp_files/519180.got.cif
#   From: 2010.06.25/outbox.cif.g09.slc.cpg/sg2_260_cif.got.tgz:519180.got - 2010.06.27 13:26:56.
