data_PCOD8044511
_publ_section_title
;
Structure prediction by ZEFSAII (Michael W. Deem and Ramdas Pophale) SiO2 
 PCOD8044511
Probable space group: P -1
;
_chemical_formula_sum "Si O2"
_cell_formula_units_Z 16
_cell_length_a 8.879693
_cell_length_b 8.701646
_cell_length_c 14.659014
_cell_angle_alpha 83.117413
_cell_angle_beta 114.632401
_cell_angle_gamma 131.187058
_cell_volume 754.783979
_symmetry_space_group_name_H-M "P -1"
_symmetry_group_IT_number 2
_symmetry_cell_setting 'triclinic'
loop_
_space_group_symop_operation_xyz
x,y,z
-x,-y,-z
loop_
_atom_site_type_symbol
_atom_site_label
_atom_site_fract_x
_atom_site_fract_y
_atom_site_fract_z
Si Si1 0.268415 0.448424 0.667562
Si Si2 0.288578 0.385568 0.183817
Si Si3 0.962097 0.700133 0.703699
Si Si4 0.164842 0.003723 0.102844
Si Si5 0.879156 0.547111 0.030561
Si Si6 0.341114 0.722318 0.830669
Si Si7 0.099300 0.016931 0.426722
Si Si8 0.412898 0.614428 0.495410
O O1 0.458548 0.435335 0.727920
O O2 0.271150 0.553822 0.750047
O O3 0.325017 0.576803 0.579541
O O4 0.025300 0.216174 0.620214
O O5 0.121667 0.372235 0.208434
O O6 0.231023 0.162719 0.190164
O O7 0.275757 0.443498 0.074231
O O8 0.950368 0.871486 0.660707
O O9 0.803073 0.489267 0.615818
O O10 0.218333 0.802650 0.761197
O O11 0.393187 0.090873 0.105613
O O12 0.045329 0.766218 0.113925
O O13 0.000000 0.000000 0.000000
O O14 0.730286 0.368291 0.079534
O O15 0.000000 0.500000 0.000000
O O16 0.366128 0.140860 0.485640
O O17 0.000000 0.000000 0.500000
O O18 0.500000 0.500000 0.500000
#
# Coordination Sequence:
#
# PCOD8044511 Si02
#       8
#     2   2   2   2   2   2   2   2
#     4  11  22  39  64  93 121 165 215 253 308 375
#     4  10  20  41  64  87 125 168 204 262 308 361
#     4  11  21  40  63  91 130 163 203 262 314 361
#     4   9  23  43  63  89 124 162 211 259 312 363
#     4  11  23  43  64  91 129 162 211 262 314 371
#     4  11  26  42  62  96 129 166 207 260 322 368
#     4  11  20  38  67  92 116 168 218 245 303 380
#     4  10  19  38  62  88 131 157 204 263 301 368
#
# _framework density 21.198118999999998
#
# number of rings (size 3 to 8) (size 9 to 14) (size 15 to 20)
#    0.000    1.500    6.250    0.000    1.750    6.500 
#    4.500    0.625    0.000    0.000    0.000    0.000 
#    0.000    0.000    0.000    0.000    0.000    0.000 
#
# Total GULP energy -198258.516659 kJ/mol
# GULP energy per Si atom -12391.157291 kJ/mol
# Density = 2.114987 g / cm^3
# Si number density = 21.198119 Si / 1000 Ang^3
#
#
#
# Elastic Constant Matrix: (Units=GPa)
#
#
# Indices 1 2 3 4 5 6 
#
# 1 83.2031 4.7084 26.7459 -2.2533 14.0152 17.9826
# 2 4.7084 70.0575 21.0380 8.4123 8.0581 21.3599
# 3 26.7459 21.0380 92.0024 -6.5629 -2.6209 16.9703
# 4 -2.2533 8.4123 -6.5629 31.5641 7.2006 0.1130
# 5 14.0152 8.0581 -2.6209 7.2006 38.6502 4.2841
# 6 17.9826 21.3599 16.9703 0.1130 4.2841 32.4406
#
#
#
# Elastic Compliance Matrix: (Units=1/GPa)
#
#
# Indices 1 2 3 4 5 6 
#
# 1 0.015873 0.003150 -0.003965 0.000856 -0.005952 -0.008016
# 2 0.003150 0.019952 -0.003616 -0.005067 -0.003212 -0.012550
# 3 -0.003965 -0.003616 0.013685 0.002872 0.002914 -0.002975
# 4 0.000856 -0.005067 0.002872 0.035007 -0.005803 0.002004
# 5 -0.005952 -0.003212 0.002914 -0.005803 0.029985 -0.000050
# 6 -0.008016 -0.012550 -0.002975 0.002004 -0.000050 0.045088
#
#
# Mechanical properties :
#
#
# Convention : Reuss Voigt Hill
#
# Bulk Modulus (GPa) = 24.60119 38.91639 31.75879
# Shear Modulus (GPa) = 27.47198 33.38236 30.42717
#
# Velocity S-wave (km/s) = 3.60385 3.97265 3.79274
# Velocity P-wave (km/s) = 5.38030 6.28020 5.84758
#
# Compressibility (1/GPa) = 0.04064844
#
# Stress axis : x y z
#
# Youngs Moduli (GPa) = 62.99906 50.11918 73.07034
#
# Poissons Ratio (x) = -0.15785 0.28970
# Poissons Ratio (y) = -0.19842 0.26424
# Poissons Ratio (z) = 0.24977 0.18124
#
# Static dielectric constant tensor:
#      x y z
#    x 3.946500 0.376300 0.146060 
#    y 0.376300 4.330670 0.445860 
#    z 0.146060 0.445860 4.129740 
# 
# 
# High freq. dielectric constant tensor:
#      x y z
#    x 1.827430 0.015410 -0.001960 
#    y 0.015410 1.810630 0.013960 
#    z -0.001960 0.013960 1.839990 
# 
# From -- ./inp_files/296809.got.cif
#   From: 2010.06.25/outbox.cif.g09.slc.cpg/sg2_149_cif.got.tgz:296809.got - 2010.06.27 13:26:56.
