data_PCOD8044949
_publ_section_title
;
Structure prediction by ZEFSAII (Michael W. Deem and Ramdas Pophale) SiO2 
 PCOD8044949
Probable space group: P 2
;
_chemical_formula_sum "Si O2"
_cell_formula_units_Z 16
_cell_length_a 14.319789
_cell_length_b 6.759116
_cell_length_c 11.130954
_cell_angle_alpha 90.000000
_cell_angle_beta 127.596558
_cell_angle_gamma 90.000000
_cell_volume 853.616844
_symmetry_space_group_name_H-M "P 2"
_symmetry_group_IT_number 3
_symmetry_cell_setting 'monoclinic'
loop_
_space_group_symop_operation_xyz
x,y,z
-x,y,-z
loop_
_atom_site_type_symbol
_atom_site_label
_atom_site_fract_x
_atom_site_fract_y
_atom_site_fract_z
Si Si1 0.342945 0.845980 0.157344
Si Si2 0.091464 0.704981 0.367516
Si Si3 0.230122 0.460113 0.658622
Si Si4 0.593236 0.244424 0.671961
Si Si5 0.447211 0.579765 0.674787
Si Si6 0.130771 0.041473 0.569218
Si Si7 0.721999 0.590960 0.670377
Si Si8 0.175775 0.737616 0.811854
O O1 0.471253 0.762877 0.221320
O O2 0.284539 0.726567 0.219291
O O3 0.352193 0.072311 0.204987
O O4 0.259163 0.825947 0.978072
O O5 0.122312 0.554194 0.498991
O O6 0.152383 0.630387 0.293019
O O7 0.952805 0.701205 0.233415
O O8 0.131364 0.926093 0.441216
O O9 0.356152 0.528899 0.707872
O O10 0.220127 0.224541 0.636404
O O11 0.222078 0.529723 0.791451
O O12 0.500000 0.163084 0.500000
O O13 0.528402 0.391502 0.712427
O O14 0.701171 0.360932 0.690680
O O15 0.380964 0.651199 0.502707
O O16 0.000000 0.116166 0.500000
O O17 0.176829 0.893145 0.705488
#
# Coordination Sequence:
#
# PCOD8044949 Si02
#       8
#     2   2   2   2   2   2   2   2
#     4  11  21  35  53  76 113 148 172 214 269 322
#     4   9  19  36  57  83 106 133 180 229 270 317
#     4  10  19  36  59  79 105 140 182 229 271 313
#     4   9  18  34  55  80 106 137 179 224 269 317
#     4   9  20  35  55  82 102 132 184 227 264 316
#     4   9  18  34  56  81 107 140 182 225 268 318
#     4   9  19  35  57  80 103 134 181 226 266 315
#     4  10  22  35  52  80 113 145 177 214 268 330
#
# _framework density 18.743770999999999
#
# number of rings (size 3 to 8) (size 9 to 14) (size 15 to 20)
#    0.000    2.500    0.000    3.750    0.000    9.000 
#    0.000    0.000    0.000    3.000    0.000    0.000 
#    0.000    0.000    0.000    0.000    0.000    0.000 
#
# Total GULP energy -198375.832305 kJ/mol
# GULP energy per Si atom -12398.489519 kJ/mol
# Density = 1.870111 g / cm^3
# Si number density = 18.743771 Si / 1000 Ang^3
#
#
#
# Elastic Constant Matrix: (Units=GPa)
#
#
# Indices 1 2 3 4 5 6 
#
# 1 109.3458 46.9770 43.3204 0.0000 3.5731 0.0000
# 2 46.9770 92.6969 26.4709 0.0000 2.2166 0.0000
# 3 43.3204 26.4709 80.6279 0.0000 3.6990 0.0000
# 4 0.0000 0.0000 0.0000 13.2029 0.0000 -3.9654
# 5 3.5731 2.2166 3.6990 0.0000 19.5325 0.0000
# 6 0.0000 0.0000 0.0000 -3.9654 0.0000 23.3843
#
#
#
# Elastic Compliance Matrix: (Units=1/GPa)
#
#
# Indices 1 2 3 4 5 6 
#
# 1 0.013656 -0.005315 -0.005554 0.000000 -0.000843 0.000000
# 2 -0.005315 0.013980 -0.001721 0.000000 -0.000288 0.000000
# 3 -0.005554 -0.001721 0.016035 0.000000 -0.001825 0.000000
# 4 0.000000 0.000000 0.000000 0.079805 0.000000 0.013533
# 5 -0.000843 -0.000288 -0.001825 0.000000 0.051729 0.000000
# 6 0.000000 0.000000 0.000000 0.013533 0.000000 0.045059
#
#
# Mechanical properties :
#
#
# Convention : Reuss Voigt Hill
#
# Bulk Modulus (GPa) = 54.07595 57.35635 55.71615
# Shear Modulus (GPa) = 19.87218 22.28409 21.07813
#
# Velocity S-wave (km/s) = 3.25961 3.45175 3.35706
# Velocity P-wave (km/s) = 6.56349 6.82296 6.69448
#
# Compressibility (1/GPa) = 0.01849251
#
# Stress axis : x y z
#
# Youngs Moduli (GPa) = 73.22534 71.53320 62.36188
#
# Poissons Ratio (x) = 0.38017 0.34635
# Poissons Ratio (y) = 0.38917 0.10732
# Poissons Ratio (z) = 0.40669 0.12310
#
# Static dielectric constant tensor:
#      x y z
#    x 3.533370 0.000000 -0.003010 
#    y 0.000000 3.437650 0.000000 
#    z -0.003010 0.000000 3.211540 
# 
# 
# High freq. dielectric constant tensor:
#      x y z
#    x 1.731050 0.000000 0.000290 
#    y 0.000000 1.725930 0.000000 
#    z 0.000290 0.000000 1.703890 
# 
# From -- ./inp_files/11299.got.cif
#   From: 2010.03.12/outbox.cif.g09.slc.cpg/sg3_6_cif.got.tgz:11299.got - 2010.03.31 09:20:49.
