data_PCOD8044671
_publ_section_title
;
Structure prediction by ZEFSAII (Michael W. Deem and Ramdas Pophale) SiO2 
 PCOD8044671
Probable space group: P -1
;
_chemical_formula_sum "Si O2"
_cell_formula_units_Z 16
_cell_length_a 14.950189
_cell_length_b 8.443536
_cell_length_c 15.133464
_cell_angle_alpha 76.559392
_cell_angle_beta 36.935909
_cell_angle_gamma 49.835008
_cell_volume 690.713439
_symmetry_space_group_name_H-M "P -1"
_symmetry_group_IT_number 2
_symmetry_cell_setting 'triclinic'
loop_
_space_group_symop_operation_xyz
x,y,z
-x,-y,-z
loop_
_atom_site_type_symbol
_atom_site_label
_atom_site_fract_x
_atom_site_fract_y
_atom_site_fract_z
Si Si1 0.962977 0.445866 0.801331
Si Si2 0.619972 0.042758 0.573153
Si Si3 0.085958 0.127116 0.223850
Si Si4 0.714878 0.740364 0.693322
Si Si5 0.578524 0.129595 0.856402
Si Si6 0.359580 0.817576 0.882012
Si Si7 0.342329 0.702007 0.375204
Si Si8 0.807957 0.765273 0.170902
O O1 0.976307 0.629757 0.772120
O O2 0.076877 0.276478 0.823015
O O3 0.701526 0.595739 0.972553
O O4 0.114289 0.238785 0.629178
O O5 0.590505 0.259050 0.592142
O O6 0.421457 0.158071 0.642921
O O7 0.574892 0.983952 0.706904
O O8 0.871041 0.234909 0.436176
O O9 0.332547 0.893918 0.114476
O O10 0.139718 0.994082 0.103956
O O11 0.599058 0.667081 0.768327
O O12 0.000000 0.500000 0.500000
O O13 0.637377 0.883304 0.831070
O O14 0.733461 0.101856 0.665482
O O15 0.428771 0.590755 0.808266
O O16 0.279168 0.002131 0.842486
O O17 0.000000 0.500000 0.000000
#
# Coordination Sequence:
#
# PCOD8044671 Si02
#       8
#     2   2   2   2   2   2   2   2
#     4  12  23  44  75 100 130 176 240 286 328 404
#     4  10  24  40  67  99 132 182 224 272 341 407
#     4  12  24  43  71 104 134 178 235 274 339 407
#     4  10  19  38  64  95 133 173 224 283 334 386
#     4  11  24  43  67 102 139 180 222 284 341 401
#     4  11  24  42  69 100 136 181 222 280 341 405
#     4  11  26  46  62 102 151 178 216 273 355 408
#     4  11  21  47  71  99 134 171 231 293 339 386
#
# _framework density 23.164455
#
# number of rings (size 3 to 8) (size 9 to 14) (size 15 to 20)
#    0.000    1.000    2.500    5.625    3.500    1.500 
#    0.000    5.000    0.000    0.000    0.000    0.000 
#    0.000    0.000    0.000    0.000    0.000    0.000 
#
# Total GULP energy -198311.364263 kJ/mol
# GULP energy per Si atom -12394.460266 kJ/mol
# Density = 2.311173 g / cm^3
# Si number density = 23.164455 Si / 1000 Ang^3
#
#
#
# Elastic Constant Matrix: (Units=GPa)
#
#
# Indices 1 2 3 4 5 6 
#
# 1 94.8643 42.8237 33.1518 11.2935 15.4586 -5.7981
# 2 42.8237 73.1379 25.3943 9.0773 2.0074 8.7511
# 3 33.1518 25.3943 115.5113 14.4117 11.2745 12.5049
# 4 11.2935 9.0773 14.4117 38.4549 8.6297 6.0012
# 5 15.4586 2.0074 11.2745 8.6297 38.2147 16.0065
# 6 -5.7981 8.7511 12.5049 6.0012 16.0065 36.0882
#
#
#
# Elastic Compliance Matrix: (Units=1/GPa)
#
#
# Indices 1 2 3 4 5 6 
#
# 1 0.019433 -0.011264 -0.003169 -0.001253 -0.011116 0.012090
# 2 -0.011264 0.021841 -0.001069 -0.001740 0.008373 -0.010160
# 3 -0.003169 -0.001069 0.010445 -0.002228 0.000276 -0.003621
# 4 -0.001253 -0.001740 -0.002228 0.028914 -0.004514 -0.001813
# 5 -0.011116 0.008373 0.000276 -0.004514 0.039899 -0.020858
# 6 0.012090 -0.010160 -0.003621 -0.001813 -0.020858 0.042924
#
#
# Mechanical properties :
#
#
# Convention : Reuss Voigt Hill
#
# Bulk Modulus (GPa) = 48.27350 54.02814 51.15082
# Shear Modulus (GPa) = 24.83052 34.69447 29.76249
#
# Velocity S-wave (km/s) = 3.27758 3.87427 3.58835
# Velocity P-wave (km/s) = 5.93364 6.58693 6.26880
#
# Compressibility (1/GPa) = 0.02071530
#
# Stress axis : x y z
#
# Youngs Moduli (GPa) = 51.45866 45.78476 95.74334
#
# Poissons Ratio (x) = 0.51573 0.30336
# Poissons Ratio (y) = 0.57965 0.10235
# Poissons Ratio (z) = 0.16305 0.04895
#
# Static dielectric constant tensor:
#      x y z
#    x 4.748400 -0.329840 0.171800 
#    y -0.329840 4.702870 -0.300100 
#    z 0.171800 -0.300100 4.280000 
# 
# 
# High freq. dielectric constant tensor:
#      x y z
#    x 1.916150 -0.000590 0.011660 
#    y -0.000590 1.897950 0.001280 
#    z 0.011660 0.001280 1.925170 
# 
# From -- ./inp_files/315511.got.cif
#   From: 2010.06.25/outbox.cif.g09.slc.cpg/sg2_158_cif.got.tgz:315511.got - 2010.06.27 13:26:56.
