data_PCOD8044563
_publ_section_title
;
Structure prediction by ZEFSAII (Michael W. Deem and Ramdas Pophale) SiO2 
 PCOD8044563
Probable space group: P -1
;
_chemical_formula_sum "Si O2"
_cell_formula_units_Z 14
_cell_length_a 18.657095
_cell_length_b 8.313847
_cell_length_c 9.464675
_cell_angle_alpha 85.120693
_cell_angle_beta 151.555978
_cell_angle_gamma 94.105532
_cell_volume 696.699855
_symmetry_space_group_name_H-M "P -1"
_symmetry_group_IT_number 2
_symmetry_cell_setting 'triclinic'
loop_
_space_group_symop_operation_xyz
x,y,z
-x,-y,-z
loop_
_atom_site_type_symbol
_atom_site_label
_atom_site_fract_x
_atom_site_fract_y
_atom_site_fract_z
Si Si1 0.977906 0.505356 0.232392
Si Si2 0.708932 0.669163 0.603217
Si Si3 0.403309 0.160534 0.331794
Si Si4 0.832379 0.978611 0.262108
Si Si5 0.548028 0.573465 0.809798
Si Si6 0.187993 0.660982 0.802258
Si Si7 0.235129 0.271872 0.611837
O O1 0.877510 0.377486 0.153966
O O2 0.055710 0.632737 0.462378
O O3 0.105377 0.408449 0.375440
O O4 0.873297 0.607637 0.938778
O O5 0.633640 0.791143 0.575608
O O6 0.604516 0.514450 0.404645
O O7 0.723968 0.767763 0.476058
O O8 0.492406 0.303695 0.396988
O O9 0.500000 0.000000 0.500000
O O10 0.246726 0.136970 0.979798
O O11 0.824027 0.892403 0.406500
O O12 0.754961 0.154863 0.122017
O O13 0.000000 0.000000 0.500000
O O14 0.668296 0.448169 0.967286
O O15 0.614756 0.666135 0.053832
#
# Coordination Sequence:
#
# PCOD8044563 Si02
#       7
#     2   2   2   2   2   2   2
#     4  10  20  36  63  91 115 149 203 246 285 354
#     4  12  22  39  62  89 123 156 196 250 297 342
#     4  11  24  38  58  92 118 152 207 246 285 351
#     4  11  21  38  62  84 119 162 195 240 295 354
#     4  10  22  40  62  85 118 162 202 237 293 357
#     4  10  19  38  63  87 113 156 205 240 286 348
#     4  10  23  40  58  92 124 154 194 244 303 356
#
# _framework density 20.094736000000001
#
# number of rings (size 3 to 8) (size 9 to 14) (size 15 to 20)
#    0.000    1.429    2.857    3.000    2.000    0.000 
#    0.000   12.143    0.000    0.000    0.000    0.000 
#    0.000    0.000    0.000    0.000    0.000    0.000 
#
# Total GULP energy -173661.188388 kJ/mol
# GULP energy per Si atom -12404.370599 kJ/mol
# Density = 2.004900 g / cm^3
# Si number density = 20.094736 Si / 1000 Ang^3
#
#
#
# Elastic Constant Matrix: (Units=GPa)
#
#
# Indices 1 2 3 4 5 6 
#
# 1 125.8624 40.6085 31.7327 -7.0142 -31.8075 16.3663
# 2 40.6085 105.0567 13.0612 -8.4747 -14.1438 10.5735
# 3 31.7327 13.0612 60.5706 -3.9611 -7.3049 7.5896
# 4 -7.0142 -8.4747 -3.9611 32.1271 3.0166 7.3859
# 5 -31.8075 -14.1438 -7.3049 3.0166 28.4341 -0.7983
# 6 16.3663 10.5735 7.5896 7.3859 -0.7983 30.6289
#
#
#
# Elastic Compliance Matrix: (Units=1/GPa)
#
#
# Indices 1 2 3 4 5 6 
#
# 1 0.013924 -0.002370 -0.004388 0.001966 0.012902 -0.005672
# 2 -0.002370 0.011376 -0.000309 0.002951 0.002524 -0.003230
# 3 -0.004388 -0.000309 0.019316 0.002031 -0.000395 -0.002835
# 4 0.001966 0.002951 0.002031 0.035107 0.000155 -0.011034
# 5 0.012902 0.002524 -0.000395 0.000155 0.050560 -0.006387
# 6 -0.005672 -0.003230 -0.002835 -0.011034 -0.006387 0.039992
#
#
# Mechanical properties :
#
#
# Convention : Reuss Voigt Hill
#
# Bulk Modulus (GPa) = 32.80793 51.36604 42.08698
# Shear Modulus (GPa) = 25.69780 31.97717 28.83749
#
# Velocity S-wave (km/s) = 3.57996 3.99346 3.79235
# Velocity P-wave (km/s) = 5.78361 6.84698 6.33764
#
# Compressibility (1/GPa) = 0.03048044
#
# Stress axis : x y z
#
# Youngs Moduli (GPa) = 71.81906 87.90260 51.77152
#
# Poissons Ratio (x) = 0.20833 0.22719
# Poissons Ratio (y) = 0.17022 0.01601
# Poissons Ratio (z) = 0.31516 0.02719
#
# Static dielectric constant tensor:
#      x y z
#    x 3.453470 0.051350 -0.020820 
#    y 0.051350 3.983970 0.193870 
#    z -0.020820 0.193870 3.870080 
# 
# 
# High freq. dielectric constant tensor:
#      x y z
#    x 1.770110 0.003060 0.002190 
#    y 0.003060 1.781790 0.000620 
#    z 0.002190 0.000620 1.797080 
# 
# From -- ./inp_files/149113.got.cif
#   From: 2010.06.25/outbox.cif.g09.slc.cpg/sg2_75_cif.got.tgz:149113.got - 2010.06.27 13:26:56.
