data_PCOD8044053
_publ_section_title
;
Structure prediction by ZEFSAII (Michael W. Deem and Ramdas Pophale) SiO2 
 PCOD8044053
Probable space group: P -1
;
_chemical_formula_sum "Si O2"
_cell_formula_units_Z 16
_cell_length_a 9.217111
_cell_length_b 12.396995
_cell_length_c 18.553724
_cell_angle_alpha 152.507346
_cell_angle_beta 50.452232
_cell_angle_gamma 129.451274
_cell_volume 739.660687
_symmetry_space_group_name_H-M "P -1"
_symmetry_group_IT_number 2
_symmetry_cell_setting 'triclinic'
loop_
_space_group_symop_operation_xyz
x,y,z
-x,-y,-z
loop_
_atom_site_type_symbol
_atom_site_label
_atom_site_fract_x
_atom_site_fract_y
_atom_site_fract_z
Si Si1 0.670406 0.600179 0.230973
Si Si2 0.748059 0.460699 0.620126
Si Si3 0.141563 0.771549 0.967378
Si Si4 0.061160 0.167239 0.325652
Si Si5 0.538672 0.518222 0.913535
Si Si6 0.199431 0.126849 0.044612
Si Si7 0.041912 0.988966 0.373976
Si Si8 0.121975 0.674532 0.277020
O O1 0.478040 0.637009 0.354380
O O2 0.727099 0.361042 0.103298
O O3 0.641349 0.568409 0.134392
O O4 0.831997 0.829977 0.330455
O O5 0.786465 0.609849 0.621832
O O6 0.832824 0.635637 0.762493
O O7 0.856065 0.238980 0.449740
O O8 0.978443 0.592058 0.870064
O O9 0.028992 0.937452 0.148163
O O10 0.271383 0.943635 0.969257
O O11 0.147290 0.090186 0.327671
O O12 0.639817 0.788151 0.017377
O O13 0.686012 0.338522 0.747627
O O14 0.500000 0.500000 0.000000
O O15 0.000000 0.000000 0.000000
O O16 0.171618 0.828791 0.279038
O O17 0.023352 0.211074 0.561564
#
# Coordination Sequence:
#
# PCOD8044053 Si02
#       8
#     2   2   2   2   2   2   2   2
#     4  10  23  41  63  90 126 162 204 257 310 365
#     4   9  21  39  58  93 122 154 205 258 303 369
#     4  10  22  39  68  92 118 164 214 249 304 365
#     4  10  21  36  63  94 117 158 208 254 298 365
#     4  11  24  36  58  92 129 151 200 259 305 356
#     4  10  19  37  63  86 119 166 200 246 306 369
#     4  10  22  39  66  84 120 169 203 248 307 371
#     4  10  22  41  58  89 125 162 206 242 309 378
#
# _framework density 21.631539
#
# number of rings (size 3 to 8) (size 9 to 14) (size 15 to 20)
#    0.000    2.000    1.250    1.500    3.500    7.500 
#    0.000    0.000    0.000    2.250    0.000    0.000 
#    0.000    0.000    0.000    0.000    0.000    0.000 
#
# Total GULP energy -198312.581556 kJ/mol
# GULP energy per Si atom -12394.536347 kJ/mol
# Density = 2.158230 g / cm^3
# Si number density = 21.631539 Si / 1000 Ang^3
#
#
#
# Elastic Constant Matrix: (Units=GPa)
#
#
# Indices 1 2 3 4 5 6 
#
# 1 90.8125 20.1350 17.4396 4.9226 2.5424 -23.9734
# 2 20.1350 121.8609 28.0286 -6.7417 1.3289 -42.5588
# 3 17.4396 28.0286 91.7806 7.6187 -0.5555 -15.5373
# 4 4.9226 -6.7417 7.6187 25.0031 -4.0263 -3.7837
# 5 2.5424 1.3289 -0.5555 -4.0263 29.8552 -0.8801
# 6 -23.9734 -42.5588 -15.5373 -3.7837 -0.8801 32.8475
#
#
#
# Elastic Compliance Matrix: (Units=1/GPa)
#
#
# Indices 1 2 3 4 5 6 
#
# 1 0.014137 0.002481 -0.001269 0.000074 -0.000947 0.012915
# 2 0.002481 0.017179 -0.002372 0.008630 0.000850 0.023963
# 3 -0.001269 -0.002372 0.012431 -0.003970 -0.000049 0.001421
# 4 0.000074 0.008630 -0.003970 0.046786 0.006285 0.014915
# 5 -0.000947 0.000850 -0.000049 0.006285 0.034445 0.002034
# 6 0.012915 0.023963 0.001421 0.014915 0.002034 0.073363
#
#
# Mechanical properties :
#
#
# Convention : Reuss Voigt Hill
#
# Bulk Modulus (GPa) = 24.13933 48.40669 36.27301
# Shear Modulus (GPa) = 23.31321 33.46454 28.38888
#
# Velocity S-wave (km/s) = 3.28646 3.93749 3.62661
# Velocity P-wave (km/s) = 5.05813 6.56492 5.86015
#
# Compressibility (1/GPa) = 0.04142617
#
# Stress axis : x y z
#
# Youngs Moduli (GPa) = 70.73457 58.21122 80.44337
#
# Poissons Ratio (x) = -0.14443 0.10212
# Poissons Ratio (y) = -0.17550 0.19082
# Poissons Ratio (z) = 0.08980 0.13809
#
# Static dielectric constant tensor:
#      x y z
#    x 3.892770 -0.477930 -0.086300 
#    y -0.477930 4.314840 0.097210 
#    z -0.086300 0.097210 3.834200 
# 
# 
# High freq. dielectric constant tensor:
#      x y z
#    x 1.836000 -0.035430 -0.000440 
#    y -0.035430 1.861760 0.010000 
#    z -0.000440 0.010000 1.842790 
# 
# From -- ./inp_files/559372.got.cif
#   From: 2010.06.25/outbox.cif.g09.slc.cpg/sg2_280_cif.got.tgz:559372.got - 2010.06.27 13:26:56.
