data_PCOD8044013
_publ_section_title
;
Structure prediction by ZEFSAII (Michael W. Deem and Ramdas Pophale) SiO2 
 PCOD8044013
Probable space group: P -1
;
_chemical_formula_sum "Si O2"
_cell_formula_units_Z 16
_cell_length_a 21.184518
_cell_length_b 9.235495
_cell_length_c 9.001447
_cell_angle_alpha 117.758663
_cell_angle_beta 116.096217
_cell_angle_gamma 29.665778
_cell_volume 768.848334
_symmetry_space_group_name_H-M "P -1"
_symmetry_group_IT_number 2
_symmetry_cell_setting 'triclinic'
loop_
_space_group_symop_operation_xyz
x,y,z
-x,-y,-z
loop_
_atom_site_type_symbol
_atom_site_label
_atom_site_fract_x
_atom_site_fract_y
_atom_site_fract_z
Si Si1 0.235162 0.337004 0.003496
Si Si2 0.249762 0.709990 0.914868
Si Si3 0.520020 0.299476 0.018557
Si Si4 0.900892 0.728542 0.132418
Si Si5 0.009546 0.308867 0.490721
Si Si6 0.496932 0.683797 0.652352
Si Si7 0.747715 0.646454 0.310190
Si Si8 0.218665 0.726782 0.227566
O O1 0.190281 0.588663 0.161273
O O2 0.136491 0.379710 0.903048
O O3 0.268915 0.331195 0.872445
O O4 0.357172 0.034725 0.077797
O O5 0.223548 0.599123 0.735244
O O6 0.213801 0.944392 0.901684
O O7 0.401637 0.408710 0.941611
O O8 0.185547 0.837979 0.074799
O O9 0.546718 0.279552 0.209654
O O10 0.500000 0.500000 0.000000
O O11 0.956866 0.733285 0.322198
O O12 0.000000 0.500000 0.000000
O O13 0.000000 0.500000 0.500000
O O14 0.869571 0.503158 0.430828
O O15 0.120574 0.998630 0.369981
O O16 0.500000 0.500000 0.500000
O O17 0.634539 0.506784 0.696176
O O18 0.386442 0.008926 0.610734
#
# Coordination Sequence:
#
# PCOD8044013 Si02
#       8
#     2   2   2   2   2   2   2   2
#     4  10  21  41  65  91 124 165 205 253 307 371
#     4  10  22  40  63  94 124 160 206 259 309 363
#     4  10  19  37  62  91 121 162 201 246 309 371
#     4  12  26  41  63  89 130 165 204 250 314 371
#     4  12  24  42  66  92 123 165 212 252 307 372
#     4  10  21  38  64  92 124 160 209 257 304 362
#     4  10  22  40  65  90 125 165 208 257 304 364
#     4  10  23  40  68  95 120 161 214 256 303 367
#
# _framework density 20.810348000000001
#
# number of rings (size 3 to 8) (size 9 to 14) (size 15 to 20)
#    0.000    1.500    2.500    2.250    3.500    5.500 
#    0.000    0.000    0.000    3.000    0.000    0.000 
#    0.000    0.000    0.000    0.000    0.000    0.000 
#
# Total GULP energy -198242.437991 kJ/mol
# GULP energy per Si atom -12390.152374 kJ/mol
# Density = 2.076298 g / cm^3
# Si number density = 20.810348 Si / 1000 Ang^3
#
#
#
# Elastic Constant Matrix: (Units=GPa)
#
#
# Indices 1 2 3 4 5 6 
#
# 1 68.3832 32.9387 32.5137 3.9185 26.1073 12.2192
# 2 32.9387 119.2586 55.5290 14.2008 9.8731 -5.3302
# 3 32.5137 55.5290 114.3664 11.7312 20.7738 -0.2189
# 4 3.9185 14.2008 11.7312 34.4822 3.5599 8.4084
# 5 26.1073 9.8731 20.7738 3.5599 36.7326 0.3214
# 6 12.2192 -5.3302 -0.2189 8.4084 0.3214 35.1986
#
#
#
# Elastic Compliance Matrix: (Units=1/GPa)
#
#
# Indices 1 2 3 4 5 6 
#
# 1 0.026490 -0.006008 -0.002134 0.004576 -0.016352 -0.011063
# 2 -0.006008 0.012666 -0.004673 -0.004574 0.003908 0.005032
# 3 -0.002134 -0.004673 0.012563 -0.001820 -0.004161 0.000584
# 4 0.004576 -0.004574 -0.001820 0.033943 -0.004192 -0.010363
# 5 -0.016352 0.003908 -0.004161 -0.004192 0.040495 0.006874
# 6 -0.011063 0.005032 0.000584 -0.010363 0.006874 0.035429
#
#
# Mechanical properties :
#
#
# Convention : Reuss Voigt Hill
#
# Bulk Modulus (GPa) = 38.33048 60.44122 49.38585
# Shear Modulus (GPa) = 25.52157 33.35113 29.43635
#
# Velocity S-wave (km/s) = 3.50578 4.00762 3.76507
# Velocity P-wave (km/s) = 5.90307 7.10785 6.53329
#
# Compressibility (1/GPa) = 0.02608890
#
# Stress axis : x y z
#
# Youngs Moduli (GPa) = 37.75058 78.94871 79.59919
#
# Poissons Ratio (x) = 0.47435 0.16986
# Poissons Ratio (y) = 0.22682 0.37196
# Poissons Ratio (z) = 0.08056 0.36892
#
# Static dielectric constant tensor:
#      x y z
#    x 2.491760 -0.978070 -0.867000 
#    y -0.978070 3.233990 -0.531720 
#    z -0.867000 -0.531720 4.435520 
# 
# 
# High freq. dielectric constant tensor:
#      x y z
#    x 1.812540 0.002940 0.022040 
#    y 0.002940 1.831530 0.005810 
#    z 0.022040 0.005810 1.803740 
# 
# From -- ./inp_files/217840.got.cif
#   From: 2010.06.25/outbox.cif.g09.slc.cpg/sg2_109_cif.got.tgz:217840.got - 2010.06.27 13:26:56.
