data_PCOD8044578
_publ_section_title
;
Structure prediction by ZEFSAII (Michael W. Deem and Ramdas Pophale) SiO2 
 PCOD8044578
Probable space group: P -1
;
_chemical_formula_sum "Si O2"
_cell_formula_units_Z 16
_cell_length_a 23.785482
_cell_length_b 12.576138
_cell_length_c 8.973544
_cell_angle_alpha 62.154433
_cell_angle_beta 119.727632
_cell_angle_gamma 160.269434
_cell_volume 786.933808
_symmetry_space_group_name_H-M "P -1"
_symmetry_group_IT_number 2
_symmetry_cell_setting 'triclinic'
loop_
_space_group_symop_operation_xyz
x,y,z
-x,-y,-z
loop_
_atom_site_type_symbol
_atom_site_label
_atom_site_fract_x
_atom_site_fract_y
_atom_site_fract_z
Si Si1 0.228781 0.827221 0.849053
Si Si2 0.256023 0.523307 0.252275
Si Si3 0.500546 0.143087 0.166760
Si Si4 0.536652 0.702285 0.394379
Si Si5 0.398994 0.568314 0.589887
Si Si6 0.691472 0.807135 0.106790
Si Si7 0.260900 0.373554 0.075835
Si Si8 0.971489 0.196624 0.002305
O O1 0.280026 0.961376 0.662959
O O2 0.219987 0.921991 0.891230
O O3 0.050800 0.449917 0.859249
O O4 0.366222 0.969053 0.992352
O O5 0.254979 0.415155 0.444388
O O6 0.232469 0.431510 0.116163
O O7 0.105346 0.362206 0.183888
O O8 0.441861 0.904238 0.265166
O O9 0.499108 0.205005 0.284176
O O10 0.681867 0.467604 0.110691
O O11 0.500000 0.500000 0.500000
O O12 0.531208 0.765595 0.501561
O O13 0.395544 0.508162 0.223108
O O14 0.305511 0.285127 0.696707
O O15 0.801736 0.947181 0.024665
O O16 0.500000 0.500000 0.000000
O O17 0.085661 0.000638 0.064979
#
# Coordination Sequence:
#
# PCOD8044578 Si02
#       8
#     2   2   2   2   2   2   2   2
#     4  10  21  38  62  93 120 158 201 248 297 355
#     4  10  23  38  58  89 126 153 201 255 304 348
#     4  10  19  38  63  91 116 159 208 247 290 360
#     4  10  20  36  63  89 122 156 202 244 295 356
#     4  11  21  36  65  92 120 157 200 247 303 350
#     4  12  21  39  66  89 117 161 207 244 296 368
#     4  10  20  38  62  85 116 169 204 238 293 366
#     4  11  23  39  62  88 124 159 203 249 297 362
#
# _framework density 20.332079
#
# number of rings (size 3 to 8) (size 9 to 14) (size 15 to 20)
#    0.000    1.500    3.750    2.250    0.000    1.500 
#    0.000    0.625   11.000    0.000    0.000    0.000 
#    0.000    0.000    0.000    0.000    0.000    0.000 
#
# Total GULP energy -198366.157597 kJ/mol
# GULP energy per Si atom -12397.884850 kJ/mol
# Density = 2.028580 g / cm^3
# Si number density = 20.332079 Si / 1000 Ang^3
#
#
#
# Elastic Constant Matrix: (Units=GPa)
#
#
# Indices 1 2 3 4 5 6 
#
# 1 82.2781 40.3534 29.0655 -8.6716 -4.4803 -4.6165
# 2 40.3534 120.4247 38.4931 -14.6390 -2.7543 -13.4434
# 3 29.0655 38.4931 93.8681 -19.2099 -2.4116 5.7571
# 4 -8.6716 -14.6390 -19.2099 20.8655 -6.7990 -2.0938
# 5 -4.4803 -2.7543 -2.4116 -6.7990 41.1399 1.9027
# 6 -4.6165 -13.4434 5.7571 -2.0938 1.9027 38.3218
#
#
#
# Elastic Compliance Matrix: (Units=1/GPa)
#
#
# Indices 1 2 3 4 5 6 
#
# 1 0.015379 -0.003912 -0.002851 0.001593 0.001466 0.000923
# 2 -0.003912 0.011563 -0.002843 0.004533 0.000735 0.004223
# 3 -0.002851 -0.002843 0.015282 0.011363 0.002418 -0.003136
# 4 0.001593 0.004533 0.011363 0.066445 0.011980 0.003110
# 5 0.001466 0.000735 0.002418 0.011980 0.026666 -0.000598
# 6 0.000923 0.004223 -0.003136 0.003110 -0.000598 0.028358
#
#
# Mechanical properties :
#
#
# Convention : Reuss Voigt Hill
#
# Bulk Modulus (GPa) = 43.45514 56.93277 50.19396
# Shear Modulus (GPa) = 26.23643 32.64269 29.43956
#
# Velocity S-wave (km/s) = 3.59610 4.01119 3.80930
# Velocity P-wave (km/s) = 6.21786 7.03670 6.63991
#
# Compressibility (1/GPa) = 0.02301224
#
# Stress axis : x y z
#
# Youngs Moduli (GPa) = 65.02331 86.48439 65.43803
#
# Poissons Ratio (x) = 0.33833 0.18655
# Poissons Ratio (y) = 0.25437 0.18603
# Poissons Ratio (z) = 0.18537 0.24586
#
# Static dielectric constant tensor:
#      x y z
#    x 3.714340 -0.114010 0.054210 
#    y -0.114010 3.800220 -0.364820 
#    z 0.054210 -0.364820 3.805380 
# 
# 
# High freq. dielectric constant tensor:
#      x y z
#    x 1.801430 -0.018850 0.003530 
#    y -0.018850 1.781350 -0.017580 
#    z 0.003530 -0.017580 1.787990 
# 
# From -- ./inp_files/181582.got.cif
#   From: 2010.06.25/outbox.cif.g09.slc.cpg/sg2_91_cif.got.tgz:181582.got - 2010.06.27 13:26:56.
