data_PCOD8044205
_publ_section_title
;
Structure prediction by ZEFSAII (Michael W. Deem and Ramdas Pophale) SiO2 
 PCOD8044205
Probable space group: P -1
;
_chemical_formula_sum "Si O2"
_cell_formula_units_Z 14
_cell_length_a 8.824010
_cell_length_b 11.636524
_cell_length_c 12.363756
_cell_angle_alpha 138.986386
_cell_angle_beta 48.374419
_cell_angle_gamma 117.075759
_cell_volume 619.999191
_symmetry_space_group_name_H-M "P -1"
_symmetry_group_IT_number 2
_symmetry_cell_setting 'triclinic'
loop_
_space_group_symop_operation_xyz
x,y,z
-x,-y,-z
loop_
_atom_site_type_symbol
_atom_site_label
_atom_site_fract_x
_atom_site_fract_y
_atom_site_fract_z
Si Si1 0.658455 0.476733 0.813237
Si Si2 0.366869 0.731013 0.721910
Si Si3 0.720146 0.933438 0.631025
Si Si4 0.039921 0.609099 0.667065
Si Si5 0.502853 0.745787 0.901516
Si Si6 0.865395 0.102705 0.482773
Si Si7 0.890629 0.940035 0.863046
O O1 0.556901 0.569353 0.820330
O O2 0.727694 0.270840 0.619576
O O3 0.863933 0.570446 0.808659
O O4 0.500000 0.500000 0.000000
O O5 0.571505 0.779493 0.601546
O O6 0.264642 0.573825 0.592893
O O7 0.395577 0.681728 0.799178
O O8 0.196571 0.893990 0.910127
O O9 0.944546 0.848638 0.498690
O O10 0.725361 0.986774 0.539274
O O11 0.644487 0.108370 0.860411
O O12 0.000000 0.500000 0.500000
O O13 0.022479 0.813649 0.791647
O O14 0.703332 0.836108 0.831514
O O15 0.966286 0.999435 0.258428
#
# Coordination Sequence:
#
# PCOD8044205 Si02
#       7
#     2   2   2   2   2   2   2
#     4  11  23  41  63  89 130 178 205 255 332 378
#     4  11  21  41  64 101 124 165 221 262 315 382
#     4  10  20  36  65 100 130 167 208 266 313 377
#     4  11  24  41  66  91 127 174 214 267 321 379
#     4  10  19  37  65  93 129 171 207 260 320 380
#     4  11  19  36  66  97 133 166 209 256 324 377
#     4  10  19  38  64  94 128 165 212 258 317 381
#
# _framework density 22.580673000000001
#
# number of rings (size 3 to 8) (size 9 to 14) (size 15 to 20)
#    0.000    1.429    5.714    1.286    0.000    0.000 
#    0.000    9.286    0.000    0.000    0.000    0.000 
#    0.000    0.000    0.000    0.000    0.000    0.000 
#
# Total GULP energy -173459.639449 kJ/mol
# GULP energy per Si atom -12389.974246 kJ/mol
# Density = 2.252928 g / cm^3
# Si number density = 22.580673 Si / 1000 Ang^3
#
#
#
# Elastic Constant Matrix: (Units=GPa)
#
#
# Indices 1 2 3 4 5 6 
#
# 1 111.0754 39.9379 22.0294 2.8663 14.5178 16.5712
# 2 39.9379 115.9028 40.4339 -31.6860 5.0648 -0.6344
# 3 22.0294 40.4339 67.1640 -14.3465 -12.3931 4.1770
# 4 2.8663 -31.6860 -14.3465 45.7625 -4.5862 -13.2535
# 5 14.5178 5.0648 -12.3931 -4.5862 32.8663 7.6719
# 6 16.5712 -0.6344 4.1770 -13.2535 7.6719 28.1072
#
#
#
# Elastic Compliance Matrix: (Units=1/GPa)
#
#
# Indices 1 2 3 4 5 6 
#
# 1 0.014833 -0.006640 -0.003409 -0.010587 -0.005520 -0.011874
# 2 -0.006640 0.017132 -0.006631 0.013506 -0.003251 0.012543
# 3 -0.003409 -0.006631 0.023201 0.003129 0.012538 -0.003535
# 4 -0.010587 0.013506 0.003129 0.040175 0.003780 0.023994
# 5 -0.005520 -0.003251 0.012538 0.003780 0.040476 -0.007948
# 6 -0.011874 0.012543 -0.003535 0.023994 -0.007948 0.056870
#
#
# Mechanical properties :
#
#
# Convention : Reuss Voigt Hill
#
# Bulk Modulus (GPa) = 45.86034 55.43831 50.64932
# Shear Modulus (GPa) = 21.43019 34.12993 27.78006
#
# Velocity S-wave (km/s) = 3.08401 3.89198 3.51131
# Velocity P-wave (km/s) = 5.74762 6.69337 6.23844
#
# Compressibility (1/GPa) = 0.02180533
#
# Stress axis : x y z
#
# Youngs Moduli (GPa) = 67.41940 58.36942 43.10220
#
# Poissons Ratio (x) = 0.38756 0.14695
# Poissons Ratio (y) = 0.44765 0.28581
# Poissons Ratio (z) = 0.22985 0.38705
#
# Static dielectric constant tensor:
#      x y z
#    x 4.225590 -0.073030 -0.370430 
#    y -0.073030 4.377590 -0.164440 
#    z -0.370430 -0.164440 4.072420 
# 
# 
# High freq. dielectric constant tensor:
#      x y z
#    x 1.892810 -0.022280 -0.026170 
#    y -0.022280 1.881760 -0.016280 
#    z -0.026170 -0.016280 1.882260 
# 
# From -- ./inp_files/237400.got.cif
#   From: 2010.06.25/outbox.cif.g09.slc.cpg/sg2_119_cif.got.tgz:237400.got - 2010.06.27 13:26:56.
