data_PCOD8044056
_publ_section_title
;
Structure prediction by ZEFSAII (Michael W. Deem and Ramdas Pophale) SiO2 
 PCOD8044056
Probable space group: P -1
;
_chemical_formula_sum "Si O2"
_cell_formula_units_Z 16
_cell_length_a 9.148809
_cell_length_b 11.917123
_cell_length_c 14.600545
_cell_angle_alpha 58.613546
_cell_angle_beta 66.930104
_cell_angle_gamma 115.240664
_cell_volume 745.504365
_symmetry_space_group_name_H-M "P -1"
_symmetry_group_IT_number 2
_symmetry_cell_setting 'triclinic'
loop_
_space_group_symop_operation_xyz
x,y,z
-x,-y,-z
loop_
_atom_site_type_symbol
_atom_site_label
_atom_site_fract_x
_atom_site_fract_y
_atom_site_fract_z
Si Si1 0.607336 0.519231 0.216993
Si Si2 0.914082 0.018024 0.148060
Si Si3 0.248734 0.661646 0.693639
Si Si4 0.653040 0.328219 0.646264
Si Si5 0.729616 0.657511 0.448651
Si Si6 0.994153 0.405374 0.396926
Si Si7 0.118956 0.220282 0.355263
Si Si8 0.165353 0.873005 0.707038
O O1 0.776904 0.497372 0.185878
O O2 0.390183 0.372902 0.413146
O O3 0.438422 0.424507 0.205091
O O4 0.818761 0.780464 0.063205
O O5 0.903963 0.135480 0.169023
O O6 0.659360 0.850790 0.214155
O O7 0.941808 0.903070 0.251114
O O8 0.048552 0.538785 0.708577
O O9 0.174135 0.720978 0.762226
O O10 0.549658 0.878080 0.493871
O O11 0.833571 0.577147 0.467164
O O12 0.749729 0.271167 0.584528
O O13 0.728882 0.362583 0.720920
O O14 0.500000 0.500000 0.500000
O O15 0.991815 0.248470 0.440755
O O16 0.059556 0.217606 0.266446
O O17 0.000000 0.000000 0.500000
#
# Coordination Sequence:
#
# PCOD8044056 Si02
#       8
#     2   2   2   2   2   2   2   2
#     4  12  23  39  64  96 124 168 207 259 321 371
#     4  11  23  39  64  95 130 158 214 259 315 375
#     4  10  19  37  63  87 122 164 211 254 307 372
#     4  10  20  37  64  90 124 168 207 257 308 379
#     4  10  20  39  61  89 121 164 206 252 311 370
#     4  10  20  37  65  92 120 164 214 251 311 371
#     4  11  21  37  65  93 126 163 211 258 312 374
#     4  10  20  37  61  87 123 168 204 259 308 364
#
# _framework density 21.461980000000001
#
# number of rings (size 3 to 8) (size 9 to 14) (size 15 to 20)
#    0.000    1.500    5.000    0.750    0.000    3.000 
#    0.000    0.625   11.000    0.000    0.000    0.000 
#    0.000    0.000    0.000    0.000    0.000    0.000 
#
# Total GULP energy -198278.288153 kJ/mol
# GULP energy per Si atom -12392.393010 kJ/mol
# Density = 2.141313 g / cm^3
# Si number density = 21.461980 Si / 1000 Ang^3
#
#
#
# Elastic Constant Matrix: (Units=GPa)
#
#
# Indices 1 2 3 4 5 6 
#
# 1 135.9212 45.4721 34.4270 -16.0450 -3.6688 3.5776
# 2 45.4721 99.3885 13.8494 -0.8096 -1.3366 3.1220
# 3 34.4270 13.8494 56.8386 -25.1524 8.7549 -1.3703
# 4 -16.0450 -0.8096 -25.1524 31.9360 0.3214 -3.9047
# 5 -3.6688 -1.3366 8.7549 0.3214 19.2443 -8.7790
# 6 3.5776 3.1220 -1.3703 -3.9047 -8.7790 47.1543
#
#
#
# Elastic Compliance Matrix: (Units=1/GPa)
#
#
# Indices 1 2 3 4 5 6 
#
# 1 0.010266 -0.003844 -0.005709 0.000540 0.004354 0.000165
# 2 -0.003844 0.012158 -0.002389 -0.003600 0.000936 -0.000707
# 3 -0.005709 -0.002389 0.035566 0.025313 -0.017660 0.000433
# 4 0.000540 -0.003600 0.025313 0.051928 -0.011084 0.003169
# 5 0.004354 0.000936 -0.017660 -0.011084 0.065837 0.010434
# 6 0.000165 -0.000707 0.000433 0.003169 0.010434 0.023459
#
#
# Mechanical properties :
#
#
# Convention : Reuss Voigt Hill
#
# Bulk Modulus (GPa) = 29.31933 53.29391 41.30662
# Shear Modulus (GPa) = 21.32499 32.89360 27.10929
#
# Velocity S-wave (km/s) = 3.15559 3.91915 3.55791
# Velocity P-wave (km/s) = 5.19304 6.73538 6.01386
#
# Compressibility (1/GPa) = 0.03410719
#
# Stress axis : x y z
#
# Youngs Moduli (GPa) = 97.40821 82.24781 28.11681
#
# Poissons Ratio (x) = 0.31613 0.16052
# Poissons Ratio (y) = 0.37440 0.06717
# Poissons Ratio (z) = 0.55612 0.19648
#
# Static dielectric constant tensor:
#      x y z
#    x 4.715530 -0.018920 0.210760 
#    y -0.018920 4.170450 -0.109730 
#    z 0.210760 -0.109730 3.496960 
# 
# 
# High freq. dielectric constant tensor:
#      x y z
#    x 1.858610 0.003180 -0.004990 
#    y 0.003180 1.864950 0.001100 
#    z -0.004990 0.001100 1.778050 
# 
# From -- ./inp_files/418168.got.cif
#   From: 2010.06.25/outbox.cif.g09.slc.cpg/sg2_210_cif.got.tgz:418168.got - 2010.06.27 13:26:56.
