data_PCOD8044458
_publ_section_title
;
Structure prediction by ZEFSAII (Michael W. Deem and Ramdas Pophale) SiO2 
 PCOD8044458
Probable space group: P -1
;
_chemical_formula_sum "Si O2"
_cell_formula_units_Z 16
_cell_length_a 9.963686
_cell_length_b 17.701970
_cell_length_c 9.885778
_cell_angle_alpha 146.831122
_cell_angle_beta 120.681520
_cell_angle_gamma 61.735840
_cell_volume 816.412714
_symmetry_space_group_name_H-M "P -1"
_symmetry_group_IT_number 2
_symmetry_cell_setting 'triclinic'
loop_
_space_group_symop_operation_xyz
x,y,z
-x,-y,-z
loop_
_atom_site_type_symbol
_atom_site_label
_atom_site_fract_x
_atom_site_fract_y
_atom_site_fract_z
Si Si1 0.016654 0.880116 0.437195
Si Si2 0.644657 0.100383 0.860373
Si Si3 0.168993 0.598106 0.997824
Si Si4 0.886216 0.421220 0.621464
Si Si5 0.309098 0.158503 0.685714
Si Si6 0.713279 0.386814 0.214242
Si Si7 0.637860 0.538632 0.887779
Si Si8 0.101065 0.891637 0.795733
O O1 0.082730 0.936286 0.696813
O O2 0.847192 0.823403 0.278937
O O3 0.138066 0.758525 0.261199
O O4 0.000000 0.000000 0.500000
O O5 0.455962 0.112008 0.790556
O O6 0.710097 0.955235 0.609881
O O7 0.699880 0.222820 0.978291
O O8 0.717837 0.110687 0.063796
O O9 0.196537 0.583551 0.831514
O O10 0.027348 0.515224 0.853273
O O11 0.325954 0.537127 0.064483
O O12 0.817152 0.444038 0.470793
O O13 0.747031 0.463735 0.717295
O O14 0.954444 0.262261 0.446768
O O15 0.333076 0.301440 0.839019
O O16 0.542780 0.473275 0.260463
O O17 0.000000 0.000000 0.000000
#
# Coordination Sequence:
#
# PCOD8044458 Si02
#       8
#     2   2   2   2   2   2   2   2
#     4  12  24  39  61  86 122 157 197 248 306 350
#     4   9  20  37  63  86 118 154 206 240 290 358
#     4  12  23  39  59  93 122 153 199 249 297 354
#     4  11  22  40  63  89 118 156 203 247 287 358
#     4  10  19  38  61  89 114 160 199 242 292 360
#     4  10  23  39  60  88 126 157 191 247 307 344
#     4  11  21  39  64  87 117 161 200 242 292 357
#     4  11  22  39  63  88 117 156 204 247 293 354
#
# _framework density 19.597930999999999
#
# number of rings (size 3 to 8) (size 9 to 14) (size 15 to 20)
#    0.000    1.250    3.750    3.000    1.750    0.000 
#    0.000    0.625    0.000    0.000    0.000    0.000 
#    0.000    0.000    0.000    0.000    0.000    0.000 
#
# Total GULP energy -198450.726060 kJ/mol
# GULP energy per Si atom -12403.170379 kJ/mol
# Density = 1.955333 g / cm^3
# Si number density = 19.597931 Si / 1000 Ang^3
#
#
#
# Elastic Constant Matrix: (Units=GPa)
#
#
# Indices 1 2 3 4 5 6 
#
# 1 61.9510 25.1948 9.7406 -4.3344 -8.8230 -3.1914
# 2 25.1948 142.2717 44.7447 -12.9850 -6.5875 -2.3684
# 3 9.7406 44.7447 83.6733 2.0126 -12.7899 -2.6864
# 4 -4.3344 -12.9850 2.0126 40.0691 -1.6063 -9.3331
# 5 -8.8230 -6.5875 -12.7899 -1.6063 27.9571 -0.8209
# 6 -3.1914 -2.3684 -2.6864 -9.3331 -0.8209 24.7275
#
#
#
# Elastic Compliance Matrix: (Units=1/GPa)
#
#
# Indices 1 2 3 4 5 6 
#
# 1 0.018327 -0.002848 0.000271 0.001974 0.005440 0.003048
# 2 -0.002848 0.009322 -0.004796 0.003204 -0.000677 0.001191
# 3 0.000271 -0.004796 0.015462 -0.001891 0.005942 0.000739
# 4 0.001974 0.003204 -0.001891 0.029062 0.002518 0.011409
# 5 0.005440 -0.000677 0.005942 0.002518 0.040294 0.003571
# 6 0.003048 0.001191 0.000739 0.011409 0.003571 0.045453
#
#
# Mechanical properties :
#
#
# Convention : Reuss Voigt Hill
#
# Bulk Modulus (GPa) = 35.25333 49.69511 42.47422
# Shear Modulus (GPa) = 27.45415 32.43181 29.94298
#
# Velocity S-wave (km/s) = 3.74688 4.07241 3.91303
# Velocity P-wave (km/s) = 6.06186 6.89384 6.49119
#
# Compressibility (1/GPa) = 0.02836611
#
# Stress axis : x y z
#
# Youngs Moduli (GPa) = 54.56345 107.26786 64.67532
#
# Poissons Ratio (x) = 0.30552 -0.01756
# Poissons Ratio (y) = 0.15541 0.31018
# Poissons Ratio (z) = -0.01481 0.51446
#
# Static dielectric constant tensor:
#      x y z
#    x 3.582280 -0.359160 0.026290 
#    y -0.359160 3.832350 -0.047630 
#    z 0.026290 -0.047630 3.603740 
# 
# 
# High freq. dielectric constant tensor:
#      x y z
#    x 1.750160 -0.024210 -0.002810 
#    y -0.024210 1.775770 -0.000610 
#    z -0.002810 -0.000610 1.768870 
# 
# From -- ./inp_files/205526.got.cif
#   From: 2010.06.25/outbox.cif.g09.slc.cpg/sg2_103_cif.got.tgz:205526.got - 2010.06.27 13:26:56.
