data_PCOD8044201
_publ_section_title
;
Structure prediction by ZEFSAII (Michael W. Deem and Ramdas Pophale) SiO2 
 PCOD8044201
Probable space group: P -1
;
_chemical_formula_sum "Si O2"
_cell_formula_units_Z 14
_cell_length_a 13.776886
_cell_length_b 7.312388
_cell_length_c 13.524638
_cell_angle_alpha 63.928328
_cell_angle_beta 39.510921
_cell_angle_gamma 47.094829
_cell_volume 624.118296
_symmetry_space_group_name_H-M "P -1"
_symmetry_group_IT_number 2
_symmetry_cell_setting 'triclinic'
loop_
_space_group_symop_operation_xyz
x,y,z
-x,-y,-z
loop_
_atom_site_type_symbol
_atom_site_label
_atom_site_fract_x
_atom_site_fract_y
_atom_site_fract_z
Si Si1 0.939145 0.868862 0.912180
Si Si2 0.124437 0.138469 0.690494
Si Si3 0.560910 0.158896 0.031918
Si Si4 0.574357 0.156327 0.806570
Si Si5 0.184364 0.331726 0.782149
Si Si6 0.464318 0.721664 0.405602
Si Si7 0.844097 0.609180 0.680761
O O1 0.055455 0.637906 0.796094
O O2 0.733734 0.101269 0.976239
O O3 0.928658 0.747273 0.048665
O O4 0.059858 0.970783 0.821822
O O5 0.235296 0.184459 0.673604
O O6 0.937523 0.412225 0.743644
O O7 0.265256 0.990027 0.522828
O O8 0.562797 0.274550 0.895212
O O9 0.353266 0.355212 0.201414
O O10 0.586839 0.894606 0.055224
O O11 0.537999 0.332689 0.697586
O O12 0.784109 0.884803 0.696019
O O13 0.376244 0.236191 0.711308
O O14 0.500000 0.500000 0.500000
O O15 0.000000 0.500000 0.500000
#
# Coordination Sequence:
#
# PCOD8044201 Si02
#       7
#     2   2   2   2   2   2   2
#     4  11  23  42  66  98 133 174 226 273 332 406
#     4  12  24  40  67 100 131 173 230 269 333 407
#     4   9  19  38  65  94 126 174 220 270 331 396
#     4   9  19  39  68  92 127 181 216 267 343 387
#     4  11  24  42  66  93 137 181 218 274 337 390
#     4  12  23  44  65  97 138 177 223 279 332 401
#     4  10  19  37  65  92 132 170 214 280 334 384
#
# _framework density 22.431643000000001
#
# number of rings (size 3 to 8) (size 9 to 14) (size 15 to 20)
#    0.857    0.571    4.286    1.714    0.000    0.571 
#    2.571    2.143    0.000    0.000    0.000    0.000 
#    0.000    0.000    0.000    0.000    0.000    0.000 
#
# Total GULP energy -173453.742779 kJ/mol
# GULP energy per Si atom -12389.553056 kJ/mol
# Density = 2.238059 g / cm^3
# Si number density = 22.431643 Si / 1000 Ang^3
#
#
#
# Elastic Constant Matrix: (Units=GPa)
#
#
# Indices 1 2 3 4 5 6 
#
# 1 64.6841 24.2586 25.4475 2.8451 -0.5042 -8.4375
# 2 24.2586 89.0683 32.3320 -7.5490 -1.8451 -15.1592
# 3 25.4475 32.3320 105.3830 11.7472 3.9736 -6.3443
# 4 2.8451 -7.5490 11.7472 41.5274 -11.8246 -3.4489
# 5 -0.5042 -1.8451 3.9736 -11.8246 32.5147 -1.8430
# 6 -8.4375 -15.1592 -6.3443 -3.4489 -1.8430 28.7074
#
#
#
# Elastic Compliance Matrix: (Units=1/GPa)
#
#
# Indices 1 2 3 4 5 6 
#
# 1 0.018390 -0.003420 -0.003165 -0.000633 0.000409 0.002850
# 2 -0.003420 0.015552 -0.004330 0.006013 0.003955 0.007227
# 3 -0.003165 -0.004330 0.012222 -0.005214 -0.003763 -0.001384
# 4 -0.000633 0.006013 -0.005214 0.030784 0.012523 0.006339
# 5 0.000409 0.003955 -0.003763 0.012523 0.036296 0.005212
# 6 0.002850 0.007227 -0.001384 0.006339 0.005212 0.040278
#
#
# Mechanical properties :
#
#
# Convention : Reuss Voigt Hill
#
# Bulk Modulus (GPa) = 41.09399 47.02351 44.05875
# Shear Modulus (GPa) = 27.25346 32.35639 29.80492
#
# Velocity S-wave (km/s) = 3.48940 3.80207 3.64909
# Velocity P-wave (km/s) = 5.88167 6.34688 6.11870
#
# Compressibility (1/GPa) = 0.02433446
#
# Stress axis : x y z
#
# Youngs Moduli (GPa) = 54.37663 64.30020 81.82212
#
# Poissons Ratio (x) = 0.21991 0.25895
# Poissons Ratio (y) = 0.18597 0.35428
# Poissons Ratio (z) = 0.17209 0.27841
#
# Static dielectric constant tensor:
#      x y z
#    x 3.653840 -0.112840 0.009190 
#    y -0.112840 3.980940 0.097250 
#    z 0.009190 0.097250 4.047680 
# 
# 
# High freq. dielectric constant tensor:
#      x y z
#    x 1.852480 -0.018030 0.001140 
#    y -0.018030 1.877030 0.004060 
#    z 0.001140 0.004060 1.887970 
# 
# From -- ./inp_files/528242.got.cif
#   From: 2010.06.25/outbox.cif.g09.slc.cpg/sg2_265_cif.got.tgz:528242.got - 2010.06.27 13:26:56.
