data_PCOD8044550
_publ_section_title
;
Structure prediction by ZEFSAII (Michael W. Deem and Ramdas Pophale) SiO2 
 PCOD8044550
Probable space group: P -1
;
_chemical_formula_sum "Si O2"
_cell_formula_units_Z 16
_cell_length_a 9.819441
_cell_length_b 16.874595
_cell_length_c 8.394489
_cell_angle_alpha 81.623989
_cell_angle_beta 45.327237
_cell_angle_gamma 109.330401
_cell_volume 770.847474
_symmetry_space_group_name_H-M "P -1"
_symmetry_group_IT_number 2
_symmetry_cell_setting 'triclinic'
loop_
_space_group_symop_operation_xyz
x,y,z
-x,-y,-z
loop_
_atom_site_type_symbol
_atom_site_label
_atom_site_fract_x
_atom_site_fract_y
_atom_site_fract_z
Si Si1 0.778326 0.278678 0.342109
Si Si2 0.344223 0.100191 0.567719
Si Si3 0.566957 0.722440 0.164132
Si Si4 0.239467 0.378965 0.107181
Si Si5 0.424111 0.746633 0.936200
Si Si6 0.988687 0.700230 0.159750
Si Si7 0.540649 0.605472 0.753305
Si Si8 0.003061 0.876387 0.974850
O O1 0.565644 0.163273 0.494962
O O2 0.957608 0.287723 0.325667
O O3 0.645701 0.322014 0.515785
O O4 0.954311 0.343084 0.026990
O O5 0.426053 0.145418 0.309078
O O6 0.244520 0.984038 0.683732
O O7 0.127580 0.105182 0.787862
O O8 0.578769 0.631943 0.137948
O O9 0.509972 0.759789 0.042332
O O10 0.826241 0.818214 0.986746
O O11 0.275752 0.372945 0.264561
O O12 0.306249 0.487621 0.975625
O O13 0.452468 0.673288 0.828402
O O14 0.141548 0.701848 0.180216
O O15 0.702051 0.635062 0.451882
O O16 0.087283 0.813965 0.998771
#
# Coordination Sequence:
#
# PCOD8044550 Si02
#       8
#     2   2   2   2   2   2   2   2
#     4  10  21  36  58  86 118 148 191 236 287 338
#     4   9  20  37  62  86 115 153 192 238 286 344
#     4  10  21  39  58  84 122 153 192 239 283 343
#     4  10  21  40  61  84 114 161 190 238 293 340
#     4  10  21  37  60  86 118 152 193 243 281 337
#     4  11  21  37  61  87 116 154 190 240 285 343
#     4  10  22  39  61  84 117 153 200 234 289 346
#     4  10  19  38  63  84 118 155 189 233 296 343
#
# _framework density 20.756374000000001
#
# number of rings (size 3 to 8) (size 9 to 14) (size 15 to 20)
#    0.000    2.000    2.500    0.750    0.000    4.000 
#    0.000    6.875    0.000    3.750    0.000    0.000 
#    0.000    0.000    0.000    0.000    0.000    0.000 
#
# Total GULP energy -198294.970558 kJ/mol
# GULP energy per Si atom -12393.435660 kJ/mol
# Density = 2.070913 g / cm^3
# Si number density = 20.756374 Si / 1000 Ang^3
#
#
#
# Elastic Constant Matrix: (Units=GPa)
#
#
# Indices 1 2 3 4 5 6 
#
# 1 103.3374 33.0853 13.9414 -9.4897 -15.7078 0.0999
# 2 33.0853 69.6154 38.3586 6.2636 1.0029 -4.2722
# 3 13.9414 38.3586 79.7560 11.2703 -6.6852 -8.1296
# 4 -9.4897 6.2636 11.2703 28.2154 -2.7901 4.7545
# 5 -15.7078 1.0029 -6.6852 -2.7901 24.6857 2.2359
# 6 0.0999 -4.2722 -8.1296 4.7545 2.2359 28.4921
#
#
#
# Elastic Compliance Matrix: (Units=1/GPa)
#
#
# Indices 1 2 3 4 5 6 
#
# 1 0.014789 -0.008712 0.001061 0.008155 0.011272 -0.003301
# 2 -0.008712 0.024994 -0.010264 -0.005833 -0.010235 0.002626
# 3 0.001061 -0.010264 0.018888 -0.005114 0.005241 0.004289
# 4 0.008155 -0.005833 -0.005114 0.044287 0.010001 -0.010537
# 5 0.011272 -0.010235 0.005241 0.010001 0.051169 -0.005763
# 6 -0.003301 0.002626 0.004289 -0.010537 -0.005763 0.038937
#
#
# Mechanical properties :
#
#
# Convention : Reuss Voigt Hill
#
# Bulk Modulus (GPa) = 43.78033 47.05326 45.41679
# Shear Modulus (GPa) = 21.14103 27.43354 24.28729
#
# Velocity S-wave (km/s) = 3.19491 3.63945 3.42440
# Velocity P-wave (km/s) = 5.89476 6.35447 6.12893
#
# Compressibility (1/GPa) = 0.02284131
#
# Stress axis : x y z
#
# Youngs Moduli (GPa) = 67.61991 40.00987 52.94267
#
# Poissons Ratio (x) = 0.34855 -0.05616
# Poissons Ratio (y) = 0.58907 0.54340
# Poissons Ratio (z) = -0.07173 0.41066
#
# Static dielectric constant tensor:
#      x y z
#    x 3.803070 -0.003000 -0.087220 
#    y -0.003000 3.758420 0.243910 
#    z -0.087220 0.243910 3.760600 
# 
# 
# High freq. dielectric constant tensor:
#      x y z
#    x 1.815140 -0.004560 -0.011360 
#    y -0.004560 1.797510 0.022790 
#    z -0.011360 0.022790 1.807900 
# 
# From -- ./inp_files/217259.got.cif
#   From: 2010.06.25/outbox.cif.g09.slc.cpg/sg2_109_cif.got.tgz:217259.got - 2010.06.27 13:26:56.
