data_PCOD8044404
_publ_section_title
;
Structure prediction by ZEFSAII (Michael W. Deem and Ramdas Pophale) SiO2 
 PCOD8044404
Probable space group: P -1
;
_chemical_formula_sum "Si O2"
_cell_formula_units_Z 16
_cell_length_a 10.101425
_cell_length_b 8.637992
_cell_length_c 13.072417
_cell_angle_alpha 124.206876
_cell_angle_beta 75.666439
_cell_angle_gamma 71.099537
_cell_volume 745.854005
_symmetry_space_group_name_H-M "P -1"
_symmetry_group_IT_number 2
_symmetry_cell_setting 'triclinic'
loop_
_space_group_symop_operation_xyz
x,y,z
-x,-y,-z
loop_
_atom_site_type_symbol
_atom_site_label
_atom_site_fract_x
_atom_site_fract_y
_atom_site_fract_z
Si Si1 0.930207 0.722110 0.850207
Si Si2 0.595106 0.619474 0.528162
Si Si3 0.288292 0.443748 0.744257
Si Si4 0.048750 0.666988 0.583989
Si Si5 0.651732 0.212007 0.050228
Si Si6 0.244836 0.864088 0.230764
Si Si7 0.548750 0.879178 0.225472
Si Si8 0.692733 0.597960 0.891048
O O1 0.850147 0.578505 0.802655
O O2 0.085268 0.606007 0.856406
O O3 0.001405 0.736391 0.735719
O O4 0.779766 0.982840 0.006043
O O5 0.500000 0.500000 0.500000
O O6 0.656428 0.642755 0.414184
O O7 0.752944 0.461048 0.514823
O O8 0.479660 0.875484 0.691903
O O9 0.367880 0.578010 0.810073
O O10 0.357210 0.227728 0.724801
O O11 0.000000 0.500000 0.500000
O O12 0.942046 0.905717 0.630371
O O13 0.471749 0.250809 0.092776
O O14 0.712485 0.204222 0.921012
O O15 0.371830 0.912702 0.273256
O O16 0.259068 0.657161 0.208505
O O17 0.664366 0.710325 0.049713
#
# Coordination Sequence:
#
# PCOD8044404 Si02
#       8
#     2   2   2   2   2   2   2   2
#     4  10  24  35  58  95 122 153 199 251 298 349
#     4  11  26  41  62  91 117 161 207 242 294 363
#     4  11  22  41  60  84 128 161 194 238 315 356
#     4  10  21  43  65  81 122 163 198 247 300 347
#     4  10  19  38  60  87 120 161 194 245 299 350
#     4  10  19  39  66  89 116 157 205 243 294 356
#     4  11  21  41  63  86 127 162 192 246 302 357
#     4  11  21  38  64  96 116 152 210 248 292 349
#
# _framework density 21.451919
#
# number of rings (size 3 to 8) (size 9 to 14) (size 15 to 20)
#    0.000    1.500    3.750    1.875    1.750    2.500 
#    0.000    0.625    0.000    0.000    0.000    0.000 
#    0.000    0.000    0.000    0.000    0.000    0.000 
#
# Total GULP energy -198418.986127 kJ/mol
# GULP energy per Si atom -12401.186633 kJ/mol
# Density = 2.140309 g / cm^3
# Si number density = 21.451919 Si / 1000 Ang^3
#
#
#
# Elastic Constant Matrix: (Units=GPa)
#
#
# Indices 1 2 3 4 5 6 
#
# 1 119.6289 33.7495 20.9252 20.6079 -6.2209 -3.7949
# 2 33.7495 74.6799 26.7375 36.8217 -12.6843 -10.1986
# 3 20.9252 26.7375 64.5485 32.0674 5.8185 -7.2791
# 4 20.6079 36.8217 32.0674 34.4824 2.7246 3.9348
# 5 -6.2209 -12.6843 5.8185 2.7246 31.7502 9.2512
# 6 -3.7949 -10.1986 -7.2791 3.9348 9.2512 41.8360
#
#
#
# Elastic Compliance Matrix: (Units=1/GPa)
#
#
# Indices 1 2 3 4 5 6 
#
# 1 0.009750 -0.003145 -0.001351 -0.001271 0.001079 -0.000236
# 2 -0.003145 0.045472 0.013343 -0.062106 0.015936 0.015439
# 3 -0.001351 0.013343 0.036445 -0.048851 -0.001624 0.014425
# 4 -0.001271 -0.062106 -0.048851 0.146817 -0.018985 -0.033365
# 5 0.001079 0.015936 -0.001624 -0.018985 0.041047 -0.003591
# 6 -0.000236 0.015439 0.014425 -0.033365 -0.003591 0.034087
#
#
# Mechanical properties :
#
#
# Convention : Reuss Voigt Hill
#
# Bulk Modulus (GPa) = 9.14400 46.85353 27.99877
# Shear Modulus (GPa) = 15.04308 33.44339 24.24324
#
# Velocity S-wave (km/s) = 2.65098 3.95269 3.36537
# Velocity P-wave (km/s) = 3.69352 6.53608 5.30859
#
# Compressibility (1/GPa) = 0.10936136
#
# Stress axis : x y z
#
# Youngs Moduli (GPa) = 102.56097 21.99156 27.43826
#
# Poissons Ratio (x) = 0.06917 0.03706
# Poissons Ratio (y) = 0.32257 -0.36610
# Poissons Ratio (z) = 0.13852 -0.29342
#
# Static dielectric constant tensor:
#      x y z
#    x 3.925990 -0.295860 -0.124170 
#    y -0.295860 3.940010 0.297190 
#    z -0.124170 0.297190 3.729630 
# 
# 
# High freq. dielectric constant tensor:
#      x y z
#    x 1.843640 -0.013780 0.003730 
#    y -0.013780 1.836150 0.021290 
#    z 0.003730 0.021290 1.832960 
# 
# From -- ./inp_files/182357.got.cif
#   From: 2010.06.25/outbox.cif.g09.slc.cpg/sg2_92_cif.got.tgz:182357.got - 2010.06.27 13:26:56.
