data_PCOD8044689
_publ_section_title
;
Structure prediction by ZEFSAII (Michael W. Deem and Ramdas Pophale) SiO2 
 PCOD8044689
Probable space group: P -1
;
_chemical_formula_sum "Si O2"
_cell_formula_units_Z 16
_cell_length_a 20.517753
_cell_length_b 8.530139
_cell_length_c 20.300693
_cell_angle_alpha 48.886165
_cell_angle_beta 19.652518
_cell_angle_gamma 41.388371
_cell_volume 770.630247
_symmetry_space_group_name_H-M "P -1"
_symmetry_group_IT_number 2
_symmetry_cell_setting 'triclinic'
loop_
_space_group_symop_operation_xyz
x,y,z
-x,-y,-z
loop_
_atom_site_type_symbol
_atom_site_label
_atom_site_fract_x
_atom_site_fract_y
_atom_site_fract_z
Si Si1 0.922175 0.474321 0.683500
Si Si2 0.756407 0.757949 0.440416
Si Si3 0.323250 0.012551 0.855080
Si Si4 0.068090 0.779505 0.384610
Si Si5 0.505237 0.656990 0.356437
Si Si6 0.174194 0.829386 0.745077
Si Si7 0.495052 0.487321 0.873592
Si Si8 0.736076 0.325881 0.549598
O O1 0.929945 0.283312 0.676331
O O2 0.146830 0.336843 0.551948
O O3 0.913708 0.702159 0.593229
O O4 0.700253 0.575410 0.912000
O O5 0.808648 0.526040 0.410056
O O6 0.484875 0.933601 0.658558
O O7 0.858982 0.912921 0.269088
O O8 0.360160 0.200445 0.810363
O O9 0.381772 0.778106 0.907810
O O10 0.065697 0.149666 0.037963
O O11 0.321966 0.642371 0.207568
O O12 0.963144 0.066205 0.413192
O O13 0.293925 0.771633 0.575861
O O14 0.675997 0.375672 0.288230
O O15 0.418613 0.676550 0.359969
O O16 0.595363 0.395183 0.731591
#
# Coordination Sequence:
#
# PCOD8044689 Si02
#       8
#     2   2   2   2   2   2   2   2
#     4  11  22  40  65  86 120 169 211 245 298 366
#     4  10  21  40  62  87 128 163 197 255 308 365
#     4  10  19  38  65  87 120 161 203 255 301 359
#     4  11  23  41  62  90 124 165 209 255 292 359
#     4  10  23  40  62  96 123 158 208 259 303 365
#     4  10  20  41  69  88 119 165 210 251 307 366
#     4  11  23  40  61  91 125 166 202 247 313 366
#     4  11  24  42  58  92 137 158 197 262 309 358
#
# _framework density 20.762225999999998
#
# number of rings (size 3 to 8) (size 9 to 14) (size 15 to 20)
#    0.000    1.500    3.750    2.625    1.750    1.000 
#    2.250    2.500    0.000    0.000    0.000    0.000 
#    0.000    0.000    0.000    0.000    0.000    0.000 
#
# Total GULP energy -198439.585538 kJ/mol
# GULP energy per Si atom -12402.474096 kJ/mol
# Density = 2.071497 g / cm^3
# Si number density = 20.762226 Si / 1000 Ang^3
#
#
#
# Elastic Constant Matrix: (Units=GPa)
#
#
# Indices 1 2 3 4 5 6 
#
# 1 36.8154 24.3695 18.5328 2.6139 -5.9004 -2.3832
# 2 24.3695 127.9703 15.9680 6.7807 -9.2654 11.5076
# 3 18.5328 15.9680 85.8969 -4.1852 -16.4296 2.1118
# 4 2.6139 6.7807 -4.1852 24.7858 2.9067 -7.5975
# 5 -5.9004 -9.2654 -16.4296 2.9067 20.0555 1.9410
# 6 -2.3832 11.5076 2.1118 -7.5975 1.9410 28.1395
#
#
#
# Elastic Compliance Matrix: (Units=1/GPa)
#
#
# Indices 1 2 3 4 5 6 
#
# 1 0.035198 -0.006163 -0.006260 -0.001683 0.002104 0.005372
# 2 -0.006163 0.010057 0.000206 -0.004447 0.004241 -0.006144
# 3 -0.006260 0.000206 0.015106 0.001247 0.010655 -0.002146
# 4 -0.001683 -0.004447 0.001247 0.047761 -0.009918 0.015162
# 5 0.002104 0.004241 0.010655 -0.009918 0.063517 -0.009415
# 6 0.005372 -0.006144 -0.002146 0.015162 -0.009415 0.043409
#
#
# Mechanical properties :
#
#
# Convention : Reuss Voigt Hill
#
# Bulk Modulus (GPa) = 27.83520 40.93590 34.38555
# Shear Modulus (GPa) = 19.88403 27.38366 23.63384
#
# Velocity S-wave (km/s) = 3.09803 3.63563 3.37754
# Velocity P-wave (km/s) = 5.12180 6.11417 5.63985
#
# Compressibility (1/GPa) = 0.03592573
#
# Stress axis : x y z
#
# Youngs Moduli (GPa) = 28.41075 99.42870 66.19967
#
# Poissons Ratio (x) = 0.61280 0.41442
# Poissons Ratio (y) = 0.17510 -0.01361
# Poissons Ratio (z) = 0.17786 -0.02044
#
# Static dielectric constant tensor:
#      x y z
#    x 3.514950 0.084450 -0.165500 
#    y 0.084450 4.071090 -0.086650 
#    z -0.165500 -0.086650 3.715830 
# 
# 
# High freq. dielectric constant tensor:
#      x y z
#    x 1.792380 0.000560 -0.020000 
#    y 0.000560 1.827560 -0.002420 
#    z -0.020000 -0.002420 1.807910 
# 
# From -- ./inp_files/329568.got.cif
#   From: 2010.06.25/outbox.cif.g09.slc.cpg/sg2_165_cif.got.tgz:329568.got - 2010.06.27 13:26:56.
