data_PCOD8044604
_publ_section_title
;
Structure prediction by ZEFSAII (Michael W. Deem and Ramdas Pophale) SiO2 
 PCOD8044604
Probable space group: P -1
;
_chemical_formula_sum "Si O2"
_cell_formula_units_Z 16
_cell_length_a 8.441128
_cell_length_b 19.193768
_cell_length_c 7.783306
_cell_angle_alpha 40.082453
_cell_angle_beta 98.776043
_cell_angle_gamma 79.830943
_cell_volume 712.144748
_symmetry_space_group_name_H-M "P -1"
_symmetry_group_IT_number 2
_symmetry_cell_setting 'triclinic'
loop_
_space_group_symop_operation_xyz
x,y,z
-x,-y,-z
loop_
_atom_site_type_symbol
_atom_site_label
_atom_site_fract_x
_atom_site_fract_y
_atom_site_fract_z
Si Si1 0.966658 0.336878 0.105940
Si Si2 0.548155 0.320321 0.417699
Si Si3 0.894456 0.917781 0.841980
Si Si4 0.215533 0.960540 0.087783
Si Si5 0.257421 0.401440 0.917508
Si Si6 0.617180 0.560307 0.482525
Si Si7 0.099062 0.077864 0.531523
Si Si8 0.890109 0.344713 0.459052
O O1 0.944631 0.216861 0.278205
O O2 0.993185 0.341051 0.307303
O O3 0.798810 0.455237 0.786821
O O4 0.150157 0.323912 0.074581
O O5 0.657201 0.178178 0.665190
O O6 0.476707 0.344274 0.557805
O O7 0.686133 0.376228 0.312410
O O8 0.396480 0.377865 0.140093
O O9 0.804248 0.923817 0.630102
O O10 0.736843 0.995601 0.806259
O O11 0.027388 0.977410 0.716099
O O12 0.012706 0.779441 0.183725
O O13 0.000000 0.000000 0.000000
O O14 0.240368 0.038810 0.787866
O O15 0.347139 0.369116 0.804054
O O16 0.117739 0.546555 0.627296
O O17 0.500000 0.500000 0.500000
#
# Coordination Sequence:
#
# PCOD8044604 Si02
#       8
#     2   2   2   2   2   2   2   2
#     4  12  25  44  69 100 143 184 215 274 350 420
#     4  12  24  43  69 102 133 176 229 290 330 390
#     4  10  20  36  67  98 122 171 224 287 321 384
#     4  10  19  38  63  96 129 164 222 282 331 383
#     4  12  27  45  66 101 143 182 221 272 350 414
#     4  12  26  43  69 102 137 178 228 283 332 398
#     4  10  20  37  63  95 129 166 224 270 330 390
#     4  12  20  42  71  98 133 171 233 278 335 394
#
# _framework density 22.467341000000001
#
# number of rings (size 3 to 8) (size 9 to 14) (size 15 to 20)
#    0.000    0.750    6.250    3.375    0.000    1.000 
#    0.000    0.625    0.000    1.500    0.000    0.000 
#    0.000    0.000    0.000    0.000    0.000    0.000 
#
# Total GULP energy -198261.496608 kJ/mol
# GULP energy per Si atom -12391.343538 kJ/mol
# Density = 2.241620 g / cm^3
# Si number density = 22.467341 Si / 1000 Ang^3
#
#
#
# Elastic Constant Matrix: (Units=GPa)
#
#
# Indices 1 2 3 4 5 6 
#
# 1 57.7083 11.0829 40.8899 5.9423 -16.6435 -14.7304
# 2 11.0829 162.1192 77.1258 18.1805 -5.6585 -40.4990
# 3 40.8899 77.1258 121.0468 11.8070 -11.5635 -15.4519
# 4 5.9423 18.1805 11.8070 53.9382 -10.9575 -9.8124
# 5 -16.6435 -5.6585 -11.5635 -10.9575 19.3724 4.0205
# 6 -14.7304 -40.4990 -15.4519 -9.8124 4.0205 29.7044
#
#
#
# Elastic Compliance Matrix: (Units=1/GPa)
#
#
# Indices 1 2 3 4 5 6 
#
# 1 0.039067 0.011041 -0.015126 0.004954 0.025424 0.024753
# 2 0.011041 0.015998 -0.010915 0.000344 0.003426 0.021259
# 3 -0.015126 -0.010915 0.018526 -0.001749 -0.003446 -0.012857
# 4 0.004954 0.000344 -0.001749 0.022577 0.014525 0.007508
# 5 0.025424 0.003426 -0.003446 0.014525 0.078621 0.009642
# 6 0.024753 0.021259 -0.012857 0.007508 0.009642 0.069411
#
#
# Mechanical properties :
#
#
# Convention : Reuss Voigt Hill
#
# Bulk Modulus (GPa) = 22.94164 66.56351 44.75257
# Shear Modulus (GPa) = 17.31716 34.72138 26.01927
#
# Velocity S-wave (km/s) = 2.77929 3.93544 3.40677
# Velocity P-wave (km/s) = 4.53128 7.09517 5.95289
#
# Compressibility (1/GPa) = 0.04358886
#
# Stress axis : x y z
#
# Youngs Moduli (GPa) = 25.59718 62.50786 53.97860
#
# Poissons Ratio (x) = -0.69013 0.81649
# Poissons Ratio (y) = -0.28261 0.58920
# Poissons Ratio (z) = 0.38719 0.68230
#
# Static dielectric constant tensor:
#      x y z
#    x 3.859480 -0.331340 -0.303530 
#    y -0.331340 5.613380 0.764880 
#    z -0.303530 0.764880 4.548540 
# 
# 
# High freq. dielectric constant tensor:
#      x y z
#    x 1.830900 -0.014490 -0.019710 
#    y -0.014490 1.913320 0.011020 
#    z -0.019710 0.011020 1.900660 
# 
# From -- ./inp_files/220300.got.cif
#   From: 2010.06.25/outbox.cif.g09.slc.cpg/sg2_111_cif.got.tgz:220300.got - 2010.06.27 13:26:56.
