data_PCOD8044296
_publ_section_title
;
Structure prediction by ZEFSAII (Michael W. Deem and Ramdas Pophale) SiO2 
 PCOD8044296
Probable space group: P -1
;
_chemical_formula_sum "Si O2"
_cell_formula_units_Z 12
_cell_length_a 9.324823
_cell_length_b 11.211175
_cell_length_c 11.465197
_cell_angle_alpha 138.013999
_cell_angle_beta 139.780480
_cell_angle_gamma 52.254895
_cell_volume 514.972476
_symmetry_space_group_name_H-M "P -1"
_symmetry_group_IT_number 2
_symmetry_cell_setting 'triclinic'
loop_
_space_group_symop_operation_xyz
x,y,z
-x,-y,-z
loop_
_atom_site_type_symbol
_atom_site_label
_atom_site_fract_x
_atom_site_fract_y
_atom_site_fract_z
Si Si1 0.742413 0.155351 0.866456
Si Si2 0.122265 0.255970 0.330156
Si Si3 0.818944 0.631199 0.050769
Si Si4 0.770916 0.739777 0.348368
Si Si5 0.504017 0.428540 0.579865
Si Si6 0.869509 0.134658 0.671944
O O1 0.491505 0.245482 0.778037
O O2 0.851449 0.195805 0.840088
O O3 0.741836 0.942004 0.727915
O O4 0.877234 0.244738 0.117258
O O5 0.100355 0.329906 0.504083
O O6 0.257632 0.386247 0.432220
O O7 0.828530 0.604763 0.178144
O O8 0.884984 0.828021 0.197344
O O9 0.576587 0.587879 0.824576
O O10 0.000000 0.500000 0.000000
O O11 0.849193 0.927191 0.492490
O O12 0.500000 0.500000 0.500000
O O13 0.675566 0.249592 0.562735
#
# Coordination Sequence:
#
# PCOD8044296 Si02
#       6
#     2   2   2   2   2   2
#     4  10  19  37  69  95 122 157 211 262 306 363
#     4  10  20  37  65  98 124 161 207 256 312 370
#     4  10  24  40  60  88 129 171 200 255 324 367
#     4  11  20  41  67  93 123 161 215 261 299 367
#     4  11  21  39  60  88 132 168 199 251 319 373
#     4  10  19  41  65  89 124 168 205 253 312 369
#
# _framework density 23.302216999999999
#
# number of rings (size 3 to 8) (size 9 to 14) (size 15 to 20)
#    0.000    1.667    3.333    2.500    0.000    0.667 
#    6.000    1.667    0.000    0.000    0.000    0.000 
#    0.000    0.000    0.000    0.000    0.000    0.000 
#
# Total GULP energy -148794.705870 kJ/mol
# GULP energy per Si atom -12399.558822 kJ/mol
# Density = 2.324918 g / cm^3
# Si number density = 23.302217 Si / 1000 Ang^3
#
#
#
# Elastic Constant Matrix: (Units=GPa)
#
#
# Indices 1 2 3 4 5 6 
#
# 1 98.4143 9.7320 66.4954 1.3260 -13.0637 31.5467
# 2 9.7320 46.3901 24.5274 -21.1045 -5.0180 29.1101
# 3 66.4954 24.5274 172.6952 -20.7613 -21.9752 21.3140
# 4 1.3260 -21.1045 -20.7613 29.6493 11.7154 -3.0956
# 5 -13.0637 -5.0180 -21.9752 11.7154 53.1231 -0.3293
# 6 31.5467 29.1101 21.3140 -3.0956 -0.3293 40.4014
#
#
#
# Elastic Compliance Matrix: (Units=1/GPa)
#
#
# Indices 1 2 3 4 5 6 
#
# 1 0.021320 0.014676 -0.006846 0.000878 0.003458 -0.023515
# 2 0.014676 0.086355 -0.003498 0.051886 -0.001544 -0.067872
# 3 -0.006846 -0.003498 0.009121 0.004221 0.000849 0.003384
# 4 0.000878 0.051886 0.004221 0.073751 -0.009617 -0.034725
# 5 0.003458 -0.001544 0.000849 -0.009617 0.021985 -0.002593
# 6 -0.023515 -0.067872 0.003384 -0.034725 -0.002593 0.087549
#
#
# Mechanical properties :
#
#
# Convention : Reuss Voigt Hill
#
# Bulk Modulus (GPa) = 7.97059 57.66768 32.81914
# Shear Modulus (GPa) = 15.00436 39.08440 27.04438
#
# Velocity S-wave (km/s) = 2.54028 4.09991 3.41044
# Velocity P-wave (km/s) = 3.46871 6.87123 5.44269
#
# Compressibility (1/GPa) = 0.12546120
#
# Stress axis : x y z
#
# Youngs Moduli (GPa) = 46.90371 11.58014 109.63507
#
# Poissons Ratio (x) = -0.16995 0.75055
# Poissons Ratio (y) = -0.68836 0.38347
# Poissons Ratio (z) = 0.32110 0.04050
#
# Static dielectric constant tensor:
#      x y z
#    x 4.274670 0.532400 0.282500 
#    y 0.532400 4.181230 0.296980 
#    z 0.282500 0.296980 4.787860 
# 
# 
# High freq. dielectric constant tensor:
#      x y z
#    x 1.918140 0.032690 0.004370 
#    y 0.032690 1.904250 0.006310 
#    z 0.004370 0.006310 1.940660 
# 
# From -- ./inp_files/160355.got.cif
#   From: 2010.06.25/outbox.cif.g09.slc.cpg/sg2_81_cif.got.tgz:160355.got - 2010.06.27 13:26:56.
