data_PCOD8044541
_publ_section_title
;
Structure prediction by ZEFSAII (Michael W. Deem and Ramdas Pophale) SiO2 
 PCOD8044541
Probable space group: P -1
;
_chemical_formula_sum "Si O2"
_cell_formula_units_Z 16
_cell_length_a 9.614825
_cell_length_b 9.532953
_cell_length_c 15.946881
_cell_angle_alpha 48.399647
_cell_angle_beta 121.771506
_cell_angle_gamma 135.955737
_cell_volume 756.455876
_symmetry_space_group_name_H-M "P -1"
_symmetry_group_IT_number 2
_symmetry_cell_setting 'triclinic'
loop_
_space_group_symop_operation_xyz
x,y,z
-x,-y,-z
loop_
_atom_site_type_symbol
_atom_site_label
_atom_site_fract_x
_atom_site_fract_y
_atom_site_fract_z
Si Si1 0.002355 0.573064 0.565937
Si Si2 0.609073 0.260731 0.656290
Si Si3 0.831905 0.696468 0.241830
Si Si4 0.455557 0.624623 0.094481
Si Si5 0.729384 0.018464 0.916899
Si Si6 0.620260 0.946947 0.495556
Si Si7 0.888248 0.814300 0.934266
Si Si8 0.487826 0.448379 0.682994
O O1 0.088050 0.455774 0.693756
O O2 0.000000 0.500000 0.500000
O O3 0.784625 0.477819 0.571792
O O4 0.144775 0.847131 0.510853
O O5 0.692569 0.159245 0.784636
O O6 0.458259 0.069820 0.617082
O O7 0.496751 0.347349 0.638246
O O8 0.645216 0.606074 0.154305
O O9 0.745332 0.659033 0.324954
O O10 0.008657 0.965700 0.181854
O O11 0.252467 0.419338 0.069063
O O12 0.415980 0.618695 0.185030
O O13 0.537017 0.869419 0.978158
O O14 0.753090 0.835378 0.949657
O O15 0.937912 0.195270 0.962680
O O16 0.607833 0.723227 0.607838
O O17 0.500000 0.000000 0.500000
#
# Coordination Sequence:
#
# PCOD8044541 Si02
#       8
#     2   2   2   2   2   2   2   2
#     4  12  24  39  66  99 122 166 222 268 314 385
#     4  12  26  44  65  98 138 167 214 276 320 392
#     4   9  20  38  62  90 125 167 213 252 321 374
#     4   9  21  39  64  93 129 172 214 258 322 384
#     4  10  22  36  64  97 128 168 218 266 324 366
#     4  12  24  44  71  96 124 177 218 267 327 382
#     4  10  19  38  62  94 127 170 213 275 303 379
#     4  10  24  45  64  96 139 169 212 265 331 386
#
# _framework density 21.151266
#
# number of rings (size 3 to 8) (size 9 to 14) (size 15 to 20)
#    0.750    0.750    3.750    0.750    5.250    2.000 
#    2.250    0.625    0.000    0.000    0.000    0.000 
#    0.000    0.000    0.000    0.000    0.000    0.000 
#
# Total GULP energy -198299.174989 kJ/mol
# GULP energy per Si atom -12393.698437 kJ/mol
# Density = 2.110312 g / cm^3
# Si number density = 21.151266 Si / 1000 Ang^3
#
#
#
# Elastic Constant Matrix: (Units=GPa)
#
#
# Indices 1 2 3 4 5 6 
#
# 1 79.3777 39.9455 17.7905 -2.1749 -21.2687 -8.1961
# 2 39.9455 118.0382 24.2481 3.5007 -13.7558 5.5550
# 3 17.7905 24.2481 93.3766 -8.3859 -22.5787 -1.6498
# 4 -2.1749 3.5007 -8.3859 27.3335 1.9483 -8.6480
# 5 -21.2687 -13.7558 -22.5787 1.9483 25.2335 -0.0066
# 6 -8.1961 5.5550 -1.6498 -8.6480 -0.0066 34.0318
#
#
#
# Elastic Compliance Matrix: (Units=1/GPa)
#
#
# Indices 1 2 3 4 5 6 
#
# 1 0.019944 -0.005819 0.001805 0.003990 0.014947 0.006858
# 2 -0.005819 0.011178 -0.002380 -0.003954 -0.000637 -0.004346
# 3 0.001805 -0.002380 0.014591 0.004883 0.012904 0.002774
# 4 0.003990 -0.003954 0.004883 0.042766 0.002278 0.012711
# 5 0.014947 -0.000637 0.012904 0.002278 0.063253 0.004920
# 6 0.006858 -0.004346 0.002774 0.012711 0.004920 0.035111
#
#
# Mechanical properties :
#
#
# Convention : Reuss Voigt Hill
#
# Bulk Modulus (GPa) = 30.37225 50.52896 40.45061
# Shear Modulus (GPa) = 23.74097 31.24032 27.49065
#
# Velocity S-wave (km/s) = 3.35391 3.84734 3.60907
# Velocity P-wave (km/s) = 5.42117 6.60887 6.04426
#
# Compressibility (1/GPa) = 0.03292479
#
# Stress axis : x y z
#
# Youngs Moduli (GPa) = 50.13969 89.46415 68.53496
#
# Poissons Ratio (x) = 0.52062 -0.12371
# Poissons Ratio (y) = 0.29178 0.16310
# Poissons Ratio (z) = -0.09050 0.21291
#
# Static dielectric constant tensor:
#      x y z
#    x 3.865020 0.100070 -0.216410 
#    y 0.100070 3.580540 0.031300 
#    z -0.216410 0.031300 4.097130 
# 
# 
# High freq. dielectric constant tensor:
#      x y z
#    x 1.814780 0.015180 -0.019800 
#    y 0.015180 1.805700 0.005190 
#    z -0.019800 0.005190 1.847710 
# 
# From -- ./inp_files/565757.got.cif
#   From: 2010.06.25/outbox.cif.g09.slc.cpg/sg2_283_cif.got.tgz:565757.got - 2010.06.27 13:26:56.
