data_PCOD8044410
_publ_section_title
;
Structure prediction by ZEFSAII (Michael W. Deem and Ramdas Pophale) SiO2 
 PCOD8044410
Probable space group: P -1
;
_chemical_formula_sum "Si O2"
_cell_formula_units_Z 16
_cell_length_a 9.718582
_cell_length_b 19.132098
_cell_length_c 9.536087
_cell_angle_alpha 54.135129
_cell_angle_beta 137.765699
_cell_angle_gamma 140.934856
_cell_volume 750.836165
_symmetry_space_group_name_H-M "P -1"
_symmetry_group_IT_number 2
_symmetry_cell_setting 'triclinic'
loop_
_space_group_symop_operation_xyz
x,y,z
-x,-y,-z
loop_
_atom_site_type_symbol
_atom_site_label
_atom_site_fract_x
_atom_site_fract_y
_atom_site_fract_z
Si Si1 0.541702 0.747914 0.163673
Si Si2 0.958098 0.739834 0.152691
Si Si3 0.961305 0.165251 0.417830
Si Si4 0.979444 0.659721 0.542402
Si Si5 0.488560 0.059743 0.550831
Si Si6 0.013522 0.690768 0.950850
Si Si7 0.553889 0.778722 0.825874
Si Si8 0.248841 0.505247 0.200300
O O1 0.780751 0.822258 0.364199
O O2 0.507273 0.634582 0.240021
O O3 0.284721 0.718813 0.074201
O O4 0.618192 0.814236 0.997199
O O5 0.864903 0.654218 0.310916
O O6 0.230062 0.859246 0.256545
O O7 0.999047 0.690377 0.107001
O O8 0.730902 0.748049 0.937618
O O9 0.919723 0.228887 0.428501
O O10 0.995485 0.215550 0.230846
O O11 0.716578 0.034660 0.381864
O O12 0.243747 0.671758 0.708016
O O13 0.761558 0.547333 0.595231
O O14 0.383904 0.123602 0.340658
O O15 0.500000 0.000000 0.500000
O O16 0.766299 0.569588 0.847563
O O17 0.000000 0.500000 0.000000
#
# Coordination Sequence:
#
# PCOD8044410 Si02
#       8
#     2   2   2   2   2   2   2   2
#     4  11  20  39  68  87 114 164 208 239 302 357
#     4  11  24  39  59  90 130 159 191 251 317 342
#     4  11  21  38  62  90 114 156 211 245 291 360
#     4  10  19  38  60  88 124 151 203 252 284 366
#     4  11  21  39  62  91 120 157 208 251 291 358
#     4  10  23  41  58  90 131 151 195 261 298 354
#     4  11  20  37  63  89 119 157 204 246 291 368
#     4   9  18  38  68  87 116 161 205 245 297 355
#
# _framework density 21.309577000000001
#
# number of rings (size 3 to 8) (size 9 to 14) (size 15 to 20)
#    0.000    1.500    7.500    0.000    0.000    7.500 
#    0.000    4.375    0.000    0.000    0.000    0.000 
#    0.000    0.000    0.000    0.000    0.000    0.000 
#
# Total GULP energy -198392.375339 kJ/mol
# GULP energy per Si atom -12399.523459 kJ/mol
# Density = 2.126107 g / cm^3
# Si number density = 21.309577 Si / 1000 Ang^3
#
#
#
# Elastic Constant Matrix: (Units=GPa)
#
#
# Indices 1 2 3 4 5 6 
#
# 1 82.2147 11.2503 26.9925 0.7546 -12.2785 -4.2246
# 2 11.2503 84.5702 22.3272 -1.3194 -6.3319 8.3186
# 3 26.9925 22.3272 92.2367 -12.3796 -2.4094 -0.0605
# 4 0.7546 -1.3194 -12.3796 33.2392 5.2302 0.3462
# 5 -12.2785 -6.3319 -2.4094 5.2302 40.3646 2.2556
# 6 -4.2246 8.3186 -0.0605 0.3462 2.2556 17.7968
#
#
#
# Elastic Compliance Matrix: (Units=1/GPa)
#
#
# Indices 1 2 3 4 5 6 
#
# 1 0.014507 -0.000857 -0.004282 -0.002651 0.004179 0.003352
# 2 -0.000857 0.013577 -0.003100 -0.000868 0.002177 -0.006819
# 3 -0.004282 -0.003100 0.013508 0.005266 -0.001698 0.000591
# 4 -0.002651 -0.000868 0.005266 0.032841 -0.004871 -0.000227
# 5 0.004179 0.002177 -0.001698 -0.004871 0.027105 -0.003372
# 6 0.003352 -0.006819 0.000591 -0.000227 -0.003372 0.060607
#
#
# Mechanical properties :
#
#
# Convention : Reuss Voigt Hill
#
# Bulk Modulus (GPa) = 39.81917 42.24019 41.02968
# Shear Modulus (GPa) = 26.73864 31.51024 29.12444
#
# Velocity S-wave (km/s) = 3.54612 3.84954 3.70094
# Velocity P-wave (km/s) = 5.95762 6.29475 6.12850
#
# Compressibility (1/GPa) = 0.02511353
#
# Stress axis : x y z
#
# Youngs Moduli (GPa) = 68.93102 73.65306 74.03021
#
# Poissons Ratio (x) = 0.06316 0.31702
# Poissons Ratio (y) = 0.05911 0.22947
# Poissons Ratio (z) = 0.29518 0.22830
#
# Static dielectric constant tensor:
#      x y z
#    x 3.566820 0.094430 0.164550 
#    y 0.094430 4.406470 -0.184190 
#    z 0.164550 -0.184190 4.104480 
# 
# 
# High freq. dielectric constant tensor:
#      x y z
#    x 1.806840 0.021520 0.017850 
#    y 0.021520 1.822880 -0.011250 
#    z 0.017850 -0.011250 1.853200 
# 
# From -- ./inp_files/223516.got.cif
#   From: 2010.06.25/outbox.cif.g09.slc.cpg/sg2_112_cif.got.tgz:223516.got - 2010.06.27 13:26:56.
