data_PCOD8044152
_publ_section_title
;
Structure prediction by ZEFSAII (Michael W. Deem and Ramdas Pophale) SiO2 
 PCOD8044152
Probable space group: P -1
;
_chemical_formula_sum "Si O2"
_cell_formula_units_Z 16
_cell_length_a 9.479272
_cell_length_b 5.754963
_cell_length_c 19.345895
_cell_angle_alpha 75.754822
_cell_angle_beta 73.920578
_cell_angle_gamma 48.076625
_cell_volume 751.766650
_symmetry_space_group_name_H-M "P -1"
_symmetry_group_IT_number 2
_symmetry_cell_setting 'triclinic'
loop_
_space_group_symop_operation_xyz
x,y,z
-x,-y,-z
loop_
_atom_site_type_symbol
_atom_site_label
_atom_site_fract_x
_atom_site_fract_y
_atom_site_fract_z
Si Si1 0.458957 0.306003 0.060842
Si Si2 0.267621 0.778919 0.159846
Si Si3 0.743382 0.412850 0.619328
Si Si4 0.618581 0.915987 0.329863
Si Si5 0.030959 0.675040 0.280172
Si Si6 0.605363 0.648828 0.482515
Si Si7 0.337611 0.970776 0.267475
Si Si8 0.204602 0.231785 0.022409
O O1 0.414089 0.416549 0.139082
O O2 0.268211 0.383302 0.050977
O O3 0.500000 0.500000 0.000000
O O4 0.646122 0.943066 0.049815
O O5 0.084009 0.862546 0.218306
O O6 0.386459 0.809577 0.197362
O O7 0.195545 0.002446 0.087135
O O8 0.914653 0.356135 0.643494
O O9 0.775699 0.419557 0.532164
O O10 0.731923 0.144931 0.657081
O O11 0.536802 0.739223 0.643605
O O12 0.678980 0.644435 0.396663
O O13 0.531035 0.892326 0.274194
O O14 0.806938 0.864962 0.287387
O O15 0.157456 0.334010 0.254280
O O16 0.500000 0.500000 0.500000
O O17 0.500000 0.000000 0.500000
O O18 0.000000 0.500000 0.000000
#
# Coordination Sequence:
#
# PCOD8044152 Si02
#       8
#     2   2   2   2   2   2   2   2
#     4   9  20  40  63  88 119 153 191 241 301 364
#     4  10  21  40  59  84 127 159 197 246 311 371
#     4   9  20  38  60  83 123 162 208 267 323 366
#     4  10  21  38  62  86 123 164 214 259 320 374
#     4  10  22  39  57  88 122 164 210 259 308 378
#     4  10  19  37  64  93 126 170 222 276 333 391
#     4  10  20  39  59  82 122 164 203 259 307 370
#     4  10  21  41  66  91 119 153 195 251 301 363
#
# _framework density 21.283203
#
# number of rings (size 3 to 8) (size 9 to 14) (size 15 to 20)
#    0.000    2.250    1.250    0.750    0.000    4.500 
#    0.000   30.625    0.000    0.000    0.000    0.000 
#    0.000    0.000    0.000    0.000    0.000    0.000 
#
# Total GULP energy -198258.511277 kJ/mol
# GULP energy per Si atom -12391.156955 kJ/mol
# Density = 2.123476 g / cm^3
# Si number density = 21.283203 Si / 1000 Ang^3
#
#
#
# Elastic Constant Matrix: (Units=GPa)
#
#
# Indices 1 2 3 4 5 6 
#
# 1 136.6650 53.7262 35.0103 9.2357 8.1706 -9.0808
# 2 53.7262 61.3075 27.9458 -4.2400 15.0895 -1.6640
# 3 35.0103 27.9458 91.1949 -2.9999 8.6565 -8.3499
# 4 9.2357 -4.2400 -2.9999 28.0748 8.5461 1.3600
# 5 8.1706 15.0895 8.6565 8.5461 31.9868 -2.0414
# 6 -9.0808 -1.6640 -8.3499 1.3600 -2.0414 38.6459
#
#
#
# Elastic Compliance Matrix: (Units=1/GPa)
#
#
# Indices 1 2 3 4 5 6 
#
# 1 0.013076 -0.012483 -0.001721 -0.008136 0.005362 0.002733
# 2 -0.012483 0.033723 -0.003950 0.013684 -0.015539 -0.003637
# 3 -0.001721 -0.003950 0.013245 0.001774 -0.001619 0.002139
# 4 -0.008136 0.013684 0.001774 0.046008 -0.017371 -0.003476
# 5 0.005362 -0.015539 -0.001619 -0.017371 0.042501 0.003098
# 6 0.002733 -0.003637 0.002139 -0.003476 0.003098 0.027110
#
#
# Mechanical properties :
#
#
# Convention : Reuss Voigt Hill
#
# Bulk Modulus (GPa) = 42.12955 58.05913 50.09434
# Shear Modulus (GPa) = 22.73949 31.24052 26.99001
#
# Velocity S-wave (km/s) = 3.27222 3.83541 3.56495
# Velocity P-wave (km/s) = 5.84074 6.85218 6.36658
#
# Compressibility (1/GPa) = 0.02373631
#
# Stress axis : x y z
#
# Youngs Moduli (GPa) = 76.47487 29.65319 75.50272
#
# Poissons Ratio (x) = 0.37016 0.12995
# Poissons Ratio (y) = 0.95463 0.29821
# Poissons Ratio (z) = 0.13163 0.11712
#
# Static dielectric constant tensor:
#      x y z
#    x 3.847430 0.410660 0.129650 
#    y 0.410660 3.921800 0.087430 
#    z 0.129650 0.087430 4.334830 
# 
# 
# High freq. dielectric constant tensor:
#      x y z
#    x 1.832020 0.031980 0.008110 
#    y 0.031980 1.817850 -0.007650 
#    z 0.008110 -0.007650 1.839710 
# 
# From -- ./inp_files/12769.got.cif
#   From: 2010.06.25/outbox.cif.g09.slc.cpg/sg2_7_cif.got.tgz:12769.got - 2010.06.27 13:26:56.
