data_PCOD8044193
_publ_section_title
;
Structure prediction by ZEFSAII (Michael W. Deem and Ramdas Pophale) SiO2 
 PCOD8044193
Probable space group: P -1
;
_chemical_formula_sum "Si O2"
_cell_formula_units_Z 16
_cell_length_a 5.082795
_cell_length_b 27.701780
_cell_length_c 8.402459
_cell_angle_alpha 132.787925
_cell_angle_beta 88.697683
_cell_angle_gamma 70.211798
_cell_volume 760.300318
_symmetry_space_group_name_H-M "P -1"
_symmetry_group_IT_number 2
_symmetry_cell_setting 'triclinic'
loop_
_space_group_symop_operation_xyz
x,y,z
-x,-y,-z
loop_
_atom_site_type_symbol
_atom_site_label
_atom_site_fract_x
_atom_site_fract_y
_atom_site_fract_z
Si Si1 0.726269 0.664718 0.243724
Si Si2 0.243368 0.138220 0.537760
Si Si3 0.121116 0.916812 0.751899
Si Si4 0.638585 0.411873 0.805287
Si Si5 0.311850 0.801929 0.754086
Si Si6 0.334417 0.729823 0.096761
Si Si7 0.453943 0.184199 0.913066
Si Si8 0.853196 0.304631 0.286928
O O1 0.618849 0.608164 0.189141
O O2 0.606312 0.739933 0.519045
O O3 0.609074 0.682498 0.104304
O O4 0.088039 0.623695 0.150902
O O5 0.532771 0.117446 0.379216
O O6 0.335340 0.131872 0.711485
O O7 0.104680 0.082880 0.380787
O O8 0.990740 0.227056 0.710397
O O9 0.094704 0.864853 0.774562
O O10 0.000000 0.000000 0.000000
O O11 0.757899 0.380570 0.555964
O O12 0.500000 0.500000 0.000000
O O13 0.152766 0.759329 0.743916
O O14 0.385548 0.848005 0.992345
O O15 0.342113 0.803397 0.192274
O O16 0.347975 0.677495 0.830964
O O17 0.194694 0.269371 0.145831
#
# Coordination Sequence:
#
# PCOD8044193 Si02
#       8
#     2   2   2   2   2   2   2   2
#     4  11  22  38  66  90 117 163 213 252 299 362
#     4  11  22  41  62  88 124 158 202 255 310 357
#     4  12  26  42  63  92 130 163 200 255 313 370
#     4  11  24  42  60  91 131 165 200 251 314 369
#     4  10  21  37  62  95 117 158 214 251 302 365
#     4  10  21  37  66  96 119 154 215 266 298 351
#     4  10  19  37  65  91 123 151 211 265 299 351
#     4   9  21  36  63  91 123 161 203 262 304 361
#
# _framework density 21.044312999999999
#
# number of rings (size 3 to 8) (size 9 to 14) (size 15 to 20)
#    0.000    1.500    3.750    0.750    7.000    0.000 
#    0.000    2.500    0.000    0.000    0.000    0.000 
#    0.000    0.000    0.000    0.000    0.000    0.000 
#
# Total GULP energy -198283.634991 kJ/mol
# GULP energy per Si atom -12392.727187 kJ/mol
# Density = 2.099642 g / cm^3
# Si number density = 21.044313 Si / 1000 Ang^3
#
#
#
# Elastic Constant Matrix: (Units=GPa)
#
#
# Indices 1 2 3 4 5 6 
#
# 1 81.3837 17.2237 38.4299 -7.6273 6.5084 -17.0297
# 2 17.2237 71.3694 54.1217 -5.1009 2.4006 -7.7855
# 3 38.4299 54.1217 146.2508 -5.4095 17.0894 -6.8407
# 4 -7.6273 -5.1009 -5.4095 28.1197 -1.6537 3.3433
# 5 6.5084 2.4006 17.0894 -1.6537 32.5888 -3.4941
# 6 -17.0297 -7.7855 -6.8407 3.3433 -3.4941 21.7224
#
#
#
# Elastic Compliance Matrix: (Units=1/GPa)
#
#
# Indices 1 2 3 4 5 6 
#
# 1 0.016712 0.000366 -0.003898 0.002470 0.000052 0.011634
# 2 0.000366 0.020358 -0.007674 0.001860 0.003123 0.005383
# 3 -0.003898 -0.007674 0.011114 -0.000233 -0.004823 -0.003046
# 4 0.002470 0.001860 -0.000233 0.036942 0.001046 -0.002988
# 5 0.000052 0.003123 -0.004823 0.001046 0.033550 0.004877
# 6 0.011634 0.005383 -0.003046 -0.002988 0.004877 0.057370
#
#
# Mechanical properties :
#
#
# Convention : Reuss Voigt Hill
#
# Bulk Modulus (GPa) = 38.79998 57.61716 48.20857
# Shear Modulus (GPa) = 24.14896 29.10142 26.62519
#
# Velocity S-wave (km/s) = 3.39119 3.72272 3.56082
# Velocity P-wave (km/s) = 5.81471 6.77618 6.31378
#
# Compressibility (1/GPa) = 0.02577321
#
# Stress axis : x y z
#
# Youngs Moduli (GPa) = 59.83688 49.12089 89.97550
#
# Poissons Ratio (x) = -0.01799 0.35068
# Poissons Ratio (y) = -0.02192 0.69050
# Poissons Ratio (z) = 0.23321 0.37697
#
# Static dielectric constant tensor:
#      x y z
#    x 3.956820 -0.129540 0.074860 
#    y -0.129540 3.558460 -0.454030 
#    z 0.074860 -0.454030 3.927020 
# 
# 
# High freq. dielectric constant tensor:
#      x y z
#    x 1.839430 -0.013050 0.004790 
#    y -0.013050 1.786460 -0.040580 
#    z 0.004790 -0.040580 1.818900 
# 
# From -- ./inp_files/53949.got.cif
#   From: 2010.06.25/outbox.cif.g09.slc.cpg/sg2_27_cif.got.tgz:53949.got - 2010.06.27 13:26:56.
