data_PCOD8044753
_publ_section_title
;
Structure prediction by ZEFSAII (Michael W. Deem and Ramdas Pophale) SiO2 
 PCOD8044753
Probable space group: P -1
;
_chemical_formula_sum "Si O2"
_cell_formula_units_Z 14
_cell_length_a 9.394689
_cell_length_b 8.801011
_cell_length_c 12.547556
_cell_angle_alpha 133.699508
_cell_angle_beta 81.624759
_cell_angle_gamma 105.531245
_cell_volume 721.518425
_symmetry_space_group_name_H-M "P -1"
_symmetry_group_IT_number 2
_symmetry_cell_setting 'triclinic'
loop_
_space_group_symop_operation_xyz
x,y,z
-x,-y,-z
loop_
_atom_site_type_symbol
_atom_site_label
_atom_site_fract_x
_atom_site_fract_y
_atom_site_fract_z
Si Si1 0.308423 0.985213 0.711996
Si Si2 0.054256 0.673616 0.486144
Si Si3 0.136738 0.002198 0.297373
Si Si4 0.937244 0.890747 0.064678
Si Si5 0.548292 0.731849 0.560968
Si Si6 0.501525 0.762621 0.347069
Si Si7 0.171969 0.586902 0.221379
O O1 0.219957 0.808030 0.553953
O O2 0.441701 0.882766 0.685569
O O3 0.201551 0.015684 0.835116
O O4 0.376977 0.210164 0.749146
O O5 0.063544 0.544649 0.314589
O O6 0.000000 0.500000 0.500000
O O7 0.956605 0.847588 0.561865
O O8 0.135534 0.783940 0.255220
O O9 0.072509 0.944840 0.158699
O O10 0.299774 0.148049 0.344026
O O11 0.874454 0.633988 0.945558
O O12 0.000000 0.000000 0.000000
O O13 0.500000 0.500000 0.500000
O O14 0.555971 0.671077 0.404868
O O15 0.344470 0.628907 0.255018
O O16 0.500000 0.000000 0.500000
#
# Coordination Sequence:
#
# PCOD8044753 Si02
#       7
#     2   2   2   2   2   2   2
#     4  10  20  43  61  90 125 164 205 251 317 376
#     4  11  21  36  66  94 126 165 206 257 317 362
#     4  11  23  40  62  97 123 160 216 259 306 372
#     4  11  27  43  64  86 132 171 206 254 323 377
#     4  11  21  37  68  98 125 153 211 265 308 367
#     4  10  19  38  66  92 122 159 203 261 315 355
#     4  12  21  41  66  90 127 166 215 255 306 381
#
# _framework density 19.403524000000001
#
# number of rings (size 3 to 8) (size 9 to 14) (size 15 to 20)
#    0.000    1.143    5.714    3.429    2.000    1.714 
#    0.000    2.143    0.000    0.000    0.000    0.000 
#    0.000    0.000    0.000    0.000    0.000    0.000 
#
# Total GULP energy -173490.632480 kJ/mol
# GULP energy per Si atom -12392.188034 kJ/mol
# Density = 1.935936 g / cm^3
# Si number density = 19.403524 Si / 1000 Ang^3
#
#
#
# Elastic Constant Matrix: (Units=GPa)
#
#
# Indices 1 2 3 4 5 6 
#
# 1 -30.5288 1.1830 61.9450 0.5695 120.8443 78.8600
# 2 1.1830 138.6956 45.7861 -9.0203 34.4240 29.0834
# 3 61.9450 45.7861 94.8064 -5.5707 4.2015 4.7001
# 4 0.5695 -9.0203 -5.5707 39.5868 4.1770 -2.7237
# 5 120.8443 34.4240 4.2015 4.1770 -29.1995 -39.2543
# 6 78.8600 29.0834 4.7001 -2.7237 -39.2543 -0.0618
#
#
#
# Elastic Compliance Matrix: (Units=1/GPa)
#
#
# Indices 1 2 3 4 5 6 
#
# 1 0.004312 -0.002241 -0.002399 -0.001223 0.006791 0.005871
# 2 -0.002241 0.007987 -0.002321 0.001362 0.001045 -0.000775
# 3 -0.002399 -0.002321 0.013758 0.001691 -0.005003 -0.004047
# 4 -0.001223 0.001362 0.001691 0.026337 -0.003077 0.002702
# 5 0.006791 0.001045 -0.005003 -0.003077 0.014054 -0.014971
# 6 0.005871 -0.000775 -0.004047 0.002702 -0.014971 0.028385
#
#
# Mechanical properties :
#
#
# Convention : Reuss Voigt Hill
#
# Bulk Modulus (GPa) = 82.40498 46.75570 64.58034
# Shear Modulus (GPa) = 44.32613 8.33569 26.33091
#
# Velocity S-wave (km/s) = 4.78476 2.07492 3.68777
# Velocity P-wave (km/s) = 8.54907 5.46710 7.17551
#
# Compressibility (1/GPa) = 0.01213519
#
# Stress axis : x y z
#
# Youngs Moduli (GPa) = 231.91495 125.20133 72.68556
#
# Poissons Ratio (x) = 0.28056 0.17437
# Poissons Ratio (y) = 0.51969 0.16871
# Poissons Ratio (z) = 0.55636 0.29060
#
# Static dielectric constant tensor:
#      x y z
#    x 3.705650 0.340770 -0.055910 
#    y 0.340770 3.413080 0.229890 
#    z -0.055910 0.229890 3.274430 
# 
# 
# High freq. dielectric constant tensor:
#      x y z
#    x 1.762310 0.010930 0.008210 
#    y 0.010930 1.769190 0.000090 
#    z 0.008210 0.000090 1.742180 
# 
# From -- ./inp_files/153964.got.cif
#   From: 2010.06.25/outbox.cif.g09.slc.cpg/sg2_77_cif.got.tgz:153964.got - 2010.06.27 13:26:56.
