data_PCOD8044861
_publ_section_title
;
Structure prediction by ZEFSAII (Michael W. Deem and Ramdas Pophale) SiO2 
 PCOD8044861
Probable space group: P 2
;
_chemical_formula_sum "Si O2"
_cell_formula_units_Z 12
_cell_length_a 5.381227
_cell_length_b 13.752494
_cell_length_c 6.075219
_cell_angle_alpha 90.000000
_cell_angle_beta 102.310480
_cell_angle_gamma 90.000000
_cell_volume 439.260558
_symmetry_space_group_name_H-M "P 2"
_symmetry_group_IT_number 3
_symmetry_cell_setting 'monoclinic'
loop_
_space_group_symop_operation_xyz
x,y,z
-x,y,-z
loop_
_atom_site_type_symbol
_atom_site_label
_atom_site_fract_x
_atom_site_fract_y
_atom_site_fract_z
Si Si1 0.097505 0.250000 0.262473
Si Si2 0.284335 0.541097 0.642117
Si Si3 0.711890 0.033760 0.733047
Si Si4 0.410081 0.334414 0.753416
Si Si5 0.715735 0.751108 0.355780
Si Si6 0.784905 0.954852 0.231714
O O1 0.207502 0.142654 0.304833
O O2 0.337300 0.324896 0.358892
O O3 0.841302 0.270065 0.367103
O O4 0.000000 0.274533 0.000000
O O5 0.500000 0.538533 0.500000
O O6 0.331233 0.445476 0.796787
O O7 0.316889 0.645851 0.772914
O O8 0.000000 0.533518 0.500000
O O9 0.405479 0.012344 0.630824
O O10 0.913633 0.961471 0.645931
O O11 0.746318 0.011154 0.997276
O O12 0.500000 0.285964 0.000000
O O13 0.500000 0.763211 0.500000
O O14 0.693883 0.842904 0.186992
O O15 0.000000 0.753807 0.500000
#
# Coordination Sequence:
#
# PCOD8044861 Si02
#       6
#     2   2   2   2   2   2
#     4  10  18  32  55  83 111 144 187 220 291 344
#     4  10  21  40  63  81 114 159 193 227 294 358
#     4  10  19  32  55  86 107 149 175 232 286 334
#     4  10  21  34  58  90 112 146 188 249 280 329
#     4  10  21  38  59  80 108 154 194 229 279 342
#     4  10  19  32  55  82 109 140 193 225 274 336
#
# _framework density 27.318639000000001
#
# number of rings (size 3 to 8) (size 9 to 14) (size 15 to 20)
#    0.000    2.000    1.667    3.000    4.667    0.000 
#    3.000    0.000    7.333   20.000    0.000    0.000 
#    0.000    0.000    0.000    0.000    0.000    0.000 
#
# Total GULP energy -148735.788251 kJ/mol
# GULP energy per Si atom -12394.649021 kJ/mol
# Density = 2.725646 g / cm^3
# Si number density = 27.318639 Si / 1000 Ang^3
#
#
#
# Elastic Constant Matrix: (Units=GPa)
#
#
# Indices 1 2 3 4 5 6 
#
# 1 297.6244 85.9021 78.9207 0.0000 6.5716 0.0000
# 2 85.9021 254.5446 27.6075 0.0000 3.9914 0.0000
# 3 78.9207 27.6075 80.5236 0.0000 4.7215 0.0000
# 4 0.0000 0.0000 0.0000 7.4286 0.0000 -4.6215
# 5 6.5716 3.9914 4.7215 0.0000 47.2099 0.0000
# 6 0.0000 0.0000 0.0000 -4.6215 0.0000 51.1831
#
#
#
# Elastic Compliance Matrix: (Units=1/GPa)
#
#
# Indices 1 2 3 4 5 6 
#
# 1 0.004852 -0.001164 -0.004348 0.000000 -0.000142 0.000000
# 2 -0.001164 0.004361 -0.000345 0.000000 -0.000172 0.000000
# 3 -0.004348 -0.000345 0.016860 0.000000 -0.001052 0.000000
# 4 0.000000 0.000000 0.000000 0.142626 0.000000 0.012878
# 5 -0.000142 -0.000172 -0.001052 0.000000 0.021322 0.000000
# 6 0.000000 0.000000 0.000000 0.012878 0.000000 0.020701
#
#
# Mechanical properties :
#
#
# Convention : Reuss Voigt Hill
#
# Bulk Modulus (GPa) = 69.63521 113.06146 91.34834
# Shear Modulus (GPa) = 22.00502 50.51515 36.26009
#
# Velocity S-wave (km/s) = 2.84120 4.30479 3.64717
# Velocity P-wave (km/s) = 6.02566 8.13538 7.15866
#
# Compressibility (1/GPa) = 0.01436055
#
# Stress axis : x y z
#
# Youngs Moduli (GPa) = 206.10567 229.28656 59.31169
#
# Poissons Ratio (x) = 0.26679 0.25789
# Poissons Ratio (y) = 0.23982 0.02045
# Poissons Ratio (z) = 0.89615 0.07905
#
# Static dielectric constant tensor:
#      x y z
#    x 8.374280 0.000000 0.749540 
#    y 0.000000 5.393700 0.000000 
#    z 0.749540 0.000000 5.352870 
# 
# 
# High freq. dielectric constant tensor:
#      x y z
#    x 2.169690 0.000000 0.007650 
#    y 0.000000 2.092690 0.000000 
#    z 0.007650 0.000000 2.132780 
# 
# From -- ./inp_files/1201.got.cif
#   From: 2010.03.12/outbox.cif.g09.slc.cpg/sg3_1_cif.got.tgz:1201.got - 2010.03.31 09:20:49.
