data_PCOD8044724
_publ_section_title
;
Structure prediction by ZEFSAII (Michael W. Deem and Ramdas Pophale) SiO2 
 PCOD8044724
Probable space group: P -1
;
_chemical_formula_sum "Si O2"
_cell_formula_units_Z 14
_cell_length_a 9.379591
_cell_length_b 13.045852
_cell_length_c 8.570228
_cell_angle_alpha 50.833139
_cell_angle_beta 73.417636
_cell_angle_gamma 55.317605
_cell_volume 664.078776
_symmetry_space_group_name_H-M "P -1"
_symmetry_group_IT_number 2
_symmetry_cell_setting 'triclinic'
loop_
_space_group_symop_operation_xyz
x,y,z
-x,-y,-z
loop_
_atom_site_type_symbol
_atom_site_label
_atom_site_fract_x
_atom_site_fract_y
_atom_site_fract_z
Si Si1 0.049148 0.703057 0.652291
Si Si2 0.806889 0.122982 0.013002
Si Si3 0.223396 0.883504 0.306497
Si Si4 0.683178 0.939084 0.415597
Si Si5 0.039166 0.758144 0.947439
Si Si6 0.118831 0.422765 0.688293
Si Si7 0.557973 0.857905 0.238953
O O1 0.840468 0.820013 0.592911
O O2 0.108137 0.671216 0.844846
O O3 0.161823 0.766551 0.480409
O O4 0.093118 0.545566 0.708043
O O5 0.695420 0.164515 0.849490
O O6 0.807896 0.269189 0.952077
O O7 0.725739 0.068487 0.225433
O O8 0.000000 0.000000 0.000000
O O9 0.388765 0.866859 0.363531
O O10 0.063923 0.056231 0.222482
O O11 0.681908 0.858059 0.334343
O O12 0.500000 0.000000 0.500000
O O13 0.921659 0.702781 0.113266
O O14 0.325787 0.315936 0.698654
O O15 0.000000 0.500000 0.500000
O O16 0.500000 0.000000 0.000000
#
# Coordination Sequence:
#
# PCOD8044724 Si02
#       7
#     2   2   2   2   2   2   2
#     4  12  25  42  66 102 141 180 224 285 354 403
#     4  10  19  38  65  98 131 179 229 276 327 405
#     4  11  22  40  73  97 131 177 240 277 334 408
#     4  12  24  38  67 107 138 170 231 292 335 394
#     4  11  22  40  68  98 134 180 225 277 338 415
#     4  12  25  45  69  97 139 185 225 279 350 413
#     4  12  23  43  70 101 131 177 235 283 329 411
#
# _framework density 21.081837
#
# number of rings (size 3 to 8) (size 9 to 14) (size 15 to 20)
#    0.000    0.571    7.143    3.429    2.000    0.571 
#    0.000    0.000    0.000    2.571    0.000    0.000 
#    0.000    0.000    0.000    0.000    0.000    0.000 
#
# Total GULP energy -173460.580975 kJ/mol
# GULP energy per Si atom -12390.041498 kJ/mol
# Density = 2.103385 g / cm^3
# Si number density = 21.081837 Si / 1000 Ang^3
#
#
#
# Elastic Constant Matrix: (Units=GPa)
#
#
# Indices 1 2 3 4 5 6 
#
# 1 92.3973 29.3637 17.5390 -3.8491 -20.6267 7.0423
# 2 29.3637 100.8103 20.3708 8.1133 0.2531 14.7476
# 3 17.5390 20.3708 57.2358 11.2371 -11.3635 -5.4197
# 4 -3.8491 8.1133 11.2371 27.7682 3.1307 2.2895
# 5 -20.6267 0.2531 -11.3635 3.1307 42.0333 6.7236
# 6 7.0423 14.7476 -5.4197 2.2895 6.7236 46.7093
#
#
#
# Elastic Compliance Matrix: (Units=1/GPa)
#
#
# Indices 1 2 3 4 5 6 
#
# 1 0.014234 -0.003533 -0.002779 0.003613 0.006377 -0.002448
# 2 -0.003533 0.012354 -0.003635 -0.002113 -0.002092 -0.003385
# 3 -0.002779 -0.003635 0.022817 -0.009436 0.004894 0.003972
# 4 0.003613 -0.002113 -0.009436 0.041546 -0.003458 -0.002511
# 5 0.006377 -0.002092 0.004894 -0.003458 0.029114 -0.003754
# 6 -0.002448 -0.003385 0.003972 -0.002511 -0.003754 0.023971
#
#
# Mechanical properties :
#
#
# Convention : Reuss Voigt Hill
#
# Bulk Modulus (GPa) = 33.88668 42.77672 38.33170
# Shear Modulus (GPa) = 28.77394 35.51349 32.14372
#
# Velocity S-wave (km/s) = 3.69842 4.10878 3.90899
# Velocity P-wave (km/s) = 5.86059 6.54556 6.21252
#
# Compressibility (1/GPa) = 0.02951012
#
# Stress axis : x y z
#
# Youngs Moduli (GPa) = 70.25449 80.94694 43.82615
#
# Poissons Ratio (x) = 0.28599 0.12181
# Poissons Ratio (y) = 0.24821 0.15932
# Poissons Ratio (z) = 0.19526 0.29425
#
# Static dielectric constant tensor:
#      x y z
#    x 4.419670 0.524630 0.098830 
#    y 0.524630 3.848800 0.225410 
#    z 0.098830 0.225410 3.852670 
# 
# 
# High freq. dielectric constant tensor:
#      x y z
#    x 1.845040 0.028380 -0.012640 
#    y 0.028380 1.811820 0.018150 
#    z -0.012640 0.018150 1.813980 
# 
# From -- ./inp_files/158494.got.cif
#   From: 2010.06.25/outbox.cif.g09.slc.cpg/sg2_80_cif.got.tgz:158494.got - 2010.06.27 13:26:56.
