data_PCOD8044197
_publ_section_title
;
Structure prediction by ZEFSAII (Michael W. Deem and Ramdas Pophale) SiO2 
 PCOD8044197
Probable space group: P -1
;
_chemical_formula_sum "Si O2"
_cell_formula_units_Z 16
_cell_length_a 12.581048
_cell_length_b 9.505416
_cell_length_c 17.416062
_cell_angle_alpha 103.385015
_cell_angle_beta 132.953412
_cell_angle_gamma 39.065176
_cell_volume 734.021935
_symmetry_space_group_name_H-M "P -1"
_symmetry_group_IT_number 2
_symmetry_cell_setting 'triclinic'
loop_
_space_group_symop_operation_xyz
x,y,z
-x,-y,-z
loop_
_atom_site_type_symbol
_atom_site_label
_atom_site_fract_x
_atom_site_fract_y
_atom_site_fract_z
Si Si1 0.304994 0.465233 0.001125
Si Si2 0.256298 0.225964 0.036857
Si Si3 0.115975 0.181491 0.470726
Si Si4 0.722712 0.110452 0.023722
Si Si5 0.881540 0.685353 0.352236
Si Si6 0.800514 0.076536 0.771233
Si Si7 0.453211 0.485005 0.791475
Si Si8 0.448079 0.211553 0.487647
O O1 0.301040 0.300374 0.999383
O O2 0.446015 0.369507 0.975497
O O3 0.486694 0.397978 0.146148
O O4 0.973387 0.809297 0.874339
O O5 0.559967 0.940200 0.194005
O O6 0.000000 0.500000 0.000000
O O7 0.160111 0.154674 0.947177
O O8 0.138712 0.176919 0.573154
O O9 0.998732 0.433344 0.410712
O O10 0.892502 0.248132 0.344728
O O11 0.433882 0.861913 0.550465
O O12 0.627761 0.235690 0.907048
O O13 0.983359 0.988783 0.164836
O O14 0.104763 0.545781 0.376661
O O15 0.563060 0.356035 0.744121
O O16 0.644032 0.134548 0.631826
O O17 0.500000 0.000000 0.500000
#
# Coordination Sequence:
#
# PCOD8044197 Si02
#       8
#     2   2   2   2   2   2   2   2
#     4  11  24  37  61  94 127 168 207 261 318 376
#     4  12  25  43  61  89 131 170 206 255 323 381
#     4  10  19  37  65  92 122 160 209 265 310 363
#     4  11  22  40  61  92 125 165 215 262 307 376
#     4  10  22  39  60  92 124 164 208 257 312 375
#     4  11  21  38  67  96 121 163 214 264 317 367
#     4  11  19  38  65  94 125 161 214 264 313 370
#     4  10  21  36  63  96 125 156 209 266 311 367
#
# _framework density 21.797713999999999
#
# number of rings (size 3 to 8) (size 9 to 14) (size 15 to 20)
#    0.000    1.250    2.500    6.375    1.750    0.000 
#    2.250    0.625    0.000    1.500    0.000    0.000 
#    0.000    0.000    0.000    0.000    0.000    0.000 
#
# Total GULP energy -198395.318294 kJ/mol
# GULP energy per Si atom -12399.707393 kJ/mol
# Density = 2.174810 g / cm^3
# Si number density = 21.797714 Si / 1000 Ang^3
#
#
#
# Elastic Constant Matrix: (Units=GPa)
#
#
# Indices 1 2 3 4 5 6 
#
# 1 90.8874 37.0968 15.1631 -5.8649 15.7157 -3.5342
# 2 37.0968 108.8525 29.9385 8.1807 9.8291 -12.0534
# 3 15.1631 29.9385 65.7145 1.4824 23.7511 -1.6721
# 4 -5.8649 8.1807 1.4824 29.3053 -3.9336 15.2239
# 5 15.7157 9.8291 23.7511 -3.9336 27.9930 -1.7400
# 6 -3.5342 -12.0534 -1.6721 15.2239 -1.7400 55.5447
#
#
#
# Elastic Compliance Matrix: (Units=1/GPa)
#
#
# Indices 1 2 3 4 5 6 
#
# 1 0.014243 -0.005082 0.001404 0.004036 -0.006928 -0.001477
# 2 -0.005082 0.013124 -0.005335 -0.006280 0.002147 0.004152
# 3 0.001404 -0.005335 0.024626 -0.001956 -0.020110 -0.000421
# 4 0.004036 -0.006280 -0.001956 0.044564 0.007043 -0.013158
# 5 -0.006928 0.002147 -0.020110 0.007043 0.056866 -0.000729
# 6 -0.001477 0.004152 -0.000421 -0.013158 -0.000729 0.022382
#
#
# Mechanical properties :
#
#
# Convention : Reuss Voigt Hill
#
# Bulk Modulus (GPa) = 29.44007 47.76125 38.60066
# Shear Modulus (GPa) = 24.37209 34.78566 29.57888
#
# Velocity S-wave (km/s) = 3.34743 3.99913 3.68771
# Velocity P-wave (km/s) = 5.33627 6.57896 5.98993
#
# Compressibility (1/GPa) = 0.03396731
#
# Stress axis : x y z
#
# Youngs Moduli (GPa) = 70.20779 76.19769 40.60783
#
# Poissons Ratio (x) = 0.38720 -0.05701
# Poissons Ratio (y) = 0.35677 0.21665
# Poissons Ratio (z) = -0.09857 0.40653
#
# Static dielectric constant tensor:
#      x y z
#    x 4.116440 -0.202010 0.452560 
#    y -0.202010 4.226690 0.145390 
#    z 0.452560 0.145390 3.753890 
# 
# 
# High freq. dielectric constant tensor:
#      x y z
#    x 1.851750 -0.019410 0.034050 
#    y -0.019410 1.866840 0.017480 
#    z 0.034050 0.017480 1.836030 
# 
# From -- ./inp_files/451886.got.cif
#   From: 2010.06.25/outbox.cif.g09.slc.cpg/sg2_226_cif.got.tgz:451886.got - 2010.06.27 13:26:56.
