data_PCOD8044544
_publ_section_title
;
Structure prediction by ZEFSAII (Michael W. Deem and Ramdas Pophale) SiO2 
 PCOD8044544
Probable space group: P -1
;
_chemical_formula_sum "Si O2"
_cell_formula_units_Z 16
_cell_length_a 9.237445
_cell_length_b 17.536433
_cell_length_c 12.279179
_cell_angle_alpha 41.801609
_cell_angle_beta 93.996087
_cell_angle_gamma 125.729072
_cell_volume 793.429762
_symmetry_space_group_name_H-M "P -1"
_symmetry_group_IT_number 2
_symmetry_cell_setting 'triclinic'
loop_
_space_group_symop_operation_xyz
x,y,z
-x,-y,-z
loop_
_atom_site_type_symbol
_atom_site_label
_atom_site_fract_x
_atom_site_fract_y
_atom_site_fract_z
Si Si1 0.873164 0.179585 0.790018
Si Si2 0.009513 0.722387 0.548015
Si Si3 0.459432 0.078603 0.333980
Si Si4 0.635346 0.256647 0.755917
Si Si5 0.779224 0.551879 0.304683
Si Si6 0.865005 0.387114 0.856455
Si Si7 0.284677 0.199737 0.293607
Si Si8 0.474806 0.473079 0.194470
O O1 0.971763 0.212621 0.640940
O O2 0.828725 0.288927 0.681515
O O3 0.069729 0.269959 0.795893
O O4 0.632280 0.960122 0.037747
O O5 0.026202 0.595484 0.682778
O O6 0.757374 0.595899 0.723295
O O7 0.224755 0.909726 0.429222
O O8 0.423783 0.171843 0.300560
O O9 0.500000 0.000000 0.500000
O O10 0.694720 0.235702 0.104508
O O11 0.637134 0.371440 0.562931
O O12 0.700200 0.322608 0.814406
O O13 0.586612 0.506509 0.279464
O O14 0.958300 0.605555 0.170633
O O15 0.396923 0.311666 0.294897
O O16 0.328546 0.326600 0.071917
O O17 0.000000 0.000000 0.500000
#
# Coordination Sequence:
#
# PCOD8044544 Si02
#       8
#     2   2   2   2   2   2   2   2
#     4  10  20  36  65  93 135 169 209 264 322 378
#     4  12  22  44  65  94 130 175 206 267 334 373
#     4  12  28  42  70 102 121 166 229 277 315 381
#     4  10  19  38  62  96 132 173 205 265 330 370
#     4  11  23  39  64 103 127 172 220 257 314 396
#     4  11  22  41  66  92 137 166 216 274 321 372
#     4  11  25  49  64  88 135 176 213 267 337 378
#     4  11  27  43  68  92 132 181 212 261 327 394
#
# _framework density 20.165617000000001
#
# number of rings (size 3 to 8) (size 9 to 14) (size 15 to 20)
#    0.000    1.000    6.250    0.750    3.500    2.000 
#    0.000    0.625    0.000    0.000    0.000    0.000 
#    0.000    0.000    0.000    0.000    0.000    0.000 
#
# Total GULP energy -198495.192643 kJ/mol
# GULP energy per Si atom -12405.949540 kJ/mol
# Density = 2.011972 g / cm^3
# Si number density = 20.165617 Si / 1000 Ang^3
#
#
#
# Elastic Constant Matrix: (Units=GPa)
#
#
# Indices 1 2 3 4 5 6 
#
# 1 55.4563 24.5932 21.4824 3.2993 0.4574 -10.0782
# 2 24.5932 99.8960 25.1625 -1.5758 7.4652 -10.1048
# 3 21.4824 25.1625 92.4771 8.7670 -5.6762 -3.7888
# 4 3.2993 -1.5758 8.7670 35.4915 -3.0055 0.2058
# 5 0.4574 7.4652 -5.6762 -3.0055 29.7165 6.3725
# 6 -10.0782 -10.1048 -3.7888 0.2058 6.3725 23.6153
#
#
#
# Elastic Compliance Matrix: (Units=1/GPa)
#
#
# Indices 1 2 3 4 5 6 
#
# 1 0.022761 -0.003662 -0.003942 -0.001527 -0.002072 0.008087
# 2 -0.003662 0.012400 -0.002721 0.001162 -0.004424 0.004490
# 3 -0.003942 -0.002721 0.012854 -0.002642 0.003286 -0.001648
# 4 -0.001527 0.001162 -0.002642 0.029243 0.002508 -0.001510
# 5 -0.002072 -0.004424 0.003286 0.002508 0.038384 -0.012630
# 6 0.008087 0.004490 -0.001648 -0.001510 -0.012630 0.050875
#
#
# Mechanical properties :
#
#
# Convention : Reuss Voigt Hill
#
# Bulk Modulus (GPa) = 36.54258 43.36729 39.95494
# Shear Modulus (GPa) = 25.47259 29.53742 27.50501
#
# Velocity S-wave (km/s) = 3.55797 3.83135 3.69718
# Velocity P-wave (km/s) = 5.91941 6.41284 6.17106
#
# Compressibility (1/GPa) = 0.02736534
#
# Stress axis : x y z
#
# Youngs Moduli (GPa) = 43.93547 80.64203 77.79511
#
# Poissons Ratio (x) = 0.29529 0.30668
# Poissons Ratio (y) = 0.16088 0.21170
# Poissons Ratio (z) = 0.17320 0.21945
#
# Static dielectric constant tensor:
#      x y z
#    x 3.450600 -0.207960 -0.092080 
#    y -0.207960 3.861100 -0.072250 
#    z -0.092080 -0.072250 3.741720 
# 
# 
# High freq. dielectric constant tensor:
#      x y z
#    x 1.765480 -0.013200 -0.009890 
#    y -0.013200 1.798550 -0.006300 
#    z -0.009890 -0.006300 1.805740 
# 
# From -- ./inp_files/258822.got.cif
#   From: 2010.06.25/outbox.cif.g09.slc.cpg/sg2_130_cif.got.tgz:258822.got - 2010.06.27 13:26:56.
