data_PCOD8044546
_publ_section_title
;
Structure prediction by ZEFSAII (Michael W. Deem and Ramdas Pophale) SiO2 
 PCOD8044546
Probable space group: P -1
;
_chemical_formula_sum "Si O2"
_cell_formula_units_Z 14
_cell_length_a 9.078875
_cell_length_b 13.868487
_cell_length_c 8.444740
_cell_angle_alpha 55.114617
_cell_angle_beta 132.769555
_cell_angle_gamma 128.901252
_cell_volume 587.409185
_symmetry_space_group_name_H-M "P -1"
_symmetry_group_IT_number 2
_symmetry_cell_setting 'triclinic'
loop_
_space_group_symop_operation_xyz
x,y,z
-x,-y,-z
loop_
_atom_site_type_symbol
_atom_site_label
_atom_site_fract_x
_atom_site_fract_y
_atom_site_fract_z
Si Si1 0.738460 0.257570 0.066731
Si Si2 0.338305 0.535408 0.735458
Si Si3 0.303535 0.114670 0.031469
Si Si4 0.978728 0.374999 0.405660
Si Si5 0.118483 0.849714 0.257245
Si Si6 0.776492 0.992185 0.277793
Si Si7 0.390885 0.753711 0.346334
O O1 0.958689 0.363015 0.209483
O O2 0.752680 0.126214 0.144684
O O3 0.544015 0.227016 0.085693
O O4 0.679592 0.318302 0.808171
O O5 0.147896 0.539740 0.705696
O O6 0.459783 0.669073 0.602983
O O7 0.221497 0.430861 0.608000
O O8 0.500000 0.500000 0.000000
O O9 0.230658 0.050013 0.868131
O O10 0.134465 0.170005 0.926432
O O11 0.286632 0.998754 0.246885
O O12 0.858817 0.222622 0.500269
O O13 0.176203 0.774043 0.228184
O O14 0.590331 0.889506 0.345041
O O15 0.000000 0.000000 0.500000
#
# Coordination Sequence:
#
# PCOD8044546 Si02
#       7
#     2   2   2   2   2   2   2
#     4  11  21  41  65 100 140 171 214 275 339 410
#     4  10  24  48  68  92 127 176 235 284 328 390
#     4  10  20  35  63  96 138 177 215 261 330 407
#     4  10  24  41  66  96 134 171 222 283 338 383
#     4  10  19  38  62  97 131 178 224 257 324 398
#     4  11  21  38  60 100 142 178 212 266 337 408
#     4  10  21  44  69  94 137 181 216 277 335 389
#
# _framework density 23.833472
#
# number of rings (size 3 to 8) (size 9 to 14) (size 15 to 20)
#    0.000    1.714    2.857    1.714    2.000    2.286 
#   10.286    0.714    0.000    0.000    0.000    0.000 
#    0.000    0.000    0.000    0.000    0.000    0.000 
#
# Total GULP energy -173445.164007 kJ/mol
# GULP energy per Si atom -12388.940286 kJ/mol
# Density = 2.377923 g / cm^3
# Si number density = 23.833472 Si / 1000 Ang^3
#
#
#
# Elastic Constant Matrix: (Units=GPa)
#
#
# Indices 1 2 3 4 5 6 
#
# 1 83.5748 20.9689 36.6576 -4.2823 14.5140 5.9476
# 2 20.9689 61.2145 47.6912 8.6158 -2.5435 -15.2926
# 3 36.6576 47.6912 157.3349 8.4234 11.2615 -5.7319
# 4 -4.2823 8.6158 8.4234 45.8411 -3.9818 -1.5731
# 5 14.5140 -2.5435 11.2615 -3.9818 27.8314 3.6054
# 6 5.9476 -15.2926 -5.7319 -1.5731 3.6054 11.3603
#
#
#
# Elastic Compliance Matrix: (Units=1/GPa)
#
#
# Indices 1 2 3 4 5 6 
#
# 1 0.018573 -0.012138 -0.001192 0.002818 -0.006785 -0.024120
# 2 -0.012138 0.041476 -0.007816 -0.005115 0.005316 0.055847
# 3 -0.001192 -0.007816 0.009124 -0.000757 -0.003330 -0.004342
# 4 0.002818 -0.005115 -0.000757 0.023179 0.002505 -0.006328
# 5 -0.006785 0.005316 -0.003330 0.002505 0.042180 -0.004011
# 6 -0.024120 0.055847 -0.004342 -0.006328 -0.004011 0.174038
#
#
# Mechanical properties :
#
#
# Convention : Reuss Voigt Hill
#
# Bulk Modulus (GPa) = 37.20229 56.97329 47.08779
# Shear Modulus (GPa) = 13.89582 30.12700 22.01141
#
# Velocity S-wave (km/s) = 2.41724 3.55922 3.04229
# Velocity P-wave (km/s) = 4.84085 6.39120 5.66927
#
# Compressibility (1/GPa) = 0.02688007
#
# Stress axis : x y z
#
# Youngs Moduli (GPa) = 53.84243 24.11052 109.60610
#
# Poissons Ratio (x) = 0.29264 0.13067
# Poissons Ratio (y) = 0.65352 0.85671
# Poissons Ratio (z) = 0.06419 0.18845
#
# Static dielectric constant tensor:
#      x y z
#    x 4.792340 -0.315460 -0.077850 
#    y -0.315460 4.748270 -0.227230 
#    z -0.077850 -0.227230 4.500270 
# 
# 
# High freq. dielectric constant tensor:
#      x y z
#    x 1.932800 -0.001820 -0.008060 
#    y -0.001820 1.931060 -0.008360 
#    z -0.008060 -0.008360 1.951860 
# 
# From -- ./inp_files/200436.got.cif
#   From: 2010.06.25/outbox.cif.g09.slc.cpg/sg2_101_cif.got.tgz:200436.got - 2010.06.27 13:26:56.
