data_PCOD8044698
_publ_section_title
;
Structure prediction by ZEFSAII (Michael W. Deem and Ramdas Pophale) SiO2 
 PCOD8044698
Probable space group: P -1
;
_chemical_formula_sum "Si O2"
_cell_formula_units_Z 16
_cell_length_a 9.435499
_cell_length_b 14.349599
_cell_length_c 12.081483
_cell_angle_alpha 136.240156
_cell_angle_beta 132.757151
_cell_angle_gamma 68.886889
_cell_volume 802.961534
_symmetry_space_group_name_H-M "P -1"
_symmetry_group_IT_number 2
_symmetry_cell_setting 'triclinic'
loop_
_space_group_symop_operation_xyz
x,y,z
-x,-y,-z
loop_
_atom_site_type_symbol
_atom_site_label
_atom_site_fract_x
_atom_site_fract_y
_atom_site_fract_z
Si Si1 0.442820 0.117618 0.945350
Si Si2 0.274480 0.483098 0.828608
Si Si3 0.736093 0.038939 0.677700
Si Si4 0.762869 0.238874 0.058287
Si Si5 0.024167 0.123810 0.704159
Si Si6 0.990572 0.394990 0.803970
Si Si7 0.058506 0.200596 0.377063
Si Si8 0.716791 0.188361 0.343838
O O1 0.235752 0.147616 0.896323
O O2 0.416924 0.950418 0.787230
O O3 0.536661 0.167820 0.918949
O O4 0.590708 0.213998 0.194207
O O5 0.231320 0.602166 0.828631
O O6 0.141942 0.476029 0.861977
O O7 0.216648 0.346465 0.605611
O O8 0.500000 0.500000 0.000000
O O9 0.839703 0.092866 0.662836
O O10 0.500000 0.000000 0.500000
O O11 0.814642 0.913730 0.665928
O O12 0.801673 0.168205 0.905159
O O13 0.928040 0.215292 0.212755
O O14 0.051057 0.262222 0.767323
O O15 0.000000 0.000000 0.500000
O O16 0.771753 0.325541 0.570690
O O17 0.000000 0.500000 0.000000
O O18 0.921299 0.159937 0.379076
#
# Coordination Sequence:
#
# PCOD8044698 Si02
#       8
#     2   2   2   2   2   2   2   2
#     4  10  19  38  65  90 114 157 209 243 293 362
#     4  11  22  42  60  87 122 164 206 243 293 370
#     4  12  24  38  57  95 126 152 196 258 307 352
#     4  11  23  38  63  92 123 158 198 255 310 350
#     4  12  21  39  63  88 116 163 207 240 297 366
#     4  11  23  39  60  87 124 158 198 252 303 350
#     4  10  21  41  63  87 120 164 203 245 302 367
#     4   9  19  38  64  89 117 156 204 250 290 362
#
# _framework density 19.926235999999999
#
# number of rings (size 3 to 8) (size 9 to 14) (size 15 to 20)
#    0.000    1.250    2.500    4.500    0.000    0.000 
#    0.000    0.625    0.000    0.000    0.000    0.000 
#    0.000    0.000    0.000    0.000    0.000    0.000 
#
# Total GULP energy -198290.790908 kJ/mol
# GULP energy per Si atom -12393.174432 kJ/mol
# Density = 1.988088 g / cm^3
# Si number density = 19.926236 Si / 1000 Ang^3
#
#
#
# Elastic Constant Matrix: (Units=GPa)
#
#
# Indices 1 2 3 4 5 6 
#
# 1 96.2226 27.1375 40.0875 -5.5689 9.7919 10.5720
# 2 27.1375 108.7717 24.4519 3.7809 10.4019 2.1323
# 3 40.0875 24.4519 143.7467 -3.1580 -2.3158 -4.5888
# 4 -5.5689 3.7809 -3.1580 37.3479 -3.9615 5.9194
# 5 9.7919 10.4019 -2.3158 -3.9615 35.5182 -2.0778
# 6 10.5720 2.1323 -4.5888 5.9194 -2.0778 34.4534
#
#
#
# Elastic Compliance Matrix: (Units=1/GPa)
#
#
# Indices 1 2 3 4 5 6 
#
# 1 0.013549 -0.002244 -0.003561 0.002401 -0.003341 -0.005107
# 2 -0.002244 0.010345 -0.001215 -0.001774 -0.002686 0.000029
# 3 -0.003561 -0.001215 0.008268 0.000131 0.002030 0.002369
# 4 0.002401 -0.001774 0.000131 0.028459 0.002728 -0.005335
# 5 -0.003341 -0.002686 0.002030 0.002728 0.030465 0.002830
# 6 -0.005107 0.000029 0.002369 -0.005335 0.002830 0.031993
#
#
# Mechanical properties :
#
#
# Convention : Reuss Voigt Hill
#
# Bulk Modulus (GPa) = 55.18321 59.12163 57.15242
# Shear Modulus (GPa) = 34.92652 38.60149 36.76400
#
# Velocity S-wave (km/s) = 4.19118 4.40616 4.30001
# Velocity P-wave (km/s) = 7.15368 7.45790 7.30738
#
# Compressibility (1/GPa) = 0.01812145
#
# Stress axis : x y z
#
# Youngs Moduli (GPa) = 73.80636 96.66949 120.95312
#
# Poissons Ratio (x) = 0.21689 0.43071
# Poissons Ratio (y) = 0.16560 0.14699
# Poissons Ratio (z) = 0.26282 0.11748
#
# Static dielectric constant tensor:
#      x y z
#    x 5.281370 -0.064420 0.775460 
#    y -0.064420 3.728790 -0.244260 
#    z 0.775460 -0.244260 4.125310 
# 
# 
# High freq. dielectric constant tensor:
#      x y z
#    x 1.768550 0.015580 0.009180 
#    y 0.015580 1.780990 -0.007400 
#    z 0.009180 -0.007400 1.792480 
# 
# From -- ./inp_files/215530.got.cif
#   From: 2010.06.25/outbox.cif.g09.slc.cpg/sg2_108_cif.got.tgz:215530.got - 2010.06.27 13:26:56.
