data_PCOD8044618
_publ_section_title
;
Structure prediction by ZEFSAII (Michael W. Deem and Ramdas Pophale) SiO2 
 PCOD8044618
Probable space group: P -1
;
_chemical_formula_sum "Si O2"
_cell_formula_units_Z 16
_cell_length_a 19.740025
_cell_length_b 8.161423
_cell_length_c 6.460636
_cell_angle_alpha 119.836301
_cell_angle_beta 128.984460
_cell_angle_gamma 72.947669
_cell_volume 701.528078
_symmetry_space_group_name_H-M "P -1"
_symmetry_group_IT_number 2
_symmetry_cell_setting 'triclinic'
loop_
_space_group_symop_operation_xyz
x,y,z
-x,-y,-z
loop_
_atom_site_type_symbol
_atom_site_label
_atom_site_fract_x
_atom_site_fract_y
_atom_site_fract_z
Si Si1 0.333360 0.841016 0.664468
Si Si2 0.712319 0.553055 0.055689
Si Si3 0.050787 0.917873 0.237168
Si Si4 0.821687 0.405102 0.840204
Si Si5 0.266582 0.129609 0.394321
Si Si6 0.618292 0.841096 0.748048
Si Si7 0.891296 0.815636 0.138934
Si Si8 0.552769 0.322107 0.548034
O O1 0.269414 0.662268 0.489335
O O2 0.420925 0.779564 0.678788
O O3 0.277760 0.967077 0.479872
O O4 0.360571 0.951781 0.990869
O O5 0.744502 0.670096 0.388010
O O6 0.796060 0.448122 0.057411
O O7 0.669975 0.685475 0.880192
O O8 0.640057 0.391390 0.882985
O O9 0.109823 0.758155 0.154688
O O10 0.985896 0.825699 0.223425
O O11 0.106316 0.086155 0.566728
O O12 0.000000 0.000000 0.000000
O O13 0.861398 0.597614 0.945240
O O14 0.351271 0.153289 0.426580
O O15 0.179738 0.075071 0.063954
O O16 0.513057 0.810084 0.526636
O O17 0.500000 0.500000 0.500000
#
# Coordination Sequence:
#
# PCOD8044618 Si02
#       8
#     2   2   2   2   2   2   2   2
#     4  10  22  39  63  97 125 173 221 263 323 377
#     4   9  21  39  60  94 126 167 217 262 318 379
#     4  11  26  47  69  98 132 164 209 265 319 386
#     4  11  22  44  68  92 131 170 211 258 324 380
#     4  11  22  40  65  93 130 167 215 272 314 386
#     4  10  19  38  64  86 131 172 213 270 322 367
#     4  11  25  45  68  99 128 168 214 258 323 387
#     4   9  19  38  60  90 129 173 218 269 320 376
#
# _framework density 22.807354
#
# number of rings (size 3 to 8) (size 9 to 14) (size 15 to 20)
#    0.000    1.750    1.250    2.250    3.500    1.500 
#   13.500    0.000    0.000    0.000    0.000    0.000 
#    0.000    0.000    0.000    0.000    0.000    0.000 
#
# Total GULP energy -198355.846351 kJ/mol
# GULP energy per Si atom -12397.240397 kJ/mol
# Density = 2.275544 g / cm^3
# Si number density = 22.807354 Si / 1000 Ang^3
#
#
#
# Elastic Constant Matrix: (Units=GPa)
#
#
# Indices 1 2 3 4 5 6 
#
# 1 137.0304 37.4867 40.7646 26.4873 1.7851 -15.4031
# 2 37.4867 77.4994 38.5752 27.8017 -3.9052 -11.3376
# 3 40.7646 38.5752 124.4932 26.6075 -10.3563 -1.1168
# 4 26.4873 27.8017 26.6075 38.0887 -3.9036 -0.8285
# 5 1.7851 -3.9052 -10.3563 -3.9036 31.2546 14.7343
# 6 -15.4031 -11.3376 -1.1168 -0.8285 14.7343 45.4664
#
#
#
# Elastic Compliance Matrix: (Units=1/GPa)
#
#
# Indices 1 2 3 4 5 6 
#
# 1 0.009713 -0.001743 -0.001984 -0.004405 -0.003855 0.003976
# 2 -0.001743 0.020034 -0.003390 -0.011162 -0.002191 0.004829
# 3 -0.001984 -0.003390 0.010753 -0.003296 0.004084 -0.002637
# 4 -0.004405 -0.011162 -0.003296 0.040196 0.005304 -0.005343
# 5 -0.003855 -0.002191 0.004084 0.005304 0.041002 -0.014943
# 6 0.003976 0.004829 -0.002637 -0.005343 -0.014943 0.029226
#
#
# Mechanical properties :
#
#
# Convention : Reuss Voigt Hill
#
# Bulk Modulus (GPa) = 38.07164 63.63065 50.85114
# Shear Modulus (GPa) = 28.74974 37.77503 33.26239
#
# Velocity S-wave (km/s) = 3.55427 4.07414 3.82305
# Velocity P-wave (km/s) = 5.79420 7.07752 6.46776
#
# Compressibility (1/GPa) = 0.02626627
#
# Stress axis : x y z
#
# Youngs Moduli (GPa) = 102.95110 49.91429 92.99442
#
# Poissons Ratio (x) = 0.08701 0.18450
# Poissons Ratio (y) = 0.17946 0.31527
# Poissons Ratio (z) = 0.20425 0.16922
#
# Static dielectric constant tensor:
#      x y z
#    x 4.796580 -0.115830 0.193850 
#    y -0.115830 4.079610 0.514850 
#    z 0.193850 0.514850 4.292910 
# 
# 
# High freq. dielectric constant tensor:
#      x y z
#    x 1.919080 -0.006250 0.005000 
#    y -0.006250 1.891740 0.030560 
#    z 0.005000 0.030560 1.890500 
# 
# From -- ./inp_files/107711.got.cif
#   From: 2010.06.25/outbox.cif.g09.slc.cpg/sg2_54_cif.got.tgz:107711.got - 2010.06.27 13:26:56.
