data_PCOD8044522
_publ_section_title
;
Structure prediction by ZEFSAII (Michael W. Deem and Ramdas Pophale) SiO2 
 PCOD8044522
Probable space group: P -1
;
_chemical_formula_sum "Si O2"
_cell_formula_units_Z 16
_cell_length_a 9.024805
_cell_length_b 9.503161
_cell_length_c 19.773618
_cell_angle_alpha 136.275628
_cell_angle_beta 45.221072
_cell_angle_gamma 104.525796
_cell_volume 707.483265
_symmetry_space_group_name_H-M "P -1"
_symmetry_group_IT_number 2
_symmetry_cell_setting 'triclinic'
loop_
_space_group_symop_operation_xyz
x,y,z
-x,-y,-z
loop_
_atom_site_type_symbol
_atom_site_label
_atom_site_fract_x
_atom_site_fract_y
_atom_site_fract_z
Si Si1 0.611676 0.376709 0.992670
Si Si2 0.504160 0.239567 0.740823
Si Si3 0.075585 0.395972 0.827932
Si Si4 0.095243 0.302247 0.241039
Si Si5 0.487729 0.972385 0.900929
Si Si6 0.312015 0.765740 0.632770
Si Si7 0.707421 0.928453 0.140723
Si Si8 0.260646 0.219691 0.559885
O O1 0.459493 0.552819 0.167073
O O2 0.500000 0.500000 0.000000
O O3 0.595690 0.145410 0.924316
O O4 0.893641 0.311228 0.883428
O O5 0.260566 0.354255 0.813616
O O6 0.477571 0.116910 0.773792
O O7 0.731633 0.023309 0.550523
O O8 0.204846 0.257321 0.669664
O O9 0.934337 0.677401 0.954012
O O10 0.925925 0.234979 0.317080
O O11 0.936939 0.562589 0.347544
O O12 0.304299 0.276764 0.217019
O O13 0.235097 0.100906 0.068521
O O14 0.436914 0.909077 0.821304
O O15 0.500000 0.500000 0.500000
O O16 0.454865 0.844555 0.563058
O O17 0.211857 0.926066 0.788436
#
# Coordination Sequence:
#
# PCOD8044522 Si02
#       8
#     2   2   2   2   2   2   2   2
#     4  11  20  38  63  90 123 160 201 252 307 361
#     4  10  22  36  62  92 122 160 199 256 312 361
#     4  11  21  37  64  94 122 156 205 257 304 365
#     4  10  22  41  61  87 121 163 203 253 292 363
#     4  11  22  38  63  91 122 158 208 249 299 359
#     4   9  21  39  63  85 120 161 203 249 304 350
#     4  10  19  38  62  90 120 157 203 255 299 360
#     4  10  20  42  60  92 129 155 200 259 309 358
#
# _framework density 22.615378
#
# number of rings (size 3 to 8) (size 9 to 14) (size 15 to 20)
#    0.000    1.750    3.750    1.875    5.250    0.500 
#    0.000    8.125    0.000    0.000    0.000    0.000 
#    0.000    0.000    0.000    0.000    0.000    0.000 
#
# Total GULP energy -198225.336972 kJ/mol
# GULP energy per Si atom -12389.083561 kJ/mol
# Density = 2.256390 g / cm^3
# Si number density = 22.615378 Si / 1000 Ang^3
#
#
#
# Elastic Constant Matrix: (Units=GPa)
#
#
# Indices 1 2 3 4 5 6 
#
# 1 55.7367 3.3710 29.9684 -3.5472 1.3299 -15.0826
# 2 3.3710 42.2793 8.8967 -11.2206 -2.5276 -2.8420
# 3 29.9684 8.8967 116.3374 -14.4125 13.5199 5.8628
# 4 -3.5472 -11.2206 -14.4125 21.1506 -2.9242 10.1294
# 5 1.3299 -2.5276 13.5199 -2.9242 39.0346 -1.4713
# 6 -15.0826 -2.8420 5.8628 10.1294 -1.4713 30.0385
#
#
#
# Elastic Compliance Matrix: (Units=1/GPa)
#
#
# Indices 1 2 3 4 5 6 
#
# 1 0.027931 -0.001960 -0.009835 -0.012351 0.002158 0.020029
# 2 -0.001960 0.028205 0.000345 0.017208 0.002910 -0.004043
# 3 -0.009835 0.000345 0.013821 0.013292 -0.003897 -0.012277
# 4 -0.012351 0.017208 0.013292 0.079923 0.001635 -0.034039
# 5 0.002158 0.002910 -0.003897 0.001635 0.027315 0.002906
# 6 0.020029 -0.004043 -0.012277 -0.034039 0.002906 0.056982
#
#
# Mechanical properties :
#
#
# Convention : Reuss Voigt Hill
#
# Bulk Modulus (GPa) = 21.25086 33.20287 27.22686
# Shear Modulus (GPa) = 18.33097 29.51923 23.92510
#
# Velocity S-wave (km/s) = 2.85011 3.61677 3.25609
# Velocity P-wave (km/s) = 4.49976 5.67052 5.11873
#
# Compressibility (1/GPa) = 0.04705692
#
# Stress axis : x y z
#
# Youngs Moduli (GPa) = 35.80287 35.45473 72.35326
#
# Poissons Ratio (x) = 0.06949 0.71162
# Poissons Ratio (y) = 0.07017 -0.02499
# Poissons Ratio (z) = 0.35213 -0.01225
#
# Static dielectric constant tensor:
#      x y z
#    x 4.259380 0.227070 -0.035710 
#    y 0.227070 4.470310 -0.049950 
#    z -0.035710 -0.049950 4.509110 
# 
# 
# High freq. dielectric constant tensor:
#      x y z
#    x 1.884390 -0.012610 -0.001950 
#    y -0.012610 1.877540 0.005020 
#    z -0.001950 0.005020 1.895780 
# 
# From -- ./inp_files/304090.got.cif
#   From: 2010.06.25/outbox.cif.g09.slc.cpg/sg2_153_cif.got.tgz:304090.got - 2010.06.27 13:26:56.
