data_PCOD8044680
_publ_section_title
;
Structure prediction by ZEFSAII (Michael W. Deem and Ramdas Pophale) SiO2 
 PCOD8044680
Probable space group: P -1
;
_chemical_formula_sum "Si O2"
_cell_formula_units_Z 14
_cell_length_a 18.966943
_cell_length_b 8.412266
_cell_length_c 6.964156
_cell_angle_alpha 109.181985
_cell_angle_beta 60.187715
_cell_angle_gamma 135.974225
_cell_volume 669.270867
_symmetry_space_group_name_H-M "P -1"
_symmetry_group_IT_number 2
_symmetry_cell_setting 'triclinic'
loop_
_space_group_symop_operation_xyz
x,y,z
-x,-y,-z
loop_
_atom_site_type_symbol
_atom_site_label
_atom_site_fract_x
_atom_site_fract_y
_atom_site_fract_z
Si Si1 0.406566 0.059503 0.472370
Si Si2 0.639919 0.281273 0.318160
Si Si3 0.824694 0.754631 0.085568
Si Si4 0.332220 0.968014 0.116650
Si Si5 0.274508 0.105580 0.931967
Si Si6 0.099787 0.702673 0.240868
Si Si7 0.017269 0.785081 0.727145
O O1 0.534273 0.256549 0.443242
O O2 0.356828 0.812332 0.519698
O O3 0.403410 0.067760 0.250892
O O4 0.335050 0.113081 0.669235
O O5 0.753430 0.542646 0.244784
O O6 0.624511 0.123895 0.107894
O O7 0.744510 0.723482 0.018104
O O8 0.916809 0.775567 0.862075
O O9 0.876411 0.981849 0.225519
O O10 0.200621 0.763171 0.256588
O O11 0.345925 0.163316 0.051659
O O12 0.152165 0.848781 0.030421
O O13 0.014214 0.431867 0.204179
O O14 0.042960 0.773606 0.466677
#
# Coordination Sequence:
#
# PCOD8044680 Si02
#       7
#     2   2   2   2   2   2   2
#     4  10  19  38  65  82 115 163 192 234 291 353
#     4  10  21  37  59  91 117 149 202 239 285 353
#     4  11  21  38  55  93 124 145 193 252 295 335
#     4   9  18  38  58  85 114 154 197 236 277 359
#     4   9  21  36  59  86 120 147 195 239 287 355
#     4   9  19  39  58  88 111 157 207 222 279 371
#     4  10  20  36  64  79 120 162 190 241 295 333
#
# _framework density 20.918289000000001
#
# number of rings (size 3 to 8) (size 9 to 14) (size 15 to 20)
#    0.857    1.429    1.429    1.286    0.000    1.714 
#    2.571    6.429    0.000    0.000    0.000    0.000 
#    0.000    0.000    0.000    0.000    0.000    0.000 
#
# Total GULP energy -173464.331465 kJ/mol
# GULP energy per Si atom -12390.309390 kJ/mol
# Density = 2.087068 g / cm^3
# Si number density = 20.918289 Si / 1000 Ang^3
#
#
#
# Elastic Constant Matrix: (Units=GPa)
#
#
# Indices 1 2 3 4 5 6 
#
# 1 96.1891 26.5037 38.9077 -1.1814 -3.2916 -12.4758
# 2 26.5037 38.9357 15.6916 -4.3309 -7.1370 4.3642
# 3 38.9077 15.6916 91.0263 -0.3430 -10.2672 -5.8685
# 4 -1.1814 -4.3309 -0.3430 25.2870 2.4794 -4.2416
# 5 -3.2916 -7.1370 -10.2672 2.4794 41.2834 -7.1128
# 6 -12.4758 4.3642 -5.8685 -4.2416 -7.1128 20.9997
#
#
#
# Elastic Compliance Matrix: (Units=1/GPa)
#
#
# Indices 1 2 3 4 5 6 
#
# 1 0.016587 -0.010578 -0.004529 0.000727 0.000220 0.011008
# 2 -0.010578 0.036038 -0.002241 0.003243 0.002407 -0.012930
# 3 -0.004529 -0.002241 0.013836 -0.000272 0.003167 0.002659
# 4 0.000727 0.003243 -0.000272 0.041509 -0.000587 0.007867
# 5 0.000220 0.002407 0.003167 -0.000587 0.027131 0.009587
# 6 0.011008 -0.012930 0.002659 0.007867 0.009587 0.062426
#
#
# Mechanical properties :
#
#
# Convention : Reuss Voigt Hill
#
# Bulk Modulus (GPa) = 31.48148 43.15079 37.31614
# Shear Modulus (GPa) = 20.59206 27.18389 23.88798
#
# Velocity S-wave (km/s) = 3.14093 3.60881 3.38297
# Velocity P-wave (km/s) = 5.31378 6.16747 5.75647
#
# Compressibility (1/GPa) = 0.03176471
#
# Stress axis : x y z
#
# Youngs Moduli (GPa) = 60.28765 27.74817 72.27732
#
# Poissons Ratio (x) = 0.29353 0.32735
# Poissons Ratio (y) = 0.63774 0.16196
# Poissons Ratio (z) = 0.27304 0.06218
#
# Static dielectric constant tensor:
#      x y z
#    x 3.764160 -0.073430 -0.229270 
#    y -0.073430 3.533050 -0.273370 
#    z -0.229270 -0.273370 3.608140 
# 
# 
# High freq. dielectric constant tensor:
#      x y z
#    x 1.821170 -0.004840 -0.025080 
#    y -0.004840 1.790600 -0.026050 
#    z -0.025080 -0.026050 1.809410 
# 
# From -- ./inp_files/105559.got.cif
#   From: 2010.06.25/outbox.cif.g09.slc.cpg/sg2_53_cif.got.tgz:105559.got - 2010.06.27 13:26:56.
