data_PCOD8044802
_publ_section_title
;
Structure prediction by ZEFSAII (Michael W. Deem and Ramdas Pophale) SiO2 
 PCOD8044802
Probable space group: P -1
;
_chemical_formula_sum "Si O2"
_cell_formula_units_Z 14
_cell_length_a 17.958852
_cell_length_b 9.545639
_cell_length_c 12.125920
_cell_angle_alpha 59.888081
_cell_angle_beta 159.349783
_cell_angle_gamma 118.381141
_cell_volume 634.039017
_symmetry_space_group_name_H-M "P -1"
_symmetry_group_IT_number 2
_symmetry_cell_setting 'triclinic'
loop_
_space_group_symop_operation_xyz
x,y,z
-x,-y,-z
loop_
_atom_site_type_symbol
_atom_site_label
_atom_site_fract_x
_atom_site_fract_y
_atom_site_fract_z
Si Si1 0.458884 0.668190 0.436987
Si Si2 0.568005 0.999464 0.360382
Si Si3 0.877035 0.183663 0.578633
Si Si4 0.740517 0.534469 0.291891
Si Si5 0.321782 0.232267 0.085123
Si Si6 0.768761 0.063450 0.257076
Si Si7 0.973179 0.240807 0.278479
O O1 0.500000 0.500000 0.500000
O O2 0.537048 0.665864 0.672143
O O3 0.587751 0.811869 0.494913
O O4 0.208068 0.699275 0.078829
O O5 0.796264 0.078098 0.614039
O O6 0.460511 0.093605 0.275480
O O7 0.427399 0.015842 0.048471
O O8 0.868078 0.372160 0.518337
O O9 0.716409 0.143742 0.270053
O O10 0.120354 0.146313 0.900570
O O11 0.844532 0.623674 0.506616
O O12 0.500000 0.500000 0.000000
O O13 0.762166 0.643362 0.170274
O O14 0.872715 0.206587 0.272543
O O15 0.934994 0.925407 0.573816
#
# Coordination Sequence:
#
# PCOD8044802 Si02
#       7
#     2   2   2   2   2   2   2
#     4  11  26  44  67  95 139 178 219 269 334 402
#     4  11  24  44  67 101 134 173 226 270 331 401
#     4  12  23  38  71 101 132 172 224 281 325 386
#     4  12  23  41  69 102 135 166 229 279 325 392
#     4  12  24  45  67  97 136 181 216 270 336 392
#     4  10  19  38  67  98 128 168 224 276 327 381
#     4  10  20  42  65  94 131 175 218 272 332 387
#
# _framework density 22.080662
#
# number of rings (size 3 to 8) (size 9 to 14) (size 15 to 20)
#    0.000    0.857    4.286    3.857    4.000    0.571 
#    0.000    0.714    0.000    0.000    0.000    0.000 
#    0.000    0.000    0.000    0.000    0.000    0.000 
#
# Total GULP energy -173593.957273 kJ/mol
# GULP energy per Si atom -12399.568377 kJ/mol
# Density = 2.203041 g / cm^3
# Si number density = 22.080662 Si / 1000 Ang^3
#
#
#
# Elastic Constant Matrix: (Units=GPa)
#
#
# Indices 1 2 3 4 5 6 
#
# 1 64.9405 37.3569 23.8291 21.0454 21.6734 11.0332
# 2 37.3569 105.4812 25.4340 8.2084 1.1532 1.7089
# 3 23.8291 25.4340 93.3557 25.1412 -3.4519 5.8668
# 4 21.0454 8.2084 25.1412 35.0759 0.3334 -8.0570
# 5 21.6734 1.1532 -3.4519 0.3334 41.8272 13.5131
# 6 11.0332 1.7089 5.8668 -8.0570 13.5131 30.5990
#
#
#
# Elastic Compliance Matrix: (Units=1/GPa)
#
#
# Indices 1 2 3 4 5 6 
#
# 1 0.034606 -0.010246 -0.000324 -0.020552 -0.013924 -0.011106
# 2 -0.010246 0.013198 -0.002575 0.005639 0.003608 0.003343
# 3 -0.000324 -0.002575 0.015361 -0.012008 0.004072 -0.007645
# 4 -0.020552 0.005639 -0.012008 0.053317 0.001757 0.022661
# 5 -0.013924 0.003608 0.004072 0.001757 0.034866 -0.010896
# 6 -0.011106 0.003343 -0.007645 0.022661 -0.010896 0.048743
#
#
# Mechanical properties :
#
#
# Convention : Reuss Voigt Hill
#
# Bulk Modulus (GPa) = 27.11966 48.55748 37.83857
# Shear Modulus (GPa) = 20.94921 33.31094 27.13007
#
# Velocity S-wave (km/s) = 3.08353 3.88829 3.50906
# Velocity P-wave (km/s) = 4.99863 6.49593 5.79583
#
# Compressibility (1/GPa) = 0.03687362
#
# Stress axis : x y z
#
# Youngs Moduli (GPa) = 28.89660 75.77021 65.10110
#
# Poissons Ratio (x) = 0.77637 0.02107
# Poissons Ratio (y) = 0.29609 0.16766
# Poissons Ratio (z) = 0.00935 0.19514
#
# Static dielectric constant tensor:
#      x y z
#    x 3.855350 -0.014100 -0.000070 
#    y -0.014100 4.148920 0.150840 
#    z -0.000070 0.150840 4.061700 
# 
# 
# High freq. dielectric constant tensor:
#      x y z
#    x 1.852130 -0.007640 0.002020 
#    y -0.007640 1.878350 0.015520 
#    z 0.002020 0.015520 1.867380 
# 
# From -- ./inp_files/245324.got.cif
#   From: 2010.06.25/outbox.cif.g09.slc.cpg/sg2_123_cif.got.tgz:245324.got - 2010.06.27 13:26:56.
