data_PCOD8044733
_publ_section_title
;
Structure prediction by ZEFSAII (Michael W. Deem and Ramdas Pophale) SiO2 
 PCOD8044733
Probable space group: P -1
;
_chemical_formula_sum "Si O2"
_cell_formula_units_Z 14
_cell_length_a 11.881915
_cell_length_b 13.642334
_cell_length_c 6.686931
_cell_angle_alpha 109.146468
_cell_angle_beta 126.753635
_cell_angle_gamma 47.596511
_cell_volume 636.038542
_symmetry_space_group_name_H-M "P -1"
_symmetry_group_IT_number 2
_symmetry_cell_setting 'triclinic'
loop_
_space_group_symop_operation_xyz
x,y,z
-x,-y,-z
loop_
_atom_site_type_symbol
_atom_site_label
_atom_site_fract_x
_atom_site_fract_y
_atom_site_fract_z
Si Si1 0.764967 0.466271 0.191492
Si Si2 0.895717 0.718028 0.851990
Si Si3 0.757377 0.008560 0.833877
Si Si4 0.327385 0.672632 0.227403
Si Si5 0.956708 0.098830 0.233203
Si Si6 0.868041 0.304269 0.582456
Si Si7 0.403278 0.287739 0.593918
O O1 0.774855 0.419725 0.397458
O O2 0.681094 0.620819 0.232886
O O3 0.961022 0.375275 0.232883
O O4 0.624085 0.462155 0.910163
O O5 0.753837 0.689838 0.692893
O O6 0.784525 0.874338 0.795369
O O7 0.990136 0.687793 0.146218
O O8 0.544677 0.132889 0.706459
O O9 0.866833 0.027229 0.128148
O O10 0.838199 0.007769 0.703119
O O11 0.275841 0.677573 0.405156
O O12 0.495621 0.671821 0.402209
O O13 0.157494 0.790169 0.990607
O O14 0.964317 0.161093 0.484774
#
# Coordination Sequence:
#
# PCOD8044733 Si02
#       7
#     2   2   2   2   2   2   2
#     4  10  21  41  64  84 113 162 198 235 288 345
#     4  11  22  41  61  86 118 161 192 232 297 357
#     4  10  19  39  62  88 115 150 200 241 288 343
#     4   9  19  39  63  89 113 151 202 242 284 341
#     4   9  18  37  64  88 111 154 199 239 287 341
#     4  10  19  38  66  82 115 156 201 238 278 355
#     4  11  23  37  61  89 125 150 187 250 297 337
#
# _framework density 22.011246
#
# number of rings (size 3 to 8) (size 9 to 14) (size 15 to 20)
#    0.000    2.000    4.286    1.286    0.000    1.714 
#    0.000    7.857    0.000    0.000    0.000    0.000 
#    0.000    0.000    0.000    0.000    0.000    0.000 
#
# Total GULP energy -173503.375142 kJ/mol
# GULP energy per Si atom -12393.098224 kJ/mol
# Density = 2.196115 g / cm^3
# Si number density = 22.011246 Si / 1000 Ang^3
#
#
#
# Elastic Constant Matrix: (Units=GPa)
#
#
# Indices 1 2 3 4 5 6 
#
# 1 102.8103 39.0459 64.4949 4.1181 23.6450 -4.6021
# 2 39.0459 114.9707 40.1054 29.9131 -1.6363 -30.0394
# 3 64.4949 40.1054 100.7354 24.2806 1.1487 -5.1013
# 4 4.1181 29.9131 24.2806 31.3173 5.1997 0.4483
# 5 23.6450 -1.6363 1.1487 5.1997 42.6834 7.8088
# 6 -4.6021 -30.0394 -5.1013 0.4483 7.8088 17.6840
#
#
#
# Elastic Compliance Matrix: (Units=1/GPa)
#
#
# Indices 1 2 3 4 5 6 
#
# 1 0.032689 -0.017366 -0.022878 0.033392 -0.018519 -0.020261
# 2 -0.017366 0.040488 0.009189 -0.045178 0.004328 0.066141
# 3 -0.022878 0.009189 0.028758 -0.030512 0.013646 0.012699
# 4 0.033392 -0.045178 -0.030512 0.098419 -0.018364 -0.071242
# 5 -0.018519 0.004328 0.013646 -0.018364 0.037482 -0.009617
# 6 -0.020261 0.066141 0.012699 -0.071242 -0.009617 0.173344
#
#
# Mechanical properties :
#
#
# Convention : Reuss Voigt Hill
#
# Bulk Modulus (GPa) = 25.11059 67.31212 46.21135
# Shear Modulus (GPa) = 10.27613 29.99494 20.13554
#
# Velocity S-wave (km/s) = 2.16303 3.69549 3.02782
# Velocity P-wave (km/s) = 4.20370 6.98971 5.76746
#
# Compressibility (1/GPa) = 0.03982383
#
# Stress axis : x y z
#
# Youngs Moduli (GPa) = 30.59162 24.69888 34.77282
#
# Poissons Ratio (x) = 0.42893 0.79553
# Poissons Ratio (y) = 0.53126 -0.31953
# Poissons Ratio (z) = 0.69988 -0.22696
#
# Static dielectric constant tensor:
#      x y z
#    x 3.750590 -0.044290 0.175740 
#    y -0.044290 4.288030 0.431290 
#    z 0.175740 0.431290 3.838710 
# 
# 
# High freq. dielectric constant tensor:
#      x y z
#    x 1.846460 -0.007760 0.012820 
#    y -0.007760 1.882210 0.028880 
#    z 0.012820 0.028880 1.847470 
# 
# From -- ./inp_files/76549.got.cif
#   From: 2010.06.25/outbox.cif.g09.slc.cpg/sg2_39_cif.got.tgz:76549.got - 2010.06.27 13:26:56.
