data_PCOD8044810
_publ_section_title
;
Structure prediction by ZEFSAII (Michael W. Deem and Ramdas Pophale) SiO2 
 PCOD8044810
Probable space group: P -1
;
_chemical_formula_sum "Si O2"
_cell_formula_units_Z 14
_cell_length_a 4.965389
_cell_length_b 15.929719
_cell_length_c 19.000497
_cell_angle_alpha 28.582711
_cell_angle_beta 113.375539
_cell_angle_gamma 116.077357
_cell_volume 645.624274
_symmetry_space_group_name_H-M "P -1"
_symmetry_group_IT_number 2
_symmetry_cell_setting 'triclinic'
loop_
_space_group_symop_operation_xyz
x,y,z
-x,-y,-z
loop_
_atom_site_type_symbol
_atom_site_label
_atom_site_fract_x
_atom_site_fract_y
_atom_site_fract_z
Si Si1 0.132770 0.171348 0.655477
Si Si2 0.655634 0.435348 0.997901
Si Si3 0.553421 0.017252 0.271009
Si Si4 0.195145 0.281246 0.434718
Si Si5 0.327657 0.545448 0.751943
Si Si6 0.787545 0.814696 0.190854
Si Si7 0.880441 0.225383 0.876996
O O1 0.331243 0.019988 0.768925
O O2 0.785911 0.081284 0.681423
O O3 0.208681 0.326027 0.488278
O O4 0.211677 0.260307 0.674453
O O5 0.552944 0.527840 0.850631
O O6 0.500000 0.500000 0.000000
O O7 0.582164 0.223045 0.138688
O O8 0.000000 0.500000 0.000000
O O9 0.761605 0.926025 0.413935
O O10 0.469937 0.408002 0.330557
O O11 0.867416 0.305614 0.356521
O O12 0.084167 0.362267 0.850180
O O13 0.460847 0.754664 0.166869
O O14 0.012743 0.737987 0.219863
O O15 0.904911 0.028864 0.050169
#
# Coordination Sequence:
#
# PCOD8044810 Si02
#       7
#     2   2   2   2   2   2   2
#     4  10  19  38  68  87 125 176 217 240 297 380
#     4  12  27  45  69 101 123 154 213 270 317 378
#     4  10  21  42  68  90 127 169 211 243 316 387
#     4  10  22  41  66  92 127 176 211 239 318 393
#     4  12  23  44  65  93 129 167 203 273 317 369
#     4  10  20  37  57  95 126 167 215 266 287 374
#     4  10  22  35  59  90 130 163 214 256 325 345
#
# _framework density 21.684439000000001
#
# number of rings (size 3 to 8) (size 9 to 14) (size 15 to 20)
#    0.857    0.571    1.429    4.286    0.000    3.429 
#    0.000    8.571    0.000    0.000    0.000    0.000 
#    0.000    0.000    0.000    0.000    0.000    0.000 
#
# Total GULP energy -173487.676505 kJ/mol
# GULP energy per Si atom -12391.976893 kJ/mol
# Density = 2.163508 g / cm^3
# Si number density = 21.684439 Si / 1000 Ang^3
#
#
#
# Elastic Constant Matrix: (Units=GPa)
#
#
# Indices 1 2 3 4 5 6 
#
# 1 137.7163 13.5568 23.3703 7.2673 -5.8174 3.2567
# 2 13.5568 51.3306 15.5864 20.7333 -7.9021 0.9399
# 3 23.3703 15.5864 81.5449 21.5890 0.3491 0.9454
# 4 7.2673 20.7333 21.5890 18.2248 -5.3498 5.6053
# 5 -5.8174 -7.9021 0.3491 -5.3498 30.8419 2.9061
# 6 3.2567 0.9399 0.9454 5.6053 2.9061 32.0221
#
#
#
# Elastic Compliance Matrix: (Units=1/GPa)
#
#
# Indices 1 2 3 4 5 6 
#
# 1 0.007892 -0.002618 -0.002863 0.004201 0.001723 -0.001533
# 2 -0.002618 0.040961 0.008324 -0.058564 -0.001116 0.009171
# 3 -0.002863 0.008324 0.021295 -0.037215 -0.005711 0.006451
# 4 0.004201 -0.058564 -0.037215 0.179323 0.020220 -0.030834
# 5 0.001723 -0.001116 -0.005711 0.020220 0.036679 -0.006842
# 6 -0.001533 0.009171 0.006451 -0.030834 -0.006842 0.036943
#
#
# Mechanical properties :
#
#
# Convention : Reuss Voigt Hill
#
# Bulk Modulus (GPa) = 13.18676 41.73542 27.46109
# Shear Modulus (GPa) = 14.59064 30.75632 22.67348
#
# Velocity S-wave (km/s) = 2.59677 3.77020 3.23710
# Velocity P-wave (km/s) = 3.88399 6.18393 5.16364
#
# Compressibility (1/GPa) = 0.07583364
#
# Stress axis : x y z
#
# Youngs Moduli (GPa) = 126.70561 24.41367 46.95956
#
# Poissons Ratio (x) = 0.06393 0.13445
# Poissons Ratio (y) = 0.33177 -0.39091
# Poissons Ratio (z) = 0.36278 -0.20323
#
# Static dielectric constant tensor:
#      x y z
#    x 4.304990 -0.065960 0.065680 
#    y -0.065960 3.131600 0.125500 
#    z 0.065680 0.125500 3.982590 
# 
# 
# High freq. dielectric constant tensor:
#      x y z
#    x 1.885050 0.004520 0.001340 
#    y 0.004520 1.812230 0.007510 
#    z 0.001340 0.007510 1.847210 
# 
# From -- ./inp_files/583969.got.cif
#   From: 2010.06.25/outbox.cif.g09.slc.cpg/sg2_292_cif.got.tgz:583969.got - 2010.06.27 13:26:56.
