data_PCOD8044378
_publ_section_title
;
Structure prediction by ZEFSAII (Michael W. Deem and Ramdas Pophale) SiO2 
 PCOD8044378
Probable space group: P -1
;
_chemical_formula_sum "Si O2"
_cell_formula_units_Z 16
_cell_length_a 8.482394
_cell_length_b 13.588006
_cell_length_c 17.362142
_cell_angle_alpha 146.506424
_cell_angle_beta 120.510666
_cell_angle_gamma 81.718743
_cell_volume 769.835460
_symmetry_space_group_name_H-M "P -1"
_symmetry_group_IT_number 2
_symmetry_cell_setting 'triclinic'
loop_
_space_group_symop_operation_xyz
x,y,z
-x,-y,-z
loop_
_atom_site_type_symbol
_atom_site_label
_atom_site_fract_x
_atom_site_fract_y
_atom_site_fract_z
Si Si1 0.119977 0.960473 0.750095
Si Si2 0.184759 0.452465 0.512777
Si Si3 0.727105 0.322612 0.465539
Si Si4 0.160817 0.924147 0.482080
Si Si5 0.581931 0.032600 0.736423
Si Si6 0.279486 0.094637 0.459606
Si Si7 0.534675 0.432234 0.193170
Si Si8 0.121452 0.535376 0.815251
O O1 0.249576 0.860381 0.686552
O O2 0.284662 0.209189 0.982003
O O3 0.949735 0.811370 0.681360
O O4 0.963465 0.944724 0.632032
O O5 0.312565 0.547101 0.524197
O O6 0.359062 0.578518 0.708137
O O7 0.000000 0.500000 0.500000
O O8 0.949091 0.505544 0.687819
O O9 0.508460 0.186945 0.378288
O O10 0.006724 0.661977 0.283875
O O11 0.366284 0.039135 0.670190
O O12 0.279402 0.986253 0.468441
O O13 0.000000 0.000000 0.500000
O O14 0.687994 0.025365 0.679066
O O15 0.779174 0.242488 0.968481
O O16 0.476429 0.358408 0.676592
O O17 0.675209 0.452425 0.166882
#
# Coordination Sequence:
#
# PCOD8044378 Si02
#       8
#     2   2   2   2   2   2   2   2
#     4  10  20  35  60  86 115 155 197 240 285 346
#     4   9  18  33  57  93 119 144 198 253 281 332
#     4  10  19  38  59  89 122 149 195 248 286 340
#     4  11  23  41  63  87 117 150 194 245 285 346
#     4  11  25  38  62  87 119 155 192 237 297 345
#     4  11  23  43  57  86 122 152 193 244 289 346
#     4  11  20  36  63  87 116 158 196 238 295 340
#     4  11  21  37  60  89 115 153 197 236 288 348
#
# _framework density 20.783660999999999
#
# number of rings (size 3 to 8) (size 9 to 14) (size 15 to 20)
#    0.000    1.500    6.250    1.125    0.000    7.000 
#    0.000    2.500    0.000    4.500    0.000    0.000 
#    0.000    0.000    0.000    0.000    0.000    0.000 
#
# Total GULP energy -198363.949536 kJ/mol
# GULP energy per Si atom -12397.746846 kJ/mol
# Density = 2.073636 g / cm^3
# Si number density = 20.783661 Si / 1000 Ang^3
#
#
#
# Elastic Constant Matrix: (Units=GPa)
#
#
# Indices 1 2 3 4 5 6 
#
# 1 42.9997 11.0819 17.5058 0.5666 -6.0170 22.1954
# 2 11.0819 125.9197 45.6227 -0.9902 8.7448 39.6961
# 3 17.5058 45.6227 158.7272 8.3625 9.3328 16.5534
# 4 0.5666 -0.9902 8.3625 16.5999 6.8384 -1.0503
# 5 -6.0170 8.7448 9.3328 6.8384 29.9887 -1.3130
# 6 22.1954 39.6961 16.5534 -1.0503 -1.3130 29.8607
#
#
#
# Elastic Compliance Matrix: (Units=1/GPa)
#
#
# Indices 1 2 3 4 5 6 
#
# 1 0.048675 0.012641 -0.003819 -0.004717 0.006121 -0.050765
# 2 0.012641 0.018402 -0.003205 0.001744 -0.003639 -0.032181
# 3 -0.003819 -0.003205 0.007606 -0.003161 -0.001359 0.002712
# 4 -0.004717 0.001744 -0.003161 0.068984 -0.015997 0.004663
# 5 0.006121 -0.003639 -0.001359 -0.015997 0.039804 0.002228
# 6 -0.050765 -0.032181 0.002712 0.004663 0.002228 0.112761
#
#
# Mechanical properties :
#
#
# Convention : Reuss Voigt Hill
#
# Bulk Modulus (GPa) = 11.63915 52.89640 32.26778
# Shear Modulus (GPa) = 15.94203 32.18561 24.06382
#
# Velocity S-wave (km/s) = 2.77256 3.93950 3.40637
# Velocity P-wave (km/s) = 3.98269 6.79699 5.57050
#
# Compressibility (1/GPa) = 0.08591690
#
# Stress axis : x y z
#
# Youngs Moduli (GPa) = 20.54441 54.34273 131.47182
#
# Poissons Ratio (x) = -0.68696 0.50209
# Poissons Ratio (y) = -0.25971 0.42139
# Poissons Ratio (z) = 0.07846 0.17418
#
# Static dielectric constant tensor:
#      x y z
#    x 3.629450 0.420960 0.177690 
#    y 0.420960 4.516680 0.021950 
#    z 0.177690 0.021950 3.687150 
# 
# 
# High freq. dielectric constant tensor:
#      x y z
#    x 1.795230 0.020630 0.012290 
#    y 0.020630 1.823910 -0.000510 
#    z 0.012290 -0.000510 1.803260 
# 
# From -- ./inp_files/294110.got.cif
#   From: 2010.06.25/outbox.cif.g09.slc.cpg/sg2_148_cif.got.tgz:294110.got - 2010.06.27 13:26:56.
