data_PCOD8044203
_publ_section_title
;
Structure prediction by ZEFSAII (Michael W. Deem and Ramdas Pophale) SiO2 
 PCOD8044203
Probable space group: P -1
;
_chemical_formula_sum "Si O2"
_cell_formula_units_Z 16
_cell_length_a 9.206088
_cell_length_b 10.785999
_cell_length_c 12.632490
_cell_angle_alpha 87.506645
_cell_angle_beta 48.409110
_cell_angle_gamma 112.507236
_cell_volume 782.168114
_symmetry_space_group_name_H-M "P -1"
_symmetry_group_IT_number 2
_symmetry_cell_setting 'triclinic'
loop_
_space_group_symop_operation_xyz
x,y,z
-x,-y,-z
loop_
_atom_site_type_symbol
_atom_site_label
_atom_site_fract_x
_atom_site_fract_y
_atom_site_fract_z
Si Si1 0.725535 0.885491 0.127414
Si Si2 0.203506 0.336181 0.794003
Si Si3 0.404263 0.579076 0.969677
Si Si4 0.931674 0.326245 0.123597
Si Si5 0.688681 0.015893 0.329347
Si Si6 0.603527 0.899856 0.949222
Si Si7 0.503831 0.651755 0.685111
Si Si8 0.906389 0.859646 0.337223
O O1 0.665511 0.727403 0.203692
O O2 0.651912 0.873225 0.044460
O O3 0.594540 0.945213 0.259895
O O4 0.000000 0.000000 0.000000
O O5 0.404826 0.506542 0.664523
O O6 0.079133 0.250879 0.748220
O O7 0.014174 0.334627 0.962696
O O8 0.531184 0.613583 0.793498
O O9 0.500000 0.500000 0.000000
O O10 0.445996 0.733823 0.985401
O O11 0.125387 0.469965 0.090927
O O12 0.900070 0.186755 0.207474
O O13 0.678250 0.299376 0.240031
O O14 0.500000 0.000000 0.500000
O O15 0.776105 0.919287 0.335843
O O16 0.500000 0.000000 0.000000
O O17 0.837991 0.999971 0.762004
O O18 0.761868 0.777288 0.515670
#
# Coordination Sequence:
#
# PCOD8044203 Si02
#       8
#     2   2   2   2   2   2   2   2
#     4  11  20  39  68  85 118 168 217 257 301 374
#     4  10  19  37  65  93 120 157 213 262 307 367
#     4  11  25  43  64  90 133 173 209 256 320 388
#     4  11  21  38  68  96 119 164 221 258 303 376
#     4  11  20  36  66 100 123 153 211 272 315 357
#     4  12  26  40  64  96 129 171 212 259 319 384
#     4  11  24  38  67  95 123 161 214 270 310 367
#     4  11  22  40  63  95 129 164 205 271 322 366
#
# _framework density 20.455960000000001
#
# number of rings (size 3 to 8) (size 9 to 14) (size 15 to 20)
#    0.000    1.000    5.000    4.125    5.250    0.500 
#    0.000    1.250    0.000    2.250    0.000    0.000 
#    0.000    0.000    0.000    0.000    0.000    0.000 
#
# Total GULP energy -198282.998717 kJ/mol
# GULP energy per Si atom -12392.687420 kJ/mol
# Density = 2.040940 g / cm^3
# Si number density = 20.455960 Si / 1000 Ang^3
#
#
#
# Elastic Constant Matrix: (Units=GPa)
#
#
# Indices 1 2 3 4 5 6 
#
# 1 52.5544 15.6401 16.7224 5.6335 6.4063 0.9711
# 2 15.6401 128.9898 36.3518 1.0263 -1.9417 -3.5036
# 3 16.7224 36.3518 117.2755 -3.6122 -0.0924 7.7231
# 4 5.6335 1.0263 -3.6122 31.4443 -7.6265 4.0310
# 5 6.4063 -1.9417 -0.0924 -7.6265 28.7816 -0.3277
# 6 0.9711 -3.5036 7.7231 4.0310 -0.3277 28.0958
#
#
#
# Elastic Compliance Matrix: (Units=1/GPa)
#
#
# Indices 1 2 3 4 5 6 
#
# 1 0.021886 -0.001918 -0.002745 -0.005828 -0.006548 0.000519
# 2 -0.001918 0.008781 -0.002582 -0.000251 0.000966 0.001918
# 3 -0.002745 -0.002582 0.010012 0.002410 0.001070 -0.003312
# 4 -0.005828 -0.000251 0.002410 0.036492 0.010894 -0.005601
# 5 -0.006548 0.000966 0.001070 0.010894 0.039145 -0.001054
# 6 0.000519 0.001918 -0.003312 -0.005601 -0.001054 0.037516
#
#
# Mechanical properties :
#
#
# Convention : Reuss Voigt Hill
#
# Bulk Modulus (GPa) = 38.18391 48.47204 43.32797
# Shear Modulus (GPa) = 28.24050 33.00471 30.62260
#
# Velocity S-wave (km/s) = 3.71961 4.02114 3.87331
# Velocity P-wave (km/s) = 6.09543 6.73102 6.42109
#
# Compressibility (1/GPa) = 0.02618904
#
# Stress axis : x y z
#
# Youngs Moduli (GPa) = 45.69220 113.87752 99.88197
#
# Poissons Ratio (x) = 0.21844 0.27417
# Poissons Ratio (y) = 0.08765 0.25787
# Poissons Ratio (z) = 0.12542 0.29400
#
# Static dielectric constant tensor:
#      x y z
#    x 3.531390 0.027810 0.248170 
#    y 0.027810 3.974250 -0.284510 
#    z 0.248170 -0.284510 3.689520 
# 
# 
# High freq. dielectric constant tensor:
#      x y z
#    x 1.777550 -0.018520 0.016500 
#    y -0.018520 1.821800 -0.002220 
#    z 0.016500 -0.002220 1.795610 
# 
# From -- ./inp_files/392560.got.cif
#   From: 2010.06.25/outbox.cif.g09.slc.cpg/sg2_197_cif.got.tgz:392560.got - 2010.06.27 13:26:56.
