data_PCOD8044273
_publ_section_title
;
Structure prediction by ZEFSAII (Michael W. Deem and Ramdas Pophale) SiO2 
 PCOD8044273
Probable space group: P -1
;
_chemical_formula_sum "Si O2"
_cell_formula_units_Z 12
_cell_length_a 8.996495
_cell_length_b 8.731934
_cell_length_c 11.161184
_cell_angle_alpha 139.050878
_cell_angle_beta 126.827480
_cell_angle_gamma 76.368465
_cell_volume 418.748261
_symmetry_space_group_name_H-M "P -1"
_symmetry_group_IT_number 2
_symmetry_cell_setting 'triclinic'
loop_
_space_group_symop_operation_xyz
x,y,z
-x,-y,-z
loop_
_atom_site_type_symbol
_atom_site_label
_atom_site_fract_x
_atom_site_fract_y
_atom_site_fract_z
Si Si1 0.301392 0.464612 0.996449
Si Si2 0.381003 0.194222 0.461889
Si Si3 0.501357 0.879791 0.164417
Si Si4 0.969644 0.726023 0.042878
Si Si5 0.236498 0.902991 0.849556
Si Si6 0.126426 0.442574 0.363204
O O1 0.504748 0.627607 0.267687
O O2 0.312259 0.623874 0.974701
O O3 0.098287 0.441101 0.960920
O O4 0.303905 0.191249 0.798645
O O5 0.299738 0.343277 0.418338
O O6 0.535204 0.109617 0.409898
O O7 0.198217 0.943921 0.282555
O O8 0.451699 0.950552 0.047712
O O9 0.911098 0.558610 0.796117
O O10 0.797135 0.841724 0.041252
O O11 0.199690 0.737715 0.612579
O O12 0.075811 0.745162 0.779681
#
# Coordination Sequence:
#
# PCOD8044273 Si02
#       6
#     2   2   2   2   2   2
#     4  11  27  41  63  95 129 165 212 253 311 377
#     4  11  21  43  67  89 127 168 203 260 316 363
#     4  11  22  45  62  89 133 171 199 259 319 368
#     4  11  23  41  67  99 119 161 218 260 303 373
#     4  10  19  38  69  90 126 168 201 258 321 362
#     4  10  19  37  67  96 121 161 212 257 312 366
#
# _framework density 28.656838
#
# number of rings (size 3 to 8) (size 9 to 14) (size 15 to 20)
#    0.000    1.333    5.000    1.500    0.000    3.333 
#    0.000    3.333    0.000    0.000    0.000    0.000 
#    0.000    0.000    0.000    0.000    0.000    0.000 
#
# Total GULP energy -148835.540568 kJ/mol
# GULP energy per Si atom -12402.961714 kJ/mol
# Density = 2.859161 g / cm^3
# Si number density = 28.656838 Si / 1000 Ang^3
#
#
#
# Elastic Constant Matrix: (Units=GPa)
#
#
# Indices 1 2 3 4 5 6 
#
# 1 149.4743 40.5788 29.6284 7.3868 -33.5835 10.3596
# 2 40.5788 123.8330 47.6962 -17.5006 -16.5134 8.3406
# 3 29.6284 47.6962 53.8838 14.2577 -22.1609 18.5523
# 4 7.3868 -17.5006 14.2577 21.5740 -4.3027 -6.4452
# 5 -33.5835 -16.5134 -22.1609 -4.3027 53.5367 3.7696
# 6 10.3596 8.3406 18.5523 -6.4452 3.7696 52.0929
#
#
#
# Elastic Compliance Matrix: (Units=1/GPa)
#
#
# Indices 1 2 3 4 5 6 
#
# 1 0.021058 -0.073956 0.136435 -0.169123 0.037830 -0.064599
# 2 -0.073956 0.425495 -0.796331 0.967004 -0.192678 0.363773
# 3 0.136435 -0.796331 1.529107 -1.837272 0.374447 -0.698622
# 4 -0.169123 0.967004 -1.837272 2.266688 -0.445724 0.845834
# 5 0.037830 -0.192678 0.374447 -0.445724 0.114367 -0.173452
# 6 -0.064599 0.363773 -0.698622 0.845834 -0.173452 0.339810
#
#
# Mechanical properties :
#
#
# Convention : Reuss Voigt Hill
#
# Bulk Modulus (GPa) = 1.96868 62.55533 32.26200
# Shear Modulus (GPa) = 0.78945 39.39323 20.09134
#
# Velocity S-wave (km/s) = 0.52543 3.71165 2.65070
# Velocity P-wave (km/s) = 1.02790 6.34390 4.54431
#
# Compressibility (1/GPa) = 0.50795586
#
# Stress axis : x y z
#
# Youngs Moduli (GPa) = 47.48719 2.35020 0.65398
#
# Poissons Ratio (x) = 0.17381 -0.08922
# Poissons Ratio (y) = 3.51196 0.52078
# Poissons Ratio (z) = -6.47890 1.87154
#
# Static dielectric constant tensor:
#      x y z
#    x 5.788430 -0.150490 -0.208530 
#    y -0.150490 6.099410 0.296270 
#    z -0.208530 0.296270 4.795040 
# 
# 
# High freq. dielectric constant tensor:
#      x y z
#    x 2.206870 0.003160 -0.015280 
#    y 0.003160 2.199180 0.016460 
#    z -0.015280 0.016460 2.131530 
# 
# From -- ./inp_files/161919.got.cif
#   From: 2010.06.25/outbox.cif.g09.slc.cpg/sg2_81_cif.got.tgz:161919.got - 2010.06.27 13:26:56.
