data_PCOD8044711
_publ_section_title
;
Structure prediction by ZEFSAII (Michael W. Deem and Ramdas Pophale) SiO2 
 PCOD8044711
Probable space group: P -1
;
_chemical_formula_sum "Si O2"
_cell_formula_units_Z 14
_cell_length_a 19.343262
_cell_length_b 7.972887
_cell_length_c 12.306816
_cell_angle_alpha 125.451129
_cell_angle_beta 35.676355
_cell_angle_gamma 98.274086
_cell_volume 653.677327
_symmetry_space_group_name_H-M "P -1"
_symmetry_group_IT_number 2
_symmetry_cell_setting 'triclinic'
loop_
_space_group_symop_operation_xyz
x,y,z
-x,-y,-z
loop_
_atom_site_type_symbol
_atom_site_label
_atom_site_fract_x
_atom_site_fract_y
_atom_site_fract_z
Si Si1 0.815166 0.985069 0.696586
Si Si2 0.001570 0.909222 0.632568
Si Si3 0.763415 0.330832 0.268490
Si Si4 0.485003 0.374358 0.702528
Si Si5 0.329456 0.323749 0.063860
Si Si6 0.525796 0.712637 0.542271
Si Si7 0.681076 0.721422 0.704751
O O1 0.944138 0.942912 0.437282
O O2 0.802763 0.762907 0.594327
O O3 0.634263 0.287778 0.022109
O O4 0.871056 0.949305 0.737191
O O5 0.155263 0.573621 0.325115
O O6 0.929635 0.047128 0.895660
O O7 0.665943 0.247108 0.405019
O O8 0.676237 0.574733 0.378367
O O9 0.785378 0.459643 0.389123
O O10 0.436967 0.276878 0.627574
O O11 0.471570 0.269717 0.793862
O O12 0.339792 0.387591 0.199008
O O13 0.368763 0.031119 0.902952
O O14 0.500000 0.500000 0.500000
O O15 0.500000 0.000000 0.000000
#
# Coordination Sequence:
#
# PCOD8044711 Si02
#       7
#     2   2   2   2   2   2   2
#     4  10  21  44  68  94 131 177 213 266 331 391
#     4  10  24  43  67  97 132 169 218 273 329 376
#     4  11  22  40  68  93 131 176 211 266 326 391
#     4  10  20  38  66  98 126 168 227 268 312 376
#     4  11  24  40  64  99 130 168 221 271 323 385
#     4  10  19  38  65  93 125 169 222 266 317 376
#     4  12  23  41  66  96 129 178 224 259 325 391
#
# _framework density 21.417294999999999
#
# number of rings (size 3 to 8) (size 9 to 14) (size 15 to 20)
#    0.000    1.429    4.286    1.286    2.000    2.286 
#    0.000    0.000    0.000    0.000    0.000    0.000 
#    0.000    0.000    0.000    0.000    0.000    0.000 
#
# Total GULP energy -173540.054754 kJ/mol
# GULP energy per Si atom -12395.718197 kJ/mol
# Density = 2.136855 g / cm^3
# Si number density = 21.417295 Si / 1000 Ang^3
#
#
#
# Elastic Constant Matrix: (Units=GPa)
#
#
# Indices 1 2 3 4 5 6 
#
# 1 109.9452 47.2458 26.6845 -11.8626 33.0674 1.7884
# 2 47.2458 75.9697 36.2109 -2.0195 9.0803 -6.6017
# 3 26.6845 36.2109 108.1193 -6.0450 24.5916 7.6446
# 4 -11.8626 -2.0195 -6.0450 34.0663 -1.8823 2.4282
# 5 33.0674 9.0803 24.5916 -1.8823 41.1642 0.3029
# 6 1.7884 -6.6017 7.6446 2.4282 0.3029 32.6228
#
#
#
# Elastic Compliance Matrix: (Units=1/GPa)
#
#
# Indices 1 2 3 4 5 6 
#
# 1 0.017869 -0.011153 0.002986 0.005653 -0.013388 -0.004233
# 2 -0.011153 0.023301 -0.007644 -0.003931 0.008152 0.007335
# 3 0.002986 -0.007644 0.013553 0.002872 -0.008641 -0.005020
# 4 0.005653 -0.003931 0.002872 0.031676 -0.003911 -0.004100
# 5 -0.013388 0.008152 -0.008641 -0.003911 0.038200 0.004345
# 6 -0.004233 0.007335 -0.005020 -0.004100 0.004345 0.033811
#
#
# Mechanical properties :
#
#
# Convention : Reuss Voigt Hill
#
# Bulk Modulus (GPa) = 43.28952 57.14628 50.21790
# Shear Modulus (GPa) = 25.28658 33.83020 29.55839
#
# Velocity S-wave (km/s) = 3.43980 3.97870 3.71902
# Velocity P-wave (km/s) = 6.00272 6.91715 6.47609
#
# Compressibility (1/GPa) = 0.02310028
#
# Stress axis : x y z
#
# Youngs Moduli (GPa) = 55.96301 42.91602 73.78424
#
# Poissons Ratio (x) = 0.47865 -0.22029
# Poissons Ratio (y) = 0.62417 0.56400
# Poissons Ratio (z) = -0.16708 0.32805
#
# Static dielectric constant tensor:
#      x y z
#    x 4.066420 -0.324830 0.366590 
#    y -0.324830 3.900390 -0.149080 
#    z 0.366590 -0.149080 3.887610 
# 
# 
# High freq. dielectric constant tensor:
#      x y z
#    x 1.830030 -0.014090 0.022860 
#    y -0.014090 1.831680 -0.007280 
#    z 0.022860 -0.007280 1.839160 
# 
# From -- ./inp_files/352336.got.cif
#   From: 2010.06.25/outbox.cif.g09.slc.cpg/sg2_177_cif.got.tgz:352336.got - 2010.06.27 13:26:56.
