data_PCOD8044567
_publ_section_title
;
Structure prediction by ZEFSAII (Michael W. Deem and Ramdas Pophale) SiO2 
 PCOD8044567
Probable space group: P -1
;
_chemical_formula_sum "Si O2"
_cell_formula_units_Z 16
_cell_length_a 20.262204
_cell_length_b 11.399735
_cell_length_c 9.193120
_cell_angle_alpha 36.113364
_cell_angle_beta 124.123329
_cell_angle_gamma 140.655270
_cell_volume 781.813272
_symmetry_space_group_name_H-M "P -1"
_symmetry_group_IT_number 2
_symmetry_cell_setting 'triclinic'
loop_
_space_group_symop_operation_xyz
x,y,z
-x,-y,-z
loop_
_atom_site_type_symbol
_atom_site_label
_atom_site_fract_x
_atom_site_fract_y
_atom_site_fract_z
Si Si1 0.402493 0.376294 0.105068
Si Si2 0.452241 0.752848 0.024971
Si Si3 0.688753 0.192366 0.381595
Si Si4 0.053067 0.025136 0.720388
Si Si5 0.844331 0.420895 0.089532
Si Si6 0.334773 0.697208 0.204923
Si Si7 0.734891 0.553428 0.319075
Si Si8 0.056085 0.775333 0.713438
O O1 0.339847 0.080000 0.364006
O O2 0.500000 0.500000 0.000000
O O3 0.440925 0.526359 0.155869
O O4 0.324410 0.387184 0.910996
O O5 0.411721 0.860051 0.759390
O O6 0.575702 0.987917 0.976009
O O7 0.382030 0.625791 0.212528
O O8 0.788519 0.374970 0.217212
O O9 0.722224 0.323401 0.451019
O O10 0.107110 0.016191 0.650360
O O11 0.143767 0.172080 0.806547
O O12 0.024877 0.214466 0.483466
O O13 0.952229 0.723795 0.932291
O O14 0.862412 0.209544 0.306068
O O15 0.773430 0.377617 0.908959
O O16 0.311467 0.541584 0.480574
O O17 0.000000 0.500000 0.000000
#
# Coordination Sequence:
#
# PCOD8044567 Si02
#       8
#     2   2   2   2   2   2   2   2
#     4  11  23  40  62  86 117 157 193 235 295 354
#     4   9  21  40  60  86 121 151 189 242 295 347
#     4  10  23  41  58  85 120 156 194 238 292 348
#     4  10  21  37  57  85 119 156 194 237 291 340
#     4  10  22  39  61  86 118 155 195 242 287 342
#     4  10  19  38  63  88 117 151 191 244 293 340
#     4  11  23  38  60  87 119 154 194 238 288 347
#     4   9  18  34  56  83 116 150 190 240 286 334
#
# _framework density 20.465243999999998
#
# number of rings (size 3 to 8) (size 9 to 14) (size 15 to 20)
#    0.000    2.000    0.000    3.750    0.000   10.500 
#    0.000   12.500    0.000    0.000    0.000    0.000 
#    0.000    0.000    0.000    0.000    0.000    0.000 
#
# Total GULP energy -198292.681210 kJ/mol
# GULP energy per Si atom -12393.292576 kJ/mol
# Density = 2.041866 g / cm^3
# Si number density = 20.465244 Si / 1000 Ang^3
#
#
#
# Elastic Constant Matrix: (Units=GPa)
#
#
# Indices 1 2 3 4 5 6 
#
# 1 96.4626 58.2062 32.4511 -8.8958 2.6227 -13.8894
# 2 58.2062 147.0719 31.7175 -8.9599 -3.1924 -6.6052
# 3 32.4511 31.7175 64.4296 -16.2091 -3.3915 -15.7452
# 4 -8.8958 -8.9599 -16.2091 23.9680 -7.9054 -3.6400
# 5 2.6227 -3.1924 -3.3915 -7.9054 34.8345 -0.9629
# 6 -13.8894 -6.6052 -15.7452 -3.6400 -0.9629 33.3453
#
#
#
# Elastic Compliance Matrix: (Units=1/GPa)
#
#
# Indices 1 2 3 4 5 6 
#
# 1 0.015486 -0.005019 -0.004365 0.000861 -0.001760 0.003438
# 2 -0.005019 0.009244 -0.002210 0.000249 0.001032 -0.001246
# 3 -0.004365 -0.002210 0.027781 0.021002 0.007967 0.013385
# 4 0.000861 0.000249 0.021002 0.064723 0.017186 0.017887
# 5 -0.001760 0.001032 0.007967 0.017186 0.033778 0.006085
# 6 0.003438 -0.001246 0.013385 0.017887 0.006085 0.039623
#
#
# Mechanical properties :
#
#
# Convention : Reuss Voigt Hill
#
# Bulk Modulus (GPa) = 34.10255 61.41264 47.75760
# Shear Modulus (GPa) = 22.36156 30.80216 26.58186
#
# Velocity S-wave (km/s) = 3.30913 3.88377 3.60791
# Velocity P-wave (km/s) = 5.59466 7.08413 6.38299
#
# Compressibility (1/GPa) = 0.02932332
#
# Stress axis : x y z
#
# Youngs Moduli (GPa) = 64.57522 108.17864 35.99539
#
# Poissons Ratio (x) = 0.54293 0.15711
# Poissons Ratio (y) = 0.32409 0.07956
# Poissons Ratio (z) = 0.28186 0.23911
#
# Static dielectric constant tensor:
#      x y z
#    x 1.471340 1.285730 0.875060 
#    y 1.285730 3.123160 -0.330780 
#    z 0.875060 -0.330780 3.301720 
# 
# 
# High freq. dielectric constant tensor:
#      x y z
#    x 1.809020 -0.003320 0.002060 
#    y -0.003320 1.808400 -0.003470 
#    z 0.002060 -0.003470 1.786150 
# 
# From -- ./inp_files/46251.got.cif
#   From: 2010.06.25/outbox.cif.g09.slc.cpg/sg2_24_cif.got.tgz:46251.got - 2010.06.27 13:26:56.
