data_PCOD8044926
_publ_section_title
;
Structure prediction by ZEFSAII (Michael W. Deem and Ramdas Pophale) SiO2 
 PCOD8044926
Probable space group: P 2
;
_chemical_formula_sum "Si O2"
_cell_formula_units_Z 16
_cell_length_a 9.047101
_cell_length_b 12.178898
_cell_length_c 8.737034
_cell_angle_alpha 90.000000
_cell_angle_beta 122.594120
_cell_angle_gamma 90.000000
_cell_volume 811.064379
_symmetry_space_group_name_H-M "P 2"
_symmetry_group_IT_number 3
_symmetry_cell_setting 'monoclinic'
loop_
_space_group_symop_operation_xyz
x,y,z
-x,y,-z
loop_
_atom_site_type_symbol
_atom_site_label
_atom_site_fract_x
_atom_site_fract_y
_atom_site_fract_z
Si Si1 0.810568 0.546380 0.457266
Si Si2 0.669728 0.325759 0.699470
Si Si3 0.193510 0.765194 0.678289
Si Si4 0.680218 0.571182 0.694077
Si Si5 0.191548 0.769479 0.039340
Si Si6 0.814201 0.307215 0.475819
Si Si7 0.498093 0.920886 0.817296
Si Si8 0.507182 0.169748 0.185031
O O1 0.718658 0.646632 0.315694
O O2 0.829633 0.578373 0.647054
O O3 0.718408 0.426586 0.389136
O O4 0.000000 0.525853 0.500000
O O5 0.500000 0.310300 0.500000
O O6 0.681439 0.449947 0.770859
O O7 0.830749 0.297366 0.671921
O O8 0.653729 0.240059 0.831282
O O9 0.317597 0.858030 0.671701
O O10 0.000000 0.776452 0.500000
O O11 0.177665 0.768384 0.850176
O O12 0.500000 0.595325 0.500000
O O13 0.727721 0.655734 0.853686
O O14 0.331116 0.863769 0.162677
O O15 0.000000 0.796294 0.000000
O O16 0.695407 0.212918 0.340452
O O17 0.000000 0.294403 0.500000
O O18 0.501503 0.045077 0.759177
O O19 0.500000 0.915994 0.000000
O O20 0.500000 0.176637 0.000000
#
# Coordination Sequence:
#
# PCOD8044926 Si02
#       8
#     2   2   2   2   2   2   2   2
#     4   9  17  32  53  78 111 143 171 213 271 330
#     4   8  17  35  55  79 112 144 177 220 270 326
#     4  10  20  37  58  82 112 145 183 226 275 331
#     4  10  19  34  56  82 112 143 178 222 271 326
#     4  11  22  36  56  82 112 144 183 228 275 327
#     4   9  18  34  56  80 108 141 176 220 272 326
#     4   9  21  39  55  75 108 147 184 228 276 323
#     4  10  20  37  56  76 106 143 185 229 273 321
#
# _framework density 19.727163000000001
#
# number of rings (size 3 to 8) (size 9 to 14) (size 15 to 20)
#    0.000    2.500    0.000    3.000    0.000    1.500 
#    0.000   15.000    0.000    0.000    0.000    0.000 
#    0.000    0.000    0.000    0.000    0.000    0.000 
#
# Total GULP energy -198216.473272 kJ/mol
# GULP energy per Si atom -12388.529579 kJ/mol
# Density = 1.968226 g / cm^3
# Si number density = 19.727163 Si / 1000 Ang^3
#
#
#
# Elastic Constant Matrix: (Units=GPa)
#
#
# Indices 1 2 3 4 5 6 
#
# 1 136.6013 74.6081 38.9373 0.0000 -7.8709 0.0000
# 2 74.6081 172.0514 53.3347 0.0000 -2.6039 0.0000
# 3 38.9373 53.3347 69.4804 0.0000 -1.0560 0.0000
# 4 0.0000 0.0000 0.0000 28.5032 0.0000 -0.6185
# 5 -7.8709 -2.6039 -1.0560 0.0000 28.3452 0.0000
# 6 0.0000 0.0000 0.0000 -0.6185 0.0000 29.9872
#
#
#
# Elastic Compliance Matrix: (Units=1/GPa)
#
#
# Indices 1 2 3 4 5 6 
#
# 1 0.010209 -0.003449 -0.003037 0.000000 0.002405 0.000000
# 2 -0.003449 0.008799 -0.004826 0.000000 -0.000329 0.000000
# 3 -0.003037 -0.004826 0.019791 0.000000 -0.000549 0.000000
# 4 0.000000 0.000000 0.000000 0.035099 0.000000 0.000724
# 5 0.002405 -0.000329 -0.000549 0.000000 0.035896 0.000000
# 6 0.000000 0.000000 0.000000 0.000724 0.000000 0.033363
#
#
# Mechanical properties :
#
#
# Convention : Reuss Voigt Hill
#
# Bulk Modulus (GPa) = 61.82814 79.09924 70.46369
# Shear Modulus (GPa) = 29.21022 31.45064 30.33043
#
# Velocity S-wave (km/s) = 3.85217 3.99718 3.92535
# Velocity P-wave (km/s) = 7.15509 7.84136 7.50607
#
# Compressibility (1/GPa) = 0.01617387
#
# Stress axis : x y z
#
# Youngs Moduli (GPa) = 97.95728 113.64887 50.52806
#
# Poissons Ratio (x) = 0.39198 0.15345
# Poissons Ratio (y) = 0.33786 0.24387
# Poissons Ratio (z) = 0.29748 0.54852
#
# Static dielectric constant tensor:
#      x y z
#    x 4.044270 0.000000 -0.220280 
#    y 0.000000 3.988860 0.000000 
#    z -0.220280 0.000000 3.081880 
# 
# 
# High freq. dielectric constant tensor:
#      x y z
#    x 1.787770 0.000000 -0.015630 
#    y 0.000000 1.773470 0.000000 
#    z -0.015630 0.000000 1.730150 
# 
# From -- ./inp_files/6037.got.cif
#   From: 2010.03.12/outbox.cif.g09.slc.cpg/sg3_4_cif.got.tgz:6037.got - 2010.03.31 09:20:49.
