data_PCOD8044540
_publ_section_title
;
Structure prediction by ZEFSAII (Michael W. Deem and Ramdas Pophale) SiO2 
 PCOD8044540
Probable space group: P -1
;
_chemical_formula_sum "Si O2"
_cell_formula_units_Z 16
_cell_length_a 7.498044
_cell_length_b 10.334556
_cell_length_c 18.888276
_cell_angle_alpha 144.914207
_cell_angle_beta 114.650634
_cell_angle_gamma 75.366462
_cell_volume 753.538181
_symmetry_space_group_name_H-M "P -1"
_symmetry_group_IT_number 2
_symmetry_cell_setting 'triclinic'
loop_
_space_group_symop_operation_xyz
x,y,z
-x,-y,-z
loop_
_atom_site_type_symbol
_atom_site_label
_atom_site_fract_x
_atom_site_fract_y
_atom_site_fract_z
Si Si1 0.780246 0.073137 0.930054
Si Si2 0.198081 0.304366 0.129431
Si Si3 0.403210 0.656410 0.862390
Si Si4 0.065462 0.505888 0.633237
Si Si5 0.868461 0.249309 0.617568
Si Si6 0.714925 0.835465 0.328090
Si Si7 0.745073 0.582232 0.512993
Si Si8 0.488150 0.873703 0.676126
O O1 0.641014 0.192509 0.011674
O O2 0.989847 0.239822 0.023860
O O3 0.824337 0.836816 0.864463
O O4 0.667376 0.017870 0.813716
O O5 0.380316 0.239530 0.085697
O O6 0.238158 0.571230 0.277169
O O7 0.232142 0.666137 0.779306
O O8 0.417748 0.400789 0.775500
O O9 0.173648 0.369822 0.531568
O O10 0.930198 0.329819 0.583535
O O11 0.921529 0.648926 0.630338
O O12 0.064687 0.212021 0.676044
O O13 0.721530 0.009791 0.474240
O O14 0.628304 0.936917 0.289860
O O15 0.576733 0.736731 0.566297
O O16 0.654280 0.311153 0.382390
#
# Coordination Sequence:
#
# PCOD8044540 Si02
#       8
#     2   2   2   2   2   2   2   2
#     4  11  24  42  66  93 126 171 210 268 306 374
#     4  11  23  42  68  93 125 167 217 261 312 370
#     4  11  24  43  65  97 125 169 216 256 311 381
#     4  10  19  38  62  94 127 156 205 273 315 366
#     4  10  20  42  65  91 127 166 207 263 316 371
#     4  10  22  40  63  91 127 169 206 260 317 372
#     4  10  22  37  62  93 130 157 209 270 319 372
#     4  11  23  40  61  91 125 176 207 253 326 374
#
# _framework density 21.233163000000001
#
# number of rings (size 3 to 8) (size 9 to 14) (size 15 to 20)
#    0.000    1.500    3.750    1.875    5.250    1.000 
#    6.750    0.625    0.000    0.000    0.000    0.000 
#    0.000    0.000    0.000    0.000    0.000    0.000 
#
# Total GULP energy -198406.340726 kJ/mol
# GULP energy per Si atom -12400.396295 kJ/mol
# Density = 2.118484 g / cm^3
# Si number density = 21.233163 Si / 1000 Ang^3
#
#
#
# Elastic Constant Matrix: (Units=GPa)
#
#
# Indices 1 2 3 4 5 6 
#
# 1 70.2284 -5.3915 1.6081 -1.4816 0.2791 -2.6529
# 2 -5.3915 74.9328 13.5968 -5.1612 2.7638 -10.8780
# 3 1.6081 13.5968 75.1282 2.2750 7.1953 -5.9109
# 4 -1.4816 -5.1612 2.2750 30.8897 -4.0013 -2.8243
# 5 0.2791 2.7638 7.1953 -4.0013 22.9380 2.6542
# 6 -2.6529 -10.8780 -5.9109 -2.8243 2.6542 21.1885
#
#
#
# Elastic Compliance Matrix: (Units=1/GPa)
#
#
# Indices 1 2 3 4 5 6 
#
# 1 0.014501 0.001607 -0.000388 0.001197 -0.000356 0.002736
# 2 0.001607 0.015309 -0.002119 0.003331 -0.001557 0.008109
# 3 -0.000388 -0.002119 0.014492 -0.001784 -0.004978 0.003292
# 4 0.001197 0.003331 -0.001784 0.034313 0.005522 0.005244
# 5 -0.000356 -0.001557 -0.004978 0.005522 0.047169 -0.007405
# 6 0.002736 0.008109 0.003292 0.005244 -0.007405 0.054246
#
#
# Mechanical properties :
#
#
# Convention : Reuss Voigt Hill
#
# Bulk Modulus (GPa) = 23.52806 26.65735 25.09270
# Shear Modulus (GPa) = 25.51020 29.03497 27.27258
#
# Velocity S-wave (km/s) = 3.46993 3.70190 3.58779
# Velocity P-wave (km/s) = 5.21140 5.55463 5.38575
#
# Compressibility (1/GPa) = 0.04250245
#
# Stress axis : x y z
#
# Youngs Moduli (GPa) = 68.95839 65.31953 69.00277
#
# Poissons Ratio (x) = -0.10494 0.02677
# Poissons Ratio (y) = -0.11079 0.14621
# Poissons Ratio (z) = 0.02676 0.13840
#
# Static dielectric constant tensor:
#      x y z
#    x 3.809180 -0.189010 0.124210 
#    y -0.189010 3.732010 0.040920 
#    z 0.124210 0.040920 3.768740 
# 
# 
# High freq. dielectric constant tensor:
#      x y z
#    x 1.829270 -0.020120 0.004860 
#    y -0.020120 1.814350 0.001480 
#    z 0.004860 0.001480 1.830360 
# 
# From -- ./inp_files/588780.got.cif
#   From: 2010.06.25/outbox.cif.g09.slc.cpg/sg2_295_cif.got.tgz:588780.got - 2010.06.27 13:26:56.
