data_PCOD8044871
_publ_section_title
;
Structure prediction by ZEFSAII (Michael W. Deem and Ramdas Pophale) SiO2 
 PCOD8044871
Probable space group: P 2
;
_chemical_formula_sum "Si O2"
_cell_formula_units_Z 16
_cell_length_a 9.002217
_cell_length_b 11.880240
_cell_length_c 9.099967
_cell_angle_alpha 90.000000
_cell_angle_beta 57.589708
_cell_angle_gamma 90.000000
_cell_volume 821.629729
_symmetry_space_group_name_H-M "P 2"
_symmetry_group_IT_number 3
_symmetry_cell_setting 'monoclinic'
loop_
_space_group_symop_operation_xyz
x,y,z
-x,y,-z
loop_
_atom_site_type_symbol
_atom_site_label
_atom_site_fract_x
_atom_site_fract_y
_atom_site_fract_z
Si Si1 0.034390 0.094830 0.148890
Si Si2 0.589986 0.860452 0.722914
Si Si3 0.840893 0.623713 0.984824
Si Si4 0.689995 0.232361 0.828634
Si Si5 0.477349 0.621196 0.345021
Si Si6 0.766327 0.864813 0.938999
Si Si7 0.682800 0.490356 0.819106
Si Si8 0.811891 0.066709 0.525068
O O1 0.173218 0.187337 0.125338
O O2 0.852818 0.107478 0.337512
O O3 0.102620 0.968757 0.139768
O O4 0.000000 0.121335 0.000000
O O5 0.591189 0.749500 0.621757
O O6 0.689076 0.834248 0.821536
O O7 0.688812 0.957483 0.581164
O O8 0.390049 0.896836 0.865357
O O9 0.662917 0.607979 0.168317
O O10 0.873173 0.755359 0.934223
O O11 0.831544 0.553262 0.837520
O O12 0.000000 0.577551 0.000000
O O13 0.735601 0.360978 0.769807
O O14 0.706795 0.162850 0.668679
O O15 0.500000 0.215095 0.000000
O O16 0.500000 0.579794 0.500000
O O17 0.334731 0.544910 0.333782
O O18 0.500000 0.503164 0.000000
O O19 0.000000 0.039062 0.500000
#
# Coordination Sequence:
#
# PCOD8044871 Si02
#       8
#     2   2   2   2   2   2   2   2
#     4  11  23  37  56  85 119 147 183 244 291 333
#     4  10  18  33  59  84 112 153 192 229 277 348
#     4  10  20  36  58  87 117 151 189 230 284 346
#     4  10  20  39  62  81 105 154 200 231 279 350
#     4  10  21  38  57  86 118 148 190 238 279 336
#     4  10  18  33  58  84 115 155 189 223 284 350
#     4   9  19  38  62  81 109 155 195 230 286 340
#     4  10  20  35  56  83 114 146 186 235 282 338
#
# _framework density 19.473492
#
# number of rings (size 3 to 8) (size 9 to 14) (size 15 to 20)
#    0.000    2.000    3.750    1.125    0.000    3.500 
#    0.000   10.000    0.000    0.000    0.000    0.000 
#    0.000    0.000    0.000    0.000    0.000    0.000 
#
# Total GULP energy -198399.963013 kJ/mol
# GULP energy per Si atom -12399.997688 kJ/mol
# Density = 1.942917 g / cm^3
# Si number density = 19.473492 Si / 1000 Ang^3
#
#
#
# Elastic Constant Matrix: (Units=GPa)
#
#
# Indices 1 2 3 4 5 6 
#
# 1 95.0588 63.5048 45.0248 0.0000 20.6372 0.0000
# 2 63.5048 131.6129 58.9409 0.0000 5.5101 0.0000
# 3 45.0248 58.9409 114.6752 0.0000 17.6041 0.0000
# 4 0.0000 0.0000 0.0000 13.1438 0.0000 5.0335
# 5 20.6372 5.5101 17.6041 0.0000 35.9780 0.0000
# 6 0.0000 0.0000 0.0000 5.0335 0.0000 3.9234
#
#
#
# Elastic Compliance Matrix: (Units=1/GPa)
#
#
# Indices 1 2 3 4 5 6 
#
# 1 0.018385 -0.007617 -0.002015 0.000000 -0.008393 0.000000
# 2 -0.007617 0.013063 -0.004419 0.000000 0.004531 0.000000
# 3 -0.002015 -0.004419 0.012435 0.000000 -0.004252 0.000000
# 4 0.000000 0.000000 0.000000 0.149564 0.000000 -0.191882
# 5 -0.008393 0.004531 -0.004252 0.000000 0.033996 0.000000
# 6 0.000000 0.000000 0.000000 -0.191882 0.000000 0.501053
#
#
# Mechanical properties :
#
#
# Convention : Reuss Voigt Hill
#
# Bulk Modulus (GPa) = 63.36650 75.14311 69.25481
# Shear Modulus (GPa) = 6.56290 22.20080 14.38185
#
# Velocity S-wave (km/s) = 1.83779 3.38013 2.72055
# Velocity P-wave (km/s) = 6.09211 7.34199 6.74606
#
# Compressibility (1/GPa) = 0.01578121
#
# Stress axis : x y z
#
# Youngs Moduli (GPa) = 54.39160 76.55397 80.41632
#
# Poissons Ratio (x) = 0.58314 0.16203
# Poissons Ratio (y) = 0.41432 0.35534
# Poissons Ratio (z) = 0.10959 0.33827
#
# Static dielectric constant tensor:
#      x y z
#    x 3.575160 0.000000 0.096580 
#    y 0.000000 3.536450 0.000000 
#    z 0.096580 0.000000 3.639570 
# 
# 
# High freq. dielectric constant tensor:
#      x y z
#    x 1.748010 0.000000 0.004660 
#    y 0.000000 1.753250 0.000000 
#    z 0.004660 0.000000 1.753090 
# 
# From -- ./inp_files/5864.got.cif
#   From: 2010.03.12/outbox.cif.g09.slc.cpg/sg3_3_cif.got.tgz:5864.got - 2010.03.31 09:20:49.
