data_PCOD8044241
_publ_section_title
;
Structure prediction by ZEFSAII (Michael W. Deem and Ramdas Pophale) SiO2 
 PCOD8044241
Probable space group: P -1
;
_chemical_formula_sum "Si O2"
_cell_formula_units_Z 16
_cell_length_a 14.179237
_cell_length_b 22.184441
_cell_length_c 13.211402
_cell_angle_alpha 155.738743
_cell_angle_beta 30.770247
_cell_angle_gamma 152.349421
_cell_volume 762.817492
_symmetry_space_group_name_H-M "P -1"
_symmetry_group_IT_number 2
_symmetry_cell_setting 'triclinic'
loop_
_space_group_symop_operation_xyz
x,y,z
-x,-y,-z
loop_
_atom_site_type_symbol
_atom_site_label
_atom_site_fract_x
_atom_site_fract_y
_atom_site_fract_z
Si Si1 0.215799 0.514705 0.866363
Si Si2 0.282301 0.502755 0.013762
Si Si3 0.683416 0.713761 0.699735
Si Si4 0.902317 0.355832 0.452090
Si Si5 0.152756 0.973174 0.079497
Si Si6 0.531056 0.843362 0.754699
Si Si7 0.146782 0.152344 0.668605
Si Si8 0.707777 0.532702 0.598688
O O1 0.436637 0.670288 0.859179
O O2 0.247392 0.354612 0.567189
O O3 0.199727 0.530394 0.025166
O O4 0.000000 0.500000 0.000000
O O5 0.275940 0.630953 0.297599
O O6 0.122324 0.314181 0.910441
O O7 0.518378 0.533143 0.836250
O O8 0.826290 0.916648 0.871330
O O9 0.740716 0.635682 0.622922
O O10 0.000000 0.500000 0.500000
O O11 0.083662 0.366364 0.374406
O O12 0.791954 0.173168 0.222043
O O13 0.316265 0.105139 0.211091
O O14 0.918426 0.891777 0.220990
O O15 0.619047 0.811419 0.518319
O O16 0.333210 0.658161 0.678101
O O17 0.500000 0.000000 0.000000
O O18 0.000000 0.000000 0.500000
#
# Coordination Sequence:
#
# PCOD8044241 Si02
#       8
#     2   2   2   2   2   2   2   2
#     4  10  19  37  66  94 119 163 208 255 311 367
#     4  10  21  39  60  87 125 160 207 256 305 372
#     4  10  21  41  60  89 130 159 207 259 307 374
#     4  12  24  41  64  89 125 167 210 250 310 382
#     4  11  22  40  58  90 125 163 203 258 309 365
#     4  10  20  37  62  92 121 152 208 269 312 356
#     4   9  18  35  57  84 119 158 193 256 314 348
#     4  10  23  42  65  88 122 169 201 257 320 360
#
# _framework density 20.974872999999999
#
# number of rings (size 3 to 8) (size 9 to 14) (size 15 to 20)
#    0.000    1.750    1.250    5.250    1.750    1.000 
#    6.750    2.500    0.000    0.000    0.000    0.000 
#    0.000    0.000    0.000    0.000    0.000    0.000 
#
# Total GULP energy -198244.349474 kJ/mol
# GULP energy per Si atom -12390.271842 kJ/mol
# Density = 2.092713 g / cm^3
# Si number density = 20.974873 Si / 1000 Ang^3
#
#
#
# Elastic Constant Matrix: (Units=GPa)
#
#
# Indices 1 2 3 4 5 6 
#
# 1 51.8215 28.2462 29.2739 -5.1431 -6.5585 -14.0326
# 2 28.2462 89.2402 53.4657 12.1171 -4.5245 -29.8066
# 3 29.2739 53.4657 128.2989 4.4785 5.4352 -27.8838
# 4 -5.1431 12.1171 4.4785 34.7475 -4.1378 -7.3168
# 5 -6.5585 -4.5245 5.4352 -4.1378 34.5208 -1.5547
# 6 -14.0326 -29.8066 -27.8838 -7.3168 -1.5547 36.7859
#
#
#
# Elastic Compliance Matrix: (Units=1/GPa)
#
#
# Indices 1 2 3 4 5 6 
#
# 1 0.027284 -0.005777 -0.003243 0.008296 0.006165 0.005179
# 2 -0.005777 0.019809 -0.004834 -0.004935 0.002087 0.009289
# 3 -0.003243 -0.004834 0.011404 0.000107 -0.002880 0.003390
# 4 0.008296 -0.004935 0.000107 0.033632 0.005221 0.006157
# 5 0.006165 0.002087 -0.002880 0.005221 0.031683 0.004237
# 6 0.005179 0.009289 0.003390 0.006157 0.004237 0.040660
#
#
# Mechanical properties :
#
#
# Convention : Reuss Voigt Hill
#
# Bulk Modulus (GPa) = 32.47957 54.59248 43.53603
# Shear Modulus (GPa) = 24.69844 31.76916 28.23380
#
# Velocity S-wave (km/s) = 3.43523 3.89605 3.67287
# Velocity P-wave (km/s) = 5.59044 6.80610 6.22800
#
# Compressibility (1/GPa) = 0.03078858
#
# Stress axis : x y z
#
# Youngs Moduli (GPa) = 36.65185 50.48228 87.69080
#
# Poissons Ratio (x) = 0.29162 0.28439
# Poissons Ratio (y) = 0.21173 0.42391
# Poissons Ratio (z) = 0.11886 0.24404
#
# Static dielectric constant tensor:
#      x y z
#    x 3.721160 -0.172190 0.137770 
#    y -0.172190 4.630060 -0.121230 
#    z 0.137770 -0.121230 3.993310 
# 
# 
# High freq. dielectric constant tensor:
#      x y z
#    x 1.801870 -0.022400 0.002090 
#    y -0.022400 1.820710 -0.002160 
#    z 0.002090 -0.002160 1.825350 
# 
# From -- ./inp_files/535433.got.cif
#   From: 2010.06.25/outbox.cif.g09.slc.cpg/sg2_268_cif.got.tgz:535433.got - 2010.06.27 13:26:56.
