data_PCOD8044987
_publ_section_title
;
Structure prediction by ZEFSAII (Michael W. Deem and Ramdas Pophale) SiO2 
 PCOD8044987
Probable space group: P 2
;
_chemical_formula_sum "Si O2"
_cell_formula_units_Z 13
_cell_length_a 10.982804
_cell_length_b 5.131982
_cell_length_c 16.367537
_cell_angle_alpha 90.000000
_cell_angle_beta 51.776489
_cell_angle_gamma 90.000000
_cell_volume 724.744385
_symmetry_space_group_name_H-M "P 2"
_symmetry_group_IT_number 3
_symmetry_cell_setting 'monoclinic'
loop_
_space_group_symop_operation_xyz
x,y,z
-x,y,-z
loop_
_atom_site_type_symbol
_atom_site_label
_atom_site_fract_x
_atom_site_fract_y
_atom_site_fract_z
Si Si1 0.232090 0.642300 0.695425
Si Si2 0.371929 0.120797 0.703293
Si Si3 0.500000 0.881053 0.500000
Si Si4 0.082205 0.092346 0.381022
Si Si5 0.060427 0.591360 0.287440
Si Si6 0.416618 0.596312 0.119353
Si Si7 0.438110 0.096906 0.213390
O O1 0.280371 0.381954 0.721462
O O2 0.346212 0.698619 0.570019
O O3 0.055811 0.625652 0.739614
O O4 0.248875 0.881770 0.752439
O O5 0.505735 0.062143 0.579236
O O6 0.445226 0.145790 0.761414
O O7 0.033152 0.812792 0.366508
O O8 0.265115 0.114752 0.320247
O O9 0.000000 0.142167 0.500000
O O10 0.026373 0.311895 0.341079
O O11 0.232886 0.611548 0.179834
O O12 0.470115 0.816326 0.160899
O O13 0.466549 0.317082 0.133605
O O14 0.500000 0.647645 0.000000
#
# Coordination Sequence:
#
# PCOD8044987 Si02
#       7
#     2   2   1   2   2   2   2
#     4  10  20  33  52  75 110 147 185 214 252 319
#     4  10  20  34  51  80 111 146 186 213 260 315
#     4   8  22  30  50  80 102 168 176 202 252 324
#     4  10  21  32  51  78 112 146 172 224 274 323
#     4  10  21  36  53  80 107 142 189 220 272 329
#     4  10  21  40  62  82 103 141 187 239 291 323
#     4  10  21  36  57  84 110 140 186 231 271 333
#
# _framework density 17.937356999999999
#
# number of rings (size 3 to 8) (size 9 to 14) (size 15 to 20)
#    0.923    1.231    0.000    3.231    2.154    1.231 
#    0.000    0.000    0.000    5.538    0.000    0.000 
#    0.000    0.000    0.000    0.000    0.000    0.000 
#
# Total GULP energy -161171.887911 kJ/mol
# GULP energy per Si atom -12397.837532 kJ/mol
# Density = 1.789653 g / cm^3
# Si number density = 17.937357 Si / 1000 Ang^3
#
#
#
# Elastic Constant Matrix: (Units=GPa)
#
#
# Indices 1 2 3 4 5 6 
#
# 1 135.4466 36.9918 29.4153 0.0000 8.4395 0.0000
# 2 36.9918 105.6400 13.7564 0.0000 -2.3748 0.0000
# 3 29.4153 13.7564 82.8924 0.0000 3.0720 0.0000
# 4 0.0000 0.0000 0.0000 11.4469 0.0000 0.9358
# 5 8.4395 -2.3748 3.0720 0.0000 12.5447 0.0000
# 6 0.0000 0.0000 0.0000 0.9358 0.0000 23.5262
#
#
#
# Elastic Compliance Matrix: (Units=1/GPa)
#
#
# Indices 1 2 3 4 5 6 
#
# 1 0.009130 -0.003007 -0.002515 0.000000 -0.006096 0.000000
# 2 -0.003007 0.010728 -0.000872 0.000000 0.004267 0.000000
# 3 -0.002515 -0.000872 0.013164 0.000000 -0.001697 0.000000
# 4 0.000000 0.000000 0.000000 0.087645 0.000000 -0.003486
# 5 -0.006096 0.004267 -0.001697 0.000000 0.085039 0.000000
# 6 0.000000 0.000000 0.000000 -0.003486 0.000000 0.042644
#
#
# Mechanical properties :
#
#
# Convention : Reuss Voigt Hill
#
# Bulk Modulus (GPa) = 49.41754 53.81178 51.61466
# Shear Modulus (GPa) = 18.66490 25.75794 22.21142
#
# Velocity S-wave (km/s) = 3.22927 3.79356 3.52273
# Velocity P-wave (km/s) = 6.44315 7.01806 6.73674
#
# Compressibility (1/GPa) = 0.02023573
#
# Stress axis : x y z
#
# Youngs Moduli (GPa) = 109.52756 93.21095 75.96560
#
# Poissons Ratio (x) = 0.28025 0.19106
# Poissons Ratio (y) = 0.32931 0.06621
# Poissons Ratio (z) = 0.27547 0.08125
#
# Static dielectric constant tensor:
#      x y z
#    x 3.189520 0.000000 -0.054920 
#    y 0.000000 3.523740 0.000000 
#    z -0.054920 0.000000 2.965620 
# 
# 
# High freq. dielectric constant tensor:
#      x y z
#    x 1.687510 0.000000 0.002150 
#    y 0.000000 1.717510 0.000000 
#    z 0.002150 0.000000 1.661100 
# 
# From -- ./inp_files/13244.got.cif
#   From: 2010.03.12/outbox.cif.g09.slc.cpg/sg3_7_cif.got.tgz:13244.got - 2010.03.31 09:20:49.
