data_PCOD8044325
_publ_section_title
;
Structure prediction by ZEFSAII (Michael W. Deem and Ramdas Pophale) SiO2 
 PCOD8044325
Probable space group: P -1
;
_chemical_formula_sum "Si O2"
_cell_formula_units_Z 16
_cell_length_a 14.727953
_cell_length_b 15.431922
_cell_length_c 6.528828
_cell_angle_alpha 75.075682
_cell_angle_beta 100.328657
_cell_angle_gamma 39.431669
_cell_volume 717.219251
_symmetry_space_group_name_H-M "P -1"
_symmetry_group_IT_number 2
_symmetry_cell_setting 'triclinic'
loop_
_space_group_symop_operation_xyz
x,y,z
-x,-y,-z
loop_
_atom_site_type_symbol
_atom_site_label
_atom_site_fract_x
_atom_site_fract_y
_atom_site_fract_z
Si Si1 0.783226 0.966308 0.483940
Si Si2 0.531008 0.137791 0.919743
Si Si3 0.250142 0.723088 0.206369
Si Si4 0.553291 0.597343 0.344126
Si Si5 0.905598 0.361335 0.448594
Si Si6 0.900443 0.046826 0.629739
Si Si7 0.158214 0.205068 0.003729
Si Si8 0.161379 0.391060 0.775588
O O1 0.761570 0.083356 0.496869
O O2 0.822494 0.859415 0.734668
O O3 0.601893 0.098114 0.203156
O O4 0.956109 0.822175 0.489513
O O5 0.505598 0.252258 0.711066
O O6 0.342776 0.243292 0.801188
O O7 0.667713 0.960310 0.964605
O O8 0.369862 0.696862 0.144622
O O9 0.357077 0.538623 0.356633
O O10 0.215500 0.783635 0.391988
O O11 0.055280 0.872154 0.938326
O O12 0.710173 0.475690 0.309050
O O13 0.879894 0.474597 0.234576
O O14 0.978314 0.325528 0.729973
O O15 0.000000 0.000000 0.500000
O O16 0.168096 0.304261 0.996018
O O17 0.000000 0.500000 0.500000
#
# Coordination Sequence:
#
# PCOD8044325 Si02
#       8
#     2   2   2   2   2   2   2   2
#     4  11  22  36  58  84 111 150 188 228 283 332
#     4  10  21  38  58  83 115 146 187 233 274 332
#     4  10  22  38  60  83 110 149 192 232 276 334
#     4  10  19  38  57  78 114 146 179 235 280 318
#     4   9  20  38  57  81 115 146 184 234 280 332
#     4  11  22  39  59  83 113 149 189 231 281 333
#     4  10  20  37  60  83 110 149 190 227 275 336
#     4   9  19  38  61  83 113 151 183 228 286 327
#
# _framework density 22.308382999999999
#
# number of rings (size 3 to 8) (size 9 to 14) (size 15 to 20)
#    0.000    2.000    0.000    3.375    0.000    5.000 
#    0.000   28.750    0.000    0.000    0.000    0.000 
#    0.000    0.000    0.000    0.000    0.000    0.000 
#
# Total GULP energy -198258.684801 kJ/mol
# GULP energy per Si atom -12391.167800 kJ/mol
# Density = 2.225761 g / cm^3
# Si number density = 22.308383 Si / 1000 Ang^3
#
#
#
# Elastic Constant Matrix: (Units=GPa)
#
#
# Indices 1 2 3 4 5 6 
#
# 1 128.3616 18.0878 41.3153 -2.0110 -10.6952 -3.2558
# 2 18.0878 53.7314 34.6466 -9.2789 8.5043 -1.1087
# 3 41.3153 34.6466 75.8981 -5.1570 -6.8181 1.9781
# 4 -2.0110 -9.2789 -5.1570 29.1237 0.2127 -1.9955
# 5 -10.6952 8.5043 -6.8181 0.2127 37.2801 -15.7775
# 6 -3.2558 -1.1087 1.9781 -1.9955 -15.7775 35.6274
#
#
#
# Elastic Compliance Matrix: (Units=1/GPa)
#
#
# Indices 1 2 3 4 5 6 
#
# 1 0.009752 -0.000674 -0.004801 -0.000242 0.003138 0.002513
# 2 -0.000674 0.030914 -0.014179 0.007180 -0.011070 -0.002812
# 3 -0.004801 -0.014179 0.022753 -0.000825 0.006272 0.000588
# 4 -0.000242 0.007180 -0.000825 0.036587 -0.001348 0.001700
# 5 0.003138 -0.011070 0.006272 -0.001348 0.038397 0.016523
# 6 0.002513 -0.002812 0.000588 0.001700 0.016523 0.035590
#
#
# Mechanical properties :
#
#
# Convention : Reuss Voigt Hill
#
# Bulk Modulus (GPa) = 41.47110 49.56562 45.51836
# Shear Modulus (GPa) = 22.58979 31.33566 26.96273
#
# Velocity S-wave (km/s) = 3.18561 3.75194 3.48032
# Velocity P-wave (km/s) = 5.67108 6.40594 6.04968
#
# Compressibility (1/GPa) = 0.02411318
#
# Stress axis : x y z
#
# Youngs Moduli (GPa) = 102.54119 32.34732 43.94951
#
# Poissons Ratio (x) = 0.02180 0.21100
# Poissons Ratio (y) = 0.06910 0.62314
# Poissons Ratio (z) = 0.49230 0.45864
#
# Static dielectric constant tensor:
#      x y z
#    x 4.627510 0.288310 -0.147860 
#    y 0.288310 4.108670 -0.412140 
#    z -0.147860 -0.412140 3.971380 
# 
# 
# High freq. dielectric constant tensor:
#      x y z
#    x 1.896490 -0.000580 -0.007390 
#    y -0.000580 1.870040 -0.038290 
#    z -0.007390 -0.038290 1.852840 
# 
# From -- ./inp_files/97981.got.cif
#   From: 2010.06.25/outbox.cif.g09.slc.cpg/sg2_49_cif.got.tgz:97981.got - 2010.06.27 13:26:56.
