data_PCOD8044891
_publ_section_title
;
Structure prediction by ZEFSAII (Michael W. Deem and Ramdas Pophale) SiO2 
 PCOD8044891
Probable space group: P 2
;
_chemical_formula_sum "Si O2"
_cell_formula_units_Z 13
_cell_length_a 10.455525
_cell_length_b 8.706337
_cell_length_c 13.987322
_cell_angle_alpha 90.000000
_cell_angle_beta 30.915176
_cell_angle_gamma 90.000000
_cell_volume 654.159080
_symmetry_space_group_name_H-M "P 2"
_symmetry_group_IT_number 3
_symmetry_cell_setting 'monoclinic'
loop_
_space_group_symop_operation_xyz
x,y,z
-x,y,-z
loop_
_atom_site_type_symbol
_atom_site_label
_atom_site_fract_x
_atom_site_fract_y
_atom_site_fract_z
Si Si1 0.116939 0.973060 0.098125
Si Si2 0.378785 0.547368 0.835409
Si Si3 0.714629 0.204504 0.151561
Si Si4 0.837207 0.741249 0.515323
Si Si5 0.254398 0.678258 0.104047
Si Si6 0.630448 0.989077 0.510510
Si Si7 0.000000 0.762138 0.000000
O O1 0.288257 0.855615 0.048376
O O2 0.979561 0.874645 0.103494
O O3 0.905315 0.047033 0.302157
O O4 0.293180 0.104888 0.941174
O O5 0.395538 0.371595 0.795176
O O6 0.657957 0.609566 0.671769
O O7 0.241974 0.651818 0.843405
O O8 0.221637 0.565848 0.034284
O O9 0.541282 0.129189 0.343758
O O10 0.000000 0.215284 0.000000
O O11 0.000000 0.807335 0.500000
O O12 0.011466 0.661589 0.324758
O O13 0.665877 0.871262 0.575818
O O14 0.500000 0.624979 0.000000
O O15 0.500000 0.914835 0.500000
#
# Coordination Sequence:
#
# PCOD8044891 Si02
#       7
#     2   2   2   2   2   2   1
#     4  10  20  36  63  91 117 156 209 258 305 363
#     4  11  23  39  61  93 128 166 207 254 324 375
#     4  12  23  39  60  91 135 164 200 260 325 380
#     4  11  23  41  69  95 125 162 217 267 314 372
#     4  10  21  40  67  87 118 164 216 259 303 368
#     4  11  21  39  65  95 126 163 208 267 310 373
#     4  10  18  38  66  88 122 162 210 266 302 362
#
# _framework density 19.872841999999999
#
# number of rings (size 3 to 8) (size 9 to 14) (size 15 to 20)
#    0.000    1.231    4.615    2.769    0.000    1.231 
#    0.000    1.538    0.000    0.000    0.000    0.000 
#    0.000    0.000    0.000    0.000    0.000    0.000 
#
# Total GULP energy -161168.092434 kJ/mol
# GULP energy per Si atom -12397.545572 kJ/mol
# Density = 1.982761 g / cm^3
# Si number density = 19.872842 Si / 1000 Ang^3
#
#
#
# Elastic Constant Matrix: (Units=GPa)
#
#
# Indices 1 2 3 4 5 6 
#
# 1 95.4804 43.5311 24.3905 0.0000 2.3712 0.0000
# 2 43.5311 110.9628 44.6184 0.0000 2.4931 0.0000
# 3 24.3905 44.6184 88.1795 0.0000 13.0184 0.0000
# 4 0.0000 0.0000 0.0000 19.7270 0.0000 1.6958
# 5 2.3712 2.4931 13.0184 0.0000 28.0680 0.0000
# 6 0.0000 0.0000 0.0000 1.6958 0.0000 19.5405
#
#
#
# Elastic Compliance Matrix: (Units=1/GPa)
#
#
# Indices 1 2 3 4 5 6 
#
# 1 0.012866 -0.004545 -0.001243 0.000000 -0.000107 0.000000
# 2 -0.004545 0.013002 -0.005591 0.000000 0.001822 0.000000
# 3 -0.001243 -0.005591 0.015485 0.000000 -0.006580 0.000000
# 4 0.000000 0.000000 0.000000 0.051073 0.000000 -0.004432
# 5 -0.000107 0.001822 -0.006580 0.000000 0.038527 0.000000
# 6 0.000000 0.000000 0.000000 -0.004432 0.000000 0.051560
#
#
# Mechanical properties :
#
#
# Convention : Reuss Voigt Hill
#
# Bulk Modulus (GPa) = 53.77908 57.74473 55.76190
# Shear Modulus (GPa) = 23.64403 25.60594 24.62498
#
# Velocity S-wave (km/s) = 3.45304 3.59345 3.52394
# Velocity P-wave (km/s) = 6.55884 6.80715 6.68415
#
# Compressibility (1/GPa) = 0.01859459
#
# Stress axis : x y z
#
# Youngs Moduli (GPa) = 77.72608 76.90988 64.57918
#
# Poissons Ratio (x) = 0.34955 0.08028
# Poissons Ratio (y) = 0.35326 0.36106
# Poissons Ratio (z) = 0.09663 0.43000
#
# Static dielectric constant tensor:
#      x y z
#    x 3.730820 0.000000 0.174150 
#    y 0.000000 3.379510 0.000000 
#    z 0.174150 0.000000 3.792870 
# 
# 
# High freq. dielectric constant tensor:
#      x y z
#    x 1.770470 0.000000 0.005460 
#    y 0.000000 1.739530 0.000000 
#    z 0.005460 0.000000 1.792810 
# 
# From -- ./inp_files/12135.got.cif
#   From: 2010.03.12/outbox.cif.g09.slc.cpg/sg3_7_cif.got.tgz:12135.got - 2010.03.31 09:20:49.
