data_PCOD8044229
_publ_section_title
;
Structure prediction by ZEFSAII (Michael W. Deem and Ramdas Pophale) SiO2 
 PCOD8044229
Probable space group: P -1
;
_chemical_formula_sum "Si O2"
_cell_formula_units_Z 14
_cell_length_a 15.293174
_cell_length_b 17.170897
_cell_length_c 11.068845
_cell_angle_alpha 125.226225
_cell_angle_beta 39.222543
_cell_angle_gamma 154.623764
_cell_volume 701.663373
_symmetry_space_group_name_H-M "P -1"
_symmetry_group_IT_number 2
_symmetry_cell_setting 'triclinic'
loop_
_space_group_symop_operation_xyz
x,y,z
-x,-y,-z
loop_
_atom_site_type_symbol
_atom_site_label
_atom_site_fract_x
_atom_site_fract_y
_atom_site_fract_z
Si Si1 0.741267 0.075444 0.150826
Si Si2 0.261385 0.085935 0.817916
Si Si3 0.812859 0.641892 0.281453
Si Si4 0.339032 0.998229 0.201131
Si Si5 0.717978 0.351560 0.750419
Si Si6 0.215734 0.576881 0.988814
Si Si7 0.580462 0.185139 0.357317
O O1 0.681573 0.152179 0.294926
O O2 0.839109 0.081440 0.176577
O O3 0.433153 0.841717 0.224345
O O4 0.000218 0.208005 0.898430
O O5 0.483996 0.267513 0.841792
O O6 0.436692 0.177391 0.587890
O O7 0.000000 0.000000 0.000000
O O8 0.500000 0.500000 0.500000
O O9 0.747677 0.490772 0.198599
O O10 0.000537 0.783178 0.326848
O O11 0.516475 0.190191 0.117028
O O12 0.343122 0.015867 0.356433
O O13 0.500000 0.000000 0.000000
O O14 0.000000 0.500000 0.500000
O O15 0.780299 0.447357 0.892716
O O16 0.880187 0.412442 0.178989
#
# Coordination Sequence:
#
# PCOD8044229 Si02
#       7
#     2   2   2   2   2   2   2
#     4   9  20  41  61  85 131 161 211 259 310 379
#     4  10  22  37  59  94 124 159 206 264 321 367
#     4  11  25  41  63  94 130 171 210 259 326 375
#     4  12  22  41  62  97 128 158 220 268 301 382
#     4  10  19  37  66  90 121 163 216 256 315 381
#     4  11  21  40  66  94 122 170 215 259 316 380
#     4  11  21  37  67  92 121 174 211 255 323 379
#
# _framework density 19.952587000000001
#
# number of rings (size 3 to 8) (size 9 to 14) (size 15 to 20)
#    0.857    0.571    5.714    0.857    0.000    2.857 
#    0.000    0.000    0.000    5.143    0.000    0.000 
#    0.000    0.000    0.000    0.000    0.000    0.000 
#
# Total GULP energy -173436.453032 kJ/mol
# GULP energy per Si atom -12388.318074 kJ/mol
# Density = 1.990717 g / cm^3
# Si number density = 19.952587 Si / 1000 Ang^3
#
#
#
# Elastic Constant Matrix: (Units=GPa)
#
#
# Indices 1 2 3 4 5 6 
#
# 1 83.3643 42.1568 40.2191 -0.2794 -11.7747 15.1108
# 2 42.1568 127.8139 48.6339 -5.3373 -9.5406 14.3276
# 3 40.2191 48.6339 128.4627 -11.1831 -16.6213 7.8785
# 4 -0.2794 -5.3373 -11.1831 34.0968 10.9082 6.1300
# 5 -11.7747 -9.5406 -16.6213 10.9082 25.2219 -6.8247
# 6 15.1108 14.3276 7.8785 6.1300 -6.8247 42.6857
#
#
#
# Elastic Compliance Matrix: (Units=1/GPa)
#
#
# Indices 1 2 3 4 5 6 
#
# 1 0.016578 -0.003664 -0.003254 -0.002386 0.004433 -0.002987
# 2 -0.003664 0.010239 -0.002579 0.001273 -0.000613 -0.001945
# 3 -0.003254 -0.002579 0.010383 0.001698 0.003736 0.000455
# 4 -0.002386 0.001273 0.001698 0.037211 -0.017795 -0.008085
# 5 0.004433 -0.000613 0.003736 -0.017795 0.054121 0.009156
# 6 -0.002987 -0.001945 0.000455 -0.008085 0.009156 0.027678
#
#
# Mechanical properties :
#
#
# Convention : Reuss Voigt Hill
#
# Bulk Modulus (GPa) = 54.92502 66.85117 60.88810
# Shear Modulus (GPa) = 27.58306 34.30961 30.94633
#
# Velocity S-wave (km/s) = 3.72214 4.15125 3.94254
# Velocity P-wave (km/s) = 6.78675 7.52030 7.16292
#
# Compressibility (1/GPa) = 0.01820664
#
# Stress axis : x y z
#
# Youngs Moduli (GPa) = 60.32232 97.66846 96.31375
#
# Poissons Ratio (x) = 0.35781 0.31342
# Poissons Ratio (y) = 0.22099 0.24835
# Poissons Ratio (z) = 0.19630 0.25184
#
# Static dielectric constant tensor:
#      x y z
#    x 3.480400 -0.047350 0.149760 
#    y -0.047350 4.267190 0.269930 
#    z 0.149760 0.269930 3.606950 
# 
# 
# High freq. dielectric constant tensor:
#      x y z
#    x 1.765880 0.009190 0.022050 
#    y 0.009190 1.787220 -0.004150 
#    z 0.022050 -0.004150 1.762490 
# 
# From -- ./inp_files/467123.got.cif
#   From: 2010.06.25/outbox.cif.g09.slc.cpg/sg2_234_cif.got.tgz:467123.got - 2010.06.27 13:26:56.
