data_PCOD8044471
_publ_section_title
;
Structure prediction by ZEFSAII (Michael W. Deem and Ramdas Pophale) SiO2 
 PCOD8044471
Probable space group: P -1
;
_chemical_formula_sum "Si O2"
_cell_formula_units_Z 16
_cell_length_a 7.289649
_cell_length_b 12.226936
_cell_length_c 21.194571
_cell_angle_alpha 155.263259
_cell_angle_beta 125.168110
_cell_angle_gamma 59.815070
_cell_volume 645.049274
_symmetry_space_group_name_H-M "P -1"
_symmetry_group_IT_number 2
_symmetry_cell_setting 'triclinic'
loop_
_space_group_symop_operation_xyz
x,y,z
-x,-y,-z
loop_
_atom_site_type_symbol
_atom_site_label
_atom_site_fract_x
_atom_site_fract_y
_atom_site_fract_z
Si Si1 0.470939 0.111800 0.152999
Si Si2 0.770258 0.063412 0.813444
Si Si3 0.538576 0.686008 0.487314
Si Si4 0.858937 0.123525 0.131199
Si Si5 0.144365 0.310237 0.559551
Si Si6 0.524861 0.794731 0.318764
Si Si7 0.976641 0.174417 0.778512
Si Si8 0.455401 0.342713 0.976280
O O1 0.408892 0.401055 0.316884
O O2 0.668988 0.113242 0.141864
O O3 0.539513 0.937562 0.134243
O O4 0.240082 0.993857 0.014621
O O5 0.923018 0.116261 0.810429
O O6 0.601362 0.300471 0.918432
O O7 0.621303 0.792804 0.628319
O O8 0.928418 0.037927 0.892017
O O9 0.751845 0.633320 0.458915
O O10 0.410197 0.921709 0.551454
O O11 0.954235 0.424350 0.295789
O O12 0.337528 0.222662 0.599254
O O13 0.958179 0.074020 0.383353
O O14 0.257992 0.738670 0.252843
O O15 0.578473 0.568470 0.161151
O O16 0.189794 0.384290 0.929913
#
# Coordination Sequence:
#
# PCOD8044471 Si02
#       8
#     2   2   2   2   2   2   2   2
#     4  10  21  36  62  93 120 162 209 249 303 370
#     4  10  23  39  61  93 127 164 196 259 312 359
#     4   9  21  37  61  88 125 162 196 256 309 357
#     4  10  19  38  61  90 127 160 199 258 310 357
#     4   9  18  36  65  88 118 167 205 247 307 368
#     4  10  20  41  62  91 124 165 206 252 307 366
#     4  10  22  39  64  91 125 162 203 255 310 361
#     4  12  23  39  64  97 121 160 215 248 301 378
#
# _framework density 24.804306
#
# number of rings (size 3 to 8) (size 9 to 14) (size 15 to 20)
#    0.000    2.250    2.500    1.875    1.750    4.500 
#    0.000    0.000    0.000   12.750    0.000    0.000 
#    0.000    0.000    0.000    0.000    0.000    0.000 
#
# Total GULP energy -198210.912568 kJ/mol
# GULP energy per Si atom -12388.182035 kJ/mol
# Density = 2.474785 g / cm^3
# Si number density = 24.804306 Si / 1000 Ang^3
#
#
#
# Elastic Constant Matrix: (Units=GPa)
#
#
# Indices 1 2 3 4 5 6 
#
# 1 44.1139 24.5045 25.2356 -1.8261 -8.6397 -0.8212
# 2 24.5045 82.2926 14.6412 -11.1346 -0.9922 -16.2811
# 3 25.2356 14.6412 167.1451 3.7853 -7.1428 0.1012
# 4 -1.8261 -11.1346 3.7853 47.4775 3.4975 -0.2789
# 5 -8.6397 -0.9922 -7.1428 3.4975 10.6299 7.4401
# 6 -0.8212 -16.2811 0.1012 -0.2789 7.4401 26.5399
#
#
#
# Elastic Compliance Matrix: (Units=1/GPa)
#
#
# Indices 1 2 3 4 5 6 
#
# 1 0.042582 -0.016935 -0.002697 -0.005877 0.049186 -0.022911
# 2 -0.016935 0.022155 -0.000814 0.006909 -0.029504 0.021414
# 3 -0.002697 -0.000814 0.006647 -0.001109 0.003729 -0.001665
# 4 -0.005877 0.006909 -0.001109 0.024052 -0.019669 0.009827
# 5 0.049186 -0.029504 0.003729 -0.019669 0.189144 -0.069823
# 6 -0.022911 0.021414 -0.001665 0.009827 -0.069823 0.069790
#
#
# Mechanical properties :
#
#
# Convention : Reuss Voigt Hill
#
# Bulk Modulus (GPa) = 32.79546 46.92380 39.85963
# Shear Modulus (GPa) = 12.33275 32.20749 22.27012
#
# Velocity S-wave (km/s) = 2.23222 3.60733 2.99964
# Velocity P-wave (km/s) = 4.46028 6.02570 5.30110
#
# Compressibility (1/GPa) = 0.03049202
#
# Stress axis : x y z
#
# Youngs Moduli (GPa) = 23.48437 45.13649 150.44914
#
# Poissons Ratio (x) = 0.76438 0.40572
# Poissons Ratio (y) = 0.39770 0.12248
# Poissons Ratio (z) = 0.06333 0.03675
#
# Static dielectric constant tensor:
#      x y z
#    x 4.047770 0.045210 0.041440 
#    y 0.045210 4.405980 0.063930 
#    z 0.041440 0.063930 5.254700 
# 
# 
# High freq. dielectric constant tensor:
#      x y z
#    x 1.949090 0.005520 -0.008680 
#    y 0.005520 1.982140 0.001900 
#    z -0.008680 0.001900 2.020040 
# 
# From -- ./inp_files/608134.got.cif
#   From: 2010.06.25/outbox.cif.g09.slc.cpg/sg2_305_cif.got.tgz:608134.got - 2010.06.27 13:26:56.
