data_PCOD8044688
_publ_section_title
;
Structure prediction by ZEFSAII (Michael W. Deem and Ramdas Pophale) SiO2 
 PCOD8044688
Probable space group: P -1
;
_chemical_formula_sum "Si O2"
_cell_formula_units_Z 16
_cell_length_a 8.919088
_cell_length_b 29.294612
_cell_length_c 14.425955
_cell_angle_alpha 20.680197
_cell_angle_beta 47.682119
_cell_angle_gamma 38.113976
_cell_volume 786.709054
_symmetry_space_group_name_H-M "P -1"
_symmetry_group_IT_number 2
_symmetry_cell_setting 'triclinic'
loop_
_space_group_symop_operation_xyz
x,y,z
-x,-y,-z
loop_
_atom_site_type_symbol
_atom_site_label
_atom_site_fract_x
_atom_site_fract_y
_atom_site_fract_z
Si Si1 0.396714 0.883446 0.488824
Si Si2 0.160509 0.817647 0.873734
Si Si3 0.182978 0.544853 0.311549
Si Si4 0.276275 0.991153 0.636384
Si Si5 0.444150 0.340072 0.314931
Si Si6 0.868043 0.346603 0.068150
Si Si7 0.665973 0.225531 0.640350
Si Si8 0.237050 0.038438 0.765585
O O1 0.296878 0.806831 0.741799
O O2 0.557901 0.777546 0.532676
O O3 0.590916 0.900160 0.430775
O O4 0.142808 0.054386 0.239545
O O5 0.280343 0.857096 0.831153
O O6 0.208387 0.644782 0.191327
O O7 0.462850 0.388755 0.469209
O O8 0.000000 0.500000 0.500000
O O9 0.044900 0.662166 0.056499
O O10 0.286209 0.942289 0.831732
O O11 0.028950 0.173061 0.378148
O O12 0.500000 0.000000 0.500000
O O13 0.582062 0.401590 0.083303
O O14 0.589942 0.238765 0.539737
O O15 0.161083 0.504547 0.146392
O O16 0.939393 0.189107 0.608810
O O17 0.677386 0.078592 0.959877
#
# Coordination Sequence:
#
# PCOD8044688 Si02
#       8
#     2   2   2   2   2   2   2   2
#     4  11  20  36  63  94 121 158 210 258 298 362
#     4  11  21  37  60  95 123 158 214 251 296 372
#     4  11  23  40  66  92 124 163 206 257 310 364
#     4  12  23  39  64  91 126 166 202 254 311 362
#     4  10  19  38  65  87 119 157 206 256 293 362
#     4  10  20  38  63  90 116 159 207 249 302 360
#     4  10  23  42  60  88 125 168 199 251 315 364
#     4  11  23  40  62  90 129 164 203 253 314 364
#
# _framework density 20.337886000000001
#
# number of rings (size 3 to 8) (size 9 to 14) (size 15 to 20)
#    0.000    1.250    5.000    1.500    1.750    0.500 
#    2.250    6.875    0.000    0.000    0.000    0.000 
#    0.000    0.000    0.000    0.000    0.000    0.000 
#
# Total GULP energy -198276.417305 kJ/mol
# GULP energy per Si atom -12392.276082 kJ/mol
# Density = 2.029160 g / cm^3
# Si number density = 20.337886 Si / 1000 Ang^3
#
#
#
# Elastic Constant Matrix: (Units=GPa)
#
#
# Indices 1 2 3 4 5 6 
#
# 1 105.2128 51.8130 40.7562 -7.5975 -28.4263 14.6037
# 2 51.8130 93.9246 34.0458 -3.5057 -20.1551 12.8365
# 3 40.7562 34.0458 76.2794 -0.9033 -18.5034 15.2657
# 4 -7.5975 -3.5057 -0.9033 36.8921 8.4939 -5.2882
# 5 -28.4263 -20.1551 -18.5034 8.4939 28.9865 4.7686
# 6 14.6037 12.8365 15.2657 -5.2882 4.7686 38.3009
#
#
#
# Elastic Compliance Matrix: (Units=1/GPa)
#
#
# Indices 1 2 3 4 5 6 
#
# 1 0.017193 -0.005038 -0.002782 -0.000705 0.012683 -0.005435
# 2 -0.005038 0.015884 -0.002420 -0.001325 0.005491 -0.003304
# 3 -0.002782 -0.002420 0.019796 -0.003904 0.010667 -0.007885
# 4 -0.000705 -0.001325 -0.003904 0.031324 -0.014669 0.008420
# 5 0.012683 0.005491 0.010667 -0.014669 0.065331 -0.021087
# 6 -0.005435 -0.003304 -0.007885 0.008420 -0.021087 0.036220
#
#
# Mechanical properties :
#
#
# Convention : Reuss Voigt Hill
#
# Bulk Modulus (GPa) = 30.87136 58.73853 44.80494
# Shear Modulus (GPa) = 23.03884 30.75602 26.89743
#
# Velocity S-wave (km/s) = 3.36937 3.89299 3.64060
# Velocity P-wave (km/s) = 5.50900 7.01079 6.30477
#
# Compressibility (1/GPa) = 0.03239248
#
# Stress axis : x y z
#
# Youngs Moduli (GPa) = 58.16205 62.95755 50.51636
#
# Poissons Ratio (x) = 0.31720 0.14053
# Poissons Ratio (y) = 0.29303 0.12225
# Poissons Ratio (z) = 0.16180 0.15235
#
# Static dielectric constant tensor:
#      x y z
#    x 3.549810 0.192770 -0.087690 
#    y 0.192770 3.856890 0.005880 
#    z -0.087690 0.005880 3.527540 
# 
# 
# High freq. dielectric constant tensor:
#      x y z
#    x 1.772860 0.009230 -0.004950 
#    y 0.009230 1.813060 -0.005300 
#    z -0.004950 -0.005300 1.781600 
# 
# From -- ./inp_files/354593.got.cif
#   From: 2010.06.25/outbox.cif.g09.slc.cpg/sg2_178_cif.got.tgz:354593.got - 2010.06.27 13:26:56.
