data_PCOD8044964
_publ_section_title
;
Structure prediction by ZEFSAII (Michael W. Deem and Ramdas Pophale) SiO2 
 PCOD8044964
Probable space group: P 2
;
_chemical_formula_sum "Si O2"
_cell_formula_units_Z 14
_cell_length_a 8.756954
_cell_length_b 7.866321
_cell_length_c 12.834391
_cell_angle_alpha 90.000000
_cell_angle_beta 47.285249
_cell_angle_gamma 90.000000
_cell_volume 649.581532
_symmetry_space_group_name_H-M "P 2"
_symmetry_group_IT_number 3
_symmetry_cell_setting 'monoclinic'
loop_
_space_group_symop_operation_xyz
x,y,z
-x,y,-z
loop_
_atom_site_type_symbol
_atom_site_label
_atom_site_fract_x
_atom_site_fract_y
_atom_site_fract_z
Si Si1 0.815080 0.008120 0.511488
Si Si2 0.620099 0.995648 0.186719
Si Si3 0.714519 0.117248 0.349418
Si Si4 0.334436 0.307653 0.985566
Si Si5 0.110317 0.453195 0.765797
Si Si6 0.320585 0.662030 0.503444
Si Si7 0.370977 0.603129 0.809972
O O1 0.603473 0.061699 0.668610
O O2 0.870814 0.098052 0.374825
O O3 0.000000 0.059929 0.500000
O O4 0.809128 0.809814 0.489736
O O5 0.767595 0.003531 0.222253
O O6 0.624302 0.798122 0.147539
O O7 0.691695 0.129049 0.065001
O O8 0.500000 0.056272 0.500000
O O9 0.709513 0.310772 0.313184
O O10 0.110295 0.359502 0.134113
O O11 0.500000 0.276884 0.000000
O O12 0.406603 0.469783 0.885466
O O13 0.143862 0.553101 0.642691
O O14 0.152226 0.569432 0.849060
O O15 0.500000 0.728587 0.500000
O O16 0.439569 0.563942 0.356483
#
# Coordination Sequence:
#
# PCOD8044964 Si02
#       7
#     2   2   2   2   2   2   2
#     4  10  21  36  63 103 132 166 219 273 341 400
#     4  10  23  44  68  91 135 179 220 277 328 396
#     4  10  19  37  66  96 123 162 215 275 324 382
#     4  12  28  45  60  96 144 178 220 270 336 405
#     4  11  22  40  66 100 124 169 226 275 326 388
#     4   9  19  39  69  98 127 164 221 281 329 391
#     4  10  21  45  70  94 127 173 226 278 331 387
#
# _framework density 21.552337999999999
#
# number of rings (size 3 to 8) (size 9 to 14) (size 15 to 20)
#    0.000    1.714    1.429    4.714    4.000    2.857 
#    7.714    0.714    0.000    0.000    0.000    0.000 
#    0.000    0.000    0.000    0.000    0.000    0.000 
#
# Total GULP energy -173445.724385 kJ/mol
# GULP energy per Si atom -12388.980313 kJ/mol
# Density = 2.150328 g / cm^3
# Si number density = 21.552338 Si / 1000 Ang^3
#
#
#
# Elastic Constant Matrix: (Units=GPa)
#
#
# Indices 1 2 3 4 5 6 
#
# 1 113.5039 32.6017 38.6308 0.0000 17.7032 0.0000
# 2 32.6017 116.8974 51.9888 0.0000 10.8492 0.0000
# 3 38.6308 51.9888 104.7181 0.0000 6.8838 0.0000
# 4 0.0000 0.0000 0.0000 36.8333 0.0000 8.1432
# 5 17.7032 10.8492 6.8838 0.0000 27.4403 0.0000
# 6 0.0000 0.0000 0.0000 8.1432 0.0000 25.6177
#
#
#
# Elastic Compliance Matrix: (Units=1/GPa)
#
#
# Indices 1 2 3 4 5 6 
#
# 1 0.011139 -0.001157 -0.003144 0.000000 -0.005940 0.000000
# 2 -0.001157 0.011351 -0.005046 0.000000 -0.002476 0.000000
# 3 -0.003144 -0.005046 0.013167 0.000000 0.000721 0.000000
# 4 0.000000 0.000000 0.000000 0.029201 0.000000 -0.009282
# 5 -0.005940 -0.002476 0.000721 0.000000 0.041073 0.000000
# 6 0.000000 0.000000 0.000000 -0.009282 0.000000 0.041986
#
#
# Mechanical properties :
#
#
# Convention : Reuss Voigt Hill
#
# Bulk Modulus (GPa) = 58.95156 64.61799 61.78477
# Shear Modulus (GPa) = 29.02469 32.10480 30.56475
#
# Velocity S-wave (km/s) = 3.67373 3.86375 3.76994
# Velocity P-wave (km/s) = 6.73849 7.06765 6.90503
#
# Compressibility (1/GPa) = 0.01696308
#
# Stress axis : x y z
#
# Youngs Moduli (GPa) = 89.77248 88.09783 75.94638
#
# Poissons Ratio (x) = 0.10192 0.23881
# Poissons Ratio (y) = 0.10385 0.38322
# Poissons Ratio (z) = 0.28229 0.44453
#
# Static dielectric constant tensor:
#      x y z
#    x 3.708700 0.000000 0.220010 
#    y 0.000000 3.861850 0.000000 
#    z 0.220010 0.000000 4.017200 
# 
# 
# High freq. dielectric constant tensor:
#      x y z
#    x 1.815180 0.000000 0.014440 
#    y 0.000000 1.853840 0.000000 
#    z 0.014440 0.000000 1.846960 
# 
# From -- ./inp_files/10687.got.cif
#   From: 2010.03.12/outbox.cif.g09.slc.cpg/sg3_6_cif.got.tgz:10687.got - 2010.03.31 09:20:49.
