data_PCOD8044327
_publ_section_title
;
Structure prediction by ZEFSAII (Michael W. Deem and Ramdas Pophale) SiO2 
 PCOD8044327
Probable space group: P -1
;
_chemical_formula_sum "Si O2"
_cell_formula_units_Z 14
_cell_length_a 15.316712
_cell_length_b 8.036814
_cell_length_c 8.130843
_cell_angle_alpha 125.879114
_cell_angle_beta 93.437299
_cell_angle_gamma 115.041503
_cell_volume 666.932293
_symmetry_space_group_name_H-M "P -1"
_symmetry_group_IT_number 2
_symmetry_cell_setting 'triclinic'
loop_
_space_group_symop_operation_xyz
x,y,z
-x,-y,-z
loop_
_atom_site_type_symbol
_atom_site_label
_atom_site_fract_x
_atom_site_fract_y
_atom_site_fract_z
Si Si1 0.587949 0.673126 0.480350
Si Si2 0.687498 0.403225 0.377891
Si Si3 0.733699 0.155264 0.985594
Si Si4 0.879716 0.106600 0.216141
Si Si5 0.793288 0.558011 0.977237
Si Si6 0.573267 0.283576 0.641730
Si Si7 0.111929 0.466228 0.354980
O O1 0.500000 0.500000 0.500000
O O2 0.662399 0.582217 0.382176
O O3 0.512219 0.644299 0.305430
O O4 0.661674 0.954281 0.722659
O O5 0.660907 0.172980 0.124878
O O6 0.617987 0.311489 0.479830
O O7 0.812321 0.560805 0.529099
O O8 0.802975 0.071267 0.035921
O O9 0.805907 0.433073 0.069976
O O10 0.885033 0.288660 0.460282
O O11 0.994645 0.218629 0.215198
O O12 0.844821 0.852894 0.159376
O O13 0.667969 0.431596 0.866298
O O14 0.846827 0.498171 0.804440
O O15 0.500000 0.000000 0.500000
#
# Coordination Sequence:
#
# PCOD8044327 Si02
#       7
#     2   2   2   2   2   2   2
#     4  10  20  36  58  79 114 154 192 235 290 334
#     4   9  21  38  60  81 115 155 188 241 292 339
#     4  11  22  38  59  89 117 148 201 242 278 352
#     4  10  21  40  62  87 117 154 194 235 299 344
#     4  11  22  38  61  86 119 152 195 243 287 347
#     4  10  19  38  57  81 118 153 189 239 290 339
#     4   9  20  40  62  83 121 154 185 244 294 347
#
# _framework density 20.991634999999999
#
# number of rings (size 3 to 8) (size 9 to 14) (size 15 to 20)
#    0.000    2.000    1.429    3.000    0.000    4.000 
#    2.571    8.571    0.000    0.000    0.000    0.000 
#    0.000    0.000    0.000    0.000    0.000    0.000 
#
# Total GULP energy -173448.923852 kJ/mol
# GULP energy per Si atom -12389.208847 kJ/mol
# Density = 2.094386 g / cm^3
# Si number density = 20.991635 Si / 1000 Ang^3
#
#
#
# Elastic Constant Matrix: (Units=GPa)
#
#
# Indices 1 2 3 4 5 6 
#
# 1 118.7603 18.1524 19.2443 7.7435 0.0065 -1.2528
# 2 18.1524 82.2701 8.4349 22.5225 3.0479 -14.7977
# 3 19.2443 8.4349 51.6159 16.3975 -4.3866 8.1471
# 4 7.7435 22.5225 16.3975 33.3540 3.7971 -0.3623
# 5 0.0065 3.0479 -4.3866 3.7971 24.7106 5.7032
# 6 -1.2528 -14.7977 8.1471 -0.3623 5.7032 23.4547
#
#
#
# Elastic Compliance Matrix: (Units=1/GPa)
#
#
# Indices 1 2 3 4 5 6 
#
# 1 0.009226 -0.001725 -0.003655 0.000919 -0.000782 0.000878
# 2 -0.001725 0.017901 -0.001185 -0.010556 -0.003643 0.012336
# 3 -0.003655 -0.001185 0.028248 -0.013564 0.010358 -0.013483
# 4 0.000919 -0.010556 -0.013564 0.044497 -0.008120 0.000763
# 5 -0.000782 -0.003643 0.010358 -0.008120 0.048103 -0.017760
# 6 0.000878 0.012336 -0.013483 0.000763 -0.017760 0.059479
#
#
# Mechanical properties :
#
#
# Convention : Reuss Voigt Hill
#
# Bulk Modulus (GPa) = 23.67241 38.25661 30.96451
# Shear Modulus (GPa) = 21.30696 30.09151 25.69923
#
# Velocity S-wave (km/s) = 3.18940 3.79027 3.50274
# Velocity P-wave (km/s) = 4.98644 6.11711 5.58049
#
# Compressibility (1/GPa) = 0.04224328
#
# Stress axis : x y z
#
# Youngs Moduli (GPa) = 108.39328 55.86318 35.40126
#
# Poissons Ratio (x) = 0.09639 0.12938
# Poissons Ratio (y) = 0.18703 0.04197
# Poissons Ratio (z) = 0.39613 0.06622
#
# Static dielectric constant tensor:
#      x y z
#    x 4.426850 -0.257630 0.007770 
#    y -0.257630 3.798360 0.067930 
#    z 0.007770 0.067930 3.593470 
# 
# 
# High freq. dielectric constant tensor:
#      x y z
#    x 1.842130 -0.008440 0.000030 
#    y -0.008440 1.811350 0.010420 
#    z 0.000030 0.010420 1.805480 
# 
# From -- ./inp_files/197678.got.cif
#   From: 2010.06.25/outbox.cif.g09.slc.cpg/sg2_99_cif.got.tgz:197678.got - 2010.06.27 13:26:56.
