data_PCOD8044869
_publ_section_title
;
Structure prediction by ZEFSAII (Michael W. Deem and Ramdas Pophale) SiO2 
 PCOD8044869
Probable space group: P 2
;
_chemical_formula_sum "Si O2"
_cell_formula_units_Z 16
_cell_length_a 9.711283
_cell_length_b 9.497701
_cell_length_c 11.428382
_cell_angle_alpha 90.000000
_cell_angle_beta 122.127881
_cell_angle_gamma 90.000000
_cell_volume 892.674504
_symmetry_space_group_name_H-M "P 2"
_symmetry_group_IT_number 3
_symmetry_cell_setting 'monoclinic'
loop_
_space_group_symop_operation_xyz
x,y,z
-x,y,-z
loop_
_atom_site_type_symbol
_atom_site_label
_atom_site_fract_x
_atom_site_fract_y
_atom_site_fract_z
Si Si1 0.930299 0.196930 0.098692
Si Si2 0.522216 0.192377 0.325313
Si Si3 0.611593 0.013611 0.937762
Si Si4 0.616848 0.495395 0.272893
Si Si5 0.840062 0.497753 0.159798
Si Si6 0.616286 0.698247 0.941351
Si Si7 0.889986 0.468183 0.554285
Si Si8 0.763340 0.203921 0.624419
O O1 0.881976 0.356314 0.108559
O O2 0.066827 0.137221 0.252341
O O3 0.775566 0.097360 0.039296
O O4 0.000000 0.195074 0.000000
O O5 0.496213 0.080679 0.212422
O O6 0.557048 0.344984 0.289136
O O7 0.670725 0.130268 0.472751
O O8 0.356944 0.211467 0.321445
O O9 0.657613 0.855535 0.917522
O O10 0.500000 0.012753 0.000000
O O11 0.689323 0.465996 0.177293
O O12 0.472450 0.609297 0.201207
O O13 0.751164 0.558793 0.424931
O O14 0.992255 0.556327 0.305964
O O15 0.786628 0.620517 0.046934
O O16 0.500000 0.707873 0.000000
O O17 0.800627 0.359116 0.596695
O O18 0.000000 0.396263 0.500000
#
# Coordination Sequence:
#
# PCOD8044869 Si02
#       8
#     2   2   2   2   2   2   2   2
#     4  11  20  34  55  81 107 138 178 222 273 316
#     4  10  18  33  56  78 107 142 176 221 272 315
#     4  11  22  36  54  78 109 148 188 220 262 318
#     4   9  16  30  53  78 101 135 174 218 264 311
#     4   9  17  31  51  77 105 132 173 221 266 313
#     4   9  19  33  50  75 107 140 178 221 259 309
#     4   8  15  28  50  77 105 131 167 219 270 314
#     4   9  19  32  52  80 110 136 173 221 276 318
#
# _framework density 17.923665
#
# number of rings (size 3 to 8) (size 9 to 14) (size 15 to 20)
#    0.000    2.500    1.250    1.500    0.000    2.000 
#    0.000    1.875    0.000    9.000    0.000    0.000 
#    0.000    0.000    0.000    0.000    0.000    0.000 
#
# Total GULP energy -198212.114431 kJ/mol
# GULP energy per Si atom -12388.257152 kJ/mol
# Density = 1.788287 g / cm^3
# Si number density = 17.923665 Si / 1000 Ang^3
#
#
#
# Elastic Constant Matrix: (Units=GPa)
#
#
# Indices 1 2 3 4 5 6 
#
# 1 58.6334 31.1060 44.8857 0.0000 7.3297 0.0000
# 2 31.1060 102.5214 72.0717 0.0000 12.5164 0.0000
# 3 44.8857 72.0717 164.1764 0.0000 28.3677 0.0000
# 4 0.0000 0.0000 0.0000 -92.6045 0.0000 5.9891
# 5 7.3297 12.5164 28.3677 0.0000 30.4223 0.0000
# 6 0.0000 0.0000 0.0000 5.9891 0.0000 2.8997
#
#
#
# Elastic Compliance Matrix: (Units=1/GPa)
#
#
# Indices 1 2 3 4 5 6 
#
# 1 0.022462 -0.003613 -0.004621 0.000000 0.000384 0.000000
# 2 -0.003613 0.014689 -0.005444 0.000000 -0.000097 0.000000
# 3 -0.004621 -0.005444 0.010925 0.000000 -0.006834 0.000000
# 4 0.000000 0.000000 0.000000 -0.009526 0.000000 0.019676
# 5 0.000384 -0.000097 -0.006834 0.000000 0.039191 0.000000
# 6 0.000000 0.000000 0.000000 0.019676 0.000000 0.304227
#
#
# Mechanical properties :
#
#
# Convention : Reuss Voigt Hill
#
# Bulk Modulus (GPa) = 48.26398 69.05088 58.65743
# Shear Modulus (GPa) = 12.01258 -0.03865 5.98697
#
# Velocity S-wave (km/s) = 2.59165 -0.14700 1.82962
# Velocity P-wave (km/s) = 5.99512 6.21126 6.10415
#
# Compressibility (1/GPa) = 0.02071939
#
# Stress axis : x y z
#
# Youngs Moduli (GPa) = 44.52019 68.07759 91.53295
#
# Poissons Ratio (x) = 0.24599 0.42299
# Poissons Ratio (y) = 0.16087 0.49828
# Poissons Ratio (z) = 0.20573 0.37060
#
# Static dielectric constant tensor:
#      x y z
#    x 3.430170 0.000000 0.290980 
#    y 0.000000 3.066650 0.000000 
#    z 0.290980 0.000000 4.000190 
# 
# 
# High freq. dielectric constant tensor:
#      x y z
#    x 1.690830 0.000000 0.011770 
#    y 0.000000 1.644810 0.000000 
#    z 0.011770 0.000000 1.722500 
# 
# From -- ./inp_files/10777.got.cif
#   From: 2010.03.12/outbox.cif.g09.slc.cpg/sg3_6_cif.got.tgz:10777.got - 2010.03.31 09:20:49.
