data_PCOD8044712
_publ_section_title
;
Structure prediction by ZEFSAII (Michael W. Deem and Ramdas Pophale) SiO2 
 PCOD8044712
Probable space group: P -1
;
_chemical_formula_sum "Si O2"
_cell_formula_units_Z 16
_cell_length_a 11.317408
_cell_length_b 11.558033
_cell_length_c 9.001713
_cell_angle_alpha 130.157142
_cell_angle_beta 55.414002
_cell_angle_gamma 112.056160
_cell_volume 740.804782
_symmetry_space_group_name_H-M "P -1"
_symmetry_group_IT_number 2
_symmetry_cell_setting 'triclinic'
loop_
_space_group_symop_operation_xyz
x,y,z
-x,-y,-z
loop_
_atom_site_type_symbol
_atom_site_label
_atom_site_fract_x
_atom_site_fract_y
_atom_site_fract_z
Si Si1 0.073262 0.341607 0.819683
Si Si2 0.384660 0.732579 0.485809
Si Si3 0.709093 0.998045 0.429389
Si Si4 0.829291 0.519715 0.638867
Si Si5 0.205828 0.226256 0.352256
Si Si6 0.548298 0.891611 0.745227
Si Si7 0.686126 0.662430 0.130677
Si Si8 0.013211 0.967614 0.291861
O O1 0.081760 0.291413 0.600832
O O2 0.232922 0.354118 0.783704
O O3 0.983070 0.216247 0.878435
O O4 0.000000 0.500000 0.000000
O O5 0.367121 0.872084 0.501078
O O6 0.241200 0.629625 0.509146
O O7 0.417686 0.800073 0.682516
O O8 0.516774 0.627597 0.248976
O O9 0.636955 0.983855 0.632435
O O10 0.695059 0.838616 0.218922
O O11 0.877110 0.037028 0.360733
O O12 0.780366 0.669535 0.713906
O O13 0.000000 0.500000 0.500000
O O14 0.762424 0.543377 0.869197
O O15 0.353001 0.228401 0.340085
O O16 0.155269 0.054196 0.198364
O O17 0.500000 0.000000 0.000000
O O18 0.000000 0.000000 0.500000
#
# Coordination Sequence:
#
# PCOD8044712 Si02
#       8
#     2   2   2   2   2   2   2   2
#     4  10  19  38  65  93 129 169 216 267 318 390
#     4  11  24  46  67  96 130 178 222 265 330 401
#     4  10  20  41  72  93 126 168 224 269 317 402
#     4  12  27  44  62  98 139 172 216 275 330 383
#     4  11  22  42  62  90 139 160 214 275 319 386
#     4  11  23  42  66 101 125 163 221 279 329 380
#     4  10  21  44  65  93 128 173 222 257 323 402
#     4   9  17  38  63  93 122 169 213 259 322 388
#
# _framework density 21.598134000000002
#
# number of rings (size 3 to 8) (size 9 to 14) (size 15 to 20)
#    0.000    1.500    5.000    3.375    3.500    1.500 
#    6.750    3.125    0.000    0.000    0.000    0.000 
#    0.000    0.000    0.000    0.000    0.000    0.000 
#
# Total GULP energy -198287.660230 kJ/mol
# GULP energy per Si atom -12392.978764 kJ/mol
# Density = 2.154898 g / cm^3
# Si number density = 21.598134 Si / 1000 Ang^3
#
#
#
# Elastic Constant Matrix: (Units=GPa)
#
#
# Indices 1 2 3 4 5 6 
#
# 1 136.1493 53.7307 30.7488 10.6151 -5.3328 8.6813
# 2 53.7307 100.0277 19.1134 14.5762 -4.7372 5.9837
# 3 30.7488 19.1134 105.3628 13.9831 1.4150 7.2639
# 4 10.6151 14.5762 13.9831 22.7527 -6.2201 -1.6843
# 5 -5.3328 -4.7372 1.4150 -6.2201 29.3399 7.0451
# 6 8.6813 5.9837 7.2639 -1.6843 7.0451 41.4994
#
#
#
# Elastic Compliance Matrix: (Units=1/GPa)
#
#
# Indices 1 2 3 4 5 6 
#
# 1 0.009790 -0.004741 -0.001920 -0.000062 0.001398 -0.001268
# 2 -0.004741 0.013596 -0.000148 -0.006424 0.000279 -0.001251
# 3 -0.001920 -0.000148 0.011058 -0.006439 -0.001924 -0.001447
# 4 -0.000062 -0.006424 -0.006439 0.055063 0.010324 0.002548
# 5 0.001398 0.000279 -0.001924 0.010324 0.038116 -0.006048
# 6 -0.001268 -0.001251 -0.001447 0.002548 -0.006048 0.025926
#
#
# Mechanical properties :
#
#
# Convention : Reuss Voigt Hill
#
# Bulk Modulus (GPa) = 48.01507 60.96951 54.49229
# Shear Modulus (GPa) = 28.71765 34.58152 31.64958
#
# Velocity S-wave (km/s) = 3.65037 4.00576 3.83219
# Velocity P-wave (km/s) = 6.32822 7.04877 6.69819
#
# Compressibility (1/GPa) = 0.02082680
#
# Stress axis : x y z
#
# Youngs Moduli (GPa) = 102.14619 73.55027 90.42956
#
# Poissons Ratio (x) = 0.34868 0.17364
# Poissons Ratio (y) = 0.48425 0.01337
# Poissons Ratio (z) = 0.19614 0.01088
#
# Static dielectric constant tensor:
#      x y z
#    x 3.611750 -0.238520 0.478570 
#    y -0.238520 3.757300 0.580560 
#    z 0.478570 0.580560 3.579570 
# 
# 
# High freq. dielectric constant tensor:
#      x y z
#    x 1.867930 0.000290 0.002050 
#    y 0.000290 1.830950 0.012410 
#    z 0.002050 0.012410 1.828570 
# 
# From -- ./inp_files/263308.got.cif
#   From: 2010.06.25/outbox.cif.g09.slc.cpg/sg2_132_cif.got.tgz:263308.got - 2010.06.27 13:26:56.
