data_PCOD8044460
_publ_section_title
;
Structure prediction by ZEFSAII (Michael W. Deem and Ramdas Pophale) SiO2 
 PCOD8044460
Probable space group: P -1
;
_chemical_formula_sum "Si O2"
_cell_formula_units_Z 16
_cell_length_a 9.326570
_cell_length_b 20.654844
_cell_length_c 9.384429
_cell_angle_alpha 119.482622
_cell_angle_beta 102.613948
_cell_angle_gamma 127.626153
_cell_volume 820.787483
_symmetry_space_group_name_H-M "P -1"
_symmetry_group_IT_number 2
_symmetry_cell_setting 'triclinic'
loop_
_space_group_symop_operation_xyz
x,y,z
-x,-y,-z
loop_
_atom_site_type_symbol
_atom_site_label
_atom_site_fract_x
_atom_site_fract_y
_atom_site_fract_z
Si Si1 0.216357 0.143838 0.782102
Si Si2 0.803865 0.859501 0.888806
Si Si3 0.248202 0.659681 0.061387
Si Si4 0.278022 0.825683 0.128498
Si Si5 0.759996 0.174965 0.398169
Si Si6 0.857734 0.137232 0.099745
Si Si7 0.737597 0.333670 0.600960
Si Si8 0.145317 0.881869 0.389023
O O1 0.520441 0.263605 0.918111
O O2 0.134621 0.193317 0.778689
O O3 0.205182 0.124319 0.928210
O O4 0.000000 0.000000 0.500000
O O5 0.500866 0.736306 0.625370
O O6 0.901836 0.816683 0.840478
O O7 0.000000 0.000000 0.000000
O O8 0.142445 0.696764 0.035135
O O9 0.360684 0.709572 0.301910
O O10 0.998871 0.497246 0.814450
O O11 0.229278 0.882776 0.258593
O O12 0.610420 0.957433 0.331209
O O13 0.139087 0.783082 0.899870
O O14 0.897406 0.181012 0.316640
O O15 0.830336 0.291696 0.524012
O O16 0.896589 0.203537 0.603216
O O17 0.430564 0.027911 0.166911
#
# Coordination Sequence:
#
# PCOD8044460 Si02
#       8
#     2   2   2   2   2   2   2   2
#     4  12  25  39  65 101 127 164 217 264 316 377
#     4  12  25  40  65  97 134 163 209 271 320 370
#     4  11  25  44  66  91 131 175 215 253 319 388
#     4  10  19  38  61  89 123 167 206 257 314 372
#     4  10  21  38  63  92 126 164 209 258 320 373
#     4  10  22  37  62  96 124 160 208 268 318 368
#     4  11  25  45  64  92 132 176 208 260 321 383
#     4  10  20  35  64  90 123 159 210 266 308 367
#
# _framework density 19.493473000000002
#
# number of rings (size 3 to 8) (size 9 to 14) (size 15 to 20)
#    0.000    1.250    5.000    0.750    5.250    0.500 
#    0.000    2.500    0.000    0.000    0.000    0.000 
#    0.000    0.000    0.000    0.000    0.000    0.000 
#
# Total GULP energy -198390.903690 kJ/mol
# GULP energy per Si atom -12399.431481 kJ/mol
# Density = 1.944911 g / cm^3
# Si number density = 19.493473 Si / 1000 Ang^3
#
#
#
# Elastic Constant Matrix: (Units=GPa)
#
#
# Indices 1 2 3 4 5 6 
#
# 1 100.8476 51.7109 43.5376 -1.5395 1.4555 -3.4819
# 2 51.7109 108.9913 44.6588 -7.9054 -1.3813 -1.4573
# 3 43.5376 44.6588 85.2906 -11.0619 0.3709 -3.0530
# 4 -1.5395 -7.9054 -11.0619 27.9922 -4.2826 -6.2491
# 5 1.4555 -1.3813 0.3709 -4.2826 24.0860 -3.0277
# 6 -3.4819 -1.4573 -3.0530 -6.2491 -3.0277 40.4434
#
#
#
# Elastic Compliance Matrix: (Units=1/GPa)
#
#
# Indices 1 2 3 4 5 6 
#
# 1 0.014772 -0.005091 -0.005242 -0.002915 -0.001607 0.000122
# 2 -0.005091 0.013482 -0.004182 0.002153 0.001551 0.000181
# 3 -0.005242 -0.004182 0.017420 0.005964 0.001085 0.001716
# 4 -0.002915 0.002153 0.005964 0.041463 0.008500 0.007320
# 5 -0.001607 0.001551 0.001085 0.008500 0.043776 0.004590
# 6 0.000122 0.000181 0.001716 0.007320 0.004590 0.026347
#
#
# Mechanical properties :
#
#
# Convention : Reuss Voigt Hill
#
# Bulk Modulus (GPa) = 60.07617 63.88267 61.97942
# Shear Modulus (GPa) = 26.06368 28.85247 27.45808
#
# Velocity S-wave (km/s) = 3.66053 3.85139 3.75717
# Velocity P-wave (km/s) = 6.98223 7.25397 7.11940
#
# Compressibility (1/GPa) = 0.01664554
#
# Stress axis : x y z
#
# Youngs Moduli (GPa) = 67.69405 74.17217 57.40522
#
# Poissons Ratio (x) = 0.37762 0.30090
# Poissons Ratio (y) = 0.34464 0.24005
# Poissons Ratio (z) = 0.35483 0.31016
#
# Static dielectric constant tensor:
#      x y z
#    x 3.696360 -0.053010 0.048590 
#    y -0.053010 3.597410 -0.267470 
#    z 0.048590 -0.267470 3.405790 
# 
# 
# High freq. dielectric constant tensor:
#      x y z
#    x 1.771970 -0.008570 -0.004180 
#    y -0.008570 1.760310 -0.028460 
#    z -0.004180 -0.028460 1.735420 
# 
# From -- ./inp_files/223868.got.cif
#   From: 2010.06.25/outbox.cif.g09.slc.cpg/sg2_112_cif.got.tgz:223868.got - 2010.06.27 13:26:56.
