data_PCOD8044822
_publ_section_title
;
Structure prediction by ZEFSAII (Michael W. Deem and Ramdas Pophale) SiO2 
 PCOD8044822
Probable space group: P -1
;
_chemical_formula_sum "Si O2"
_cell_formula_units_Z 16
_cell_length_a 8.360028
_cell_length_b 20.348524
_cell_length_c 17.360140
_cell_angle_alpha 29.494764
_cell_angle_beta 150.068794
_cell_angle_gamma 139.648241
_cell_volume 725.121228
_symmetry_space_group_name_H-M "P -1"
_symmetry_group_IT_number 2
_symmetry_cell_setting 'triclinic'
loop_
_space_group_symop_operation_xyz
x,y,z
-x,-y,-z
loop_
_atom_site_type_symbol
_atom_site_label
_atom_site_fract_x
_atom_site_fract_y
_atom_site_fract_z
Si Si1 0.656437 0.958742 0.318066
Si Si2 0.764264 0.618138 0.475861
Si Si3 0.173060 0.402448 0.816855
Si Si4 0.761314 0.819113 0.820372
Si Si5 0.611309 0.971264 0.460202
Si Si6 0.376800 0.769458 0.046016
Si Si7 0.493841 0.704585 0.419407
Si Si8 0.292253 0.533681 0.143377
O O1 0.551792 0.921008 0.400026
O O2 0.482289 0.851066 0.300808
O O3 0.039263 0.953297 0.469644
O O4 0.526214 0.105825 0.095366
O O5 0.500000 0.500000 0.500000
O O6 0.688215 0.709935 0.276834
O O7 0.768472 0.705802 0.465962
O O8 0.101406 0.550721 0.667238
O O9 0.412887 0.406268 0.842796
O O10 0.852521 0.327693 0.728299
O O11 0.332008 0.323449 0.035026
O O12 0.597694 0.844905 0.642360
O O13 0.664748 0.931165 0.727301
O O14 0.144220 0.821521 0.963237
O O15 0.197425 0.650053 0.044639
O O16 0.594375 0.598481 0.633025
O O17 0.000000 0.500000 0.000000
#
# Coordination Sequence:
#
# PCOD8044822 Si02
#       8
#     2   2   2   2   2   2   2   2
#     4  10  23  40  68  96 137 175 216 274 335 395
#     4  10  19  42  67  93 133 178 215 272 327 391
#     4  11  22  44  71  93 137 177 219 278 331 386
#     4  10  19  38  69  88 127 183 218 260 335 393
#     4   9  21  40  61  96 140 176 213 272 336 389
#     4  11  21  43  69  93 136 179 214 275 335 384
#     4  11  23  43  67  99 134 174 222 272 328 401
#     4  12  27  42  69  99 131 177 228 273 333 397
#
# _framework density 22.065276000000001
#
# number of rings (size 3 to 8) (size 9 to 14) (size 15 to 20)
#    0.000    1.500    5.000    1.125    7.000    0.500 
#    2.250    5.000    0.000    0.000    0.000    0.000 
#    0.000    0.000    0.000    0.000    0.000    0.000 
#
# Total GULP energy -198350.950147 kJ/mol
# GULP energy per Si atom -12396.934384 kJ/mol
# Density = 2.201505 g / cm^3
# Si number density = 22.065276 Si / 1000 Ang^3
#
#
#
# Elastic Constant Matrix: (Units=GPa)
#
#
# Indices 1 2 3 4 5 6 
#
# 1 115.7817 33.5378 49.9520 4.2497 -3.5773 -23.7865
# 2 33.5378 80.0601 36.3031 -12.8051 -7.0796 -21.5486
# 3 49.9520 36.3031 152.3272 -21.9908 -17.8801 -10.6564
# 4 4.2497 -12.8051 -21.9908 22.2946 -1.5665 3.3392
# 5 -3.5773 -7.0796 -17.8801 -1.5665 46.1006 0.9099
# 6 -23.7865 -21.5486 -10.6564 3.3392 0.9099 24.8961
#
#
#
# Elastic Compliance Matrix: (Units=1/GPa)
#
#
# Indices 1 2 3 4 5 6 
#
# 1 0.014092 -0.002702 -0.005035 -0.010907 -0.001852 0.010501
# 2 -0.002702 0.019036 -0.001312 0.008499 0.002255 0.012111
# 3 -0.005035 -0.001312 0.010378 0.011186 0.003875 -0.003145
# 4 -0.010907 0.008499 0.011186 0.064424 0.007128 -0.007178
# 5 -0.001852 0.002255 0.003875 0.007128 0.023639 0.000021
# 6 0.010501 0.012111 -0.003145 -0.007178 0.000021 0.060297
#
#
# Mechanical properties :
#
#
# Convention : Reuss Voigt Hill
#
# Bulk Modulus (GPa) = 39.35610 65.30610 52.33110
# Shear Modulus (GPa) = 22.89021 33.88335 28.38678
#
# Velocity S-wave (km/s) = 3.22434 3.92292 3.59066
# Velocity P-wave (km/s) = 5.63354 7.08379 6.39988
#
# Compressibility (1/GPa) = 0.02540902
#
# Stress axis : x y z
#
# Youngs Moduli (GPa) = 70.96121 52.53255 96.35631
#
# Poissons Ratio (x) = 0.14196 0.48511
# Poissons Ratio (y) = 0.19177 0.12638
# Poissons Ratio (z) = 0.35726 0.06890
#
# Static dielectric constant tensor:
#      x y z
#    x 4.103570 -0.070940 -0.112110 
#    y -0.070940 3.379490 -0.166370 
#    z -0.112110 -0.166370 4.282810 
# 
# 
# High freq. dielectric constant tensor:
#      x y z
#    x 1.887560 -0.017710 -0.007800 
#    y -0.017710 1.816110 -0.018350 
#    z -0.007800 -0.018350 1.885330 
# 
# From -- ./inp_files/562654.got.cif
#   From: 2010.06.25/outbox.cif.g09.slc.cpg/sg2_282_cif.got.tgz:562654.got - 2010.06.27 13:26:56.
