data_PCOD8044959
_publ_section_title
;
Structure prediction by ZEFSAII (Michael W. Deem and Ramdas Pophale) SiO2 
 PCOD8044959
Probable space group: P 2
;
_chemical_formula_sum "Si O2"
_cell_formula_units_Z 14
_cell_length_a 18.098453
_cell_length_b 7.579395
_cell_length_c 6.666616
_cell_angle_alpha 90.000000
_cell_angle_beta 133.230768
_cell_angle_gamma 90.000000
_cell_volume 666.302051
_symmetry_space_group_name_H-M "P 2"
_symmetry_group_IT_number 3
_symmetry_cell_setting 'monoclinic'
loop_
_space_group_symop_operation_xyz
x,y,z
-x,y,-z
loop_
_atom_site_type_symbol
_atom_site_label
_atom_site_fract_x
_atom_site_fract_y
_atom_site_fract_z
Si Si1 0.252673 0.465250 0.367858
Si Si2 0.408172 0.379594 0.958442
Si Si3 0.609484 0.601929 0.699801
Si Si4 0.229280 0.078044 0.198702
Si Si5 0.607223 0.997674 0.193803
Si Si6 0.881962 0.787975 0.759122
Si Si7 0.760295 0.862256 0.168160
O O1 0.295517 0.424848 0.668023
O O2 0.356322 0.522990 0.448049
O O3 0.205192 0.287036 0.179816
O O4 0.170105 0.619146 0.231217
O O5 0.419728 0.170137 0.983715
O O6 0.500000 0.464108 0.000000
O O7 0.411952 0.439837 0.193060
O O8 0.500000 0.706495 0.500000
O O9 0.708974 0.712637 0.940328
O O10 0.343215 0.037203 0.495249
O O11 0.148750 0.965798 0.178549
O O12 0.220835 0.028226 0.945820
O O13 0.685245 0.884240 0.214957
O O14 0.500000 0.891379 0.000000
O O15 0.861012 0.804754 0.478372
O O16 0.000000 0.757200 0.000000
#
# Coordination Sequence:
#
# PCOD8044959 Si02
#       7
#     2   2   2   2   2   2   2
#     4  11  22  42  65  92 131 167 214 261 321 382
#     4  10  19  37  56  86 128 171 211 254 304 375
#     4  12  23  33  61  95 132 175 208 250 312 385
#     4  10  23  42  64  92 129 165 211 272 319 381
#     4   9  21  35  57  87 125 172 213 251 309 378
#     4  11  25  46  71  91 121 167 219 276 337 379
#     4  11  23  40  61  91 131 165 215 269 317 380
#
# _framework density 21.011490999999999
#
# number of rings (size 3 to 8) (size 9 to 14) (size 15 to 20)
#    0.000    1.429    4.286    0.857    2.000    1.714 
#    0.000    0.000    3.143    0.000    0.000    0.000 
#    0.000    0.000    0.000    0.000    0.000    0.000 
#
# Total GULP energy -173473.795868 kJ/mol
# GULP energy per Si atom -12390.985419 kJ/mol
# Density = 2.096367 g / cm^3
# Si number density = 21.011491 Si / 1000 Ang^3
#
#
#
# Elastic Constant Matrix: (Units=GPa)
#
#
# Indices 1 2 3 4 5 6 
#
# 1 76.2892 22.7487 42.1776 0.0000 8.3778 0.0000
# 2 22.7487 84.5010 27.6351 0.0000 6.0682 0.0000
# 3 42.1776 27.6351 114.1325 0.0000 3.6681 0.0000
# 4 0.0000 0.0000 0.0000 24.7441 0.0000 -7.0819
# 5 8.3778 6.0682 3.6681 0.0000 37.9046 0.0000
# 6 0.0000 0.0000 0.0000 -7.0819 0.0000 22.6041
#
#
#
# Elastic Compliance Matrix: (Units=1/GPa)
#
#
# Indices 1 2 3 4 5 6 
#
# 1 0.017343 -0.002603 -0.005687 0.000000 -0.002866 0.000000
# 2 -0.002603 0.013361 -0.002230 0.000000 -0.001348 0.000000
# 3 -0.005687 -0.002230 0.011387 0.000000 0.000512 0.000000
# 4 0.000000 0.000000 0.000000 0.044395 0.000000 0.013909
# 5 -0.002866 -0.001348 0.000512 0.000000 0.027182 0.000000
# 6 0.000000 0.000000 0.000000 0.013909 0.000000 0.048597
#
#
# Mechanical properties :
#
#
# Convention : Reuss Voigt Hill
#
# Bulk Modulus (GPa) = 47.50312 51.11616 49.30964
# Shear Modulus (GPa) = 26.27140 29.20797 27.73969
#
# Velocity S-wave (km/s) = 3.53984 3.73244 3.63742
# Velocity P-wave (km/s) = 6.27412 6.55403 6.41560
#
# Compressibility (1/GPa) = 0.02105125
#
# Stress axis : x y z
#
# Youngs Moduli (GPa) = 57.66010 74.84445 87.82194
#
# Poissons Ratio (x) = 0.19485 0.49941
# Poissons Ratio (y) = 0.15011 0.19582
# Poissons Ratio (z) = 0.32789 0.16688
#
# Static dielectric constant tensor:
#      x y z
#    x 3.741920 0.000000 -0.142970 
#    y 0.000000 3.754860 0.000000 
#    z -0.142970 0.000000 4.105580 
# 
# 
# High freq. dielectric constant tensor:
#      x y z
#    x 1.804700 0.000000 -0.014760 
#    y 0.000000 1.817370 0.000000 
#    z -0.014760 0.000000 1.822480 
# 
# From -- ./inp_files/2175.got.cif
#   From: 2010.03.12/outbox.cif.g09.slc.cpg/sg3_2_cif.got.tgz:2175.got - 2010.03.31 09:20:49.
