data_PCOD8044930
_publ_section_title
;
Structure prediction by ZEFSAII (Michael W. Deem and Ramdas Pophale) SiO2 
 PCOD8044930
Probable space group: P 2
;
_chemical_formula_sum "Si O2"
_cell_formula_units_Z 16
_cell_length_a 8.710172
_cell_length_b 12.062343
_cell_length_c 8.910018
_cell_angle_alpha 90.000000
_cell_angle_beta 122.623441
_cell_angle_gamma 90.000000
_cell_volume 788.440046
_symmetry_space_group_name_H-M "P 2"
_symmetry_group_IT_number 3
_symmetry_cell_setting 'monoclinic'
loop_
_space_group_symop_operation_xyz
x,y,z
-x,y,-z
loop_
_atom_site_type_symbol
_atom_site_label
_atom_site_fract_x
_atom_site_fract_y
_atom_site_fract_z
Si Si1 0.159209 0.923780 0.470068
Si Si2 0.185626 0.789107 0.183940
Si Si3 0.665478 0.162620 0.972187
Si Si4 0.469300 0.387989 0.157853
Si Si5 0.809511 0.530424 0.823395
Si Si6 0.299870 0.358638 0.461510
Si Si7 0.962660 0.162517 0.652365
Si Si8 0.465907 0.933102 0.157964
O O1 0.184113 0.835618 0.351540
O O2 0.340381 0.939941 0.661042
O O3 0.000000 0.885368 0.500000
O O4 0.114327 0.039775 0.367503
O O5 0.215825 0.659301 0.220366
O O6 0.351085 0.834875 0.171482
O O7 0.000000 0.817806 0.000000
O O8 0.856035 0.170715 0.155669
O O9 0.500000 0.161939 0.000000
O O10 0.641366 0.273870 0.860621
O O11 0.646114 0.047699 0.870181
O O12 0.353556 0.491647 0.154651
O O13 0.667558 0.381350 0.343588
O O14 0.500000 0.405333 0.000000
O O15 0.800192 0.465408 0.660887
O O16 0.000000 0.502590 0.000000
O O17 0.500000 0.341922 0.500000
O O18 0.182947 0.249999 0.363769
O O19 0.000000 0.190272 0.500000
O O20 0.500000 0.909748 0.000000
#
# Coordination Sequence:
#
# PCOD8044930 Si02
#       8
#     2   2   2   2   2   2   2   2
#     4  11  23  40  62  90 122 156 198 245 297 355
#     4  11  24  43  63  86 118 157 202 250 298 349
#     4  10  19  34  57  88 123 155 191 237 293 352
#     4  10  20  37  60  86 119 155 193 236 288 351
#     4  10  23  42  60  83 116 152 197 248 294 345
#     4  10  22  38  59  87 122 155 192 239 293 350
#     4  11  20  35  60  89 121 154 194 241 292 349
#     4  11  22  39  63  91 123 158 197 242 297 355
#
# _framework density 20.293234999999999
#
# number of rings (size 3 to 8) (size 9 to 14) (size 15 to 20)
#    0.000    1.500    0.000    7.875    0.000    6.500 
#    0.000    6.875    0.000    0.000    0.000    0.000 
#    0.000    0.000    0.000    0.000    0.000    0.000 
#
# Total GULP energy -198400.552624 kJ/mol
# GULP energy per Si atom -12400.034539 kJ/mol
# Density = 2.024705 g / cm^3
# Si number density = 20.293235 Si / 1000 Ang^3
#
#
#
# Elastic Constant Matrix: (Units=GPa)
#
#
# Indices 1 2 3 4 5 6 
#
# 1 80.4480 50.4388 48.5822 0.0000 10.2375 0.0000
# 2 50.4388 124.1744 72.2616 0.0000 4.0738 0.0000
# 3 48.5822 72.2616 168.3592 0.0000 14.7927 0.0000
# 4 0.0000 0.0000 0.0000 28.8879 0.0000 9.9493
# 5 10.2375 4.0738 14.7927 0.0000 43.8178 0.0000
# 6 0.0000 0.0000 0.0000 9.9493 0.0000 20.9868
#
#
#
# Elastic Compliance Matrix: (Units=1/GPa)
#
#
# Indices 1 2 3 4 5 6 
#
# 1 0.017864 -0.005742 -0.002443 0.000000 -0.002815 0.000000
# 2 -0.005742 0.012594 -0.003879 0.000000 0.001480 0.000000
# 3 -0.002443 -0.003879 0.008479 0.000000 -0.001931 0.000000
# 4 0.000000 0.000000 0.000000 0.041372 0.000000 -0.019613
# 5 -0.002815 0.001480 -0.001931 0.000000 0.023994 0.000000
# 6 0.000000 0.000000 0.000000 -0.019613 0.000000 0.056947
#
#
# Mechanical properties :
#
#
# Convention : Reuss Voigt Hill
#
# Bulk Modulus (GPa) = 67.52312 79.50520 73.51416
# Shear Modulus (GPa) = 26.27235 32.18510 29.22872
#
# Velocity S-wave (km/s) = 3.60201 3.98678 3.79927
# Velocity P-wave (km/s) = 7.11655 7.77533 7.45322
#
# Compressibility (1/GPa) = 0.01480974
#
# Stress axis : x y z
#
# Youngs Moduli (GPa) = 55.97790 79.40143 117.93801
#
# Poissons Ratio (x) = 0.45595 0.28811
# Poissons Ratio (y) = 0.32144 0.45744
# Poissons Ratio (z) = 0.13675 0.30797
#
# Static dielectric constant tensor:
#      x y z
#    x 3.651820 0.000000 0.075790 
#    y 0.000000 3.942340 0.000000 
#    z 0.075790 0.000000 4.116210 
# 
# 
# High freq. dielectric constant tensor:
#      x y z
#    x 1.786630 0.000000 0.011430 
#    y 0.000000 1.793340 0.000000 
#    z 0.011430 0.000000 1.815620 
# 
# From -- ./inp_files/6032.got.cif
#   From: 2010.03.12/outbox.cif.g09.slc.cpg/sg3_4_cif.got.tgz:6032.got - 2010.03.31 09:20:49.
