data_PCOD8044950
_publ_section_title
;
Structure prediction by ZEFSAII (Michael W. Deem and Ramdas Pophale) SiO2 
 PCOD8044950
Probable space group: P 2
;
_chemical_formula_sum "Si O2"
_cell_formula_units_Z 14
_cell_length_a 9.177889
_cell_length_b 7.737522
_cell_length_c 12.934990
_cell_angle_alpha 90.000000
_cell_angle_beta 132.345617
_cell_angle_gamma 90.000000
_cell_volume 678.908236
_symmetry_space_group_name_H-M "P 2"
_symmetry_group_IT_number 3
_symmetry_cell_setting 'monoclinic'
loop_
_space_group_symop_operation_xyz
x,y,z
-x,y,-z
loop_
_atom_site_type_symbol
_atom_site_label
_atom_site_fract_x
_atom_site_fract_y
_atom_site_fract_z
Si Si1 0.842966 0.820570 0.507813
Si Si2 0.931944 0.718756 0.775421
Si Si3 0.558289 0.231736 0.639958
Si Si4 0.027370 0.337957 0.195382
Si Si5 0.862050 0.227077 0.524185
Si Si6 0.849336 0.012621 0.020927
Si Si7 0.589406 0.871852 0.734228
O O1 0.859386 0.716688 0.622686
O O2 0.624241 0.783841 0.358328
O O3 0.000000 0.747216 0.500000
O O4 0.881371 0.021910 0.545485
O O5 0.038847 0.535908 0.851830
O O6 0.748823 0.734870 0.768077
O O7 0.090612 0.872004 0.864170
O O8 0.500000 0.300316 0.500000
O O9 0.768564 0.312488 0.773721
O O10 0.364754 0.276989 0.616486
O O11 0.587751 0.025021 0.649003
O O12 0.070128 0.306861 0.335744
O O13 0.858097 0.206113 0.073524
O O14 0.000000 0.300944 0.500000
O O15 0.639182 0.959500 0.870634
O O16 0.000000 0.996715 0.000000
#
# Coordination Sequence:
#
# PCOD8044950 Si02
#       7
#     2   2   2   2   2   2   2
#     4  10  20  37  62  89 112 152 198 243 290 347
#     4  11  21  35  60  88 117 150 192 238 293 341
#     4   9  16  31  54  82 111 143 184 237 285 331
#     4  11  20  34  59  84 118 153 187 237 293 349
#     4   9  18  33  56  81 114 146 191 239 285 336
#     4  10  20  37  56  84 119 152 191 237 281 346
#     4  10  19  36  59  84 118 151 190 242 288 343
#
# _framework density 20.621345999999999
#
# number of rings (size 3 to 8) (size 9 to 14) (size 15 to 20)
#    0.000    2.000    4.286    2.143    0.000    5.714 
#    0.000    0.714    0.000    0.000   11.143    0.000 
#    0.000    0.000    0.000    0.000    0.000    0.000 
#
# Total GULP energy -173477.669403 kJ/mol
# GULP energy per Si atom -12391.262100 kJ/mol
# Density = 2.057441 g / cm^3
# Si number density = 20.621346 Si / 1000 Ang^3
#
#
#
# Elastic Constant Matrix: (Units=GPa)
#
#
# Indices 1 2 3 4 5 6 
#
# 1 93.2119 26.0589 33.6259 0.0000 -0.0087 0.0000
# 2 26.0589 109.6649 38.4203 0.0000 0.3738 0.0000
# 3 33.6259 38.4203 112.5619 0.0000 3.3930 0.0000
# 4 0.0000 0.0000 0.0000 13.7679 0.0000 0.1787
# 5 -0.0087 0.3738 3.3930 0.0000 16.2777 0.0000
# 6 0.0000 0.0000 0.0000 0.1787 0.0000 10.3845
#
#
#
# Elastic Compliance Matrix: (Units=1/GPa)
#
#
# Indices 1 2 3 4 5 6 
#
# 1 0.012359 -0.001861 -0.003078 0.000000 0.000691 0.000000
# 2 -0.001861 0.010641 -0.003088 0.000000 0.000398 0.000000
# 3 -0.003078 -0.003088 0.010924 0.000000 -0.002208 0.000000
# 4 0.000000 0.000000 0.000000 0.072649 0.000000 -0.001250
# 5 0.000691 0.000398 -0.002208 0.000000 0.061885 0.000000
# 6 0.000000 0.000000 0.000000 -0.001250 0.000000 0.096319
#
#
# Mechanical properties :
#
#
# Convention : Reuss Voigt Hill
#
# Bulk Modulus (GPa) = 55.95750 56.84986 56.40368
# Shear Modulus (GPa) = 17.43450 22.57494 20.00472
#
# Velocity S-wave (km/s) = 2.91083 3.31227 3.11802
# Velocity P-wave (km/s) = 6.20418 6.50050 6.35407
#
# Compressibility (1/GPa) = 0.01787071
#
# Stress axis : x y z
#
# Youngs Moduli (GPa) = 80.91408 93.97183 91.54095
#
# Poissons Ratio (x) = 0.17487 0.28173
# Poissons Ratio (y) = 0.15057 0.28271
# Poissons Ratio (z) = 0.24902 0.29022
#
# Static dielectric constant tensor:
#      x y z
#    x 3.716450 0.000000 0.190030 
#    y 0.000000 3.575070 0.000000 
#    z 0.190030 0.000000 4.059310 
# 
# 
# High freq. dielectric constant tensor:
#      x y z
#    x 1.771440 0.000000 0.001250 
#    y 0.000000 1.792090 0.000000 
#    z 0.001250 0.000000 1.799050 
# 
# From -- ./inp_files/9431.got.cif
#   From: 2010.03.12/outbox.cif.g09.slc.cpg/sg3_5_cif.got.tgz:9431.got - 2010.03.31 09:20:49.
