data_PCOD8044779
_publ_section_title
;
Structure prediction by ZEFSAII (Michael W. Deem and Ramdas Pophale) SiO2 
 PCOD8044779
Probable space group: P -1
;
_chemical_formula_sum "Si O2"
_cell_formula_units_Z 16
_cell_length_a 18.822681
_cell_length_b 11.121053
_cell_length_c 8.981348
_cell_angle_alpha 64.858430
_cell_angle_beta 94.470479
_cell_angle_gamma 148.207762
_cell_volume 721.499688
_symmetry_space_group_name_H-M "P -1"
_symmetry_group_IT_number 2
_symmetry_cell_setting 'triclinic'
loop_
_space_group_symop_operation_xyz
x,y,z
-x,-y,-z
loop_
_atom_site_type_symbol
_atom_site_label
_atom_site_fract_x
_atom_site_fract_y
_atom_site_fract_z
Si Si1 0.813879 0.804303 0.413834
Si Si2 0.129361 0.965769 0.972112
Si Si3 0.271184 0.752579 0.410393
Si Si4 0.320507 0.131019 0.164565
Si Si5 0.101680 0.145686 0.102099
Si Si6 0.099107 0.918712 0.423949
Si Si7 0.768668 0.359916 0.196660
Si Si8 0.467488 0.866335 0.215989
O O1 0.663581 0.475399 0.645657
O O2 0.908757 0.056811 0.417070
O O3 0.942678 0.920349 0.296346
O O4 0.749714 0.791843 0.274481
O O5 0.954625 0.613360 0.061847
O O6 0.217689 0.010338 0.068399
O O7 0.060051 0.988006 0.028052
O O8 0.284082 0.776038 0.577547
O O9 0.393869 0.843306 0.335172
O O10 0.084833 0.415205 0.496933
O O11 0.339810 0.006174 0.221415
O O12 0.215174 0.985610 0.374771
O O13 0.500000 0.500000 0.000000
O O14 0.192297 0.191991 0.200565
O O15 0.232247 0.481277 0.907984
O O16 0.636817 0.086263 0.195335
O O17 0.500000 0.000000 0.000000
#
# Coordination Sequence:
#
# PCOD8044779 Si02
#       8
#     2   2   2   2   2   2   2   2
#     4  11  22  40  66 101 134 170 214 270 350 387
#     4  10  22  42  68  97 129 180 223 265 328 407
#     4  12  25  44  68  97 133 178 229 267 329 395
#     4  11  27  46  69  92 130 180 234 275 320 389
#     4  10  19  38  66  98 133 166 218 261 340 398
#     4  11  23  42  69  93 134 177 218 278 325 401
#     4  11  22  39  68  97 134 170 218 273 324 399
#     4  12  27  39  64 105 144 166 209 284 341 393
#
# _framework density 22.176033
#
# number of rings (size 3 to 8) (size 9 to 14) (size 15 to 20)
#    0.000    1.000    3.750    4.125   10.500    0.000 
#    0.000    2.500    0.000    0.000    0.000    0.000 
#    0.000    0.000    0.000    0.000    0.000    0.000 
#
# Total GULP energy -198314.841646 kJ/mol
# GULP energy per Si atom -12394.677603 kJ/mol
# Density = 2.212556 g / cm^3
# Si number density = 22.176033 Si / 1000 Ang^3
#
#
#
# Elastic Constant Matrix: (Units=GPa)
#
#
# Indices 1 2 3 4 5 6 
#
# 1 44.3111 20.6739 7.0291 -7.3408 12.7877 8.7751
# 2 20.6739 124.2330 44.2522 7.1307 1.2161 15.8475
# 3 7.0291 44.2522 112.9403 11.2171 15.3507 6.7409
# 4 -7.3408 7.1307 11.2171 37.1577 1.3945 -3.8517
# 5 12.7877 1.2161 15.3507 1.3945 34.4586 -1.7376
# 6 8.7751 15.8475 6.7409 -3.8517 -1.7376 24.5900
#
#
#
# Elastic Compliance Matrix: (Units=1/GPa)
#
#
# Indices 1 2 3 4 5 6 
#
# 1 0.030912 -0.004891 0.001593 0.006186 -0.012674 -0.008242
# 2 -0.004891 0.010918 -0.003879 -0.002460 0.003036 -0.004398
# 3 0.001593 -0.003879 0.011378 -0.002370 -0.005525 -0.001949
# 4 0.006186 -0.002460 -0.002370 0.029874 -0.002132 0.004557
# 5 -0.012674 0.003036 -0.005525 -0.002132 0.036483 0.006325
# 6 -0.008242 -0.004398 -0.001949 0.004557 0.006325 0.048138
#
#
# Mechanical properties :
#
#
# Convention : Reuss Voigt Hill
#
# Bulk Modulus (GPa) = 25.73845 47.26609 36.50227
# Shear Modulus (GPa) = 25.64000 33.20988 29.42494
#
# Velocity S-wave (km/s) = 3.40399 3.87403 3.64659
# Velocity P-wave (km/s) = 5.20395 6.43204 5.85031
#
# Compressibility (1/GPa) = 0.03885238
#
# Stress axis : x y z
#
# Youngs Moduli (GPa) = 32.35022 91.59536 87.89113
#
# Poissons Ratio (x) = 0.44800 -0.13999
# Poissons Ratio (y) = 0.15823 0.34093
# Poissons Ratio (z) = -0.05153 0.35530
#
# Static dielectric constant tensor:
#      x y z
#    x 3.983350 0.088180 0.229480 
#    y 0.088180 3.961390 0.049400 
#    z 0.229480 0.049400 4.224950 
# 
# 
# High freq. dielectric constant tensor:
#      x y z
#    x 1.848820 0.011970 0.016770 
#    y 0.011970 1.870470 0.006210 
#    z 0.016770 0.006210 1.882250 
# 
# From -- ./inp_files/345211.got.cif
#   From: 2010.06.25/outbox.cif.g09.slc.cpg/sg2_173_cif.got.tgz:345211.got - 2010.06.27 13:26:56.
