data_PCOD8044371
_publ_section_title
;
Structure prediction by ZEFSAII (Michael W. Deem and Ramdas Pophale) SiO2 
 PCOD8044371
Probable space group: P -1
;
_chemical_formula_sum "Si O2"
_cell_formula_units_Z 16
_cell_length_a 17.622343
_cell_length_b 8.820636
_cell_length_c 21.149431
_cell_angle_alpha 102.421980
_cell_angle_beta 161.665822
_cell_angle_gamma 67.799028
_cell_volume 833.028098
_symmetry_space_group_name_H-M "P -1"
_symmetry_group_IT_number 2
_symmetry_cell_setting 'triclinic'
loop_
_space_group_symop_operation_xyz
x,y,z
-x,-y,-z
loop_
_atom_site_type_symbol
_atom_site_label
_atom_site_fract_x
_atom_site_fract_y
_atom_site_fract_z
Si Si1 0.165192 0.007439 0.451533
Si Si2 0.784248 0.972240 0.751081
Si Si3 0.195684 0.607656 0.732125
Si Si4 0.817975 0.294158 0.854796
Si Si5 0.202984 0.224476 0.040375
Si Si6 0.545342 0.384454 0.312750
Si Si7 0.721404 0.534424 0.350029
Si Si8 0.155419 0.926057 0.922784
O O1 0.986618 0.173018 0.375487
O O2 0.020906 0.077725 0.275629
O O3 0.500689 0.945319 0.705137
O O4 0.172681 0.825006 0.465697
O O5 0.698414 0.167665 0.731583
O O6 0.500000 0.000000 0.500000
O O7 0.028707 0.904375 0.885173
O O8 0.920902 0.809613 0.897014
O O9 0.238116 0.595328 0.688940
O O10 0.020698 0.513709 0.603721
O O11 0.500000 0.500000 0.000000
O O12 0.544920 0.488092 0.684332
O O13 0.940810 0.336415 0.893554
O O14 0.272571 0.367563 0.077264
O O15 0.128461 0.123611 0.919079
O O16 0.613601 0.472804 0.317719
O O17 0.489305 0.750319 0.165992
#
# Coordination Sequence:
#
# PCOD8044371 Si02
#       8
#     2   2   2   2   2   2   2   2
#     4  10  22  39  60  88 123 157 194 246 308 353
#     4  10  21  33  58  92 120 157 209 249 279 339
#     4  11  23  42  67  90 113 155 202 254 309 361
#     4  10  19  38  59  87 124 166 197 240 290 352
#     4   9  21  38  60  84 130 163 190 238 303 350
#     4  10  22  41  59  92 126 157 196 247 300 351
#     4  11  22  40  66  90 114 152 207 252 293 367
#     4  11  19  39  61  85 121 161 204 239 296 356
#
# _framework density 19.207038000000001
#
# number of rings (size 3 to 8) (size 9 to 14) (size 15 to 20)
#    0.750    1.000    3.750    1.125    0.000    1.500 
#    4.500    1.875    0.000    0.000    0.000    0.000 
#    0.000    0.000    0.000    0.000    0.000    0.000 
#
# Total GULP energy -198345.139566 kJ/mol
# GULP energy per Si atom -12396.571223 kJ/mol
# Density = 1.916332 g / cm^3
# Si number density = 19.207038 Si / 1000 Ang^3
#
#
#
# Elastic Constant Matrix: (Units=GPa)
#
#
# Indices 1 2 3 4 5 6 
#
# 1 99.0759 56.5348 21.9643 -1.9170 11.8725 -18.9251
# 2 56.5348 105.3761 35.5957 -5.5314 7.8912 -22.8439
# 3 21.9643 35.5957 87.2571 12.5357 1.3848 -11.8380
# 4 -1.9170 -5.5314 12.5357 30.4796 -3.9002 3.9134
# 5 11.8725 7.8912 1.3848 -3.9002 24.6834 0.7794
# 6 -18.9251 -22.8439 -11.8380 3.9134 0.7794 38.6751
#
#
#
# Elastic Compliance Matrix: (Units=1/GPa)
#
#
# Indices 1 2 3 4 5 6 
#
# 1 0.015535 -0.007147 -0.000224 -0.001390 -0.005507 0.003563
# 2 -0.007147 0.016102 -0.004721 0.003748 -0.000986 0.004209
# 3 -0.000224 -0.004721 0.014828 -0.007334 -0.000449 0.002391
# 4 -0.001390 0.003748 -0.007334 0.037783 0.005999 -0.004655
# 5 -0.005507 -0.000986 -0.000449 0.005999 0.044606 -0.004920
# 6 0.003563 0.004209 0.002391 -0.004655 -0.004920 0.031388
#
#
# Mechanical properties :
#
#
# Convention : Reuss Voigt Hill
#
# Bulk Modulus (GPa) = 44.88409 57.76651 51.32530
# Shear Modulus (GPa) = 26.06150 30.60856 28.33503
#
# Velocity S-wave (km/s) = 3.68757 3.99634 3.84505
# Velocity P-wave (km/s) = 6.44594 7.17184 6.81856
#
# Compressibility (1/GPa) = 0.02227961
#
# Stress axis : x y z
#
# Youngs Moduli (GPa) = 64.37168 62.10403 67.43942
#
# Poissons Ratio (x) = 0.44384 0.01514
# Poissons Ratio (y) = 0.46005 0.31841
# Poissons Ratio (z) = 0.01445 0.29322
#
# Static dielectric constant tensor:
#      x y z
#    x 3.392380 -0.215030 0.133070 
#    y -0.215030 3.621680 0.091400 
#    z 0.133070 0.091400 3.377130 
# 
# 
# High freq. dielectric constant tensor:
#      x y z
#    x 1.738730 -0.021110 0.008810 
#    y -0.021110 1.754060 0.006590 
#    z 0.008810 0.006590 1.734700 
# 
# From -- ./inp_files/599496.got.cif
#   From: 2010.06.25/outbox.cif.g09.slc.cpg/sg2_300_cif.got.tgz:599496.got - 2010.06.27 13:26:56.
