data_PCOD8044825
_publ_section_title
;
Structure prediction by ZEFSAII (Michael W. Deem and Ramdas Pophale) SiO2 
 PCOD8044825
Probable space group: P -1
;
_chemical_formula_sum "Si O2"
_cell_formula_units_Z 14
_cell_length_a 23.953932
_cell_length_b 9.676995
_cell_length_c 8.393532
_cell_angle_alpha 113.612290
_cell_angle_beta 137.636598
_cell_angle_gamma 34.779839
_cell_volume 630.952246
_symmetry_space_group_name_H-M "P -1"
_symmetry_group_IT_number 2
_symmetry_cell_setting 'triclinic'
loop_
_space_group_symop_operation_xyz
x,y,z
-x,-y,-z
loop_
_atom_site_type_symbol
_atom_site_label
_atom_site_fract_x
_atom_site_fract_y
_atom_site_fract_z
Si Si1 0.012950 0.766145 0.892869
Si Si2 0.535445 0.299535 0.878432
Si Si3 0.353619 0.067853 0.790257
Si Si4 0.821601 0.043380 0.289631
Si Si5 0.982699 0.497002 0.650715
Si Si6 0.239980 0.659427 0.220205
Si Si7 0.345999 0.426735 0.981744
O O1 0.064047 0.513651 0.919477
O O2 0.900462 0.947540 0.583270
O O3 0.907655 0.995732 0.921653
O O4 0.176352 0.603383 0.139810
O O5 0.393880 0.487802 0.547509
O O6 0.500000 0.500000 0.000000
O O7 0.696416 0.098751 0.039217
O O8 0.554731 0.117844 0.939505
O O9 0.193798 0.220638 0.522078
O O10 0.465202 0.845244 0.774093
O O11 0.308482 0.313228 0.804210
O O12 0.946739 0.780949 0.302811
O O13 0.751744 0.312383 0.219580
O O14 0.000000 0.500000 0.500000
O O15 0.291538 0.548360 0.098892
#
# Coordination Sequence:
#
# PCOD8044825 Si02
#       7
#     2   2   2   2   2   2   2
#     4  10  21  42  67  96 126 173 216 270 306 391
#     4  12  21  43  69  91 123 180 223 257 307 400
#     4  11  22  42  67  95 132 171 216 259 326 383
#     4  11  22  41  71  92 128 174 219 251 331 384
#     4  10  19  38  69  93 117 169 226 259 295 391
#     4  11  24  39  65  98 135 161 220 268 326 367
#     4  11  25  40  62 103 135 168 203 278 327 379
#
# _framework density 22.188686000000001
#
# number of rings (size 3 to 8) (size 9 to 14) (size 15 to 20)
#    0.000    1.143    5.714    1.714    0.000    3.429 
#    0.000    2.143    0.000    0.000    0.000    0.000 
#    0.000    0.000    0.000    0.000    0.000    0.000 
#
# Total GULP energy -173433.960864 kJ/mol
# GULP energy per Si atom -12388.140062 kJ/mol
# Density = 2.213818 g / cm^3
# Si number density = 22.188686 Si / 1000 Ang^3
#
#
#
# Elastic Constant Matrix: (Units=GPa)
#
#
# Indices 1 2 3 4 5 6 
#
# 1 81.0633 43.5925 12.0462 -7.4734 13.6666 -14.3133
# 2 43.5925 158.9045 10.7101 -0.8293 -7.2437 1.1946
# 3 12.0462 10.7101 66.9744 0.3787 20.0559 -7.6839
# 4 -7.4734 -0.8293 0.3787 24.4506 1.8366 0.0580
# 5 13.6666 -7.2437 20.0559 1.8366 25.0695 -4.3739
# 6 -14.3133 1.1946 -7.6839 0.0580 -4.3739 52.8708
#
#
#
# Elastic Compliance Matrix: (Units=1/GPa)
#
#
# Indices 1 2 3 4 5 6 
#
# 1 0.018835 -0.005907 0.002005 0.006513 -0.013285 0.004418
# 2 -0.005907 0.008456 -0.002783 -0.002056 0.007770 -0.001550
# 3 0.002005 -0.002783 0.020700 0.001560 -0.018204 0.002106
# 4 0.006513 -0.002056 0.001560 0.043420 -0.008347 0.001298
# 5 -0.013285 0.007770 -0.018204 -0.008347 0.064362 -0.001084
# 6 0.004418 -0.001550 0.002106 0.001298 -0.001084 0.020360
#
#
# Mechanical properties :
#
#
# Convention : Reuss Voigt Hill
#
# Bulk Modulus (GPa) = 28.88366 48.84887 38.86626
# Shear Modulus (GPa) = 24.87043 36.51774 30.69408
#
# Velocity S-wave (km/s) = 3.35156 4.06122 3.72334
# Velocity P-wave (km/s) = 5.29366 6.63735 6.00322
#
# Compressibility (1/GPa) = 0.03462165
#
# Stress axis : x y z
#
# Youngs Moduli (GPa) = 53.09314 118.25588 48.31026
#
# Poissons Ratio (x) = 0.69853 -0.09688
# Poissons Ratio (y) = 0.31362 0.13444
# Poissons Ratio (z) = -0.10647 0.32908
#
# Static dielectric constant tensor:
#      x y z
#    x 3.959260 -0.191650 -0.353450 
#    y -0.191650 4.790590 -0.388500 
#    z -0.353450 -0.388500 1.450950 
# 
# 
# High freq. dielectric constant tensor:
#      x y z
#    x 1.867240 -0.004040 0.036580 
#    y -0.004040 1.902040 -0.006500 
#    z 0.036580 -0.006500 1.840310 
# 
# From -- ./inp_files/352317.got.cif
#   From: 2010.06.25/outbox.cif.g09.slc.cpg/sg2_177_cif.got.tgz:352317.got - 2010.06.27 13:26:56.
