data_PCOD8044416
_publ_section_title
;
Structure prediction by ZEFSAII (Michael W. Deem and Ramdas Pophale) SiO2 
 PCOD8044416
Probable space group: P -1
;
_chemical_formula_sum "Si O2"
_cell_formula_units_Z 16
_cell_length_a 17.808165
_cell_length_b 9.303224
_cell_length_c 8.787946
_cell_angle_alpha 45.604092
_cell_angle_beta 75.632093
_cell_angle_gamma 50.264480
_cell_volume 745.637742
_symmetry_space_group_name_H-M "P -1"
_symmetry_group_IT_number 2
_symmetry_cell_setting 'triclinic'
loop_
_space_group_symop_operation_xyz
x,y,z
-x,-y,-z
loop_
_atom_site_type_symbol
_atom_site_label
_atom_site_fract_x
_atom_site_fract_y
_atom_site_fract_z
Si Si1 0.356188 0.953700 0.771447
Si Si2 0.249202 0.157004 0.119329
Si Si3 0.177653 0.046197 0.968597
Si Si4 0.529063 0.174820 0.900399
Si Si5 0.658216 0.251557 0.365603
Si Si6 0.207475 0.543885 0.327595
Si Si7 0.012205 0.168058 0.760249
Si Si8 0.803055 0.339341 0.100503
O O1 0.307201 0.261948 0.556817
O O2 0.388719 0.814963 0.691620
O O3 0.274957 0.936587 0.895663
O O4 0.455682 0.818737 0.929766
O O5 0.168252 0.198113 0.010974
O O6 0.199990 0.463838 0.933492
O O7 0.365735 0.953241 0.144699
O O8 0.257908 0.017752 0.375182
O O9 0.197345 0.787096 0.215880
O O10 0.070971 0.240710 0.774940
O O11 0.435497 0.494199 0.670994
O O12 0.500000 0.000000 0.000000
O O13 0.714106 0.341714 0.192841
O O14 0.220530 0.532588 0.148696
O O15 0.108495 0.573550 0.411627
O O16 0.084379 0.973220 0.724932
O O17 0.000000 0.000000 0.000000
#
# Coordination Sequence:
#
# PCOD8044416 Si02
#       8
#     2   2   2   2   2   2   2   2
#     4  11  22  39  65  87 114 161 204 240 293 356
#     4  11  23  38  63  86 124 163 190 241 308 350
#     4   9  20  37  58  90 120 155 192 246 290 349
#     4  11  25  42  59  88 124 155 193 257 299 345
#     4  12  22  41  61  88 119 158 206 241 291 355
#     4  10  20  39  64  90 118 157 202 241 296 351
#     4   8  17  37  62  87 123 154 192 249 289 347
#     4  10  19  38  60  89 123 153 195 251 286 344
#
# _framework density 21.458143
#
# number of rings (size 3 to 8) (size 9 to 14) (size 15 to 20)
#    0.000    2.000    5.000    0.750    1.750    0.500 
#    0.000    6.875    0.000    9.750    0.000    0.000 
#    0.000    0.000    0.000    0.000    0.000    0.000 
#
# Total GULP energy -198276.326512 kJ/mol
# GULP energy per Si atom -12392.270407 kJ/mol
# Density = 2.140930 g / cm^3
# Si number density = 21.458143 Si / 1000 Ang^3
#
#
#
# Elastic Constant Matrix: (Units=GPa)
#
#
# Indices 1 2 3 4 5 6 
#
# 1 89.7059 37.8981 8.0541 5.9643 -9.9415 23.5009
# 2 37.8981 99.6806 13.9943 3.8088 -0.1155 20.8372
# 3 8.0541 13.9943 37.6190 -1.8035 -3.2237 6.3569
# 4 5.9643 3.8088 -1.8035 24.4422 2.7952 -1.2644
# 5 -9.9415 -0.1155 -3.2237 2.7952 21.8604 2.4105
# 6 23.5009 20.8372 6.3569 -1.2644 2.4105 45.9829
#
#
#
# Elastic Compliance Matrix: (Units=1/GPa)
#
#
# Indices 1 2 3 4 5 6 
#
# 1 0.016083 -0.004506 -0.000110 -0.004563 0.008601 -0.006739
# 2 -0.004506 0.012907 -0.003561 -0.001095 -0.002038 -0.002977
# 3 -0.000110 -0.003561 0.028808 0.002101 0.004184 -0.002474
# 4 -0.004563 -0.001095 0.002101 0.043456 -0.007784 0.004141
# 5 0.008601 -0.002038 0.004184 -0.007784 0.052029 -0.006992
# 6 -0.006739 -0.002977 -0.002474 0.004141 -0.006992 0.027363
#
#
# Mechanical properties :
#
#
# Convention : Reuss Voigt Hill
#
# Bulk Modulus (GPa) = 24.12905 38.54427 31.33666
# Shear Modulus (GPa) = 23.71758 29.59438 26.65598
#
# Velocity S-wave (km/s) = 3.32820 3.71774 3.52835
# Velocity P-wave (km/s) = 5.10278 6.03576 5.58877
#
# Compressibility (1/GPa) = 0.04144383
#
# Stress axis : x y z
#
# Youngs Moduli (GPa) = 62.17710 77.47756 34.71279
#
# Poissons Ratio (x) = 0.34914 0.00382
# Poissons Ratio (y) = 0.28019 0.12360
# Poissons Ratio (z) = 0.00684 0.27588
#
# Static dielectric constant tensor:
#      x y z
#    x 4.289310 -0.150580 0.074580 
#    y -0.150580 4.251630 -0.146840 
#    z 0.074580 -0.146840 3.723830 
# 
# 
# High freq. dielectric constant tensor:
#      x y z
#    x 1.840880 0.007760 -0.012640 
#    y 0.007760 1.841850 -0.007070 
#    z -0.012640 -0.007070 1.828390 
# 
# From -- ./inp_files/217989.got.cif
#   From: 2010.06.25/outbox.cif.g09.slc.cpg/sg2_109_cif.got.tgz:217989.got - 2010.06.27 13:26:56.
