data_PCOD8044640
_publ_section_title
;
Structure prediction by ZEFSAII (Michael W. Deem and Ramdas Pophale) SiO2 
 PCOD8044640
Probable space group: P -1
;
_chemical_formula_sum "Si O2"
_cell_formula_units_Z 16
_cell_length_a 9.095636
_cell_length_b 12.798501
_cell_length_c 9.830869
_cell_angle_alpha 123.171132
_cell_angle_beta 77.278541
_cell_angle_gamma 124.672488
_cell_volume 780.890861
_symmetry_space_group_name_H-M "P -1"
_symmetry_group_IT_number 2
_symmetry_cell_setting 'triclinic'
loop_
_space_group_symop_operation_xyz
x,y,z
-x,-y,-z
loop_
_atom_site_type_symbol
_atom_site_label
_atom_site_fract_x
_atom_site_fract_y
_atom_site_fract_z
Si Si1 0.334368 0.429121 0.245231
Si Si2 0.256670 0.451529 0.760088
Si Si3 0.250260 0.176124 0.906305
Si Si4 0.280707 0.921554 0.657464
Si Si5 0.933721 0.591007 0.502620
Si Si6 0.360432 0.628369 0.135115
Si Si7 0.332234 0.910991 0.337604
Si Si8 0.984242 0.872710 0.320226
O O1 0.541056 0.493241 0.285291
O O2 0.234633 0.424516 0.398056
O O3 0.303482 0.521093 0.201121
O O4 0.237685 0.255253 0.098768
O O5 0.143004 0.470384 0.677242
O O6 0.157055 0.277329 0.680658
O O7 0.253027 0.535889 0.955818
O O8 0.428213 0.301908 0.878239
O O9 0.075315 0.118104 0.810873
O O10 0.257056 0.032328 0.836696
O O11 0.304877 0.971254 0.529390
O O12 0.111952 0.756256 0.589577
O O13 0.480649 0.957945 0.678786
O O14 0.000000 0.500000 0.500000
O O15 0.321118 0.756778 0.257129
O O16 0.169615 0.883749 0.258756
O O17 0.000000 0.000000 0.500000
#
# Coordination Sequence:
#
# PCOD8044640 Si02
#       8
#     2   2   2   2   2   2   2   2
#     4  11  22  39  65  91 123 163 199 248 314 362
#     4  11  22  41  61  92 126 153 208 255 298 363
#     4  10  19  38  64  91 120 153 205 258 298 360
#     4  10  21  40  56  86 121 161 201 250 302 358
#     4  12  26  41  59  88 127 168 203 246 307 372
#     4  10  20  38  65  94 119 158 202 257 306 356
#     4  10  21  34  61  86 121 155 202 251 306 342
#     4  12  20  33  60  94 120 150 200 255 304 351
#
# _framework density 20.489418000000001
#
# number of rings (size 3 to 8) (size 9 to 14) (size 15 to 20)
#    0.000    1.250    5.000    1.875    0.000    3.000 
#    0.000    1.250    0.000    7.500    0.000    0.000 
#    0.000    0.000    0.000    0.000    0.000    0.000 
#
# Total GULP energy -198315.717150 kJ/mol
# GULP energy per Si atom -12394.732322 kJ/mol
# Density = 2.044278 g / cm^3
# Si number density = 20.489418 Si / 1000 Ang^3
#
#
#
# Elastic Constant Matrix: (Units=GPa)
#
#
# Indices 1 2 3 4 5 6 
#
# 1 106.9825 34.2759 24.9104 16.1895 14.2589 8.7995
# 2 34.2759 72.2996 28.3182 12.4950 14.3544 12.3790
# 3 24.9104 28.3182 85.1582 18.7736 12.4601 0.0311
# 4 16.1895 12.4950 18.7736 28.1001 4.5593 2.0550
# 5 14.2589 14.3544 12.4601 4.5593 29.3741 2.8085
# 6 8.7995 12.3790 0.0311 2.0550 2.8085 28.0518
#
#
#
# Elastic Compliance Matrix: (Units=1/GPa)
#
#
# Indices 1 2 3 4 5 6 
#
# 1 0.011865 -0.003767 -0.000936 -0.003978 -0.002761 -0.001490
# 2 -0.003767 0.019889 -0.004211 -0.002536 -0.005051 -0.006899
# 3 -0.000936 -0.004211 0.015580 -0.007700 -0.003190 0.003018
# 4 -0.003978 -0.002536 -0.007700 0.044270 -0.000355 -0.000832
# 5 -0.002761 -0.005051 -0.003190 -0.000355 0.039338 -0.000814
# 6 -0.001490 -0.006899 0.003018 -0.000832 -0.000814 0.039300
#
#
# Mechanical properties :
#
#
# Convention : Reuss Voigt Hill
#
# Bulk Modulus (GPa) = 33.89298 48.82772 41.36035
# Shear Modulus (GPa) = 25.26445 28.90091 27.08268
#
# Velocity S-wave (km/s) = 3.51529 3.75977 3.63959
# Velocity P-wave (km/s) = 5.74926 6.53684 6.15566
#
# Compressibility (1/GPa) = 0.02950464
#
# Stress axis : x y z
#
# Youngs Moduli (GPa) = 84.28164 50.27879 64.18339
#
# Poissons Ratio (x) = 0.18941 0.06010
# Poissons Ratio (y) = 0.31751 0.27029
# Poissons Ratio (z) = 0.07892 0.21174
#
# Static dielectric constant tensor:
#      x y z
#    x 4.036080 0.215050 0.094020 
#    y 0.215050 3.583070 0.269060 
#    z 0.094020 0.269060 3.835660 
# 
# 
# High freq. dielectric constant tensor:
#      x y z
#    x 1.816020 0.012620 0.001000 
#    y 0.012620 1.778620 0.028400 
#    z 0.001000 0.028400 1.798640 
# 
# From -- ./inp_files/190015.got.cif
#   From: 2010.06.25/outbox.cif.g09.slc.cpg/sg2_96_cif.got.tgz:190015.got - 2010.06.27 13:26:56.
