data_PCOD8044162
_publ_section_title
;
Structure prediction by ZEFSAII (Michael W. Deem and Ramdas Pophale) SiO2 
 PCOD8044162
Probable space group: P -1
;
_chemical_formula_sum "Si O2"
_cell_formula_units_Z 14
_cell_length_a 7.271790
_cell_length_b 16.666551
_cell_length_c 11.929113
_cell_angle_alpha 145.515665
_cell_angle_beta 61.669171
_cell_angle_gamma 121.571118
_cell_volume 694.628658
_symmetry_space_group_name_H-M "P -1"
_symmetry_group_IT_number 2
_symmetry_cell_setting 'triclinic'
loop_
_space_group_symop_operation_xyz
x,y,z
-x,-y,-z
loop_
_atom_site_type_symbol
_atom_site_label
_atom_site_fract_x
_atom_site_fract_y
_atom_site_fract_z
Si Si1 0.647253 0.329521 0.295389
Si Si2 0.989342 0.705949 0.415359
Si Si3 0.802216 0.669729 0.663272
Si Si4 0.935781 0.736259 0.946385
Si Si5 0.422798 0.245750 0.481928
Si Si6 0.676734 0.455449 0.822846
Si Si7 0.983620 0.979752 0.614011
O O1 0.774451 0.496445 0.479925
O O2 0.435563 0.306510 0.254493
O O3 0.585771 0.244122 0.331758
O O4 0.815861 0.263263 0.102783
O O5 0.126537 0.586784 0.215025
O O6 0.967599 0.735375 0.589130
O O7 0.737871 0.647866 0.378080
O O8 0.097701 0.856553 0.488023
O O9 0.901073 0.754116 0.844676
O O10 0.769121 0.587054 0.862579
O O11 0.899325 0.870459 0.184115
O O12 0.559128 0.305810 0.621323
O O13 0.274260 0.079472 0.352343
O O14 0.500000 0.500000 0.000000
O O15 0.000000 0.000000 0.500000
#
# Coordination Sequence:
#
# PCOD8044162 Si02
#       7
#     2   2   2   2   2   2   2
#     4  10  19  37  64  97 127 154 201 268 322 359
#     4   9  22  43  64  86 130 169 196 265 320 361
#     4  10  19  38  65  99 126 153 207 265 321 372
#     4  12  23  38  67  97 125 161 214 265 305 374
#     4   9  21  42  62  87 129 167 197 258 323 366
#     4  12  23  39  65  96 118 168 227 251 298 383
#     4  10  24  48  59  85 138 176 204 255 317 371
#
# _framework density 20.154654000000001
#
# number of rings (size 3 to 8) (size 9 to 14) (size 15 to 20)
#    0.857    0.857    2.857    2.143    0.000    1.714 
#    5.143    1.429    0.000    0.000    0.000    0.000 
#    0.000    0.000    0.000    0.000    0.000    0.000 
#
# Total GULP energy -173487.181483 kJ/mol
# GULP energy per Si atom -12391.941535 kJ/mol
# Density = 2.010878 g / cm^3
# Si number density = 20.154654 Si / 1000 Ang^3
#
#
#
# Elastic Constant Matrix: (Units=GPa)
#
#
# Indices 1 2 3 4 5 6 
#
# 1 70.6867 29.1547 30.9601 -9.2881 -4.9949 0.2631
# 2 29.1547 109.3074 33.0692 -13.8563 4.3930 -19.2570
# 3 30.9601 33.0692 74.2726 -6.6257 3.7152 -6.1181
# 4 -9.2881 -13.8563 -6.6257 31.0992 10.0248 1.0984
# 5 -4.9949 4.3930 3.7152 10.0248 32.0161 -5.3878
# 6 0.2631 -19.2570 -6.1181 1.0984 -5.3878 27.2834
#
#
#
# Elastic Compliance Matrix: (Units=1/GPa)
#
#
# Indices 1 2 3 4 5 6 
#
# 1 0.018995 -0.003610 -0.006605 0.001808 0.003039 -0.003685
# 2 -0.003610 0.013134 -0.003182 0.004474 -0.002050 0.008007
# 3 -0.006605 -0.003182 0.017999 0.001334 -0.002893 0.001229
# 4 0.001808 0.004474 0.001334 0.039140 -0.012856 -0.000675
# 5 0.003039 -0.002050 -0.002893 -0.012856 0.037321 0.005763
# 6 -0.003685 0.008007 0.001229 -0.000675 0.005763 0.043780
#
#
# Mechanical properties :
#
#
# Convention : Reuss Voigt Hill
#
# Bulk Modulus (GPa) = 42.85601 48.95941 45.90771
# Shear Modulus (GPa) = 24.39738 28.81857 26.60797
#
# Velocity S-wave (km/s) = 3.48301 3.78547 3.63738
# Velocity P-wave (km/s) = 6.12249 6.59173 6.36144
#
# Compressibility (1/GPa) = 0.02333395
#
# Stress axis : x y z
#
# Youngs Moduli (GPa) = 52.64589 76.13764 55.55980
#
# Poissons Ratio (x) = 0.27489 0.36696
# Poissons Ratio (y) = 0.19007 0.17678
# Poissons Ratio (z) = 0.34771 0.24225
#
# Static dielectric constant tensor:
#      x y z
#    x 3.689880 0.025760 -0.025030 
#    y 0.025760 3.732470 -0.037270 
#    z -0.025030 -0.037270 3.313780 
# 
# 
# High freq. dielectric constant tensor:
#      x y z
#    x 1.786840 0.001400 -0.000420 
#    y 0.001400 1.791520 -0.011890 
#    z -0.000420 -0.011890 1.750620 
# 
# From -- ./inp_files/403487.got.cif
#   From: 2010.06.25/outbox.cif.g09.slc.cpg/sg2_202_cif.got.tgz:403487.got - 2010.06.27 13:26:56.
