data_PCOD8044649
_publ_section_title
;
Structure prediction by ZEFSAII (Michael W. Deem and Ramdas Pophale) SiO2 
 PCOD8044649
Probable space group: P -1
;
_chemical_formula_sum "Si O2"
_cell_formula_units_Z 14
_cell_length_a 18.004057
_cell_length_b 8.617313
_cell_length_c 11.946904
_cell_angle_alpha 103.669599
_cell_angle_beta 47.707701
_cell_angle_gamma 140.683249
_cell_volume 690.689481
_symmetry_space_group_name_H-M "P -1"
_symmetry_group_IT_number 2
_symmetry_cell_setting 'triclinic'
loop_
_space_group_symop_operation_xyz
x,y,z
-x,-y,-z
loop_
_atom_site_type_symbol
_atom_site_label
_atom_site_fract_x
_atom_site_fract_y
_atom_site_fract_z
Si Si1 0.493664 0.132871 0.678315
Si Si2 0.109755 0.665145 0.637487
Si Si3 0.499794 0.228423 0.443372
Si Si4 0.234628 0.558290 0.100971
Si Si5 0.823847 0.801569 0.066972
Si Si6 0.103841 0.754600 0.026564
Si Si7 0.667098 0.257417 0.724183
O O1 0.542769 0.299818 0.544974
O O2 0.662537 0.375307 0.643268
O O3 0.456470 0.894791 0.654009
O O4 0.301517 0.940939 0.895796
O O5 0.200634 0.715261 0.440209
O O6 0.940071 0.557792 0.765139
O O7 0.026730 0.409926 0.757312
O O8 0.280142 0.979569 0.592266
O O9 0.633344 0.531446 0.290939
O O10 0.242942 0.539100 0.223018
O O11 0.187241 0.328041 0.050857
O O12 0.443546 0.903417 0.908473
O O13 0.853203 0.017029 0.029136
O O14 0.000000 0.000000 0.000000
O O15 0.000000 0.500000 0.000000
#
# Coordination Sequence:
#
# PCOD8044649 Si02
#       7
#     2   2   2   2   2   2   2
#     4  10  19  38  64  92 127 170 208 260 322 382
#     4  11  20  40  70  97 127 172 219 258 327 387
#     4  10  21  38  66  96 131 161 219 266 322 388
#     4  11  22  44  65  99 129 172 215 272 315 381
#     4  12  26  41  62  99 135 165 216 275 325 379
#     4  12  23  39  63  94 131 171 212 268 332 381
#     4  10  22  39  73  92 132 172 221 254 319 395
#
# _framework density 20.269601999999999
#
# number of rings (size 3 to 8) (size 9 to 14) (size 15 to 20)
#    0.000    1.143    5.714    2.143    4.000    0.571 
#    0.000    1.429    0.000    0.000    0.000    0.000 
#    0.000    0.000    0.000    0.000    0.000    0.000 
#
# Total GULP energy -173514.134306 kJ/mol
# GULP energy per Si atom -12393.866736 kJ/mol
# Density = 2.022347 g / cm^3
# Si number density = 20.269602 Si / 1000 Ang^3
#
#
#
# Elastic Constant Matrix: (Units=GPa)
#
#
# Indices 1 2 3 4 5 6 
#
# 1 120.9827 69.3241 67.4348 -3.9214 4.2545 20.1261
# 2 69.3241 105.9546 47.0273 2.0225 12.4261 12.9155
# 3 67.4348 47.0273 137.2219 -3.9188 -0.4082 6.5921
# 4 -3.9214 2.0225 -3.9188 29.4775 3.7064 11.7043
# 5 4.2545 12.4261 -0.4082 3.7064 40.7579 8.0379
# 6 20.1261 12.9155 6.5921 11.7043 8.0379 29.1984
#
#
#
# Elastic Compliance Matrix: (Units=1/GPa)
#
#
# Indices 1 2 3 4 5 6 
#
# 1 0.017898 -0.008500 -0.005197 0.006157 0.002176 -0.010471
# 2 -0.008500 0.016018 -0.001448 -0.002377 -0.004023 0.001161
# 3 -0.005197 -0.001448 0.010258 0.000003 0.000751 0.001699
# 4 0.006157 -0.002377 0.000003 0.043018 0.000212 -0.020495
# 5 0.002176 -0.004023 0.000751 0.000212 0.026983 -0.007403
# 6 -0.010471 0.001161 0.001699 -0.020495 -0.007403 0.050822
#
#
# Mechanical properties :
#
#
# Convention : Reuss Voigt Hill
#
# Bulk Modulus (GPa) = 72.02597 81.30351 76.66474
# Shear Modulus (GPa) = 25.01057 31.91163 28.46110
#
# Velocity S-wave (km/s) = 3.51650 3.97212 3.75123
# Velocity P-wave (km/s) = 7.21795 7.82529 7.52775
#
# Compressibility (1/GPa) = 0.01388388
#
# Stress axis : x y z
#
# Youngs Moduli (GPa) = 55.87214 62.43086 97.48035
#
# Poissons Ratio (x) = 0.53066 0.50663
# Poissons Ratio (y) = 0.47491 0.14115
# Poissons Ratio (z) = 0.29038 0.09040
#
# Static dielectric constant tensor:
#      x y z
#    x 3.856950 0.351010 0.064660 
#    y 0.351010 3.532930 0.171710 
#    z 0.064660 0.171710 4.174450 
# 
# 
# High freq. dielectric constant tensor:
#      x y z
#    x 1.800730 0.020060 -0.004340 
#    y 0.020060 1.750580 0.008080 
#    z -0.004340 0.008080 1.816380 
# 
# From -- ./inp_files/215472.got.cif
#   From: 2010.06.25/outbox.cif.g09.slc.cpg/sg2_108_cif.got.tgz:215472.got - 2010.06.27 13:26:56.
