data_PCOD8044041
_publ_section_title
;
Structure prediction by ZEFSAII (Michael W. Deem and Ramdas Pophale) SiO2 
 PCOD8044041
Probable space group: P -1
;
_chemical_formula_sum "Si O2"
_cell_formula_units_Z 16
_cell_length_a 8.934170
_cell_length_b 18.078701
_cell_length_c 18.125282
_cell_angle_alpha 30.611539
_cell_angle_beta 140.254312
_cell_angle_gamma 149.398418
_cell_volume 754.416813
_symmetry_space_group_name_H-M "P -1"
_symmetry_group_IT_number 2
_symmetry_cell_setting 'triclinic'
loop_
_space_group_symop_operation_xyz
x,y,z
-x,-y,-z
loop_
_atom_site_type_symbol
_atom_site_label
_atom_site_fract_x
_atom_site_fract_y
_atom_site_fract_z
Si Si1 0.871782 0.545040 0.129931
Si Si2 0.134183 0.845076 0.369017
Si Si3 0.911287 0.074564 0.292933
Si Si4 0.582154 0.573107 0.289199
Si Si5 0.819831 0.357242 0.990545
Si Si6 0.757115 0.811450 0.827159
Si Si7 0.441165 0.233518 0.465975
Si Si8 0.211225 0.421711 0.412581
O O1 0.558842 0.345520 0.193883
O O2 0.957934 0.564147 0.061137
O O3 0.108806 0.553011 0.265402
O O4 0.858343 0.711259 0.001516
O O5 0.388279 0.833148 0.450411
O O6 0.858453 0.728299 0.309236
O O7 0.046786 0.773410 0.482089
O O8 0.256253 0.055803 0.236877
O O9 0.012509 0.067660 0.255167
O O10 0.187743 0.194677 0.349408
O O11 0.687034 0.869788 0.415476
O O12 0.737181 0.161820 0.149872
O O13 0.484513 0.670745 0.116873
O O14 0.654558 0.453884 0.372916
O O15 0.290613 0.419244 0.359741
O O16 0.000000 0.500000 0.000000
O O17 0.500000 0.500000 0.500000
#
# Coordination Sequence:
#
# PCOD8044041 Si02
#       8
#     2   2   2   2   2   2   2   2
#     4   9  20  36  62  87 112 148 194 240 284 336
#     4  11  23  37  59  85 120 154 189 236 284 344
#     4  10  22  37  58  89 110 153 190 243 286 334
#     4  10  21  40  59  84 116 155 191 231 289 346
#     4  10  19  37  63  84 111 149 192 237 286 340
#     4  10  21  39  58  86 118 148 195 237 286 335
#     4  11  22  36  58  86 120 147 194 237 287 338
#     4   9  19  37  59  86 113 151 187 231 288 340
#
# _framework density 21.208435000000001
#
# number of rings (size 3 to 8) (size 9 to 14) (size 15 to 20)
#    0.000    2.000    1.250    1.875    1.750    3.000 
#    0.000   13.125    0.000    0.000    0.000    0.000 
#    0.000    0.000    0.000    0.000    0.000    0.000 
#
# Total GULP energy -198310.293176 kJ/mol
# GULP energy per Si atom -12394.393324 kJ/mol
# Density = 2.116016 g / cm^3
# Si number density = 21.208435 Si / 1000 Ang^3
#
#
#
# Elastic Constant Matrix: (Units=GPa)
#
#
# Indices 1 2 3 4 5 6 
#
# 1 65.6008 25.7489 47.3809 -10.6235 28.2533 -1.2090
# 2 25.7489 57.1163 59.1510 -1.8374 13.0621 -3.5037
# 3 47.3809 59.1510 160.4919 9.6377 39.6695 -4.8995
# 4 -10.6235 -1.8374 9.6377 35.3494 -2.5614 6.8620
# 5 28.2533 13.0621 39.6695 -2.5614 38.6252 -6.5129
# 6 -1.2090 -3.5037 -4.8995 6.8620 -6.5129 28.7074
#
#
#
# Elastic Compliance Matrix: (Units=1/GPa)
#
#
# Indices 1 2 3 4 5 6 
#
# 1 0.027728 -0.006148 -0.002712 0.008717 -0.015804 -0.005715
# 2 -0.006148 0.030556 -0.011043 0.002744 0.006076 0.002308
# 3 -0.002712 -0.011043 0.013571 -0.005765 -0.008552 0.000292
# 4 0.008717 0.002744 -0.005765 0.034251 -0.000561 -0.008597
# 5 -0.015804 0.006076 -0.008552 -0.000561 0.045678 0.009114
# 6 -0.005715 0.002308 0.000292 -0.008597 0.009114 0.039048
#
#
# Mechanical properties :
#
#
# Convention : Reuss Voigt Hill
#
# Bulk Modulus (GPa) = 31.20150 60.86341 46.03245
# Shear Modulus (GPa) = 20.71926 30.59827 25.65877
#
# Velocity S-wave (km/s) = 3.12899 3.80246 3.48205
# Velocity P-wave (km/s) = 5.27237 6.93097 6.15777
#
# Compressibility (1/GPa) = 0.03204974
#
# Stress axis : x y z
#
# Youngs Moduli (GPa) = 36.06429 32.72634 73.68882
#
# Poissons Ratio (x) = 0.20119 0.19983
# Poissons Ratio (y) = 0.22172 0.81376
# Poissons Ratio (z) = 0.09780 0.36140
#
# Static dielectric constant tensor:
#      x y z
#    x 4.461230 1.335950 0.863860 
#    y 1.335950 6.415820 2.407520 
#    z 0.863860 2.407520 6.166840 
# 
# 
# High freq. dielectric constant tensor:
#      x y z
#    x 1.830230 0.005610 0.011200 
#    y 0.005610 1.794420 0.006610 
#    z 0.011200 0.006610 1.855170 
# 
# From -- ./inp_files/217031.got.cif
#   From: 2010.06.25/outbox.cif.g09.slc.cpg/sg2_109_cif.got.tgz:217031.got - 2010.06.27 13:26:56.
