data_PCOD8044912
_publ_section_title
;
Structure prediction by ZEFSAII (Michael W. Deem and Ramdas Pophale) SiO2 
 PCOD8044912
Probable space group: P 2
;
_chemical_formula_sum "Si O2"
_cell_formula_units_Z 16
_cell_length_a 8.496823
_cell_length_b 17.724576
_cell_length_c 9.461672
_cell_angle_alpha 90.000000
_cell_angle_beta 31.976808
_cell_angle_gamma 90.000000
_cell_volume 754.620449
_symmetry_space_group_name_H-M "P 2"
_symmetry_group_IT_number 3
_symmetry_cell_setting 'monoclinic'
loop_
_space_group_symop_operation_xyz
x,y,z
-x,y,-z
loop_
_atom_site_type_symbol
_atom_site_label
_atom_site_fract_x
_atom_site_fract_y
_atom_site_fract_z
Si Si1 0.813364 0.897430 0.002086
Si Si2 0.311142 0.818676 0.508473
Si Si3 0.139807 0.155665 0.542199
Si Si4 0.178197 0.548530 0.217768
Si Si5 0.751813 0.379516 0.913848
Si Si6 0.826680 0.656750 0.279475
Si Si7 0.365801 0.058454 0.952730
Si Si8 0.614924 0.312615 0.565858
O O1 0.014049 0.868643 0.719195
O O2 0.519289 0.843980 0.219232
O O3 0.000000 0.880550 0.000000
O O4 0.757899 0.985905 0.032091
O O5 0.500000 0.843919 0.500000
O O6 0.222832 0.731038 0.587008
O O7 0.371506 0.088471 0.345263
O O8 0.320319 0.223792 0.474531
O O9 0.000000 0.182803 0.500000
O O10 0.881837 0.124063 0.841124
O O11 0.244259 0.469800 0.088896
O O12 0.000000 0.537968 0.500000
O O13 0.003898 0.598240 0.238561
O O14 0.500000 0.586827 0.000000
O O15 0.081870 0.354247 0.620260
O O16 0.500000 0.347928 0.000000
O O17 0.659210 0.342525 0.132202
O O18 0.500000 0.621926 0.500000
O O19 0.000000 0.674541 0.000000
O O20 0.500000 0.033318 0.000000
O O21 0.500000 0.334156 0.500000
#
# Coordination Sequence:
#
# PCOD8044912 Si02
#       8
#     2   2   2   2   2   2   2   2
#     4  10  19  33  55  79 108 149 192 239 295 355
#     4   9  18  34  55  81 113 150 194 239 294 360
#     4  10  21  38  58  80 113 159 196 234 300 377
#     4  11  24  43  64  92 127 163 206 259 311 370
#     4  11  23  43  65  86 121 170 205 237 305 387
#     4  11  22  39  65  93 123 165 211 259 309 370
#     4  10  21  36  55  81 113 149 197 246 292 355
#     4  12  25  40  63  96 125 151 201 267 306 348
#
# _framework density 21.202711999999998
#
# number of rings (size 3 to 8) (size 9 to 14) (size 15 to 20)
#    0.000    1.500    0.000    7.125    0.000    3.500 
#    0.000    1.875    0.000    0.000    0.000    0.000 
#    0.000    0.000    0.000    0.000    0.000    0.000 
#
# Total GULP energy -198348.494341 kJ/mol
# GULP energy per Si atom -12396.780896 kJ/mol
# Density = 2.115445 g / cm^3
# Si number density = 21.202712 Si / 1000 Ang^3
#
#
#
# Elastic Constant Matrix: (Units=GPa)
#
#
# Indices 1 2 3 4 5 6 
#
# 1 62.1905 37.0913 21.7552 0.0000 -12.8522 0.0000
# 2 37.0913 98.8902 30.7840 0.0000 -7.4694 0.0000
# 3 21.7552 30.7840 110.3180 0.0000 -17.4220 0.0000
# 4 0.0000 0.0000 0.0000 32.6599 0.0000 -8.0775
# 5 -12.8522 -7.4694 -17.4220 0.0000 33.4760 0.0000
# 6 0.0000 0.0000 0.0000 -8.0775 0.0000 33.3624
#
#
#
# Elastic Compliance Matrix: (Units=1/GPa)
#
#
# Indices 1 2 3 4 5 6 
#
# 1 0.022284 -0.007476 -0.001330 0.000000 0.006195 0.000000
# 2 -0.007476 0.013610 -0.002503 0.000000 -0.001136 0.000000
# 3 -0.001330 -0.002503 0.010739 0.000000 0.004520 0.000000
# 4 0.000000 0.000000 0.000000 0.032569 0.000000 0.007885
# 5 0.006195 -0.001136 0.004520 0.000000 0.034349 0.000000
# 6 0.000000 0.000000 0.000000 0.007885 0.000000 0.031883
#
#
# Mechanical properties :
#
#
# Convention : Reuss Voigt Hill
#
# Bulk Modulus (GPa) = 41.64084 50.07330 45.85707
# Shear Modulus (GPa) = 28.39987 32.01755 30.20871
#
# Velocity S-wave (km/s) = 3.66381 3.89018 3.77869
# Velocity P-wave (km/s) = 6.13026 6.62161 6.38066
#
# Compressibility (1/GPa) = 0.02401488
#
# Stress axis : x y z
#
# Youngs Moduli (GPa) = 44.87516 73.47712 93.11678
#
# Poissons Ratio (x) = 0.54933 0.12384
# Poissons Ratio (y) = 0.33550 0.23305
# Poissons Ratio (z) = 0.05968 0.18390
#
# Static dielectric constant tensor:
#      x y z
#    x 3.625900 0.000000 -0.302930 
#    y 0.000000 3.604360 0.000000 
#    z -0.302930 0.000000 4.383850 
# 
# 
# High freq. dielectric constant tensor:
#      x y z
#    x 1.808400 0.000000 -0.021630 
#    y 0.000000 1.829190 0.000000 
#    z -0.021630 0.000000 1.855300 
# 
# From -- ./inp_files/6223.got.cif
#   From: 2010.03.12/outbox.cif.g09.slc.cpg/sg3_4_cif.got.tgz:6223.got - 2010.03.31 09:20:49.
