data_PCOD8044510
_publ_section_title
;
Structure prediction by ZEFSAII (Michael W. Deem and Ramdas Pophale) SiO2 
 PCOD8044510
Probable space group: P -1
;
_chemical_formula_sum "Si O2"
_cell_formula_units_Z 16
_cell_length_a 24.857684
_cell_length_b 8.818771
_cell_length_c 19.044921
_cell_angle_alpha 45.093723
_cell_angle_beta 158.704796
_cell_angle_gamma 145.330351
_cell_volume 824.880939
_symmetry_space_group_name_H-M "P -1"
_symmetry_group_IT_number 2
_symmetry_cell_setting 'triclinic'
loop_
_space_group_symop_operation_xyz
x,y,z
-x,-y,-z
loop_
_atom_site_type_symbol
_atom_site_label
_atom_site_fract_x
_atom_site_fract_y
_atom_site_fract_z
Si Si1 0.714020 0.274489 0.876703
Si Si2 0.497444 0.662554 0.281376
Si Si3 0.075070 0.839760 0.167349
Si Si4 0.492474 0.312630 0.492194
Si Si5 0.566360 0.313418 0.216683
Si Si6 0.856988 0.230474 0.577067
Si Si7 0.491821 0.265885 0.978015
Si Si8 0.730786 0.359913 0.114643
O O1 0.625853 0.352670 0.801046
O O2 0.651995 0.284263 0.718755
O O3 0.628402 0.961069 0.893547
O O4 0.944497 0.519248 0.085167
O O5 0.531125 0.446219 0.417478
O O6 0.381837 0.585764 0.093733
O O7 0.703808 0.969312 0.426195
O O8 0.078171 0.853648 0.251089
O O9 0.288337 0.001438 0.343965
O O10 0.000000 0.000000 0.000000
O O11 0.500000 0.500000 0.500000
O O12 0.759097 0.352832 0.452558
O O13 0.596118 0.580283 0.194303
O O14 0.543168 0.287827 0.113697
O O15 0.041304 0.441163 0.684096
O O16 0.685372 0.408547 0.120888
O O17 0.334058 0.945563 0.870051
#
# Coordination Sequence:
#
# PCOD8044510 Si02
#       8
#     2   2   2   2   2   2   2   2
#     4  10  17  29  48  76 111 140 171 224 263 317
#     4  10  17  31  49  79 114 136 171 228 269 313
#     4  12  16  24  49  84 112 138 176 219 270 311
#     4  10  16  26  45  78 112 138 172 216 273 310
#     4  10  20  39  56  78 112 146 179 226 274 318
#     4  11  19  31  56  81 111 138 179 226 269 316
#     4  10  22  39  58  75 109 150 180 225 280 316
#     4  11  21  37  57  82 107 141 184 229 270 323
#
# _framework density 19.396739
#
# number of rings (size 3 to 8) (size 9 to 14) (size 15 to 20)
#    0.000    1.500   10.000    0.000    0.000    1.000 
#    0.000    0.000    0.000    0.750    0.000    4.375 
#    0.000    0.000    0.000    0.000    0.000    0.000 
#
# Total GULP energy -198274.287561 kJ/mol
# GULP energy per Si atom -12392.142973 kJ/mol
# Density = 1.935259 g / cm^3
# Si number density = 19.396739 Si / 1000 Ang^3
#
#
#
# Elastic Constant Matrix: (Units=GPa)
#
#
# Indices 1 2 3 4 5 6 
#
# 1 27.2999 52.6118 16.8976 -2.9155 13.2787 1.8135
# 2 52.6118 103.7811 49.2571 5.2079 4.0319 23.2031
# 3 16.8976 49.2571 91.2725 22.4324 3.4841 7.5311
# 4 -2.9155 5.2079 22.4324 35.5512 13.0750 2.3918
# 5 13.2787 4.0319 3.4841 13.0750 23.1036 1.8225
# 6 1.8135 23.2031 7.5311 2.3918 1.8225 19.3509
#
#
#
# Elastic Compliance Matrix: (Units=1/GPa)
#
#
# Indices 1 2 3 4 5 6 
#
# 1 -0.057595 0.039947 -0.003933 -0.020586 0.041716 -0.042355
# 2 0.039947 -0.009546 -0.006884 0.020267 -0.032588 0.010946
# 3 -0.003933 -0.006884 0.018365 -0.014207 0.008541 0.002427
# 4 -0.020586 0.020267 -0.014207 0.037108 -0.008939 -0.020588
# 5 0.041716 -0.032588 0.008541 -0.008939 0.026362 0.030464
# 6 -0.042355 0.010946 0.002427 -0.020588 0.030464 0.041252
#
#
# Mechanical properties :
#
#
# Convention : Reuss Voigt Hill
#
# Bulk Modulus (GPa) = 105.46302 51.09851 78.28076
# Shear Modulus (GPa) = 5900.06357 22.50695 2961.28526
#
# Velocity S-wave (km/s) = 55.21218 3.41008 39.11530
# Velocity P-wave (km/s) = 64.17945 6.47348 45.61200
#
# Compressibility (1/GPa) = 0.00948200
#
# Stress axis : x y z
#
# Youngs Moduli (GPa) = -17.36252 -104.75179 54.45215
#
# Poissons Ratio (x) = 4.18449 0.21418
# Poissons Ratio (y) = 0.69358 0.37484
# Poissons Ratio (z) = -0.06829 -0.72110
#
# Static dielectric constant tensor:
#      x y z
#    x 3.302910 0.463780 -0.193990 
#    y 0.463780 3.960230 -0.045090 
#    z -0.193990 -0.045090 3.857250 
# 
# 
# High freq. dielectric constant tensor:
#      x y z
#    x 1.709880 0.040670 -0.022100 
#    y 0.040670 1.758280 0.002610 
#    z -0.022100 0.002610 1.751530 
# 
# From -- ./inp_files/493463.got.cif
#   From: 2010.06.25/outbox.cif.g09.slc.cpg/sg2_247_cif.got.tgz:493463.got - 2010.06.27 13:26:56.
