data_PCOD8044635
_publ_section_title
;
Structure prediction by ZEFSAII (Michael W. Deem and Ramdas Pophale) SiO2 
 PCOD8044635
Probable space group: P -1
;
_chemical_formula_sum "Si O2"
_cell_formula_units_Z 14
_cell_length_a 8.012877
_cell_length_b 17.129566
_cell_length_c 10.064563
_cell_angle_alpha 30.424644
_cell_angle_beta 110.616368
_cell_angle_gamma 118.800012
_cell_volume 606.762790
_symmetry_space_group_name_H-M "P -1"
_symmetry_group_IT_number 2
_symmetry_cell_setting 'triclinic'
loop_
_space_group_symop_operation_xyz
x,y,z
-x,-y,-z
loop_
_atom_site_type_symbol
_atom_site_label
_atom_site_fract_x
_atom_site_fract_y
_atom_site_fract_z
Si Si1 0.641995 0.735765 0.622238
Si Si2 0.939558 0.111035 0.422853
Si Si3 0.290786 0.155181 0.047338
Si Si4 0.033715 0.725872 0.301295
Si Si5 0.580158 0.047406 0.809222
Si Si6 0.051044 0.634030 0.156241
Si Si7 0.391252 0.431180 0.867161
O O1 0.869888 0.792856 0.577798
O O2 0.568061 0.885369 0.400475
O O3 0.541703 0.622275 0.631994
O O4 0.574348 0.644158 0.875838
O O5 0.871186 0.241953 0.130099
O O6 0.000000 0.000000 0.500000
O O7 0.773986 0.995356 0.642284
O O8 0.422243 0.113470 0.036792
O O9 0.424171 0.326752 0.905297
O O10 0.107376 0.173802 0.898035
O O11 0.200174 0.818505 0.318341
O O12 0.911238 0.537167 0.596404
O O13 0.133325 0.724663 0.186472
O O14 0.500000 0.000000 0.000000
O O15 0.822019 0.573708 0.193457
#
# Coordination Sequence:
#
# PCOD8044635 Si02
#       7
#     2   2   2   2   2   2   2
#     4  10  20  37  66  90 128 164 202 251 323 371
#     4  11  19  39  68  97 122 162 211 264 312 370
#     4  11  23  41  66  93 128 165 218 258 307 373
#     4  10  19  38  64  90 127 169 203 252 312 386
#     4  12  26  39  62  93 127 167 211 267 316 363
#     4   9  18  34  67  92 124 166 209 248 317 380
#     4   9  18  38  65  91 124 169 201 254 313 376
#
# _framework density 23.073269
#
# number of rings (size 3 to 8) (size 9 to 14) (size 15 to 20)
#    0.000    1.714    5.714    1.286    0.000    0.571 
#    0.000    1.429   12.571    0.000    0.000    0.000 
#    0.000    0.000    0.000    0.000    0.000    0.000 
#
# Total GULP energy -173557.223767 kJ/mol
# GULP energy per Si atom -12396.944555 kJ/mol
# Density = 2.302075 g / cm^3
# Si number density = 23.073269 Si / 1000 Ang^3
#
#
#
# Elastic Constant Matrix: (Units=GPa)
#
#
# Indices 1 2 3 4 5 6 
#
# 1 33.0364 18.4806 23.5005 1.5880 4.2589 -24.9231
# 2 18.4806 106.1045 4.3802 -12.7079 2.8408 -14.3695
# 3 23.5005 4.3802 112.6729 1.7192 20.3103 -15.9599
# 4 1.5880 -12.7079 1.7192 29.9268 2.7263 5.9288
# 5 4.2589 2.8408 20.3103 2.7263 26.5566 1.2266
# 6 -24.9231 -14.3695 -15.9599 5.9288 1.2266 34.9623
#
#
#
# Elastic Compliance Matrix: (Units=1/GPa)
#
#
# Indices 1 2 3 4 5 6 
#
# 1 0.086146 -0.008905 -0.007797 -0.018622 -0.007649 0.057616
# 2 -0.008905 0.011370 0.001266 0.005744 -0.001253 -0.002027
# 3 -0.007797 0.001266 0.011993 0.000894 -0.008176 0.000572
# 4 -0.018622 0.005744 0.000894 0.040368 -0.001657 -0.017294
# 5 -0.007649 -0.001253 -0.008176 -0.001657 0.045948 -0.011030
# 6 0.057616 -0.002027 0.000572 -0.017294 -0.011030 0.072422
#
#
# Mechanical properties :
#
#
# Convention : Reuss Voigt Hill
#
# Bulk Modulus (GPa) = 12.71658 38.28184 25.49921
# Shear Modulus (GPa) = 15.36890 31.98596 23.67743
#
# Velocity S-wave (km/s) = 2.58367 3.72731 3.20689
# Velocity P-wave (km/s) = 3.79787 5.92885 4.97871
#
# Compressibility (1/GPa) = 0.07863752
#
# Stress axis : x y z
#
# Youngs Moduli (GPa) = 11.60826 87.94771 83.37850
#
# Poissons Ratio (x) = 0.78318 0.65013
# Poissons Ratio (y) = 0.10337 -0.10559
# Poissons Ratio (z) = 0.09051 -0.11138
#
# Static dielectric constant tensor:
#      x y z
#    x 3.657040 0.292080 -0.044550 
#    y 0.292080 4.603810 -0.175490 
#    z -0.044550 -0.175490 4.345780 
# 
# 
# High freq. dielectric constant tensor:
#      x y z
#    x 1.868910 0.021610 0.022300 
#    y 0.021610 1.918380 -0.006470 
#    z 0.022300 -0.006470 1.918190 
# 
# From -- ./inp_files/205313.got.cif
#   From: 2010.06.25/outbox.cif.g09.slc.cpg/sg2_103_cif.got.tgz:205313.got - 2010.06.27 13:26:56.
