data_PCOD8044613
_publ_section_title
;
Structure prediction by ZEFSAII (Michael W. Deem and Ramdas Pophale) SiO2 
 PCOD8044613
Probable space group: P -1
;
_chemical_formula_sum "Si O2"
_cell_formula_units_Z 16
_cell_length_a 8.850171
_cell_length_b 16.552895
_cell_length_c 9.217894
_cell_angle_alpha 114.875711
_cell_angle_beta 47.133727
_cell_angle_gamma 126.454449
_cell_volume 795.779951
_symmetry_space_group_name_H-M "P -1"
_symmetry_group_IT_number 2
_symmetry_cell_setting 'triclinic'
loop_
_space_group_symop_operation_xyz
x,y,z
-x,-y,-z
loop_
_atom_site_type_symbol
_atom_site_label
_atom_site_fract_x
_atom_site_fract_y
_atom_site_fract_z
Si Si1 0.313182 0.874978 0.407872
Si Si2 0.815068 0.041683 0.170890
Si Si3 0.011727 0.728037 0.263094
Si Si4 0.529807 0.599304 0.391149
Si Si5 0.280565 0.700206 0.481342
Si Si6 0.973170 0.557088 0.344283
Si Si7 0.269955 0.443916 0.020989
Si Si8 0.086814 0.764522 0.909507
O O1 0.187430 0.917311 0.634401
O O2 0.381251 0.795680 0.381099
O O3 0.129224 0.825845 0.361532
O O4 0.551438 0.959174 0.246925
O O5 0.892471 0.128763 0.066266
O O6 0.000000 0.000000 0.000000
O O7 0.729254 0.685475 0.425725
O O8 0.070593 0.641329 0.219675
O O9 0.122637 0.759653 0.054731
O O10 0.455589 0.653275 0.352513
O O11 0.664330 0.544302 0.183598
O O12 0.303932 0.512877 0.551604
O O13 0.039462 0.613071 0.501397
O O14 0.264759 0.739989 0.681998
O O15 0.085856 0.483609 0.200958
O O16 0.500000 0.500000 0.000000
O O17 0.162710 0.325730 0.041182
#
# Coordination Sequence:
#
# PCOD8044613 Si02
#       8
#     2   2   2   2   2   2   2   2
#     4   9  22  44  63  90 119 150 199 255 302 358
#     4  10  22  42  71  88 112 154 206 249 301 364
#     4  10  24  40  59  91 130 158 192 251 308 360
#     4  11  21  35  58  88 124 165 203 241 299 353
#     4  10  19  38  64  84 119 164 205 248 287 351
#     4  11  21  40  59  87 125 167 207 246 287 350
#     4  11  21  34  60  90 120 160 211 244 286 353
#     4  10  22  38  59  90 122 156 198 246 306 347
#
# _framework density 20.106059999999999
#
# number of rings (size 3 to 8) (size 9 to 14) (size 15 to 20)
#    0.000    1.750    2.500    1.500    3.500    2.500 
#    4.500    0.625    0.000    0.000    0.000    0.000 
#    0.000    0.000    0.000    0.000    0.000    0.000 
#
# Total GULP energy -198246.432531 kJ/mol
# GULP energy per Si atom -12390.402033 kJ/mol
# Density = 2.006030 g / cm^3
# Si number density = 20.106060 Si / 1000 Ang^3
#
#
#
# Elastic Constant Matrix: (Units=GPa)
#
#
# Indices 1 2 3 4 5 6 
#
# 1 82.4933 61.4867 40.5816 -2.6328 15.6164 17.8098
# 2 61.4867 148.6417 59.3614 -11.2777 8.4243 10.7839
# 3 40.5816 59.3614 108.3399 -2.4859 6.0633 0.0372
# 4 -2.6328 -11.2777 -2.4859 29.8425 1.5526 1.4074
# 5 15.6164 8.4243 6.0633 1.5526 27.9823 -1.2746
# 6 17.8098 10.7839 0.0372 1.4074 -1.2746 44.3993
#
#
#
# Elastic Compliance Matrix: (Units=1/GPa)
#
#
# Indices 1 2 3 4 5 6 
#
# 1 0.022742 -0.006509 -0.004380 0.000079 -0.010144 -0.007832
# 2 -0.006509 0.011066 -0.003600 0.003269 0.000893 -0.000152
# 3 -0.004380 -0.003600 0.012771 -0.000858 0.000930 0.002675
# 4 0.000079 0.003269 -0.000858 0.034924 -0.002872 -0.002014
# 5 -0.010144 0.000893 0.000930 -0.002872 0.041321 0.005129
# 6 -0.007832 -0.000152 0.002675 -0.002014 0.005129 0.025910
#
#
# Mechanical properties :
#
#
# Convention : Reuss Voigt Hill
#
# Bulk Modulus (GPa) = 56.81608 73.59269 65.20439
# Shear Modulus (GPa) = 27.23605 32.31449 29.77527
#
# Velocity S-wave (km/s) = 3.68451 4.01334 3.85243
# Velocity P-wave (km/s) = 6.81325 7.62611 7.23111
#
# Compressibility (1/GPa) = 0.01760065
#
# Stress axis : x y z
#
# Youngs Moduli (GPa) = 43.97109 90.36428 78.30382
#
# Poissons Ratio (x) = 0.58820 0.34297
# Poissons Ratio (y) = 0.28622 0.28191
# Poissons Ratio (z) = 0.19259 0.32533
#
# Static dielectric constant tensor:
#      x y z
#    x 3.529390 -0.049510 -0.116900 
#    y -0.049510 3.781180 -0.104470 
#    z -0.116900 -0.104470 3.630010 
# 
# 
# High freq. dielectric constant tensor:
#      x y z
#    x 1.769440 0.004070 0.005770 
#    y 0.004070 1.796200 -0.003760 
#    z 0.005770 -0.003760 1.781950 
# 
# From -- ./inp_files/217992.got.cif
#   From: 2010.06.25/outbox.cif.g09.slc.cpg/sg2_109_cif.got.tgz:217992.got - 2010.06.27 13:26:56.
