data_PCOD8044138
_publ_section_title
;
Structure prediction by ZEFSAII (Michael W. Deem and Ramdas Pophale) SiO2 
 PCOD8044138
Probable space group: P -1
;
_chemical_formula_sum "Si O2"
_cell_formula_units_Z 16
_cell_length_a 9.807850
_cell_length_b 13.213545
_cell_length_c 9.560694
_cell_angle_alpha 55.988219
_cell_angle_beta 124.456527
_cell_angle_gamma 87.311508
_cell_volume 717.265191
_symmetry_space_group_name_H-M "P -1"
_symmetry_group_IT_number 2
_symmetry_cell_setting 'triclinic'
loop_
_space_group_symop_operation_xyz
x,y,z
-x,-y,-z
loop_
_atom_site_type_symbol
_atom_site_label
_atom_site_fract_x
_atom_site_fract_y
_atom_site_fract_z
Si Si1 0.805798 0.670136 0.046336
Si Si2 0.948849 0.768685 0.828423
Si Si3 0.879497 0.194045 0.436592
Si Si4 0.764670 0.033349 0.306705
Si Si5 0.406274 0.584432 0.239958
Si Si6 0.932101 0.638368 0.659339
Si Si7 0.508185 0.386245 0.200918
Si Si8 0.628829 0.743495 0.178140
O O1 0.790437 0.687914 0.191213
O O2 0.000579 0.519108 0.234583
O O3 0.840976 0.787359 0.900338
O O4 0.612336 0.682486 0.867693
O O5 0.908884 0.660304 0.796443
O O6 0.838946 0.920899 0.565641
O O7 0.177966 0.706783 0.033541
O O8 0.775624 0.169337 0.261457
O O9 0.735096 0.247156 0.445469
O O10 0.901306 0.327658 0.306862
O O11 0.093693 0.045781 0.686168
O O12 0.544010 0.092682 0.085944
O O13 0.500000 0.500000 0.500000
O O14 0.430907 0.459599 0.247798
O O15 0.534118 0.647593 0.211792
O O16 0.729694 0.747489 0.377314
O O17 0.500000 0.500000 0.000000
#
# Coordination Sequence:
#
# PCOD8044138 Si02
#       8
#     2   2   2   2   2   2   2   2
#     4  12  23  39  66  98 133 162 213 270 325 379
#     4  11  25  42  63  92 133 176 207 266 320 384
#     4  10  19  37  64  90 119 170 213 261 304 382
#     4  10  21  41  66  90 128 178 225 249 313 387
#     4  12  25  42  67  99 133 165 212 269 331 386
#     4  11  22  38  66  95 130 161 214 270 330 374
#     4  12  19  39  68  96 124 171 216 257 327 386
#     4  12  24  40  66  99 127 172 215 268 313 381
#
# _framework density 22.306951999999999
#
# number of rings (size 3 to 8) (size 9 to 14) (size 15 to 20)
#    0.000    0.750    5.000    4.500    1.750    3.500 
#    0.000    0.000    0.000    5.250    0.000    0.000 
#    0.000    0.000    0.000    0.000    0.000    0.000 
#
# Total GULP energy -198246.209083 kJ/mol
# GULP energy per Si atom -12390.388068 kJ/mol
# Density = 2.225618 g / cm^3
# Si number density = 22.306952 Si / 1000 Ang^3
#
#
#
# Elastic Constant Matrix: (Units=GPa)
#
#
# Indices 1 2 3 4 5 6 
#
# 1 110.7666 7.6945 37.5643 0.3843 1.9142 -4.8950
# 2 7.6945 34.0771 9.7632 -0.6344 2.5988 -4.6358
# 3 37.5643 9.7632 126.2471 0.6734 2.9185 -3.6889
# 4 0.3843 -0.6344 0.6734 31.2548 -4.8034 -0.3550
# 5 1.9142 2.5988 2.9185 -4.8034 22.7924 -0.5971
# 6 -4.8950 -4.6358 -3.6889 -0.3550 -0.5971 27.1381
#
#
#
# Elastic Compliance Matrix: (Units=1/GPa)
#
#
# Indices 1 2 3 4 5 6 
#
# 1 0.010153 -0.001280 -0.002878 -0.000126 -0.000333 0.001212
# 2 -0.001280 0.031036 -0.001812 0.000275 -0.003017 0.004762
# 3 -0.002878 -0.001812 0.008947 -0.000306 -0.000752 0.000367
# 4 -0.000126 0.000275 -0.000306 0.033092 0.007007 0.000570
# 5 -0.000333 -0.003017 -0.000752 0.007007 0.045830 0.000423
# 6 0.001212 0.004762 0.000367 0.000570 0.000423 0.037947
#
#
# Mechanical properties :
#
#
# Convention : Reuss Voigt Hill
#
# Bulk Modulus (GPa) = 26.18049 42.34831 34.26440
# Shear Modulus (GPa) = 26.08540 30.64166 28.36353
#
# Velocity S-wave (km/s) = 3.42334 3.71028 3.56969
# Velocity P-wave (km/s) = 5.23332 6.11396 5.69070
#
# Compressibility (1/GPa) = 0.03819638
#
# Stress axis : x y z
#
# Youngs Moduli (GPa) = 98.49567 32.22030 111.76669
#
# Poissons Ratio (x) = 0.04124 0.32168
# Poissons Ratio (y) = 0.12606 0.20251
# Poissons Ratio (z) = 0.28348 0.05838
#
# Static dielectric constant tensor:
#      x y z
#    x 4.159540 -0.243260 0.232190 
#    y -0.243260 4.589920 -0.102520 
#    z 0.232190 -0.102520 4.035490 
# 
# 
# High freq. dielectric constant tensor:
#      x y z
#    x 1.881040 0.001570 0.019810 
#    y 0.001570 1.862430 -0.008070 
#    z 0.019810 -0.008070 1.868230 
# 
# From -- ./inp_files/206039.got.cif
#   From: 2010.06.25/outbox.cif.g09.slc.cpg/sg2_104_cif.got.tgz:206039.got - 2010.06.27 13:26:56.
