data_PCOD8044070
_publ_section_title
;
Structure prediction by ZEFSAII (Michael W. Deem and Ramdas Pophale) SiO2 
 PCOD8044070
Probable space group: P -1
;
_chemical_formula_sum "Si O2"
_cell_formula_units_Z 12
_cell_length_a 8.387708
_cell_length_b 9.101051
_cell_length_c 14.817943
_cell_angle_alpha 139.086939
_cell_angle_beta 122.272377
_cell_angle_gamma 46.376696
_cell_volume 536.076797
_symmetry_space_group_name_H-M "P -1"
_symmetry_group_IT_number 2
_symmetry_cell_setting 'triclinic'
loop_
_space_group_symop_operation_xyz
x,y,z
-x,-y,-z
loop_
_atom_site_type_symbol
_atom_site_label
_atom_site_fract_x
_atom_site_fract_y
_atom_site_fract_z
Si Si1 0.638671 0.137870 0.618273
Si Si2 0.015683 0.471119 0.814915
Si Si3 0.605716 0.476851 0.117718
Si Si4 0.716213 0.011329 0.054629
Si Si5 0.770641 0.281697 0.556240
Si Si6 0.128376 0.937494 0.691049
O O1 0.565816 0.332018 0.771088
O O2 0.600202 0.292197 0.583573
O O3 0.500000 0.000000 0.500000
O O4 0.899575 0.937872 0.620799
O O5 0.210528 0.445820 0.800530
O O6 0.826679 0.504278 0.702945
O O7 0.093622 0.219751 0.785491
O O8 0.923119 0.721160 0.967695
O O9 0.699050 0.180590 0.040920
O O10 0.500000 0.500000 0.000000
O O11 0.761660 0.141852 0.214928
O O12 0.500000 0.000000 0.000000
O O13 0.698169 0.289082 0.432868
O O14 0.000000 0.000000 0.500000
#
# Coordination Sequence:
#
# PCOD8044070 Si02
#       6
#     2   2   2   2   2   2
#     4  10  19  37  63  89 116 155 196 238 293 353
#     4  10  20  39  60  85 119 155 192 242 293 350
#     4  12  24  39  58  86 120 158 198 245 295 348
#     4  12  24  39  59  88 119 157 201 243 291 349
#     4   8  17  35  59  85 114 150 189 235 288 344
#     4  10  20  39  63  89 119 155 194 243 293 346
#
# _framework density 22.384853
#
# number of rings (size 3 to 8) (size 9 to 14) (size 15 to 20)
#    0.000    2.000    0.000    8.000    0.000    0.000 
#    0.000    8.333    0.000    0.000    0.000    0.000 
#    0.000    0.000    0.000    0.000    0.000    0.000 
#
# Total GULP energy -148763.501113 kJ/mol
# GULP energy per Si atom -12396.958426 kJ/mol
# Density = 2.233390 g / cm^3
# Si number density = 22.384853 Si / 1000 Ang^3
#
#
#
# Elastic Constant Matrix: (Units=GPa)
#
#
# Indices 1 2 3 4 5 6 
#
# 1 161.1753 31.2056 60.8188 -14.5062 9.5193 15.9972
# 2 31.2056 69.8410 38.1456 -22.3731 3.2686 27.0779
# 3 60.8188 38.1456 151.3179 -32.0392 -14.3638 14.0166
# 4 -14.5062 -22.3731 -32.0392 41.4663 3.0408 -4.2256
# 5 9.5193 3.2686 -14.3638 3.0408 59.7571 1.6302
# 6 15.9972 27.0779 14.0166 -4.2256 1.6302 24.2236
#
#
#
# Elastic Compliance Matrix: (Units=1/GPa)
#
#
# Indices 1 2 3 4 5 6 
#
# 1 0.007802 -0.000983 -0.002874 -0.000122 -0.001811 -0.002291
# 2 -0.000983 0.032491 -0.002436 0.012186 -0.001953 -0.032004
# 3 -0.002874 -0.002436 0.009710 0.004954 0.002682 -0.000314
# 4 -0.000122 0.012186 0.004954 0.033469 -0.000873 -0.010511
# 5 -0.001811 -0.001953 0.002682 -0.000873 0.017806 0.000477
# 6 -0.002291 -0.032004 -0.000314 -0.010511 0.000477 0.076886
#
#
# Mechanical properties :
#
#
# Convention : Reuss Voigt Hill
#
# Bulk Modulus (GPa) = 26.72469 71.40824 49.06646
# Shear Modulus (GPa) = 24.60339 41.90035 33.25187
#
# Velocity S-wave (km/s) = 3.31888 4.33114 3.85835
# Velocity P-wave (km/s) = 5.16249 7.54859 6.46655
#
# Compressibility (1/GPa) = 0.03741858
#
# Stress axis : x y z
#
# Youngs Moduli (GPa) = 128.16411 30.77731 102.98152
#
# Poissons Ratio (x) = 0.03025 0.29595
# Poissons Ratio (y) = 0.12595 0.25090
# Poissons Ratio (z) = 0.36832 0.07498
#
# Static dielectric constant tensor:
#      x y z
#    x 4.521320 0.315130 -0.353430 
#    y 0.315130 3.910940 -0.364770 
#    z -0.353430 -0.364770 4.644020 
# 
# 
# High freq. dielectric constant tensor:
#      x y z
#    x 1.896170 0.004700 -0.011850 
#    y 0.004700 1.849370 -0.011250 
#    z -0.011850 -0.011250 1.903430 
# 
# From -- ./inp_files/247995.got.cif
#   From: 2010.06.25/outbox.cif.g09.slc.cpg/sg2_124_cif.got.tgz:247995.got - 2010.06.27 13:26:56.
