data_PCOD8044911
_publ_section_title
;
Structure prediction by ZEFSAII (Michael W. Deem and Ramdas Pophale) SiO2 
 PCOD8044911
Probable space group: P 2
;
_chemical_formula_sum "Si O2"
_cell_formula_units_Z 16
_cell_length_a 8.675640
_cell_length_b 17.773815
_cell_length_c 9.209448
_cell_angle_alpha 90.000000
_cell_angle_beta 32.559533
_cell_angle_gamma 90.000000
_cell_volume 764.257686
_symmetry_space_group_name_H-M "P 2"
_symmetry_group_IT_number 3
_symmetry_cell_setting 'monoclinic'
loop_
_space_group_symop_operation_xyz
x,y,z
-x,y,-z
loop_
_atom_site_type_symbol
_atom_site_label
_atom_site_fract_x
_atom_site_fract_y
_atom_site_fract_z
Si Si1 0.106886 0.050900 0.572097
Si Si2 0.114835 0.817583 0.062661
Si Si3 0.870369 0.346778 0.946655
Si Si4 0.607254 0.721224 0.573206
Si Si5 0.165287 0.209625 0.233630
Si Si6 0.312337 0.580377 0.294165
Si Si7 0.623515 0.440821 0.559688
Si Si8 0.622645 0.970077 0.061763
O O1 0.000000 0.024227 0.500000
O O2 0.044385 0.139590 0.640052
O O3 0.427546 0.016724 0.332108
O O4 0.930994 0.008497 0.835849
O O5 0.846428 0.788184 0.372800
O O6 0.322931 0.747078 0.881049
O O7 0.320397 0.881758 0.963788
O O8 0.000000 0.847234 0.000000
O O9 0.843055 0.267613 0.889686
O O10 0.053242 0.409551 0.713344
O O11 0.549483 0.375824 0.220577
O O12 0.000000 0.329623 0.000000
O O13 0.500000 0.693468 0.500000
O O14 0.726298 0.654228 0.576391
O O15 0.000000 0.248062 0.500000
O O16 0.500000 0.185481 0.000000
O O17 0.430108 0.514634 0.302422
O O18 0.000000 0.553156 0.500000
O O19 0.500000 0.593335 0.000000
O O20 0.500000 0.459877 0.500000
O O21 0.500000 0.983681 0.000000
#
# Coordination Sequence:
#
# PCOD8044911 Si02
#       8
#     2   2   2   2   2   2   2   2
#     4   9  18  33  52  78 109 145 187 226 279 346
#     4  10  21  37  59  84 111 147 193 237 280 342
#     4  10  22  39  60  86 118 155 199 244 289 347
#     4  10  22  41  60  80 114 158 191 225 288 360
#     4  11  21  35  59  86 115 153 196 243 292 347
#     4  12  25  39  60  91 122 148 191 253 293 332
#     4  10  22  41  61  82 116 163 199 231 290 361
#     4  10  19  33  55  79 108 145 184 231 282 337
#
# _framework density 20.935345999999999
#
# number of rings (size 3 to 8) (size 9 to 14) (size 15 to 20)
#    0.000    1.750    0.000    5.250    0.000    4.500 
#    0.000    5.625    0.000    4.500    0.000    0.000 
#    0.000    0.000    0.000    0.000    0.000    0.000 
#
# Total GULP energy -198238.276416 kJ/mol
# GULP energy per Si atom -12389.892276 kJ/mol
# Density = 2.088770 g / cm^3
# Si number density = 20.935346 Si / 1000 Ang^3
#
#
#
# Elastic Constant Matrix: (Units=GPa)
#
#
# Indices 1 2 3 4 5 6 
#
# 1 39.5680 41.8030 40.2209 0.0000 -1.0018 0.0000
# 2 41.8030 109.5415 48.9465 0.0000 9.3962 0.0000
# 3 40.2209 48.9465 147.2857 0.0000 -1.9940 0.0000
# 4 0.0000 0.0000 0.0000 26.1114 0.0000 -1.0426
# 5 -1.0018 9.3962 -1.9940 0.0000 25.0123 0.0000
# 6 0.0000 0.0000 0.0000 -1.0426 0.0000 11.8783
#
#
#
# Elastic Compliance Matrix: (Units=1/GPa)
#
#
# Indices 1 2 3 4 5 6 
#
# 1 0.051558 -0.016538 -0.008481 0.000000 0.007602 0.000000
# 2 -0.016538 0.016512 -0.001065 0.000000 -0.006950 0.000000
# 3 -0.008481 -0.001065 0.009470 0.000000 0.000816 0.000000
# 4 0.000000 0.000000 0.000000 0.038432 0.000000 0.003373
# 5 0.007602 -0.006950 0.000816 0.000000 0.042961 0.000000
# 6 0.000000 0.000000 0.000000 0.003373 0.000000 0.084483
#
#
# Mechanical properties :
#
#
# Convention : Reuss Voigt Hill
#
# Bulk Modulus (GPa) = 39.41202 62.03732 50.72467
# Shear Modulus (GPa) = 16.44500 23.62871 20.03686
#
# Velocity S-wave (km/s) = 2.80574 3.36319 3.09703
# Velocity P-wave (km/s) = 5.41874 6.69167 6.08856
#
# Compressibility (1/GPa) = 0.02537297
#
# Stress axis : x y z
#
# Youngs Moduli (GPa) = 19.39547 60.56036 105.59119
#
# Poissons Ratio (x) = 1.00156 0.89548
# Poissons Ratio (y) = 0.32077 0.11249
# Poissons Ratio (z) = 0.16449 0.06451
#
# Static dielectric constant tensor:
#      x y z
#    x 3.597530 0.000000 -0.072680 
#    y 0.000000 3.542750 0.000000 
#    z -0.072680 0.000000 4.393660 
# 
# 
# High freq. dielectric constant tensor:
#      x y z
#    x 1.792210 0.000000 -0.005790 
#    y 0.000000 1.817460 0.000000 
#    z -0.005790 0.000000 1.846840 
# 
# From -- ./inp_files/6222.got.cif
#   From: 2010.03.12/outbox.cif.g09.slc.cpg/sg3_4_cif.got.tgz:6222.got - 2010.03.31 09:20:49.
