data_PCOD8044614
_publ_section_title
;
Structure prediction by ZEFSAII (Michael W. Deem and Ramdas Pophale) SiO2 
 PCOD8044614
Probable space group: P -1
;
_chemical_formula_sum "Si O2"
_cell_formula_units_Z 16
_cell_length_a 9.549983
_cell_length_b 11.335896
_cell_length_c 13.191998
_cell_angle_alpha 114.224107
_cell_angle_beta 83.038386
_cell_angle_gamma 139.884358
_cell_volume 792.820597
_symmetry_space_group_name_H-M "P -1"
_symmetry_group_IT_number 2
_symmetry_cell_setting 'triclinic'
loop_
_space_group_symop_operation_xyz
x,y,z
-x,-y,-z
loop_
_atom_site_type_symbol
_atom_site_label
_atom_site_fract_x
_atom_site_fract_y
_atom_site_fract_z
Si Si1 0.337258 0.087266 0.777681
Si Si2 0.841648 0.557439 0.353527
Si Si3 0.990788 0.952025 0.100300
Si Si4 0.659517 0.990734 0.481497
Si Si5 0.670492 0.445045 0.552384
Si Si6 0.435433 0.398900 0.247629
Si Si7 0.751445 0.558592 0.893031
Si Si8 0.924265 0.323955 0.256443
O O1 0.141041 0.042461 0.815568
O O2 0.588104 0.326464 0.868315
O O3 0.315413 0.050397 0.646801
O O4 0.298412 0.922970 0.780586
O O5 0.713330 0.483714 0.444168
O O6 0.693112 0.528736 0.273474
O O7 0.842367 0.408388 0.269893
O O8 0.096059 0.798654 0.417843
O O9 0.865176 0.720930 0.033924
O O10 0.256441 0.148222 0.181748
O O11 0.000000 0.000000 0.000000
O O12 0.500000 0.000000 0.500000
O O13 0.549853 0.803931 0.497188
O O14 0.617841 0.549519 0.633505
O O15 0.894447 0.544503 0.620811
O O16 0.405330 0.460576 0.169379
O O17 0.960277 0.649491 0.844399
#
# Coordination Sequence:
#
# PCOD8044614 Si02
#       8
#     2   2   2   2   2   2   2   2
#     4  12  19  35  66  86 109 149 199 238 280 332
#     4  12  23  36  57  84 122 159 183 237 292 329
#     4  10  19  38  64  85 109 148 196 247 284 340
#     4  12  22  35  58  88 118 155 192 231 275 346
#     4  11  20  38  56  81 120 155 199 224 275 351
#     4  10  21  39  56  86 118 149 191 242 287 341
#     4  10  21  40  62  85 112 144 200 243 283 342
#     4  11  20  36  58  85 113 153 196 233 273 351
#
# _framework density 20.181108999999999
#
# number of rings (size 3 to 8) (size 9 to 14) (size 15 to 20)
#    0.000    1.000    8.750    1.875    0.000    0.500 
#    2.250    0.625    0.000    0.750    0.000    0.000 
#    0.000    0.000    0.000    0.000    0.000    0.000 
#
# Total GULP energy -198390.828379 kJ/mol
# GULP energy per Si atom -12399.426774 kJ/mol
# Density = 2.013518 g / cm^3
# Si number density = 20.181109 Si / 1000 Ang^3
#
#
#
# Elastic Constant Matrix: (Units=GPa)
#
#
# Indices 1 2 3 4 5 6 
#
# 1 104.1832 29.7404 46.8209 18.4382 -0.8782 7.2565
# 2 29.7404 141.4694 45.0701 40.8041 -3.5467 0.6273
# 3 46.8209 45.0701 86.0002 32.8852 -14.0154 3.5035
# 4 18.4382 40.8041 32.8852 41.6472 -4.5692 -5.6678
# 5 -0.8782 -3.5467 -14.0154 -4.5692 15.9995 8.4166
# 6 7.2565 0.6273 3.5035 -5.6678 8.4166 21.7452
#
#
#
# Elastic Compliance Matrix: (Units=1/GPa)
#
#
# Indices 1 2 3 4 5 6 
#
# 1 0.013297 -0.000416 -0.007960 0.000045 -0.005871 -0.000858
# 2 -0.000416 0.010258 -0.001917 -0.008698 -0.001003 -0.001727
# 3 -0.007960 -0.001917 0.028584 -0.016378 0.028557 -0.017216
# 4 0.000045 -0.008698 -0.016378 0.046717 -0.013623 0.020324
# 5 -0.005871 -0.001003 0.028557 -0.013623 0.108395 -0.048118
# 6 -0.000858 -0.001727 -0.017216 0.020324 -0.048118 0.073019
#
#
# Mechanical properties :
#
#
# Convention : Reuss Voigt Hill
#
# Bulk Modulus (GPa) = 31.69248 63.87951 47.78599
# Shear Modulus (GPa) = 16.05789 29.87981 22.96885
#
# Velocity S-wave (km/s) = 2.82386 3.85201 3.37729
# Velocity P-wave (km/s) = 5.13521 7.17675 6.24004
#
# Compressibility (1/GPa) = 0.03155323
#
# Stress axis : x y z
#
# Youngs Moduli (GPa) = 75.20513 97.48534 34.98424
#
# Poissons Ratio (x) = 0.04052 0.27849
# Poissons Ratio (y) = 0.03126 0.06706
# Poissons Ratio (z) = 0.59867 0.18687
#
# Static dielectric constant tensor:
#      x y z
#    x 3.487950 0.025160 -0.338040 
#    y 0.025160 4.042660 0.375010 
#    z -0.338040 0.375010 3.954750 
# 
# 
# High freq. dielectric constant tensor:
#      x y z
#    x 1.757190 0.011660 -0.034540 
#    y 0.011660 1.801320 0.019290 
#    z -0.034540 0.019290 1.784600 
# 
# From -- ./inp_files/258814.got.cif
#   From: 2010.06.25/outbox.cif.g09.slc.cpg/sg2_130_cif.got.tgz:258814.got - 2010.06.27 13:26:56.
