data_PCOD8044499
_publ_section_title
;
Structure prediction by ZEFSAII (Michael W. Deem and Ramdas Pophale) SiO2 
 PCOD8044499
Probable space group: P -1
;
_chemical_formula_sum "Si O2"
_cell_formula_units_Z 16
_cell_length_a 17.748429
_cell_length_b 8.820542
_cell_length_c 8.514506
_cell_angle_alpha 116.612279
_cell_angle_beta 131.373403
_cell_angle_gamma 51.401589
_cell_volume 780.308094
_symmetry_space_group_name_H-M "P -1"
_symmetry_group_IT_number 2
_symmetry_cell_setting 'triclinic'
loop_
_space_group_symop_operation_xyz
x,y,z
-x,-y,-z
loop_
_atom_site_type_symbol
_atom_site_label
_atom_site_fract_x
_atom_site_fract_y
_atom_site_fract_z
Si Si1 0.453902 0.854853 0.831012
Si Si2 0.639443 0.717899 0.498668
Si Si3 0.645334 0.514363 0.105493
Si Si4 0.798331 0.242936 0.958146
Si Si5 0.405943 0.861383 0.405829
Si Si6 0.834369 0.335667 0.705506
Si Si7 0.054353 0.062819 0.743553
Si Si8 0.264625 0.859854 0.752399
O O1 0.445235 0.831644 0.625107
O O2 0.331928 0.949320 0.794503
O O3 0.529370 0.638828 0.905063
O O4 0.500000 0.000000 0.000000
O O5 0.659043 0.653806 0.314421
O O6 0.520851 0.728645 0.400455
O O7 0.747854 0.563820 0.677476
O O8 0.641231 0.917931 0.612136
O O9 0.650197 0.325230 0.107842
O O10 0.751255 0.435942 0.091324
O O11 0.692716 0.196012 0.778918
O O12 0.841125 0.277401 0.868190
O O13 0.910909 0.076769 0.121483
O O14 0.793032 0.210146 0.489957
O O15 0.961933 0.275969 0.782654
O O16 0.172800 0.036356 0.818064
O O17 0.000000 0.000000 0.500000
#
# Coordination Sequence:
#
# PCOD8044499 Si02
#       8
#     2   2   2   2   2   2   2   2
#     4  12  22  36  57  88 128 159 193 239 298 354
#     4  10  23  40  57  85 128 161 195 237 300 363
#     4  10  22  35  58  87 119 164 193 236 294 356
#     4  11  22  36  63  92 117 149 202 252 294 346
#     4  11  24  38  56  89 125 160 193 243 301 355
#     4  10  19  38  62  85 116 155 203 250 287 343
#     4   9  20  38  62  89 115 153 200 250 297 343
#     4   9  20  35  58  87 118 156 202 243 290 350
#
# _framework density 20.504719999999999
#
# number of rings (size 3 to 8) (size 9 to 14) (size 15 to 20)
#    0.000    1.750    2.500    2.250    7.000    1.000 
#    0.000    0.625    0.000    3.750    0.000    0.000 
#    0.000    0.000    0.000    0.000    0.000    0.000 
#
# Total GULP energy -198279.441311 kJ/mol
# GULP energy per Si atom -12392.465082 kJ/mol
# Density = 2.045805 g / cm^3
# Si number density = 20.504720 Si / 1000 Ang^3
#
#
#
# Elastic Constant Matrix: (Units=GPa)
#
#
# Indices 1 2 3 4 5 6 
#
# 1 111.0757 51.5316 27.6082 4.6201 -19.4024 -20.7820
# 2 51.5316 100.6861 34.1065 -13.7232 -2.4598 -28.0256
# 3 27.6082 34.1065 85.9239 -17.9732 -25.9199 -0.1806
# 4 4.6201 -13.7232 -17.9732 30.1190 3.2395 -3.9147
# 5 -19.4024 -2.4598 -25.9199 3.2395 34.3644 -1.2067
# 6 -20.7820 -28.0256 -0.1806 -3.9147 -1.2067 29.1065
#
#
#
# Elastic Compliance Matrix: (Units=1/GPa)
#
#
# Indices 1 2 3 4 5 6 
#
# 1 0.014723 -0.007013 -0.000921 -0.006429 0.007835 0.003213
# 2 -0.007013 0.021556 -0.006481 0.010029 -0.007663 0.016739
# 3 -0.000921 -0.006481 0.019942 0.006980 0.013214 -0.005288
# 4 -0.006429 0.010029 0.006980 0.044514 -0.001456 0.011037
# 5 0.007835 -0.007663 0.013214 -0.001456 0.043075 -0.000113
# 6 0.003213 0.016739 -0.005288 0.011037 -0.000113 0.054215
#
#
# Mechanical properties :
#
#
# Convention : Reuss Voigt Hill
#
# Bulk Modulus (GPa) = 36.51216 58.24204 47.37710
# Shear Modulus (GPa) = 21.18775 31.01395 26.10085
#
# Velocity S-wave (km/s) = 3.21800 3.89334 3.57167
# Velocity P-wave (km/s) = 5.62608 6.97687 6.33756
#
# Compressibility (1/GPa) = 0.02738814
#
# Stress axis : x y z
#
# Youngs Moduli (GPa) = 67.92199 46.39117 50.14566
#
# Poissons Ratio (x) = 0.32536 0.04620
# Poissons Ratio (y) = 0.47637 0.32502
# Poissons Ratio (z) = 0.06257 0.30068
#
# Static dielectric constant tensor:
#      x y z
#    x 3.678300 -0.047030 0.038820 
#    y -0.047030 3.460900 -0.608930 
#    z 0.038820 -0.608930 3.456790 
# 
# 
# High freq. dielectric constant tensor:
#      x y z
#    x 1.802550 -0.024120 -0.031790 
#    y -0.024120 1.793250 -0.020250 
#    z -0.031790 -0.020250 1.799900 
# 
# From -- ./inp_files/178765.got.cif
#   From: 2010.06.25/outbox.cif.g09.slc.cpg/sg2_90_cif.got.tgz:178765.got - 2010.06.27 13:26:56.
