data_PCOD8044045
_publ_section_title
;
Structure prediction by ZEFSAII (Michael W. Deem and Ramdas Pophale) SiO2 
 PCOD8044045
Probable space group: P -1
;
_chemical_formula_sum "Si O2"
_cell_formula_units_Z 14
_cell_length_a 8.922481
_cell_length_b 11.345106
_cell_length_c 20.372714
_cell_angle_alpha 44.222200
_cell_angle_beta 149.806871
_cell_angle_gamma 133.779759
_cell_volume 707.740304
_symmetry_space_group_name_H-M "P -1"
_symmetry_group_IT_number 2
_symmetry_cell_setting 'triclinic'
loop_
_space_group_symop_operation_xyz
x,y,z
-x,-y,-z
loop_
_atom_site_type_symbol
_atom_site_label
_atom_site_fract_x
_atom_site_fract_y
_atom_site_fract_z
Si Si1 0.682652 0.088970 0.690458
Si Si2 0.629670 0.672736 0.440713
Si Si3 0.322644 0.714709 0.663165
Si Si4 0.743651 0.167358 0.542615
Si Si5 0.569026 0.776280 0.234537
Si Si6 0.647712 0.417361 0.903537
Si Si7 0.632442 0.925820 0.015715
O O1 0.483652 0.162534 0.639023
O O2 0.699252 0.216193 0.582151
O O3 0.019399 0.090828 0.842731
O O4 0.533301 0.893992 0.693029
O O5 0.500000 0.500000 0.500000
O O6 0.516733 0.661421 0.326759
O O7 0.992055 0.706105 0.571972
O O8 0.300410 0.690318 0.584711
O O9 0.467513 0.559072 0.805469
O O10 0.079496 0.129819 0.677152
O O11 0.500000 0.000000 0.500000
O O12 0.462932 0.651470 0.182897
O O13 0.398582 0.939712 0.108082
O O14 0.576749 0.267037 0.992249
O O15 0.000000 0.500000 0.000000
O O16 0.500000 0.000000 0.000000
#
# Coordination Sequence:
#
# PCOD8044045 Si02
#       7
#     2   2   2   2   2   2   2
#     4  11  20  39  62  88 119 164 201 248 303 366
#     4  11  25  39  60  88 128 162 199 248 311 364
#     4  10  22  38  59  89 123 155 206 252 301 355
#     4   9  19  33  62  88 114 152 205 249 296 348
#     4  10  22  40  60  91 121 161 204 248 304 361
#     4  11  22  36  64  95 120 155 205 260 298 352
#     4  10  19  37  63  84 120 154 205 249 298 348
#
# _framework density 19.781265999999999
#
# number of rings (size 3 to 8) (size 9 to 14) (size 15 to 20)
#    0.000    1.714    2.857    3.000    4.000    1.714 
#    0.000    1.429    0.000    3.429    0.000    0.000 
#    0.000    0.000    0.000    0.000    0.000    0.000 
#
# Total GULP energy -173484.652245 kJ/mol
# GULP energy per Si atom -12391.760875 kJ/mol
# Density = 1.973624 g / cm^3
# Si number density = 19.781266 Si / 1000 Ang^3
#
#
#
# Elastic Constant Matrix: (Units=GPa)
#
#
# Indices 1 2 3 4 5 6 
#
# 1 81.1175 33.8317 36.3756 -1.0204 9.6992 6.0970
# 2 33.8317 115.6154 60.1953 -2.1678 7.0236 15.5044
# 3 36.3756 60.1953 104.9733 1.7519 20.3611 8.4722
# 4 -1.0204 -2.1678 1.7519 39.9151 3.8248 5.7557
# 5 9.6992 7.0236 20.3611 3.8248 40.4338 -3.0874
# 6 6.0970 15.5044 8.4722 5.7557 -3.0874 32.1628
#
#
#
# Elastic Compliance Matrix: (Units=1/GPa)
#
#
# Indices 1 2 3 4 5 6 
#
# 1 0.015170 -0.002346 -0.003522 0.000728 -0.001611 -0.001102
# 2 -0.002346 0.013407 -0.006773 0.001486 0.001169 -0.004388
# 3 -0.003522 -0.006773 0.015856 -0.000476 -0.005974 -0.000733
# 4 0.000728 0.001486 -0.000476 0.026299 -0.003119 -0.005735
# 5 -0.001611 0.001169 -0.005974 -0.003119 0.028571 0.004616
# 6 -0.001102 -0.004388 -0.000733 -0.005735 0.004616 0.035079
#
#
# Mechanical properties :
#
#
# Convention : Reuss Voigt Hill
#
# Bulk Modulus (GPa) = 52.21354 62.50127 57.35741
# Shear Modulus (GPa) = 30.11159 33.92259 32.01709
#
# Velocity S-wave (km/s) = 3.90581 4.14561 4.02749
# Velocity P-wave (km/s) = 6.84055 7.38780 7.11944
#
# Compressibility (1/GPa) = 0.01915212
#
# Stress axis : x y z
#
# Youngs Moduli (GPa) = 65.91796 74.58585 63.06628
#
# Poissons Ratio (x) = 0.17498 0.22214
# Poissons Ratio (y) = 0.15464 0.42712
# Poissons Ratio (z) = 0.23219 0.50514
#
# Static dielectric constant tensor:
#      x y z
#    x 3.690660 0.265910 -0.110840 
#    y 0.265910 3.715570 -0.154810 
#    z -0.110840 -0.154810 3.968520 
# 
# 
# High freq. dielectric constant tensor:
#      x y z
#    x 1.751950 0.017470 0.008540 
#    y 0.017470 1.773900 -0.003000 
#    z 0.008540 -0.003000 1.782810 
# 
# From -- ./inp_files/177667.got.cif
#   From: 2010.06.25/outbox.cif.g09.slc.cpg/sg2_89_cif.got.tgz:177667.got - 2010.06.27 13:26:56.
