data_PCOD8044632
_publ_section_title
;
Structure prediction by ZEFSAII (Michael W. Deem and Ramdas Pophale) SiO2 
 PCOD8044632
Probable space group: P -1
;
_chemical_formula_sum "Si O2"
_cell_formula_units_Z 16
_cell_length_a 5.368630
_cell_length_b 18.319350
_cell_length_c 7.284121
_cell_angle_alpha 74.981999
_cell_angle_beta 103.869798
_cell_angle_gamma 110.928559
_cell_volume 637.618294
_symmetry_space_group_name_H-M "P -1"
_symmetry_group_IT_number 2
_symmetry_cell_setting 'triclinic'
loop_
_space_group_symop_operation_xyz
x,y,z
-x,-y,-z
loop_
_atom_site_type_symbol
_atom_site_label
_atom_site_fract_x
_atom_site_fract_y
_atom_site_fract_z
Si Si1 0.699446 0.690197 0.448274
Si Si2 0.862647 0.551931 0.560348
Si Si3 0.445823 0.168216 0.774238
Si Si4 0.627362 0.335522 0.242582
Si Si5 0.961140 0.984670 0.288608
Si Si6 0.543907 0.071165 0.176719
Si Si7 0.257010 0.813445 0.552244
Si Si8 0.319259 0.534070 0.076215
O O1 0.752272 0.617018 0.388804
O O2 0.538995 0.738454 0.268841
O O3 0.542678 0.646399 0.629442
O O4 0.950707 0.760551 0.522221
O O5 0.636769 0.487751 0.688728
O O6 0.000000 0.500000 0.500000
O O7 0.065235 0.613036 0.693694
O O8 0.632175 0.157565 0.647687
O O9 0.140018 0.109385 0.716616
O O10 0.563654 0.144295 0.996758
O O11 0.578020 0.241005 0.288144
O O12 0.568767 0.370573 0.012612
O O13 0.710874 0.015849 0.157796
O O14 0.231129 0.024676 0.194724
O O15 0.000000 0.000000 0.500000
O O16 0.698741 0.108124 0.368133
O O17 0.500000 0.500000 0.000000
O O18 0.000000 0.500000 0.000000
#
# Coordination Sequence:
#
# PCOD8044632 Si02
#       8
#     2   2   2   2   2   2   2   2
#     4  10  21  42  69  90 142 184 230 284 364 415
#     4  10  21  39  66  99 134 178 233 296 356 419
#     4  11  25  43  70 100 139 185 230 294 349 417
#     4   9  20  40  61  94 128 181 225 283 348 417
#     4  12  25  46  74 104 141 185 233 291 351 412
#     4  12  27  45  71 107 138 182 242 285 349 420
#     4  10  23  43  67  93 142 184 228 287 350 415
#     4  10  19  38  64  90 124 169 222 273 336 409
#
# _framework density 25.093385999999999
#
# number of rings (size 3 to 8) (size 9 to 14) (size 15 to 20)
#    0.000    1.500    2.500    1.875    5.250    0.500 
#    6.750    0.000    0.000    0.000    0.000    0.000 
#    0.000    0.000    0.000    0.000    0.000    0.000 
#
# Total GULP energy -198242.939764 kJ/mol
# GULP energy per Si atom -12390.183735 kJ/mol
# Density = 2.503627 g / cm^3
# Si number density = 25.093386 Si / 1000 Ang^3
#
#
#
# Elastic Constant Matrix: (Units=GPa)
#
#
# Indices 1 2 3 4 5 6 
#
# 1 120.3233 32.7352 28.9363 -20.8871 -19.1432 -10.1680
# 2 32.7352 91.1566 20.9737 -19.2286 -6.1184 -23.0917
# 3 28.9363 20.9737 129.5827 -41.4091 -16.4617 -20.1222
# 4 -20.8871 -19.2286 -41.4091 37.8799 2.1543 5.3192
# 5 -19.1432 -6.1184 -16.4617 2.1543 34.1425 -0.9448
# 6 -10.1680 -23.0917 -20.1222 5.3192 -0.9448 48.0598
#
#
#
# Elastic Compliance Matrix: (Units=1/GPa)
#
#
# Indices 1 2 3 4 5 6 
#
# 1 0.010596 -0.002338 0.000276 0.004533 0.005393 0.000838
# 2 -0.002338 0.014660 0.001584 0.006869 0.001826 0.006488
# 3 0.000276 0.001584 0.013746 0.014917 0.006264 0.005047
# 4 0.004533 0.006869 0.014917 0.047472 0.008120 0.005411
# 5 0.005393 0.001826 0.006264 0.008120 0.035270 0.004436
# 6 0.000838 0.006488 0.005047 0.005411 0.004436 0.025703
#
#
# Mechanical properties :
#
#
# Convention : Reuss Voigt Hill
#
# Bulk Modulus (GPa) = 26.28411 56.26144 41.27278
# Shear Modulus (GPa) = 31.03924 41.24427 36.14176
#
# Velocity S-wave (km/s) = 3.52084 4.05857 3.79923
# Velocity P-wave (km/s) = 5.19863 6.66574 5.97737
#
# Compressibility (1/GPa) = 0.03804579
#
# Stress axis : x y z
#
# Youngs Moduli (GPa) = 94.37147 68.21057 72.75102
#
# Poissons Ratio (x) = 0.15949 -0.02009
# Poissons Ratio (y) = 0.22066 -0.11522
# Poissons Ratio (z) = -0.02606 -0.10803
#
# Static dielectric constant tensor:
#      x y z
#    x 4.670160 -0.213390 0.170250 
#    y -0.213390 4.861710 -0.861260 
#    z 0.170250 -0.861260 4.937670 
# 
# 
# High freq. dielectric constant tensor:
#      x y z
#    x 2.009200 -0.007560 0.002080 
#    y -0.007560 2.000710 -0.034240 
#    z 0.002080 -0.034240 2.000320 
# 
# From -- ./inp_files/126381.got.cif
#   From: 2010.06.25/outbox.cif.g09.slc.cpg/sg2_64_cif.got.tgz:126381.got - 2010.06.27 13:26:56.
