data_PCOD8044875
_publ_section_title
;
Structure prediction by ZEFSAII (Michael W. Deem and Ramdas Pophale) SiO2 
 PCOD8044875
Probable space group: P 2
;
_chemical_formula_sum "Si O2"
_cell_formula_units_Z 13
_cell_length_a 15.011152
_cell_length_b 8.476889
_cell_length_c 14.989410
_cell_angle_alpha 90.000000
_cell_angle_beta 161.489210
_cell_angle_gamma 90.000000
_cell_volume 605.558161
_symmetry_space_group_name_H-M "P 2"
_symmetry_group_IT_number 3
_symmetry_cell_setting 'monoclinic'
loop_
_space_group_symop_operation_xyz
x,y,z
-x,y,-z
loop_
_atom_site_type_symbol
_atom_site_label
_atom_site_fract_x
_atom_site_fract_y
_atom_site_fract_z
Si Si1 0.379197 0.766660 0.617690
Si Si2 0.507431 0.502792 0.401782
Si Si3 0.049858 0.372713 0.848850
Si Si4 0.834641 0.638413 0.167306
Si Si5 0.371329 0.082896 0.086908
Si Si6 0.910652 0.066793 0.505513
Si Si7 0.000000 0.767639 0.500000
O O1 0.412092 0.679432 0.553746
O O2 0.047551 0.767651 0.325014
O O3 0.519591 0.939494 0.747175
O O4 0.524437 0.665643 0.834642
O O5 0.500000 0.497054 0.500000
O O6 0.723945 0.370641 0.568365
O O7 0.201871 0.466595 0.072687
O O8 0.074652 0.461787 0.776744
O O9 0.189623 0.200943 0.974561
O O10 0.830496 0.654413 0.270883
O O11 0.660578 0.156916 0.320230
O O12 0.181688 0.032767 0.823565
O O13 0.000000 0.162408 0.500000
O O14 0.802900 0.890198 0.370918
#
# Coordination Sequence:
#
# PCOD8044875 Si02
#       7
#     2   2   2   2   2   2   1
#     4  10  18  35  58  84 110 147 197 242 294 352
#     4  10  21  40  63  85 113 153 199 244 298 376
#     4  10  23  37  59  87 122 158 188 239 319 369
#     4  10  20  34  54  83 112 156 201 240 288 350
#     4  12  19  37  56  86 119 158 192 247 309 359
#     4  10  21  31  57  80 113 157 209 250 292 331
#     4  10  18  34  56  84 112 162 212 256 274 342
#
# _framework density 21.467797999999998
#
# number of rings (size 3 to 8) (size 9 to 14) (size 15 to 20)
#    0.462    1.231    3.077    1.846    0.000    1.846 
#    1.385    0.769    6.769    5.538    0.000    0.000 
#    0.000    0.000    0.000    0.000    0.000    0.000 
#
# Total GULP energy -161067.449261 kJ/mol
# GULP energy per Si atom -12389.803789 kJ/mol
# Density = 2.141894 g / cm^3
# Si number density = 21.467798 Si / 1000 Ang^3
#
#
#
# Elastic Constant Matrix: (Units=GPa)
#
#
# Indices 1 2 3 4 5 6 
#
# 1 78.3940 19.4655 12.8614 0.0000 -10.8181 0.0000
# 2 19.4655 72.7558 4.6262 0.0000 2.6206 0.0000
# 3 12.8614 4.6262 77.6856 0.0000 6.2664 0.0000
# 4 0.0000 0.0000 0.0000 32.3374 0.0000 6.4143
# 5 -10.8181 2.6206 6.2664 0.0000 34.1598 0.0000
# 6 0.0000 0.0000 0.0000 6.4143 0.0000 21.0765
#
#
#
# Elastic Compliance Matrix: (Units=1/GPa)
#
#
# Indices 1 2 3 4 5 6 
#
# 1 0.014962 -0.004032 -0.002684 0.000000 0.005540 0.000000
# 2 -0.004032 0.014912 -0.000026 0.000000 -0.002416 0.000000
# 3 -0.002684 -0.000026 0.013588 0.000000 -0.003341 0.000000
# 4 0.000000 0.000000 0.000000 0.032911 0.000000 -0.010016
# 5 0.005540 -0.002416 -0.003341 0.000000 0.031827 0.000000
# 6 0.000000 0.000000 0.000000 -0.010016 0.000000 0.050494
#
#
# Mechanical properties :
#
#
# Convention : Reuss Voigt Hill
#
# Bulk Modulus (GPa) = 33.35667 33.63794 33.49730
# Shear Modulus (GPa) = 27.44699 30.30689 28.87694
#
# Velocity S-wave (km/s) = 3.57952 3.76139 3.67158
# Velocity P-wave (km/s) = 5.71451 5.87938 5.79753
#
# Compressibility (1/GPa) = 0.02997901
#
# Stress axis : x y z
#
# Youngs Moduli (GPa) = 66.83582 67.06011 73.59584
#
# Poissons Ratio (x) = 0.27038 0.19752
# Poissons Ratio (y) = 0.26948 0.00188
# Poissons Ratio (z) = 0.17938 0.00172
#
# Static dielectric constant tensor:
#      x y z
#    x 3.652030 0.000000 -0.017260 
#    y 0.000000 3.560900 0.000000 
#    z -0.017260 0.000000 4.010310 
# 
# 
# High freq. dielectric constant tensor:
#      x y z
#    x 1.816470 0.000000 -0.000020 
#    y 0.000000 1.809360 0.000000 
#    z -0.000020 0.000000 1.860140 
# 
# From -- ./inp_files/14015.got.cif
#   From: 2010.03.12/outbox.cif.g09.slc.cpg/sg3_8_cif.got.tgz:14015.got - 2010.03.31 09:20:49.
