data_PCOD8044882
_publ_section_title
;
Structure prediction by ZEFSAII (Michael W. Deem and Ramdas Pophale) SiO2 
 PCOD8044882
Probable space group: P 2
;
_chemical_formula_sum "Si O2"
_cell_formula_units_Z 15
_cell_length_a 11.737068
_cell_length_b 9.015955
_cell_length_c 12.108720
_cell_angle_alpha 90.000000
_cell_angle_beta 35.874462
_cell_angle_gamma 90.000000
_cell_volume 750.888655
_symmetry_space_group_name_H-M "P 2"
_symmetry_group_IT_number 3
_symmetry_cell_setting 'monoclinic'
loop_
_space_group_symop_operation_xyz
x,y,z
-x,y,-z
loop_
_atom_site_type_symbol
_atom_site_label
_atom_site_fract_x
_atom_site_fract_y
_atom_site_fract_z
Si Si1 0.158667 0.841670 0.578159
Si Si2 0.892294 0.517385 0.467130
Si Si3 0.886866 0.057360 0.197884
Si Si4 0.792078 0.009089 0.803137
Si Si5 0.864337 0.288812 0.856256
Si Si6 0.546556 0.994562 0.783878
Si Si7 0.470149 0.323083 0.282604
Si Si8 0.500000 0.230778 0.500000
O O1 0.128343 0.669143 0.584172
O O2 0.378110 0.880176 0.366872
O O3 0.000688 0.932454 0.629832
O O4 0.135495 0.900420 0.721007
O O5 0.682034 0.440645 0.649662
O O6 0.000000 0.539649 0.500000
O O7 0.017869 0.424736 0.283085
O O8 0.678915 0.124104 0.330486
O O9 0.002247 0.182754 0.174329
O O10 0.000000 0.014258 0.000000
O O11 0.670172 0.959952 0.795196
O O12 0.800419 0.188935 0.800936
O O13 0.679068 0.965495 0.007500
O O14 0.683892 0.356515 0.066438
O O15 0.592280 0.157983 0.702650
O O16 0.465670 0.334721 0.419728
#
# Coordination Sequence:
#
# PCOD8044882 Si02
#       8
#     2   2   2   2   2   2   2   1
#     4  11  23  39  58  88 126 168 208 247 312 375
#     4  12  25  40  59  92 138 178 205 245 311 388
#     4  11  22  40  69  95 120 159 215 276 318 360
#     4   9  19  33  59  85 116 154 210 266 308 353
#     4  10  21  38  61  93 122 159 213 264 314 367
#     4  10  18  35  58  88 113 155 211 265 307 358
#     4  11  22  38  65  93 122 161 214 265 318 365
#     4  12  20  40  70  94 120 154 204 276 322 364
#
# _framework density 19.976330000000001
#
# number of rings (size 3 to 8) (size 9 to 14) (size 15 to 20)
#    0.000    1.333    4.000    2.800    0.000    2.667 
#    0.000    2.667    0.000    0.000    0.000    0.000 
#    0.000    0.000    0.000    0.000    0.000    0.000 
#
# Total GULP energy -185942.757281 kJ/mol
# GULP energy per Si atom -12396.183819 kJ/mol
# Density = 1.993086 g / cm^3
# Si number density = 19.976330 Si / 1000 Ang^3
#
#
#
# Elastic Constant Matrix: (Units=GPa)
#
#
# Indices 1 2 3 4 5 6 
#
# 1 62.5846 20.2602 22.9456 0.0000 3.3949 0.0000
# 2 20.2602 111.7891 58.1283 0.0000 3.4650 0.0000
# 3 22.9456 58.1283 135.1486 0.0000 -3.0299 0.0000
# 4 0.0000 0.0000 0.0000 8.0158 0.0000 0.1748
# 5 3.3949 3.4650 -3.0299 0.0000 35.9104 0.0000
# 6 0.0000 0.0000 0.0000 0.1748 0.0000 22.0525
#
#
#
# Elastic Compliance Matrix: (Units=1/GPa)
#
#
# Indices 1 2 3 4 5 6 
#
# 1 0.017503 -0.002005 -0.002146 0.000000 -0.001642 0.000000
# 2 -0.002005 0.011837 -0.004781 0.000000 -0.001356 0.000000
# 3 -0.002146 -0.004781 0.009854 0.000000 0.001496 0.000000
# 4 0.000000 0.000000 0.000000 0.124775 0.000000 -0.000989
# 5 -0.001642 -0.001356 0.001496 0.000000 0.028259 0.000000
# 6 0.000000 0.000000 0.000000 -0.000989 0.000000 0.045354
#
#
# Mechanical properties :
#
#
# Convention : Reuss Voigt Hill
#
# Bulk Modulus (GPa) = 46.88480 56.91004 51.89742
# Shear Modulus (GPa) = 19.04350 27.07496 23.05923
#
# Velocity S-wave (km/s) = 3.09091 3.68550 3.40123
# Velocity P-wave (km/s) = 6.02158 6.83090 6.43897
#
# Compressibility (1/GPa) = 0.02132888
#
# Stress axis : x y z
#
# Youngs Moduli (GPa) = 57.13155 84.48101 101.48672
#
# Poissons Ratio (x) = 0.16942 0.21779
# Poissons Ratio (y) = 0.11458 0.48521
# Poissons Ratio (z) = 0.12260 0.40391
#
# Static dielectric constant tensor:
#      x y z
#    x 3.798040 0.000000 -0.058630 
#    y 0.000000 3.320530 0.000000 
#    z -0.058630 0.000000 4.029310 
# 
# 
# High freq. dielectric constant tensor:
#      x y z
#    x 1.777930 0.000000 -0.005830 
#    y 0.000000 1.743950 0.000000 
#    z -0.005830 0.000000 1.804420 
# 
# From -- ./inp_files/11681.got.cif
#   From: 2010.03.12/outbox.cif.g09.slc.cpg/sg3_6_cif.got.tgz:11681.got - 2010.03.31 09:20:49.
