data_PCOD8044806
_publ_section_title
;
Structure prediction by ZEFSAII (Michael W. Deem and Ramdas Pophale) SiO2 
 PCOD8044806
Probable space group: P -1
;
_chemical_formula_sum "Si O2"
_cell_formula_units_Z 16
_cell_length_a 8.785426
_cell_length_b 13.217323
_cell_length_c 7.078926
_cell_angle_alpha 60.415485
_cell_angle_beta 101.335589
_cell_angle_gamma 82.074645
_cell_volume 673.765901
_symmetry_space_group_name_H-M "P -1"
_symmetry_group_IT_number 2
_symmetry_cell_setting 'triclinic'
loop_
_space_group_symop_operation_xyz
x,y,z
-x,-y,-z
loop_
_atom_site_type_symbol
_atom_site_label
_atom_site_fract_x
_atom_site_fract_y
_atom_site_fract_z
Si Si1 0.317219 0.029802 0.481616
Si Si2 0.841041 0.815779 0.010526
Si Si3 0.798953 0.292107 0.750488
Si Si4 0.216373 0.250742 0.535773
Si Si5 0.662368 0.543638 0.529674
Si Si6 0.159731 0.643886 0.707250
Si Si7 0.336271 0.775318 0.877078
Si Si8 0.691581 0.622945 0.054870
O O1 0.262784 0.144672 0.496421
O O2 0.500000 0.000000 0.500000
O O3 0.288160 0.915422 0.685269
O O4 0.222133 0.057130 0.233203
O O5 0.751235 0.813734 0.190537
O O6 0.802305 0.713151 0.957238
O O7 0.027784 0.801167 0.101514
O O8 0.796516 0.420234 0.733411
O O9 0.752842 0.320257 0.492942
O O10 0.668509 0.237964 0.881670
O O11 0.329592 0.343673 0.434896
O O12 0.030383 0.330890 0.400532
O O13 0.500000 0.500000 0.500000
O O14 0.721896 0.588387 0.311091
O O15 0.189854 0.727845 0.805171
O O16 0.245860 0.504709 0.922263
O O17 0.504403 0.694784 0.904731
#
# Coordination Sequence:
#
# PCOD8044806 Si02
#       8
#     2   2   2   2   2   2   2   2
#     4  12  27  45  64  95 133 182 228 268 319 389
#     4  10  22  45  66  95 132 173 219 273 329 391
#     4  10  22  40  69  98 133 169 213 275 340 386
#     4  10  24  44  69  97 132 173 221 271 333 394
#     4  10  19  38  68 101 131 166 213 269 334 395
#     4  10  23  41  68 102 131 170 217 272 338 397
#     4  12  24  42  64  96 137 178 222 273 316 387
#     4  10  20  40  66  97 136 166 214 274 336 390
#
# _framework density 23.747119999999999
#
# number of rings (size 3 to 8) (size 9 to 14) (size 15 to 20)
#    0.000    1.500    2.500    1.875    0.000    9.500 
#    0.000    5.000    0.000    0.000    0.000    0.000 
#    0.000    0.000    0.000    0.000    0.000    0.000 
#
# Total GULP energy -198246.417269 kJ/mol
# GULP energy per Si atom -12390.401079 kJ/mol
# Density = 2.369307 g / cm^3
# Si number density = 23.747120 Si / 1000 Ang^3
#
#
#
# Elastic Constant Matrix: (Units=GPa)
#
#
# Indices 1 2 3 4 5 6 
#
# 1 75.5970 28.3027 23.4553 -9.9553 -1.6592 -2.6112
# 2 28.3027 71.1801 26.3173 -11.6949 -2.8958 -6.6786
# 3 23.4553 26.3173 136.4759 -27.4741 -5.9060 -8.2996
# 4 -9.9553 -11.6949 -27.4741 25.8211 -0.0117 3.3828
# 5 -1.6592 -2.8958 -5.9060 -0.0117 39.4999 -2.4129
# 6 -2.6112 -6.6786 -8.2996 3.3828 -2.4129 32.9464
#
#
#
# Elastic Compliance Matrix: (Units=1/GPa)
#
#
# Indices 1 2 3 4 5 6 
#
# 1 0.015986 -0.005547 -0.001214 0.002412 0.000059 -0.000407
# 2 -0.005547 0.017725 -0.001466 0.004010 0.000998 0.002446
# 3 -0.001214 -0.001466 0.009790 0.009124 0.001384 0.001238
# 4 0.002412 0.004010 0.009124 0.051426 0.001661 -0.001856
# 5 0.000059 0.000998 0.001384 0.001661 0.025738 0.002270
# 6 -0.000407 0.002446 0.001238 -0.001856 0.002270 0.031484
#
#
# Mechanical properties :
#
#
# Convention : Reuss Voigt Hill
#
# Bulk Modulus (GPa) = 36.97064 48.82264 42.89664
# Shear Modulus (GPa) = 28.14983 33.33199 30.74091
#
# Velocity S-wave (km/s) = 3.44670 3.75056 3.60183
# Velocity P-wave (km/s) = 5.60731 6.27372 5.94985
#
# Compressibility (1/GPa) = 0.02704849
#
# Stress axis : x y z
#
# Youngs Moduli (GPa) = 62.55281 56.41665 102.14014
#
# Poissons Ratio (x) = 0.31294 0.12404
# Poissons Ratio (y) = 0.34698 0.14969
# Poissons Ratio (z) = 0.07596 0.08268
#
# Static dielectric constant tensor:
#      x y z
#    x 3.709380 0.073340 -0.005740 
#    y 0.073340 4.540100 -0.569570 
#    z -0.005740 -0.569570 5.019040 
# 
# 
# High freq. dielectric constant tensor:
#      x y z
#    x 1.929820 -0.006910 -0.007520 
#    y -0.006910 1.918590 -0.003340 
#    z -0.007520 -0.003340 1.965690 
# 
# From -- ./inp_files/205664.got.cif
#   From: 2010.06.25/outbox.cif.g09.slc.cpg/sg2_103_cif.got.tgz:205664.got - 2010.06.27 13:26:56.
