data_PCOD8044130
_publ_section_title
;
Structure prediction by ZEFSAII (Michael W. Deem and Ramdas Pophale) SiO2 
 PCOD8044130
Probable space group: P -1
;
_chemical_formula_sum "Si O2"
_cell_formula_units_Z 14
_cell_length_a 10.847648
_cell_length_b 21.536127
_cell_length_c 8.857532
_cell_angle_alpha 122.563712
_cell_angle_beta 72.810717
_cell_angle_gamma 152.968557
_cell_volume 695.257656
_symmetry_space_group_name_H-M "P -1"
_symmetry_group_IT_number 2
_symmetry_cell_setting 'triclinic'
loop_
_space_group_symop_operation_xyz
x,y,z
-x,-y,-z
loop_
_atom_site_type_symbol
_atom_site_label
_atom_site_fract_x
_atom_site_fract_y
_atom_site_fract_z
Si Si1 0.616632 0.292633 0.523989
Si Si2 0.343852 0.928084 0.802959
Si Si3 0.292037 0.046007 0.800505
Si Si4 0.318026 0.007212 0.424196
Si Si5 0.687860 0.365154 0.247117
Si Si6 0.279802 0.259073 0.579417
Si Si7 0.329305 0.480252 0.465813
O O1 0.415629 0.117980 0.411090
O O2 0.633418 0.304303 0.352941
O O3 0.438491 0.272588 0.624174
O O4 0.954580 0.463928 0.701481
O O5 0.284730 0.982301 0.854273
O O6 0.559889 0.007941 0.696055
O O7 0.033407 0.720322 0.657506
O O8 0.500000 0.000000 0.000000
O O9 0.938714 0.882873 0.667706
O O10 0.458974 0.099595 0.659553
O O11 0.469929 0.211120 0.004679
O O12 0.939645 0.809815 0.314701
O O13 0.608395 0.410714 0.326609
O O14 0.550111 0.450129 0.659868
O O15 0.500000 0.500000 0.500000
#
# Coordination Sequence:
#
# PCOD8044130 Si02
#       7
#     2   2   2   2   2   2   2
#     4  10  19  37  64  88 128 163 210 252 313 360
#     4  12  24  42  69  90 123 171 216 251 314 381
#     4  10  23  39  63  95 126 164 209 257 316 375
#     4  10  21  42  63  91 129 165 205 262 320 362
#     4  10  22  38  65  96 123 166 213 259 305 376
#     4   9  22  37  65  87 133 159 206 260 317 361
#     4  11  21  43  62  94 127 166 206 263 310 369
#
# _framework density 20.136422
#
# number of rings (size 3 to 8) (size 9 to 14) (size 15 to 20)
#    0.857    0.857    2.857    1.714    4.000    2.857 
#    2.571    0.714    0.000    0.000    0.000    0.000 
#    0.000    0.000    0.000    0.000    0.000    0.000 
#
# Total GULP energy -173518.822245 kJ/mol
# GULP energy per Si atom -12394.201589 kJ/mol
# Density = 2.009059 g / cm^3
# Si number density = 20.136422 Si / 1000 Ang^3
#
#
#
# Elastic Constant Matrix: (Units=GPa)
#
#
# Indices 1 2 3 4 5 6 
#
# 1 115.0895 37.2911 24.7182 10.9417 -6.4921 -2.6676
# 2 37.2911 105.2553 22.6373 1.6180 -15.0251 20.0276
# 3 24.7182 22.6373 80.2587 -4.0322 -11.5665 1.9410
# 4 10.9417 1.6180 -4.0322 13.4843 -5.6141 1.7308
# 5 -6.4921 -15.0251 -11.5665 -5.6141 23.6821 1.7826
# 6 -2.6676 20.0276 1.9410 1.7308 1.7826 38.2151
#
#
#
# Elastic Compliance Matrix: (Units=1/GPa)
#
#
# Indices 1 2 3 4 5 6 
#
# 1 0.012150 -0.004832 -0.003875 -0.013113 -0.005068 0.004407
# 2 -0.004832 0.014248 -0.000547 0.007229 0.009806 -0.008561
# 3 -0.003875 -0.000547 0.015793 0.012025 0.009287 -0.001764
# 4 -0.013113 0.007229 0.012025 0.102313 0.031980 -0.011440
# 5 -0.005068 0.009806 0.009287 0.031980 0.059944 -0.010209
# 6 0.004407 -0.008561 -0.001764 -0.011440 -0.010209 0.032046
#
#
# Mechanical properties :
#
#
# Convention : Reuss Voigt Hill
#
# Bulk Modulus (GPa) = 42.22457 52.21074 47.21766
# Shear Modulus (GPa) = 19.01907 29.47342 24.24625
#
# Velocity S-wave (km/s) = 3.07662 3.82997 3.47378
# Velocity P-wave (km/s) = 5.79962 6.74856 6.29200
#
# Compressibility (1/GPa) = 0.02368289
#
# Stress axis : x y z
#
# Youngs Moduli (GPa) = 82.30743 70.18615 63.32052
#
# Poissons Ratio (x) = 0.33911 0.24535
# Poissons Ratio (y) = 0.39767 0.03465
# Poissons Ratio (z) = 0.31892 0.03841
#
# Static dielectric constant tensor:
#      x y z
#    x 3.717900 0.118140 -0.025680 
#    y 0.118140 3.747650 -0.075680 
#    z -0.025680 -0.075680 3.099730 
# 
# 
# High freq. dielectric constant tensor:
#      x y z
#    x 1.797300 0.003870 -0.002080 
#    y 0.003870 1.801420 0.005540 
#    z -0.002080 0.005540 1.740820 
# 
# From -- ./inp_files/284921.got.cif
#   From: 2010.06.25/outbox.cif.g09.slc.cpg/sg2_143_cif.got.tgz:284921.got - 2010.06.27 13:26:56.
