data_PCOD8044863
_publ_section_title
;
Structure prediction by ZEFSAII (Michael W. Deem and Ramdas Pophale) SiO2 
 PCOD8044863
Probable space group: P 2
;
_chemical_formula_sum "Si O2"
_cell_formula_units_Z 16
_cell_length_a 8.873585
_cell_length_b 12.077188
_cell_length_c 8.536653
_cell_angle_alpha 90.000000
_cell_angle_beta 117.451040
_cell_angle_gamma 90.000000
_cell_volume 811.847541
_symmetry_space_group_name_H-M "P 2"
_symmetry_group_IT_number 3
_symmetry_cell_setting 'monoclinic'
loop_
_space_group_symop_operation_xyz
x,y,z
-x,y,-z
loop_
_atom_site_type_symbol
_atom_site_label
_atom_site_fract_x
_atom_site_fract_y
_atom_site_fract_z
Si Si1 0.814148 0.970680 0.482493
Si Si2 0.187303 0.725435 0.525144
Si Si3 0.812305 0.191127 0.343995
Si Si4 0.498943 0.583625 0.685506
Si Si5 0.516319 0.330773 0.322832
Si Si6 0.818369 0.970680 0.854010
Si Si7 0.820437 0.718299 0.847747
Si Si8 0.658988 0.158757 0.963343
O O1 0.742281 0.849640 0.402360
O O2 0.807904 0.987531 0.664409
O O3 0.000000 0.976940 0.500000
O O4 0.720558 0.076359 0.360242
O O5 0.325507 0.641562 0.664637
O O6 0.169723 0.711427 0.332750
O O7 0.000000 0.701638 0.500000
O O8 0.701550 0.292290 0.355507
O O9 0.816468 0.187661 0.155581
O O10 0.000000 0.207190 0.500000
O O11 0.500000 0.595428 0.500000
O O12 0.503221 0.457169 0.741803
O O13 0.665420 0.643400 0.837106
O O14 0.500000 0.318005 0.500000
O O15 0.367969 0.260638 0.168541
O O16 0.786134 0.843763 0.888051
O O17 0.000000 0.011413 0.000000
O O18 0.681502 0.046996 0.874897
O O19 0.000000 0.674229 0.000000
O O20 0.500000 0.142752 0.000000
#
# Coordination Sequence:
#
# PCOD8044863 Si02
#       8
#     2   2   2   2   2   2   2   2
#     4   9  17  30  53  84 114 142 177 221 272 332
#     4   9  18  34  57  84 111 141 178 221 271 328
#     4  10  20  36  56  78 110 144 178 226 276 325
#     4   9  19  37  57  77 106 145 185 225 271 324
#     4  10  21  38  56  76 106 144 188 231 273 323
#     4  10  18  32  56  83 112 144 179 221 274 331
#     4   9  19  36  55  80 112 143 178 222 271 326
#     4  10  22  37  54  80 115 145 181 229 275 327
#
# _framework density 19.708134999999999
#
# number of rings (size 3 to 8) (size 9 to 14) (size 15 to 20)
#    0.000    2.500    0.000    2.250    0.000    3.500 
#    0.000   12.500    0.000    0.000    0.000    0.000 
#    0.000    0.000    0.000    0.000    0.000    0.000 
#
# Total GULP energy -198317.834453 kJ/mol
# GULP energy per Si atom -12394.864653 kJ/mol
# Density = 1.966328 g / cm^3
# Si number density = 19.708135 Si / 1000 Ang^3
#
#
#
# Elastic Constant Matrix: (Units=GPa)
#
#
# Indices 1 2 3 4 5 6 
#
# 1 88.5810 66.2537 34.4313 0.0000 6.7611 0.0000
# 2 66.2537 156.4128 56.8588 0.0000 10.9377 0.0000
# 3 34.4313 56.8588 91.9845 0.0000 13.1716 0.0000
# 4 0.0000 0.0000 0.0000 21.0863 0.0000 0.2580
# 5 6.7611 10.9377 13.1716 0.0000 34.2269 0.0000
# 6 0.0000 0.0000 0.0000 0.2580 0.0000 30.8924
#
#
#
# Elastic Compliance Matrix: (Units=1/GPa)
#
#
# Indices 1 2 3 4 5 6 
#
# 1 0.016950 -0.006276 -0.002405 0.000000 -0.000417 0.000000
# 2 -0.006276 0.010587 -0.004115 0.000000 -0.000560 0.000000
# 3 -0.002405 -0.004115 0.014879 0.000000 -0.003936 0.000000
# 4 0.000000 0.000000 0.000000 0.047429 0.000000 -0.000396
# 5 -0.000417 -0.000560 -0.003936 0.000000 0.030993 0.000000
# 6 0.000000 0.000000 0.000000 -0.000396 0.000000 0.032374
#
#
# Mechanical properties :
#
#
# Convention : Reuss Voigt Hill
#
# Bulk Modulus (GPa) = 59.44189 72.45178 65.94683
# Shear Modulus (GPa) = 27.11329 29.20340 28.15834
#
# Velocity S-wave (km/s) = 3.71312 3.85358 3.78400
# Velocity P-wave (km/s) = 6.97206 7.52611 7.25438
#
# Compressibility (1/GPa) = 0.01682315
#
# Stress axis : x y z
#
# Youngs Moduli (GPa) = 58.99632 94.45811 67.21002
#
# Poissons Ratio (x) = 0.59284 0.16167
# Poissons Ratio (y) = 0.37027 0.27654
# Poissons Ratio (z) = 0.14191 0.38865
#
# Static dielectric constant tensor:
#      x y z
#    x 3.484890 0.000000 0.050020 
#    y 0.000000 3.954060 0.000000 
#    z 0.050020 0.000000 3.763610 
# 
# 
# High freq. dielectric constant tensor:
#      x y z
#    x 1.758020 0.000000 -0.000250 
#    y 0.000000 1.768630 0.000000 
#    z -0.000250 0.000000 1.765210 
# 
# From -- ./inp_files/5986.got.cif
#   From: 2010.03.12/outbox.cif.g09.slc.cpg/sg3_3_cif.got.tgz:5986.got - 2010.03.31 09:20:49.
