data_PCOD8044956
_publ_section_title
;
Structure prediction by ZEFSAII (Michael W. Deem and Ramdas Pophale) SiO2 
 PCOD8044956
Probable space group: P 2
;
_chemical_formula_sum "Si O2"
_cell_formula_units_Z 12
_cell_length_a 24.613810
_cell_length_b 5.273410
_cell_length_c 12.246897
_cell_angle_alpha 90.000000
_cell_angle_beta 160.688536
_cell_angle_gamma 90.000000
_cell_volume 525.696250
_symmetry_space_group_name_H-M "P 2"
_symmetry_group_IT_number 3
_symmetry_cell_setting 'monoclinic'
loop_
_space_group_symop_operation_xyz
x,y,z
-x,y,-z
loop_
_atom_site_type_symbol
_atom_site_label
_atom_site_fract_x
_atom_site_fract_y
_atom_site_fract_z
Si Si1 0.308380 0.806060 0.170568
Si Si2 0.144607 0.824081 0.087925
Si Si3 0.544211 0.790806 0.206705
Si Si4 0.374084 0.288468 0.951644
Si Si5 0.678579 0.307049 0.896764
Si Si6 0.963099 0.323995 0.801292
O O1 0.500000 0.792803 0.500000
O O2 0.275312 0.817323 0.236689
O O3 0.223819 0.550618 0.964453
O O4 0.225995 0.050838 0.956876
O O5 0.258788 0.819056 0.411862
O O6 0.026077 0.581675 0.864259
O O7 0.042126 0.082218 0.891354
O O8 0.500000 0.840986 0.000000
O O9 0.503288 0.507824 0.168375
O O10 0.454960 0.010833 0.106222
O O11 0.230320 0.309098 0.589310
O O12 0.316978 0.336381 0.965700
O O13 0.500000 0.292581 0.500000
O O14 0.000000 0.321724 0.000000
#
# Coordination Sequence:
#
# PCOD8044956 Si02
#       6
#     2   2   2   2   2   2
#     4  10  20  37  62  92 124 161 209 267 320 375
#     4  12  24  43  69  98 130 176 222 268 329 394
#     4  12  23  40  66  98 125 165 228 283 320 381
#     4  12  24  42  66  95 130 175 217 268 332 389
#     4  10  19  36  60  88 120 160 205 259 315 375
#     4  12  26  46  65  95 139 179 213 267 334 396
#
# _framework density 22.82687
#
# number of rings (size 3 to 8) (size 9 to 14) (size 15 to 20)
#    0.000    0.667    0.000   11.000    0.000    0.000 
#    0.000    5.000    0.000    0.000    0.000    0.000 
#    0.000    0.000    0.000    0.000    0.000    0.000 
#
# Total GULP energy -148785.453590 kJ/mol
# GULP energy per Si atom -12398.787799 kJ/mol
# Density = 2.277492 g / cm^3
# Si number density = 22.826870 Si / 1000 Ang^3
#
#
#
# Elastic Constant Matrix: (Units=GPa)
#
#
# Indices 1 2 3 4 5 6 
#
# 1 80.2314 27.3868 -17.0908 0.0000 -6.0958 0.0000
# 2 27.3868 183.4804 16.0391 0.0000 6.7498 0.0000
# 3 -17.0908 16.0391 58.8308 0.0000 -7.3765 0.0000
# 4 0.0000 0.0000 0.0000 20.2892 0.0000 -3.5541
# 5 -6.0958 6.7498 -7.3765 0.0000 34.5871 0.0000
# 6 0.0000 0.0000 0.0000 -3.5541 0.0000 28.7516
#
#
#
# Elastic Compliance Matrix: (Units=1/GPa)
#
#
# Indices 1 2 3 4 5 6 
#
# 1 0.015006 -0.002902 0.005706 0.000000 0.004428 0.000000
# 2 -0.002902 0.006216 -0.002830 0.000000 -0.002328 0.000000
# 3 0.005706 -0.002830 0.020161 0.000000 0.005858 0.000000
# 4 0.000000 0.000000 0.000000 0.050378 0.000000 0.006227
# 5 0.004428 -0.002328 0.005858 0.000000 0.031397 0.000000
# 6 0.000000 0.000000 0.000000 0.006227 0.000000 0.035550
#
#
# Mechanical properties :
#
#
# Convention : Reuss Voigt Hill
#
# Bulk Modulus (GPa) = 24.19379 41.69033 32.94206
# Shear Modulus (GPa) = 28.97920 36.47273 32.72596
#
# Velocity S-wave (km/s) = 3.56690 4.00158 3.79048
# Velocity P-wave (km/s) = 5.25219 6.29711 5.79824
#
# Compressibility (1/GPa) = 0.04133293
#
# Stress axis : x y z
#
# Youngs Moduli (GPa) = 66.63906 160.86856 49.59991
#
# Poissons Ratio (x) = 0.46677 -0.28300
# Poissons Ratio (y) = 0.19336 0.14035
# Poissons Ratio (z) = -0.38022 0.45519
#
# Static dielectric constant tensor:
#      x y z
#    x 4.191080 0.000000 -0.029260 
#    y 0.000000 5.623010 0.000000 
#    z -0.029260 0.000000 3.936100 
# 
# 
# High freq. dielectric constant tensor:
#      x y z
#    x 1.902630 0.000000 -0.013810 
#    y 0.000000 1.939800 0.000000 
#    z -0.013810 0.000000 1.872170 
# 
# From -- ./inp_files/10210.got.cif
#   From: 2010.03.12/outbox.cif.g09.slc.cpg/sg3_6_cif.got.tgz:10210.got - 2010.03.31 09:20:49.
