data_PCOD8044672
_publ_section_title
;
Structure prediction by ZEFSAII (Michael W. Deem and Ramdas Pophale) SiO2 
 PCOD8044672
Probable space group: P -1
;
_chemical_formula_sum "Si O2"
_cell_formula_units_Z 14
_cell_length_a 9.398457
_cell_length_b 12.759118
_cell_length_c 17.574941
_cell_angle_alpha 22.038448
_cell_angle_beta 113.163366
_cell_angle_gamma 101.417046
_cell_volume 636.577205
_symmetry_space_group_name_H-M "P -1"
_symmetry_group_IT_number 2
_symmetry_cell_setting 'triclinic'
loop_
_space_group_symop_operation_xyz
x,y,z
-x,-y,-z
loop_
_atom_site_type_symbol
_atom_site_label
_atom_site_fract_x
_atom_site_fract_y
_atom_site_fract_z
Si Si1 0.111136 0.879595 0.947946
Si Si2 0.835470 0.096841 0.623257
Si Si3 0.252714 0.324916 0.448492
Si Si4 0.295249 0.186318 0.847592
Si Si5 0.926211 0.240890 0.391273
Si Si6 0.360303 0.084736 0.188704
Si Si7 0.782229 0.149070 0.804813
O O1 0.196808 0.113699 0.805709
O O2 0.258168 0.518840 0.243778
O O3 0.026137 0.878082 0.850267
O O4 0.979328 0.963694 0.936421
O O5 0.766853 0.443837 0.411375
O O6 0.849306 0.095469 0.536167
O O7 0.708994 0.948822 0.719638
O O8 0.252551 0.510291 0.400668
O O9 0.084273 0.269254 0.446610
O O10 0.436815 0.987961 0.713941
O O11 0.500000 0.000000 0.000000
O O12 0.241832 0.073399 0.988817
O O13 0.766816 0.571542 0.105594
O O14 0.000000 0.000000 0.500000
O O15 0.352513 0.810293 0.319470
#
# Coordination Sequence:
#
# PCOD8044672 Si02
#       7
#     2   2   2   2   2   2   2
#     4  10  20  36  61  91 131 174 205 247 330 393
#     4  11  21  42  65  92 131 166 216 267 316 391
#     4  11  21  42  67  96 136 171 210 265 330 384
#     4  11  20  31  57 100 134 163 207 254 318 398
#     4  12  27  48  68  91 126 176 229 274 316 371
#     4  11  24  43  68  99 131 168 212 269 331 388
#     4  10  19  38  64  95 135 171 201 255 329 397
#
# _framework density 21.992619000000001
#
# number of rings (size 3 to 8) (size 9 to 14) (size 15 to 20)
#    0.000    1.143    4.286    5.143    0.000    4.571 
#    2.571    0.714    0.000    0.000    0.000    0.000 
#    0.000    0.000    0.000    0.000    0.000    0.000 
#
# Total GULP energy -173540.602692 kJ/mol
# GULP energy per Si atom -12395.757335 kJ/mol
# Density = 2.194256 g / cm^3
# Si number density = 21.992619 Si / 1000 Ang^3
#
#
#
# Elastic Constant Matrix: (Units=GPa)
#
#
# Indices 1 2 3 4 5 6 
#
# 1 90.6406 22.3438 46.9880 26.0690 7.1252 -5.2265
# 2 22.3438 60.5664 41.3575 3.3336 2.3380 -17.5150
# 3 46.9880 41.3575 93.5303 21.2539 19.8173 -7.3455
# 4 26.0690 3.3336 21.2539 23.3894 1.2296 -3.4575
# 5 7.1252 2.3380 19.8173 1.2296 36.8328 15.6546
# 6 -5.2265 -17.5150 -7.3455 -3.4575 15.6546 26.8765
#
#
#
# Elastic Compliance Matrix: (Units=1/GPa)
#
#
# Indices 1 2 3 4 5 6 
#
# 1 0.018902 -0.003927 -0.004165 -0.017117 0.000465 -0.002494
# 2 -0.003927 0.032416 -0.013527 0.015252 -0.003251 0.020520
# 3 -0.004165 -0.013527 0.025010 -0.015149 -0.012323 0.002439
# 4 -0.017117 0.015252 -0.015149 0.074681 0.003810 0.009859
# 5 0.000465 -0.003251 -0.012323 0.003810 0.047651 -0.032661
# 6 -0.002494 0.020520 0.002439 0.009859 -0.032661 0.071054
#
#
# Mechanical properties :
#
#
# Convention : Reuss Voigt Hill
#
# Bulk Modulus (GPa) = 30.21814 51.79067 41.00441
# Shear Modulus (GPa) = 15.43302 26.35627 20.89464
#
# Velocity S-wave (km/s) = 2.65190 3.46557 3.08567
# Velocity P-wave (km/s) = 4.81111 6.29395 5.60181
#
# Compressibility (1/GPa) = 0.03309270
#
# Stress axis : x y z
#
# Youngs Moduli (GPa) = 52.90462 30.84853 39.98345
#
# Poissons Ratio (x) = 0.12113 0.16651
# Poissons Ratio (y) = 0.20773 0.54085
# Poissons Ratio (z) = 0.22032 0.41729
#
# Static dielectric constant tensor:
#      x y z
#    x 4.135070 0.080460 -0.093220 
#    y 0.080460 3.869820 0.219800 
#    z -0.093220 0.219800 3.987820 
# 
# 
# High freq. dielectric constant tensor:
#      x y z
#    x 1.866570 0.002760 0.000090 
#    y 0.002760 1.835240 0.026240 
#    z 0.000090 0.026240 1.859390 
# 
# From -- ./inp_files/590024.got.cif
#   From: 2010.06.25/outbox.cif.g09.slc.cpg/sg2_296_cif.got.tgz:590024.got - 2010.06.27 13:26:56.
