data_PCOD8044095
_publ_section_title
;
Structure prediction by ZEFSAII (Michael W. Deem and Ramdas Pophale) SiO2 
 PCOD8044095
Probable space group: P -1
;
_chemical_formula_sum "Si O2"
_cell_formula_units_Z 16
_cell_length_a 9.117318
_cell_length_b 11.025884
_cell_length_c 11.589531
_cell_angle_alpha 128.733649
_cell_angle_beta 61.860511
_cell_angle_gamma 123.285330
_cell_volume 744.889545
_symmetry_space_group_name_H-M "P -1"
_symmetry_group_IT_number 2
_symmetry_cell_setting 'triclinic'
loop_
_space_group_symop_operation_xyz
x,y,z
-x,-y,-z
loop_
_atom_site_type_symbol
_atom_site_label
_atom_site_fract_x
_atom_site_fract_y
_atom_site_fract_z
Si Si1 0.587907 0.717868 0.165948
Si Si2 0.988036 0.501295 0.253227
Si Si3 0.270069 0.591281 0.392099
Si Si4 0.415336 0.947184 0.623920
Si Si5 0.300830 0.389208 0.471519
Si Si6 0.274014 0.770592 0.941152
Si Si7 0.625197 0.932427 0.757918
Si Si8 0.290888 0.558201 0.009547
O O1 0.441757 0.652284 0.282633
O O2 0.488996 0.657828 0.044866
O O3 0.681729 0.919607 0.239456
O O4 0.739464 0.639508 0.086501
O O5 0.083583 0.510899 0.346227
O O6 0.137842 0.598198 0.160793
O O7 0.841060 0.586625 0.371681
O O8 0.893425 0.308117 0.130545
O O9 0.276657 0.754910 0.561738
O O10 0.273604 0.445253 0.387040
O O11 0.573709 0.977614 0.677067
O O12 0.500000 0.000000 0.500000
O O13 0.500000 0.500000 0.500000
O O14 0.269612 0.193322 0.367077
O O15 0.445971 0.850018 0.847186
O O16 0.286948 0.612322 0.911776
O O17 0.249930 0.902063 0.120688
#
# Coordination Sequence:
#
# PCOD8044095 Si02
#       8
#     2   2   2   2   2   2   2   2
#     4   9  19  35  64  91 121 163 215 249 315 379
#     4  11  24  40  62  95 129 168 205 266 324 372
#     4  10  21  39  65  89 127 165 206 268 314 372
#     4  10  19  37  63  94 129 161 214 267 307 368
#     4  12  22  41  67  92 122 169 224 254 312 386
#     4  11  22  41  63  89 138 160 208 265 316 377
#     4  11  23  39  66  98 120 171 216 261 311 373
#     4  10  20  38  62  92 124 168 205 258 316 377
#
# _framework density 21.479696000000001
#
# number of rings (size 3 to 8) (size 9 to 14) (size 15 to 20)
#    0.000    1.500    3.750    1.500    0.000    0.000 
#    2.250    1.250    0.000    0.000    0.000    0.000 
#    0.000    0.000    0.000    0.000    0.000    0.000 
#
# Total GULP energy -198315.860324 kJ/mol
# GULP energy per Si atom -12394.741270 kJ/mol
# Density = 2.143081 g / cm^3
# Si number density = 21.479696 Si / 1000 Ang^3
#
#
#
# Elastic Constant Matrix: (Units=GPa)
#
#
# Indices 1 2 3 4 5 6 
#
# 1 103.8828 48.3986 62.0465 15.9249 7.7945 -5.9279
# 2 48.3986 69.1248 40.9274 21.8552 2.6756 -21.9657
# 3 62.0465 40.9274 113.5001 27.5179 7.4065 -9.3925
# 4 15.9249 21.8552 27.5179 44.9193 2.9627 0.3648
# 5 7.7945 2.6756 7.4065 2.9627 42.1450 4.2382
# 6 -5.9279 -21.9657 -9.3925 0.3648 4.2382 37.0506
#
#
#
# Elastic Compliance Matrix: (Units=1/GPa)
#
#
# Indices 1 2 3 4 5 6 
#
# 1 0.018563 -0.011614 -0.007233 0.003620 -0.001110 -0.005658
# 2 -0.011614 0.032207 -0.001152 -0.010944 -0.000647 0.017126
# 3 -0.007233 -0.001152 0.014856 -0.005927 -0.000994 0.002098
# 4 0.003620 -0.010944 -0.005927 0.030015 -0.000271 -0.007676
# 5 -0.001110 -0.000647 -0.000994 -0.000271 0.024531 -0.003617
# 6 -0.005658 0.017126 0.002098 -0.007676 -0.003617 0.037259
#
#
# Mechanical properties :
#
#
# Convention : Reuss Voigt Hill
#
# Bulk Modulus (GPa) = 39.02044 65.47253 52.24649
# Shear Modulus (GPa) = 24.27515 33.83199 29.05357
#
# Velocity S-wave (km/s) = 3.36541 3.97302 3.68177
# Velocity P-wave (km/s) = 5.77122 7.18288 6.51539
#
# Compressibility (1/GPa) = 0.02562759
#
# Stress axis : x y z
#
# Youngs Moduli (GPa) = 53.87151 31.04868 67.31430
#
# Poissons Ratio (x) = 0.36059 0.48689
# Poissons Ratio (y) = 0.62564 0.07757
# Poissons Ratio (z) = 0.38966 0.03578
#
# Static dielectric constant tensor:
#      x y z
#    x 3.893200 -0.156210 0.115750 
#    y -0.156210 3.947840 0.444330 
#    z 0.115750 0.444330 4.406610 
# 
# 
# High freq. dielectric constant tensor:
#      x y z
#    x 1.827400 -0.016690 0.018990 
#    y -0.016690 1.829270 0.007290 
#    z 0.018990 0.007290 1.856630 
# 
# From -- ./inp_files/391297.got.cif
#   From: 2010.06.25/outbox.cif.g09.slc.cpg/sg2_196_cif.got.tgz:391297.got - 2010.06.27 13:26:56.
