data_PCOD8044839
_publ_section_title
;
Structure prediction by ZEFSAII (Michael W. Deem and Ramdas Pophale) SiO2 
 PCOD8044839
Probable space group: P 2
;
_chemical_formula_sum "Si O2"
_cell_formula_units_Z 14
_cell_length_a 13.562493
_cell_length_b 5.214083
_cell_length_c 18.900955
_cell_angle_alpha 90.000000
_cell_angle_beta 31.408681
_cell_angle_gamma 90.000000
_cell_volume 696.553932
_symmetry_space_group_name_H-M "P 2"
_symmetry_group_IT_number 3
_symmetry_cell_setting 'monoclinic'
loop_
_space_group_symop_operation_xyz
x,y,z
-x,y,-z
loop_
_atom_site_type_symbol
_atom_site_label
_atom_site_fract_x
_atom_site_fract_y
_atom_site_fract_z
Si Si1 0.855168 0.186100 0.191126
Si Si2 0.989117 0.738580 0.348119
Si Si3 0.368078 0.521633 0.143021
Si Si4 0.073496 0.688213 0.773600
Si Si5 0.647654 0.687843 0.089042
Si Si6 0.026133 0.247665 0.402011
Si Si7 0.719955 0.188814 0.123669
O O1 0.707264 0.186815 0.216697
O O2 0.825298 0.433435 0.258954
O O3 0.820643 0.930702 0.257383
O O4 0.064187 0.185507 0.032112
O O5 0.218005 0.722432 0.201382
O O6 0.894651 0.704718 0.329684
O O7 0.917282 0.507378 0.443593
O O8 0.935753 0.011807 0.414183
O O9 0.487567 0.674649 0.127857
O O10 0.251205 0.282594 0.248102
O O11 0.500000 0.410554 0.000000
O O12 0.851835 0.687636 0.927173
O O13 0.621072 0.445736 0.156767
O O14 0.614095 0.942797 0.155844
O O15 0.000000 0.194127 0.500000
#
# Coordination Sequence:
#
# PCOD8044839 Si02
#       7
#     2   2   2   2   2   2   2
#     4   9  17  28  43  64  99 137 176 207 263 310
#     4  10  21  34  53  76 106 139 180 216 263 314
#     4  10  22  35  54  81 112 145 178 219 266 318
#     4  10  17  29  47  71  99 136 171 217 258 316
#     4  10  18  29  45  68 102 136 177 207 262 311
#     4  10  22  38  55  73 109 151 180 222 258 310
#     4   9  18  28  42  64  97 142 174 210 251 325
#
# _framework density 20.098948
#
# number of rings (size 3 to 8) (size 9 to 14) (size 15 to 20)
#    0.857    1.429    1.429    2.143    2.000    5.143 
#    0.000    0.000    0.000    0.000    0.000    0.000 
#    0.000   17.143    0.000    0.000    0.000    0.000 
#
# Total GULP energy -173536.479667 kJ/mol
# GULP energy per Si atom -12395.462833 kJ/mol
# Density = 2.005320 g / cm^3
# Si number density = 20.098948 Si / 1000 Ang^3
#
#
#
# Elastic Constant Matrix: (Units=GPa)
#
#
# Indices 1 2 3 4 5 6 
#
# 1 141.8799 62.3197 24.9293 0.0000 41.0916 0.0000
# 2 62.3197 174.8804 19.4959 0.0000 26.4695 0.0000
# 3 24.9293 19.4959 33.9303 0.0000 20.1419 0.0000
# 4 0.0000 0.0000 0.0000 10.3119 0.0000 10.8770
# 5 41.0916 26.4695 20.1419 0.0000 28.8109 0.0000
# 6 0.0000 0.0000 0.0000 10.8770 0.0000 33.9310
#
#
#
# Elastic Compliance Matrix: (Units=1/GPa)
#
#
# Indices 1 2 3 4 5 6 
#
# 1 0.012743 -0.002096 0.002543 0.000000 -0.018027 0.000000
# 2 -0.002096 0.006989 -0.000750 0.000000 -0.002907 0.000000
# 3 0.002543 -0.000750 0.050904 0.000000 -0.038526 0.000000
# 4 0.000000 0.000000 0.000000 0.146516 0.000000 -0.046968
# 5 -0.018027 -0.002907 -0.038526 0.000000 0.090025 0.000000
# 6 0.000000 0.000000 0.000000 -0.046968 0.000000 0.044528
#
#
# Mechanical properties :
#
#
# Convention : Reuss Voigt Hill
#
# Bulk Modulus (GPa) = 14.27953 62.68671 38.48312
# Shear Modulus (GPa) = 13.31011 30.87380 22.09196
#
# Velocity S-wave (km/s) = 2.57617 3.92355 3.31895
# Velocity P-wave (km/s) = 3.99611 7.19600 5.82028
#
# Compressibility (1/GPa) = 0.07003032
#
# Stress axis : x y z
#
# Youngs Moduli (GPa) = 78.47392 143.08746 19.64466
#
# Poissons Ratio (x) = 0.29992 -0.04996
# Poissons Ratio (y) = 0.16449 0.01473
# Poissons Ratio (z) = -0.19956 0.10731
#
# Static dielectric constant tensor:
#      x y z
#    x 3.684800 0.000000 0.203950 
#    y 0.000000 3.685360 0.000000 
#    z 0.203950 0.000000 3.031580 
# 
# 
# High freq. dielectric constant tensor:
#      x y z
#    x 1.793340 0.000000 0.023470 
#    y 0.000000 1.792470 0.000000 
#    z 0.023470 0.000000 1.721130 
# 
# From -- ./inp_files/15217.got.cif
#   From: 2010.03.12/outbox.cif.g09.slc.cpg/sg3_8_cif.got.tgz:15217.got - 2010.03.31 09:20:49.
