data_PCOD8044432
_publ_section_title
;
Structure prediction by ZEFSAII (Michael W. Deem and Ramdas Pophale) SiO2 
 PCOD8044432
Probable space group: P -1
;
_chemical_formula_sum "Si O2"
_cell_formula_units_Z 16
_cell_length_a 14.784873
_cell_length_b 9.246295
_cell_length_c 14.448723
_cell_angle_alpha 95.868209
_cell_angle_beta 28.036230
_cell_angle_gamma 104.032503
_cell_volume 873.226350
_symmetry_space_group_name_H-M "P -1"
_symmetry_group_IT_number 2
_symmetry_cell_setting 'triclinic'
loop_
_space_group_symop_operation_xyz
x,y,z
-x,-y,-z
loop_
_atom_site_type_symbol
_atom_site_label
_atom_site_fract_x
_atom_site_fract_y
_atom_site_fract_z
Si Si1 0.425296 0.354137 0.624016
Si Si2 0.837284 0.015655 0.910079
Si Si3 0.967733 0.708715 0.114842
Si Si4 0.368333 0.351279 0.055665
Si Si5 0.460956 0.918537 0.128724
Si Si6 0.846531 0.354760 0.239538
Si Si7 0.788063 0.692444 0.002355
Si Si8 0.981817 0.092845 0.433149
O O1 0.500000 0.500000 0.500000
O O2 0.222759 0.242704 0.749075
O O3 0.603815 0.279474 0.473466
O O4 0.352810 0.397943 0.791989
O O5 0.928870 0.173881 0.890912
O O6 0.795515 0.869948 0.006662
O O7 0.987211 0.997666 0.692031
O O8 0.627089 0.022765 0.056779
O O9 0.898565 0.538142 0.207836
O O10 0.121556 0.713130 0.892706
O O11 0.310428 0.394475 0.008336
O O12 0.155942 0.260128 0.292736
O O13 0.500000 0.500000 0.000000
O O14 0.511451 0.246642 0.914274
O O15 0.239246 0.890314 0.369050
O O16 0.500000 0.000000 0.000000
O O17 0.981369 0.310547 0.193865
O O18 0.000000 0.000000 0.500000
#
# Coordination Sequence:
#
# PCOD8044432 Si02
#       8
#     2   2   2   2   2   2   2   2
#     4   9  18  35  56  77 110 148 185 229 285 343
#     4  10  22  35  57  85 115 145 199 240 287 344
#     4   9  19  36  53  84 107 143 190 236 281 344
#     4  10  23  39  58  92 121 150 199 252 292 344
#     4  10  19  38  61  80 115 160 194 240 298 346
#     4   9  18  35  57  74 114 146 182 233 292 340
#     4   9  20  37  53  79 117 147 180 240 290 335
#     4  10  19  40  60  79 116 157 196 239 291 347
#
# _framework density 18.322855000000001
#
# number of rings (size 3 to 8) (size 9 to 14) (size 15 to 20)
#    0.000    2.750    2.500    0.750    0.000    8.500 
#    4.500    1.250    0.000    0.000    0.000    0.000 
#    0.000    0.000    0.000    0.000    0.000    0.000 
#
# Total GULP energy -198290.028615 kJ/mol
# GULP energy per Si atom -12393.126788 kJ/mol
# Density = 1.828115 g / cm^3
# Si number density = 18.322855 Si / 1000 Ang^3
#
#
#
# Elastic Constant Matrix: (Units=GPa)
#
#
# Indices 1 2 3 4 5 6 
#
# 1 150.5005 67.1401 69.4296 0.0507 -16.7148 5.6691
# 2 67.1401 78.2434 43.5830 2.9286 -11.7976 24.3442
# 3 69.4296 43.5830 148.3681 12.5663 -22.8910 3.5330
# 4 0.0507 2.9286 12.5663 22.7716 -13.4458 -6.5805
# 5 -16.7148 -11.7976 -22.8910 -13.4458 41.9782 -1.2842
# 6 5.6691 24.3442 3.5330 -6.5805 -1.2842 42.1569
#
#
#
# Elastic Compliance Matrix: (Units=1/GPa)
#
#
# Indices 1 2 3 4 5 6 
#
# 1 0.013211 -0.011340 -0.003141 0.006482 0.002624 0.006127
# 2 -0.011340 0.029036 -0.002281 -0.007416 -0.000471 -0.016223
# 3 -0.003141 -0.002281 0.009503 -0.003527 0.002175 0.000459
# 4 0.006482 -0.007416 -0.003527 0.061960 0.018846 0.013952
# 5 0.002624 -0.000471 0.002175 0.018846 0.032069 0.003655
# 6 0.006127 -0.016223 0.000459 0.013952 0.003655 0.034516
#
#
# Mechanical properties :
#
#
# Convention : Reuss Voigt Hill
#
# Bulk Modulus (GPa) = 54.86511 81.93527 68.40019
# Shear Modulus (GPa) = 22.73821 34.51196 28.62509
#
# Velocity S-wave (km/s) = 3.52657 4.34469 3.95683
# Velocity P-wave (km/s) = 6.82575 8.36559 7.63459
#
# Compressibility (1/GPa) = 0.01822652
#
# Stress axis : x y z
#
# Youngs Moduli (GPa) = 75.69563 34.44016 105.22695
#
# Poissons Ratio (x) = 0.39054 0.33053
# Poissons Ratio (y) = 0.85836 0.24002
# Poissons Ratio (z) = 0.23777 0.07856
#
# Static dielectric constant tensor:
#      x y z
#    x 3.695750 -0.263050 -0.436280 
#    y -0.263050 3.083770 0.246910 
#    z -0.436280 0.246910 4.378050 
# 
# 
# High freq. dielectric constant tensor:
#      x y z
#    x 1.725730 -0.015490 -0.008100 
#    y -0.015490 1.679040 0.006430 
#    z -0.008100 0.006430 1.718370 
# 
# From -- ./inp_files/527506.got.cif
#   From: 2010.06.25/outbox.cif.g09.slc.cpg/sg2_264_cif.got.tgz:527506.got - 2010.06.27 13:26:56.
