data_PCOD8044392
_publ_section_title
;
Structure prediction by ZEFSAII (Michael W. Deem and Ramdas Pophale) SiO2 
 PCOD8044392
Probable space group: P -1
;
_chemical_formula_sum "Si O2"
_cell_formula_units_Z 16
_cell_length_a 9.809889
_cell_length_b 29.613602
_cell_length_c 16.165162
_cell_angle_alpha 161.922556
_cell_angle_beta 136.922501
_cell_angle_gamma 35.683918
_cell_volume 827.116107
_symmetry_space_group_name_H-M "P -1"
_symmetry_group_IT_number 2
_symmetry_cell_setting 'triclinic'
loop_
_space_group_symop_operation_xyz
x,y,z
-x,-y,-z
loop_
_atom_site_type_symbol
_atom_site_label
_atom_site_fract_x
_atom_site_fract_y
_atom_site_fract_z
Si Si1 0.128740 0.883977 0.434467
Si Si2 0.551537 0.298177 0.468054
Si Si3 0.527122 0.271839 0.059518
Si Si4 0.543830 0.582262 0.541345
Si Si5 0.424780 0.455473 0.974241
Si Si6 0.024204 0.366305 0.005048
Si Si7 0.049896 0.037993 0.843433
Si Si8 0.071046 0.363376 0.426847
O O1 0.413018 0.755626 0.314338
O O2 0.105882 0.000623 0.705679
O O3 0.000000 0.000000 0.500000
O O4 0.020045 0.769195 0.205592
O O5 0.605630 0.299919 0.398297
O O6 0.310044 0.301645 0.374724
O O7 0.776131 0.132404 0.322563
O O8 0.509622 0.472259 0.792864
O O9 0.484874 0.438514 0.282069
O O10 0.536253 0.290428 0.194437
O O11 0.302880 0.259202 0.915688
O O12 0.775950 0.095573 0.836030
O O13 0.828398 0.486311 0.480334
O O14 0.138013 0.546781 0.998499
O O15 0.500000 0.500000 0.000000
O O16 0.948639 0.532195 0.317915
O O17 0.082757 0.188773 0.152660
#
# Coordination Sequence:
#
# PCOD8044392 Si02
#       8
#     2   2   2   2   2   2   2   2
#     4  11  23  38  61  90 120 148 188 247 297 341
#     4  12  20  36  61  90 119 151 194 245 300 339
#     4   9  21  40  57  82 118 160 201 229 285 348
#     4   9  21  37  59  85 115 157 196 243 286 345
#     4  10  19  38  60  84 119 154 187 234 299 353
#     4  10  19  42  64  78 120 167 187 232 292 354
#     4  11  23  37  58  93 121 151 193 247 288 337
#     4  10  20  36  63  88 116 151 195 241 296 348
#
# _framework density 19.34432
#
# number of rings (size 3 to 8) (size 9 to 14) (size 15 to 20)
#    0.000    1.750    5.000    1.500    3.500    3.000 
#    0.000    1.875    0.000    0.000    0.000    0.000 
#    0.000    0.000    0.000    0.000    0.000    0.000 
#
# Total GULP energy -198349.055444 kJ/mol
# GULP energy per Si atom -12396.815965 kJ/mol
# Density = 1.930029 g / cm^3
# Si number density = 19.344320 Si / 1000 Ang^3
#
#
#
# Elastic Constant Matrix: (Units=GPa)
#
#
# Indices 1 2 3 4 5 6 
#
# 1 78.1145 56.8302 21.9254 5.8984 -3.6605 -8.2744
# 2 56.8302 127.3930 28.7209 15.2078 1.3607 5.5864
# 3 21.9254 28.7209 79.8076 4.0161 -2.8484 -4.6734
# 4 5.8984 15.2078 4.0161 31.4734 -8.1719 2.4085
# 5 -3.6605 1.3607 -2.8484 -8.1719 18.8839 -1.7897
# 6 -8.2744 5.5864 -4.6734 2.4085 -1.7897 37.6276
#
#
#
# Elastic Compliance Matrix: (Units=1/GPa)
#
#
# Indices 1 2 3 4 5 6 
#
# 1 0.021002 -0.009502 -0.001891 0.001970 0.005887 0.005948
# 2 -0.009502 0.013580 -0.002460 -0.005713 -0.006074 -0.004334
# 3 -0.001891 -0.002460 0.014109 0.000172 0.002183 0.001795
# 4 0.001970 -0.005713 0.000172 0.038724 0.017544 -0.000342
# 5 0.005887 -0.006074 0.002183 0.017544 0.062866 0.004335
# 6 0.005948 -0.004334 0.001795 -0.000342 0.004335 0.028979
#
#
# Mechanical properties :
#
#
# Convention : Reuss Voigt Hill
#
# Bulk Modulus (GPa) = 47.65056 55.58535 51.61795
# Shear Modulus (GPa) = 23.36871 29.45287 26.41079
#
# Velocity S-wave (km/s) = 3.47946 3.90623 3.69900
# Velocity P-wave (km/s) = 6.38972 7.01013 6.70710
#
# Compressibility (1/GPa) = 0.02098611
#
# Stress axis : x y z
#
# Youngs Moduli (GPa) = 47.61347 73.63816 70.87527
#
# Poissons Ratio (x) = 0.69969 0.13404
# Poissons Ratio (y) = 0.45241 0.17434
# Poissons Ratio (z) = 0.09005 0.18114
#
# Static dielectric constant tensor:
#      x y z
#    x 3.460410 -0.350290 -0.131460 
#    y -0.350290 3.914050 0.053750 
#    z -0.131460 0.053750 3.642340 
# 
# 
# High freq. dielectric constant tensor:
#      x y z
#    x 1.728460 -0.013740 -0.009060 
#    y -0.013740 1.762350 0.000000 
#    z -0.009060 0.000000 1.750110 
# 
# From -- ./inp_files/261496.got.cif
#   From: 2010.06.25/outbox.cif.g09.slc.cpg/sg2_131_cif.got.tgz:261496.got - 2010.06.27 13:26:56.
