data_PCOD8044257
_publ_section_title
;
Structure prediction by ZEFSAII (Michael W. Deem and Ramdas Pophale) SiO2 
 PCOD8044257
Probable space group: P -1
;
_chemical_formula_sum "Si O2"
_cell_formula_units_Z 14
_cell_length_a 11.539275
_cell_length_b 9.367996
_cell_length_c 9.274023
_cell_angle_alpha 79.146442
_cell_angle_beta 40.249520
_cell_angle_gamma 76.907086
_cell_volume 630.718504
_symmetry_space_group_name_H-M "P -1"
_symmetry_group_IT_number 2
_symmetry_cell_setting 'triclinic'
loop_
_space_group_symop_operation_xyz
x,y,z
-x,-y,-z
loop_
_atom_site_type_symbol
_atom_site_label
_atom_site_fract_x
_atom_site_fract_y
_atom_site_fract_z
Si Si1 0.792573 0.280203 0.439137
Si Si2 0.536233 0.563982 0.109637
Si Si3 0.812724 0.795050 0.817959
Si Si4 0.356222 0.138897 0.576442
Si Si5 0.823080 0.954046 0.489961
Si Si6 0.813014 0.010853 0.009899
Si Si7 0.350124 0.693051 0.745307
O O1 0.659265 0.391952 0.640278
O O2 0.767924 0.314724 0.284952
O O3 0.003486 0.292415 0.271461
O O4 0.736365 0.121638 0.565944
O O5 0.653233 0.448534 0.125755
O O6 0.500000 0.500000 0.000000
O O7 0.658052 0.694543 0.952431
O O8 0.882342 0.866328 0.593704
O O9 0.725598 0.933115 0.971785
O O10 0.311274 0.139075 0.449510
O O11 0.442484 0.287622 0.503477
O O12 0.500000 0.000000 0.500000
O O13 0.183331 0.113466 0.843551
O O14 0.986305 0.966467 0.223759
O O15 0.708085 0.167064 0.123626
#
# Coordination Sequence:
#
# PCOD8044257 Si02
#       7
#     2   2   2   2   2   2   2
#     4  11  24  46  69 100 138 173 232 280 333 402
#     4  12  29  48  67  97 140 187 226 272 339 406
#     4  11  27  44  71 101 137 180 222 282 341 394
#     4  10  19  37  66  99 131 172 217 276 333 392
#     4  11  22  41  66 105 137 168 222 288 333 391
#     4  10  21  40  70 102 129 170 226 275 340 394
#     4  11  24  44  68 103 136 177 223 278 334 407
#
# _framework density 22.196905999999998
#
# number of rings (size 3 to 8) (size 9 to 14) (size 15 to 20)
#    0.000    1.143    2.857    4.286    8.000    1.714 
#    2.571    0.000    0.000    0.000    0.000    0.000 
#    0.000    0.000    0.000    0.000    0.000    0.000 
#
# Total GULP energy -173473.810965 kJ/mol
# GULP energy per Si atom -12390.986497 kJ/mol
# Density = 2.214639 g / cm^3
# Si number density = 22.196906 Si / 1000 Ang^3
#
#
#
# Elastic Constant Matrix: (Units=GPa)
#
#
# Indices 1 2 3 4 5 6 
#
# 1 137.9481 47.8919 46.9788 2.9497 28.6595 3.9611
# 2 47.8919 60.0240 45.5716 3.5047 3.9698 -2.9166
# 3 46.9788 45.5716 98.2120 12.7809 16.6241 5.2826
# 4 2.9497 3.5047 12.7809 36.5900 -1.3680 4.0540
# 5 28.6595 3.9698 16.6241 -1.3680 26.1459 -6.3465
# 6 3.9611 -2.9166 5.2826 4.0540 -6.3465 33.4002
#
#
#
# Elastic Compliance Matrix: (Units=1/GPa)
#
#
# Indices 1 2 3 4 5 6 
#
# 1 0.014524 -0.012278 0.002029 -0.000643 -0.016897 -0.006248
# 2 -0.012278 0.037618 -0.016003 0.002543 0.020700 0.010897
# 3 0.002029 -0.016003 0.020193 -0.005461 -0.014606 -0.006944
# 4 -0.000643 0.002543 -0.005461 0.029393 0.004975 -0.001460
# 5 -0.016897 0.020700 -0.014606 0.004975 0.067631 0.018368
# 6 -0.006248 0.010897 -0.006944 -0.001460 0.018368 0.036398
#
#
# Mechanical properties :
#
#
# Convention : Reuss Voigt Hill
#
# Bulk Modulus (GPa) = 50.42202 64.11872 57.27037
# Shear Modulus (GPa) = 18.87706 29.61001 24.24353
#
# Velocity S-wave (km/s) = 2.91939 3.65632 3.30844
# Velocity P-wave (km/s) = 5.84199 6.83915 6.36014
#
# Compressibility (1/GPa) = 0.01983261
#
# Stress axis : x y z
#
# Youngs Moduli (GPa) = 68.85124 26.58293 49.52128
#
# Poissons Ratio (x) = 0.32638 -0.10050
# Poissons Ratio (y) = 0.84534 0.79250
# Poissons Ratio (z) = -0.13973 0.42541
#
# Static dielectric constant tensor:
#      x y z
#    x 4.066330 0.195660 0.049590 
#    y 0.195660 4.030650 -0.060380 
#    z 0.049590 -0.060380 4.769760 
# 
# 
# High freq. dielectric constant tensor:
#      x y z
#    x 1.884090 0.013020 0.007770 
#    y 0.013020 1.853640 -0.005510 
#    z 0.007770 -0.005510 1.881790 
# 
# From -- ./inp_files/154707.got.cif
#   From: 2010.06.25/outbox.cif.g09.slc.cpg/sg2_78_cif.got.tgz:154707.got - 2010.06.27 13:26:56.
