data_PCOD8044479
_publ_section_title
;
Structure prediction by ZEFSAII (Michael W. Deem and Ramdas Pophale) SiO2 
 PCOD8044479
Probable space group: P -1
;
_chemical_formula_sum "Si O2"
_cell_formula_units_Z 16
_cell_length_a 14.388507
_cell_length_b 11.760611
_cell_length_c 11.319415
_cell_angle_alpha 119.843875
_cell_angle_beta 96.596102
_cell_angle_gamma 135.216170
_cell_volume 752.266143
_symmetry_space_group_name_H-M "P -1"
_symmetry_group_IT_number 2
_symmetry_cell_setting 'triclinic'
loop_
_space_group_symop_operation_xyz
x,y,z
-x,-y,-z
loop_
_atom_site_type_symbol
_atom_site_label
_atom_site_fract_x
_atom_site_fract_y
_atom_site_fract_z
Si Si1 0.299023 0.316394 0.024043
Si Si2 0.496933 0.442135 0.337131
Si Si3 0.808557 0.145286 0.955903
Si Si4 0.772513 0.250601 0.562581
Si Si5 0.892835 0.981405 0.539957
Si Si6 0.305744 0.109460 0.740630
Si Si7 0.102177 0.328582 0.961059
Si Si8 0.387904 0.921185 0.305419
O O1 0.386121 0.406439 0.214504
O O2 0.451462 0.568607 0.077689
O O3 0.231285 0.090693 0.840409
O O4 0.122949 0.206801 0.954063
O O5 0.500000 0.500000 0.500000
O O6 0.727840 0.711535 0.465523
O O7 0.384336 0.160337 0.163257
O O8 0.718156 0.146661 0.859162
O O9 0.901405 0.142700 0.892432
O O10 0.985149 0.415577 0.211572
O O11 0.677421 0.079823 0.586259
O O12 0.752276 0.117112 0.386378
O O13 0.635625 0.208174 0.479847
O O14 0.801519 0.967779 0.429027
O O15 0.000000 0.000000 0.500000
O O16 0.064274 0.274314 0.787988
O O17 0.300456 0.665733 0.184162
#
# Coordination Sequence:
#
# PCOD8044479 Si02
#       8
#     2   2   2   2   2   2   2   2
#     4  10  22  36  62  93 123 166 210 267 318 377
#     4  11  25  42  60  90 138 169 207 268 328 390
#     4  11  23  40  59  92 132 174 207 257 331 389
#     4  10  20  36  62  92 123 170 215 267 314 379
#     4  11  21  37  65  96 122 166 214 262 326 379
#     4  10  19  38  61  91 128 157 214 273 312 369
#     4  11  19  38  62  97 123 161 222 266 316 376
#     4  10  21  35  61  92 128 164 218 268 310 378
#
# _framework density 21.269068000000001
#
# number of rings (size 3 to 8) (size 9 to 14) (size 15 to 20)
#    0.000    1.500    3.750    3.000    1.750    0.500 
#    2.250    0.625    0.000    5.250    0.000    0.000 
#    0.000    0.000    0.000    0.000    0.000    0.000 
#
# Total GULP energy -198266.488438 kJ/mol
# GULP energy per Si atom -12391.655527 kJ/mol
# Density = 2.122066 g / cm^3
# Si number density = 21.269068 Si / 1000 Ang^3
#
#
#
# Elastic Constant Matrix: (Units=GPa)
#
#
# Indices 1 2 3 4 5 6 
#
# 1 117.8636 25.0089 45.3710 -8.2865 -3.4017 -3.1074
# 2 25.0089 56.8600 22.4680 -5.2292 4.3663 -0.5691
# 3 45.3710 22.4680 112.7552 -10.6724 1.9410 -0.9989
# 4 -8.2865 -5.2292 -10.6724 27.0223 0.4679 -3.6982
# 5 -3.4017 4.3663 1.9410 0.4679 42.4457 -6.7033
# 6 -3.1074 -0.5691 -0.9989 -3.6982 -6.7033 18.4293
#
#
#
# Elastic Compliance Matrix: (Units=1/GPa)
#
#
# Indices 1 2 3 4 5 6 
#
# 1 0.010773 -0.003305 -0.003535 0.001576 0.001738 0.002471
# 2 -0.003305 0.020385 -0.002516 0.001905 -0.002353 -0.000538
# 3 -0.003535 -0.002516 0.011074 0.002855 -0.000513 0.000313
# 4 0.001576 0.001905 0.002855 0.040179 0.000749 0.008814
# 5 0.001738 -0.002353 -0.000513 0.000749 0.025473 0.009608
# 6 0.002471 -0.000538 0.000313 0.008814 0.009608 0.059942
#
#
# Mechanical properties :
#
#
# Convention : Reuss Voigt Hill
#
# Bulk Modulus (GPa) = 42.51714 52.57494 47.54604
# Shear Modulus (GPa) = 25.72293 30.55486 28.13890
#
# Velocity S-wave (km/s) = 3.48142 3.79435 3.64125
# Velocity P-wave (km/s) = 6.01614 6.63089 6.33098
#
# Compressibility (1/GPa) = 0.02351993
#
# Stress axis : x y z
#
# Youngs Moduli (GPa) = 92.82856 49.05460 90.29864
#
# Poissons Ratio (x) = 0.16213 0.31921
# Poissons Ratio (y) = 0.30681 0.22720
# Poissons Ratio (z) = 0.32815 0.12343
#
# Static dielectric constant tensor:
#      x y z
#    x 3.797960 0.175020 0.016380 
#    y 0.175020 3.420480 0.016160 
#    z 0.016380 0.016160 4.062340 
# 
# 
# High freq. dielectric constant tensor:
#      x y z
#    x 1.835730 -0.002320 0.004840 
#    y -0.002320 1.779280 -0.007560 
#    z 0.004840 -0.007560 1.857700 
# 
# From -- ./inp_files/451641.got.cif
#   From: 2010.06.25/outbox.cif.g09.slc.cpg/sg2_226_cif.got.tgz:451641.got - 2010.06.27 13:26:56.
