data_PCOD8044569
_publ_section_title
;
Structure prediction by ZEFSAII (Michael W. Deem and Ramdas Pophale) SiO2 
 PCOD8044569
Probable space group: P -1
;
_chemical_formula_sum "Si O2"
_cell_formula_units_Z 16
_cell_length_a 21.706364
_cell_length_b 14.287440
_cell_length_c 8.897785
_cell_angle_alpha 53.444819
_cell_angle_beta 126.610396
_cell_angle_gamma 158.848407
_cell_volume 791.837296
_symmetry_space_group_name_H-M "P -1"
_symmetry_group_IT_number 2
_symmetry_cell_setting 'triclinic'
loop_
_space_group_symop_operation_xyz
x,y,z
-x,-y,-z
loop_
_atom_site_type_symbol
_atom_site_label
_atom_site_fract_x
_atom_site_fract_y
_atom_site_fract_z
Si Si1 0.337686 0.803152 0.345763
Si Si2 0.535652 0.566183 0.314937
Si Si3 0.179385 0.008979 0.313193
Si Si4 0.036404 0.628240 0.685498
Si Si5 0.697128 0.001642 0.018257
Si Si6 0.944257 0.249300 0.914148
Si Si7 0.148733 0.366383 0.318079
Si Si8 0.140878 0.112581 0.436388
O O1 0.317781 0.659769 0.351301
O O2 0.155785 0.577886 0.383755
O O3 0.500000 0.000000 0.500000
O O4 0.378571 0.971633 0.141032
O O5 0.500000 0.500000 0.500000
O O6 0.545415 0.715511 0.140098
O O7 0.722183 0.762609 0.370120
O O8 0.375907 0.284758 0.271241
O O9 0.150817 0.853738 0.516692
O O10 0.064982 0.848480 0.150113
O O11 0.141993 0.070387 0.305327
O O12 0.034547 0.491960 0.759997
O O13 0.131335 0.763703 0.854214
O O14 0.756600 0.028877 0.918377
O O15 0.050063 0.331304 0.118850
O O16 0.189306 0.315284 0.312766
O O17 0.044268 0.169393 0.494654
#
# Coordination Sequence:
#
# PCOD8044569 Si02
#       8
#     2   2   2   2   2   2   2   2
#     4  11  22  38  66  96 122 153 208 268 305 354
#     4  10  19  38  63  88 119 159 208 253 303 357
#     4  11  22  37  61  91 126 157 207 259 304 359
#     4  11  19  41  66  87 119 166 208 248 310 374
#     4  11  19  40  68  89 118 166 211 247 307 373
#     4  11  21  35  63  93 115 161 213 251 299 371
#     4  11  20  40  61  85 120 168 202 244 311 373
#     4  10  21  37  62  83 123 168 199 247 306 370
#
# _framework density 20.206171000000001
#
# number of rings (size 3 to 8) (size 9 to 14) (size 15 to 20)
#    0.000    1.250    7.500    1.125    0.000    3.000 
#    4.500    2.500    0.000    4.500    0.000    0.000 
#    0.000    0.000    0.000    0.000    0.000    0.000 
#
# Total GULP energy -198285.277880 kJ/mol
# GULP energy per Si atom -12392.829867 kJ/mol
# Density = 2.016018 g / cm^3
# Si number density = 20.206171 Si / 1000 Ang^3
#
#
#
# Elastic Constant Matrix: (Units=GPa)
#
#
# Indices 1 2 3 4 5 6 
#
# 1 91.2167 47.9075 31.2975 3.3798 1.3839 -35.9375
# 2 47.9075 126.3578 64.3491 -11.9100 8.2532 -23.2470
# 3 31.2975 64.3491 93.6023 -7.5528 10.7850 -15.2405
# 4 3.3798 -11.9100 -7.5528 44.1379 -7.3118 1.0989
# 5 1.3839 8.2532 10.7850 -7.3118 30.6642 -0.3520
# 6 -35.9375 -23.2470 -15.2405 1.0989 -0.3520 34.1449
#
#
#
# Elastic Compliance Matrix: (Units=1/GPa)
#
#
# Indices 1 2 3 4 5 6 
#
# 1 0.021259 -0.004159 -0.001439 -0.003460 0.000059 0.019013
# 2 -0.004159 0.013987 -0.007722 0.002698 -0.000199 0.001609
# 3 -0.001439 -0.007722 0.017062 0.000301 -0.003777 0.000795
# 4 -0.003460 0.002698 0.000301 0.024617 0.005166 -0.002409
# 5 0.000059 -0.000199 -0.003777 0.005166 0.035204 -0.001562
# 6 0.019013 0.001609 0.000795 -0.002409 -0.001562 0.050810
#
#
# Mechanical properties :
#
#
# Convention : Reuss Voigt Hill
#
# Bulk Modulus (GPa) = 38.96035 66.47610 52.71823
# Shear Modulus (GPa) = 25.23495 32.96426 29.09960
#
# Velocity S-wave (km/s) = 3.53777 4.04344 3.79903
# Velocity P-wave (km/s) = 6.00092 7.40064 6.73723
#
# Compressibility (1/GPa) = 0.02566712
#
# Stress axis : x y z
#
# Youngs Moduli (GPa) = 47.03805 71.49437 58.60820
#
# Poissons Ratio (x) = 0.29737 0.08435
# Poissons Ratio (y) = 0.19565 0.45259
# Poissons Ratio (z) = 0.06770 0.55210
#
# Static dielectric constant tensor:
#      x y z
#    x 3.646030 -0.099620 0.163070 
#    y -0.099620 4.285200 -0.060120 
#    z 0.163070 -0.060120 3.629100 
# 
# 
# High freq. dielectric constant tensor:
#      x y z
#    x 1.767070 -0.023800 0.004740 
#    y -0.023800 1.792580 -0.016420 
#    z 0.004740 -0.016420 1.781170 
# 
# From -- ./inp_files/204329.got.cif
#   From: 2010.06.25/outbox.cif.g09.slc.cpg/sg2_103_cif.got.tgz:204329.got - 2010.06.27 13:26:56.
