data_PCOD8044047
_publ_section_title
;
Structure prediction by ZEFSAII (Michael W. Deem and Ramdas Pophale) SiO2 
 PCOD8044047
Probable space group: P -1
;
_chemical_formula_sum "Si O2"
_cell_formula_units_Z 16
_cell_length_a 15.019611
_cell_length_b 23.215907
_cell_length_c 8.621399
_cell_angle_alpha 146.174428
_cell_angle_beta 125.538469
_cell_angle_gamma 31.467645
_cell_volume 785.271569
_symmetry_space_group_name_H-M "P -1"
_symmetry_group_IT_number 2
_symmetry_cell_setting 'triclinic'
loop_
_space_group_symop_operation_xyz
x,y,z
-x,-y,-z
loop_
_atom_site_type_symbol
_atom_site_label
_atom_site_fract_x
_atom_site_fract_y
_atom_site_fract_z
Si Si1 0.139851 0.479912 0.145540
Si Si2 0.484718 0.273240 0.835746
Si Si3 0.374324 0.577207 0.266424
Si Si4 0.664272 0.644609 0.642542
Si Si5 0.074864 0.152061 0.142212
Si Si6 0.438164 0.932498 0.823679
Si Si7 0.775531 0.341552 0.026153
Si Si8 0.308521 0.838507 0.900237
O O1 0.224576 0.375826 0.161900
O O2 0.049348 0.663018 0.487655
O O3 0.306359 0.351631 0.901608
O O4 0.000000 0.500000 0.000000
O O5 0.584397 0.124586 0.475319
O O6 0.394381 0.449140 0.074583
O O7 0.650136 0.161030 0.880080
O O8 0.587676 0.442790 0.140147
O O9 0.286046 0.730631 0.637263
O O10 0.227129 0.696195 0.238074
O O11 0.620018 0.753901 0.702451
O O12 0.790371 0.454038 0.278947
O O13 0.480597 0.733008 0.726411
O O14 0.955861 0.174548 0.946055
O O15 0.250924 0.069848 0.047598
O O16 0.130602 0.034529 0.079998
O O17 0.500000 0.000000 0.000000
#
# Coordination Sequence:
#
# PCOD8044047 Si02
#       8
#     2   2   2   2   2   2   2   2
#     4  10  21  40  62  83 116 163 201 239 297 355
#     4  11  22  40  61  89 118 156 205 239 288 361
#     4  10  19  37  63  85 117 164 199 226 299 365
#     4   8  17  37  57  79 114 161 192 225 294 372
#     4  10  22  41  58  89 123 152 199 247 296 348
#     4  11  22  39  61  88 118 154 200 253 295 337
#     4   9  18  36  62  84 115 161 195 232 291 364
#     4   9  20  36  59  84 121 156 184 241 300 354
#
# _framework density 20.375118000000001
#
# number of rings (size 3 to 8) (size 9 to 14) (size 15 to 20)
#    0.000    2.250    1.250    1.875    1.750    1.500 
#    4.500    6.875    0.000    0.000    0.000    0.000 
#    0.000    0.000    0.000    0.000    0.000    0.000 
#
# Total GULP energy -198248.681916 kJ/mol
# GULP energy per Si atom -12390.542620 kJ/mol
# Density = 2.032874 g / cm^3
# Si number density = 20.375118 Si / 1000 Ang^3
#
#
#
# Elastic Constant Matrix: (Units=GPa)
#
#
# Indices 1 2 3 4 5 6 
#
# 1 45.3968 32.3382 15.1360 -13.2916 10.7166 10.3025
# 2 32.3382 149.9499 23.9000 -13.6088 12.5374 16.4663
# 3 15.1360 23.9000 66.5889 -11.4922 5.8420 12.7813
# 4 -13.2916 -13.6088 -11.4922 28.2233 -3.0118 3.3064
# 5 10.7166 12.5374 5.8420 -3.0118 29.6950 1.3661
# 6 10.3025 16.4663 12.7813 3.3064 1.3661 33.9694
#
#
#
# Elastic Compliance Matrix: (Units=1/GPa)
#
#
# Indices 1 2 3 4 5 6 
#
# 1 0.033151 -0.004108 -0.001443 0.013159 -0.008221 -0.008471
# 2 -0.004108 0.008288 -0.001141 0.001723 -0.001505 -0.002449
# 3 -0.001443 -0.001141 0.018322 0.006820 -0.001611 -0.006502
# 4 0.013159 0.001723 0.006820 0.046459 -0.001561 -0.011852
# 5 -0.008221 -0.001505 -0.001611 -0.001561 0.037323 0.002480
# 6 -0.008471 -0.002449 -0.006502 -0.011852 0.002480 0.036695
#
#
# Mechanical properties :
#
#
# Convention : Reuss Voigt Hill
#
# Bulk Modulus (GPa) = 21.56252 44.96490 33.26371
# Shear Modulus (GPa) = 23.91434 31.08162 27.49798
#
# Velocity S-wave (km/s) = 3.42965 3.90996 3.67766
# Velocity P-wave (km/s) = 5.12729 6.51922 5.86469
#
# Compressibility (1/GPa) = 0.04637678
#
# Stress axis : x y z
#
# Youngs Moduli (GPa) = 30.16496 120.65851 54.58056
#
# Poissons Ratio (x) = 0.49561 0.07876
# Poissons Ratio (y) = 0.12390 0.06230
# Poissons Ratio (z) = 0.04353 0.13772
#
# Static dielectric constant tensor:
#      x y z
#    x 3.505700 0.251490 0.058630 
#    y 0.251490 4.145590 -0.072770 
#    z 0.058630 -0.072770 3.711400 
# 
# 
# High freq. dielectric constant tensor:
#      x y z
#    x 1.779550 0.011460 0.006420 
#    y 0.011460 1.811260 -0.010320 
#    z 0.006420 -0.010320 1.788380 
# 
# From -- ./inp_files/298280.got.cif
#   From: 2010.06.25/outbox.cif.g09.slc.cpg/sg2_150_cif.got.tgz:298280.got - 2010.06.27 13:26:56.
