data_PCOD8044331
_publ_section_title
;
Structure prediction by ZEFSAII (Michael W. Deem and Ramdas Pophale) SiO2 
 PCOD8044331
Probable space group: P -1
;
_chemical_formula_sum "Si O2"
_cell_formula_units_Z 14
_cell_length_a 7.152064
_cell_length_b 18.845260
_cell_length_c 19.598750
_cell_angle_alpha 21.669312
_cell_angle_beta 35.865355
_cell_angle_gamma 42.590141
_cell_volume 569.718903
_symmetry_space_group_name_H-M "P -1"
_symmetry_group_IT_number 2
_symmetry_cell_setting 'triclinic'
loop_
_space_group_symop_operation_xyz
x,y,z
-x,-y,-z
loop_
_atom_site_type_symbol
_atom_site_label
_atom_site_fract_x
_atom_site_fract_y
_atom_site_fract_z
Si Si1 0.801859 0.879385 0.568599
Si Si2 0.311619 0.782537 0.019494
Si Si3 0.769772 0.374802 0.060292
Si Si4 0.589912 0.715087 0.259613
Si Si5 0.385646 0.838248 0.345454
Si Si6 0.070091 0.277220 0.190717
Si Si7 0.557294 0.582489 0.246917
O O1 0.427251 0.838492 0.693877
O O2 0.923585 0.713907 0.735459
O O3 0.019686 0.860721 0.453994
O O4 0.856208 0.082535 0.408170
O O5 0.566572 0.737890 0.926383
O O6 0.382532 0.995063 0.838845
O O7 0.320316 0.624084 0.218554
O O8 0.968456 0.765522 0.102775
O O9 0.880600 0.426855 0.061295
O O10 0.500000 0.500000 0.000000
O O11 0.075677 0.366326 0.929930
O O12 0.500000 0.500000 0.500000
O O13 0.412089 0.850781 0.243576
O O14 0.484255 0.728822 0.199643
O O15 0.508538 0.638349 0.514264
#
# Coordination Sequence:
#
# PCOD8044331 Si02
#       7
#     2   2   2   2   2   2   2
#     4  10  19  38  57  83 124 147 198 241 286 357
#     4  10  21  41  63  84 121 155 196 246 295 353
#     4  11  20  35  59  84 118 151 192 241 291 348
#     4  10  22  40  63  87 119 153 200 247 295 349
#     4  10  21  39  60  88 118 157 199 240 290 354
#     4   9  21  36  59  87 112 159 190 239 302 345
#     4  10  22  41  59  89 119 157 196 243 301 344
#
# _framework density 24.573521
#
# number of rings (size 3 to 8) (size 9 to 14) (size 15 to 20)
#    0.000    2.000    1.429    1.714    0.000    3.429 
#    2.571    4.286    0.000    0.000    0.000    0.000 
#    0.000    0.000    0.000    0.000    0.000    0.000 
#
# Total GULP energy -173545.009289 kJ/mol
# GULP energy per Si atom -12396.072092 kJ/mol
# Density = 2.451759 g / cm^3
# Si number density = 24.573521 Si / 1000 Ang^3
#
#
#
# Elastic Constant Matrix: (Units=GPa)
#
#
# Indices 1 2 3 4 5 6 
#
# 1 79.3459 30.8217 1.5365 6.8480 -4.5028 21.4152
# 2 30.8217 86.9145 20.2517 12.6847 0.9972 26.4632
# 3 1.5365 20.2517 61.9739 -3.9347 -10.4831 6.3243
# 4 6.8480 12.6847 -3.9347 31.1359 1.7709 9.7882
# 5 -4.5028 0.9972 -10.4831 1.7709 32.9825 -2.5067
# 6 21.4152 26.4632 6.3243 9.7882 -2.5067 37.8887
#
#
#
# Elastic Compliance Matrix: (Units=1/GPa)
#
#
# Indices 1 2 3 4 5 6 
#
# 1 0.016068 -0.004344 0.002111 0.000349 0.002496 -0.006326
# 2 -0.004344 0.017401 -0.005590 -0.004169 -0.003273 -0.007905
# 3 0.002111 -0.005590 0.019370 0.004284 0.006292 -0.001212
# 4 0.000349 -0.004169 0.004284 0.036712 -0.001010 -0.007551
# 5 0.002496 -0.003273 0.006292 -0.001010 0.032985 0.002268
# 6 -0.006326 -0.007905 -0.001212 -0.007551 0.002268 0.037793
#
#
# Mechanical properties :
#
#
# Convention : Reuss Voigt Hill
#
# Bulk Modulus (GPa) = 26.88602 37.05045 31.96823
# Shear Modulus (GPa) = 26.54294 32.10971 29.32633
#
# Velocity S-wave (km/s) = 3.29012 3.61872 3.45833
# Velocity P-wave (km/s) = 5.03964 5.70704 5.38369
#
# Compressibility (1/GPa) = 0.03719405
#
# Stress axis : x y z
#
# Youngs Moduli (GPa) = 62.23454 57.46647 51.62548
#
# Poissons Ratio (x) = 0.24961 -0.10898
# Poissons Ratio (y) = 0.27032 0.28860
# Poissons Ratio (z) = -0.13138 0.32126
#
# Static dielectric constant tensor:
#      x y z
#    x 7.182840 0.280760 -0.780910 
#    y 0.280760 4.558190 -0.265270 
#    z -0.780910 -0.265270 5.953340 
# 
# 
# High freq. dielectric constant tensor:
#      x y z
#    x 1.988130 0.022880 0.002470 
#    y 0.022880 1.970160 -0.021850 
#    z 0.002470 -0.021850 2.013410 
# 
# From -- ./inp_files/116054.got.cif
#   From: 2010.06.25/outbox.cif.g09.slc.cpg/sg2_59_cif.got.tgz:116054.got - 2010.06.27 13:26:56.
