data_PCOD8044993
_publ_section_title
;
Structure prediction by ZEFSAII (Michael W. Deem and Ramdas Pophale) SiO2 
 PCOD8044993
Probable space group: P 2
;
_chemical_formula_sum "Si O2"
_cell_formula_units_Z 14
_cell_length_a 14.616958
_cell_length_b 7.813969
_cell_length_c 19.286731
_cell_angle_alpha 90.000000
_cell_angle_beta 159.896796
_cell_angle_gamma 90.000000
_cell_volume 757.150589
_symmetry_space_group_name_H-M "P 2"
_symmetry_group_IT_number 3
_symmetry_cell_setting 'monoclinic'
loop_
_space_group_symop_operation_xyz
x,y,z
-x,y,-z
loop_
_atom_site_type_symbol
_atom_site_label
_atom_site_fract_x
_atom_site_fract_y
_atom_site_fract_z
Si Si1 0.246888 0.875000 0.482340
Si Si2 0.739831 0.288747 0.354926
Si Si3 0.671542 0.563035 0.553771
Si Si4 0.231817 0.257997 0.464514
Si Si5 0.725594 0.889600 0.337896
Si Si6 0.335802 0.776857 0.948064
Si Si7 0.217114 0.437742 0.917529
O O1 0.385932 0.733851 0.532663
O O2 0.298409 0.831816 0.599463
O O3 0.350220 0.067301 0.538390
O O4 0.934799 0.882185 0.245657
O O5 0.472441 0.388215 0.143664
O O6 0.000000 0.362436 0.500000
O O7 0.777473 0.315628 0.462773
O O8 0.705036 0.091391 0.311829
O O9 0.500000 0.577294 0.500000
O O10 0.585446 0.394910 0.447475
O O11 0.985899 0.540157 0.797347
O O12 0.924563 0.272171 0.218277
O O13 0.480364 0.805484 0.123975
O O14 0.000000 0.820336 0.500000
O O15 0.293388 0.572161 0.911087
O O16 0.500000 0.847139 0.000000
#
# Coordination Sequence:
#
# PCOD8044993 Si02
#       7
#     2   2   2   2   2   2   2
#     4  10  20  38  58  83 112 152 188 238 280 341
#     4  10  21  34  55  85 117 156 187 221 277 342
#     4   9  21  41  61  85 107 147 197 243 303 336
#     4   9  21  38  58  83 118 147 190 236 285 333
#     4  10  20  34  53  82 117 156 189 223 273 337
#     4  11  21  31  53  81 120 156 189 224 280 333
#     4   9  22  35  54  83 114 147 185 239 275 337
#
# _framework density 18.490376999999999
#
# number of rings (size 3 to 8) (size 9 to 14) (size 15 to 20)
#    0.857    1.429    1.429    0.857    4.000    1.143 
#    0.000    0.714    0.000    0.000    0.000    0.000 
#    0.000    0.000    0.000    0.000    0.000    0.000 
#
# Total GULP energy -173472.859332 kJ/mol
# GULP energy per Si atom -12390.918524 kJ/mol
# Density = 1.844829 g / cm^3
# Si number density = 18.490377 Si / 1000 Ang^3
#
#
#
# Elastic Constant Matrix: (Units=GPa)
#
#
# Indices 1 2 3 4 5 6 
#
# 1 134.1064 58.3724 36.6524 0.0000 -11.7834 0.0000
# 2 58.3724 96.8313 20.8598 0.0000 -11.8396 0.0000
# 3 36.6524 20.8598 92.9835 0.0000 -15.8920 0.0000
# 4 0.0000 0.0000 0.0000 17.6473 0.0000 -6.4054
# 5 -11.7834 -11.8396 -15.8920 0.0000 20.5802 0.0000
# 6 0.0000 0.0000 0.0000 -6.4054 0.0000 14.9348
#
#
#
# Elastic Compliance Matrix: (Units=1/GPa)
#
#
# Indices 1 2 3 4 5 6 
#
# 1 0.010833 -0.005838 -0.002851 0.000000 0.000643 0.000000
# 2 -0.005838 0.014469 -0.000108 0.000000 0.004898 0.000000
# 3 -0.002851 -0.000108 0.013379 0.000000 0.008637 0.000000
# 4 0.000000 0.000000 0.000000 0.067114 0.000000 0.028785
# 5 0.000643 0.004898 0.008637 0.000000 0.058446 0.000000
# 6 0.000000 0.000000 0.000000 0.028785 0.000000 0.079303
#
#
# Mechanical properties :
#
#
# Convention : Reuss Voigt Hill
#
# Bulk Modulus (GPa) = 47.42015 61.74337 54.58176
# Shear Modulus (GPa) = 18.64526 24.50159 21.57342
#
# Velocity S-wave (km/s) = 3.17894 3.64414 3.41946
# Velocity P-wave (km/s) = 6.25905 7.15339 6.72111
#
# Compressibility (1/GPa) = 0.02108808
#
# Stress axis : x y z
#
# Youngs Moduli (GPa) = 92.30635 69.11546 74.74627
#
# Poissons Ratio (x) = 0.40349 0.21309
# Poissons Ratio (y) = 0.53888 0.00804
# Poissons Ratio (z) = 0.26315 0.00743
#
# Static dielectric constant tensor:
#      x y z
#    x 3.121010 0.000000 -0.143120 
#    y 0.000000 3.445360 0.000000 
#    z -0.143120 0.000000 3.325740 
# 
# 
# High freq. dielectric constant tensor:
#      x y z
#    x 1.690750 0.000000 -0.015050 
#    y 0.000000 1.726950 0.000000 
#    z -0.015050 0.000000 1.706510 
# 
# From -- ./inp_files/15360.got.cif
#   From: 2010.03.12/outbox.cif.g09.slc.cpg/sg3_8_cif.got.tgz:15360.got - 2010.03.31 09:20:49.
