data_PCOD8044771
_publ_section_title
;
Structure prediction by ZEFSAII (Michael W. Deem and Ramdas Pophale) SiO2 
 PCOD8044771
Probable space group: P -1
;
_chemical_formula_sum "Si O2"
_cell_formula_units_Z 16
_cell_length_a 21.006343
_cell_length_b 11.783560
_cell_length_c 7.718954
_cell_angle_alpha 55.742076
_cell_angle_beta 118.585721
_cell_angle_gamma 151.465206
_cell_volume 753.742366
_symmetry_space_group_name_H-M "P -1"
_symmetry_group_IT_number 2
_symmetry_cell_setting 'triclinic'
loop_
_space_group_symop_operation_xyz
x,y,z
-x,-y,-z
loop_
_atom_site_type_symbol
_atom_site_label
_atom_site_fract_x
_atom_site_fract_y
_atom_site_fract_z
Si Si1 0.150664 0.182986 0.837914
Si Si2 0.536259 0.691241 0.490736
Si Si3 0.748889 0.189174 0.155778
Si Si4 0.880864 0.365486 0.841424
Si Si5 0.150989 0.358700 0.023645
Si Si6 0.901604 0.157806 0.457493
Si Si7 0.229465 0.041080 0.199676
Si Si8 0.250492 0.332529 0.476907
O O1 0.187209 0.300485 0.594507
O O2 0.168301 0.328110 0.879155
O O3 0.253175 0.218875 0.971506
O O4 0.999967 0.887000 0.894135
O O5 0.500000 0.500000 0.500000
O O6 0.635465 0.801078 0.677160
O O7 0.405863 0.549949 0.526872
O O8 0.600411 0.909669 0.261059
O O9 0.844378 0.219777 0.317193
O O10 0.761334 0.227210 0.929925
O O11 0.794615 0.400886 0.125448
O O12 0.942226 0.587724 0.613858
O O13 0.828404 0.164936 0.822351
O O14 0.000000 0.500000 0.000000
O O15 0.239154 0.413551 0.227791
O O16 0.882138 0.086765 0.693878
O O17 0.824450 0.930313 0.429212
#
# Coordination Sequence:
#
# PCOD8044771 Si02
#       8
#     2   2   2   2   2   2   2   2
#     4  11  23  41  69  98 136 176 221 272 338 405
#     4  11  23  44  67  94 136 173 224 280 325 394
#     4  10  21  41  63  92 127 174 217 274 331 381
#     4  10  20  35  61  98 129 162 217 280 335 385
#     4  11  24  44  64  98 136 175 221 277 338 393
#     4  10  19  38  66  95 133 165 219 284 332 385
#     4  11  21  39  65 105 127 176 220 275 337 394
#     4  12  23  45  67  98 133 183 224 265 335 397
#
# _framework density 21.227412000000001
#
# number of rings (size 3 to 8) (size 9 to 14) (size 15 to 20)
#    0.000    1.250    3.750    4.500    0.000    2.000 
#    6.750    0.625    0.000    0.000    0.000    0.000 
#    0.000    0.000    0.000    0.000    0.000    0.000 
#
# Total GULP energy -198360.159721 kJ/mol
# GULP energy per Si atom -12397.509983 kJ/mol
# Density = 2.117910 g / cm^3
# Si number density = 21.227412 Si / 1000 Ang^3
#
#
#
# Elastic Constant Matrix: (Units=GPa)
#
#
# Indices 1 2 3 4 5 6 
#
# 1 97.7117 56.0987 35.9173 -5.7049 -21.9864 -9.4842
# 2 56.0987 95.4621 36.0974 -1.3944 -15.0566 -17.7824
# 3 35.9173 36.0974 64.0339 -7.7067 -5.9980 -10.2301
# 4 -5.7049 -1.3944 -7.7067 37.6598 3.6410 -1.2902
# 5 -21.9864 -15.0566 -5.9980 3.6410 36.0268 7.5913
# 6 -9.4842 -17.7824 -10.2301 -1.2902 7.5913 28.7075
#
#
#
# Elastic Compliance Matrix: (Units=1/GPa)
#
#
# Indices 1 2 3 4 5 6 
#
# 1 0.018262 -0.008033 -0.005402 0.000550 0.007424 -0.002806
# 2 -0.008033 0.018388 -0.004882 -0.001370 0.000685 0.006754
# 3 -0.005402 -0.004882 0.022256 0.003974 -0.002890 0.004065
# 4 0.000550 -0.001370 0.003974 0.027782 -0.002970 0.002783
# 5 0.007424 0.000685 -0.002890 -0.002970 0.033922 -0.007256
# 6 -0.002806 0.006754 0.004065 0.002783 -0.007256 0.041583
#
#
# Mechanical properties :
#
#
# Convention : Reuss Voigt Hill
#
# Bulk Modulus (GPa) = 44.89748 57.04829 50.97288
# Shear Modulus (GPa) = 24.24247 29.08509 26.66378
#
# Velocity S-wave (km/s) = 3.38307 3.70559 3.54800
# Velocity P-wave (km/s) = 6.03795 6.72620 6.39134
#
# Compressibility (1/GPa) = 0.02227296
#
# Stress axis : x y z
#
# Youngs Moduli (GPa) = 54.75894 54.38334 44.93245
#
# Poissons Ratio (x) = 0.43685 0.24271
# Poissons Ratio (y) = 0.43987 0.21935
# Poissons Ratio (z) = 0.29579 0.26549
#
# Static dielectric constant tensor:
#      x y z
#    x 3.944610 0.026020 -0.523690 
#    y 0.026020 3.645580 -0.355530 
#    z -0.523690 -0.355530 4.739650 
# 
# 
# High freq. dielectric constant tensor:
#      x y z
#    x 1.829800 -0.014540 -0.012410 
#    y -0.014540 1.816720 -0.004940 
#    z -0.012410 -0.004940 1.840000 
# 
# From -- ./inp_files/345963.got.cif
#   From: 2010.06.25/outbox.cif.g09.slc.cpg/sg2_173_cif.got.tgz:345963.got - 2010.06.27 13:26:56.
