data_PCOD8044937
_publ_section_title
;
Structure prediction by ZEFSAII (Michael W. Deem and Ramdas Pophale) SiO2 
 PCOD8044937
Probable space group: P 2
;
_chemical_formula_sum "Si O2"
_cell_formula_units_Z 14
_cell_length_a 14.892542
_cell_length_b 10.786059
_cell_length_c 12.703190
_cell_angle_alpha 90.000000
_cell_angle_beta 160.546726
_cell_angle_gamma 90.000000
_cell_volume 679.576281
_symmetry_space_group_name_H-M "P 2"
_symmetry_group_IT_number 3
_symmetry_cell_setting 'monoclinic'
loop_
_space_group_symop_operation_xyz
x,y,z
-x,y,-z
loop_
_atom_site_type_symbol
_atom_site_label
_atom_site_fract_x
_atom_site_fract_y
_atom_site_fract_z
Si Si1 0.215192 0.001210 0.162130
Si Si2 0.498540 0.212608 0.121325
Si Si3 0.722569 0.723988 0.678486
Si Si4 0.692571 0.483221 0.118790
Si Si5 0.030974 0.083392 0.731790
Si Si6 0.059716 0.830440 0.447032
Si Si7 0.481722 0.718908 0.186122
O O1 0.500000 0.067442 0.500000
O O2 0.237798 0.856734 0.219232
O O3 0.126275 0.020879 0.944776
O O4 0.000000 0.067768 0.000000
O O5 0.805142 0.189918 0.501357
O O6 0.500000 0.179558 0.000000
O O7 0.406467 0.353287 0.038583
O O8 0.289539 0.128773 0.953683
O O9 0.500000 0.649923 0.500000
O O10 0.660049 0.729848 0.486927
O O11 0.000000 0.648945 0.000000
O O12 0.000000 0.475296 0.500000
O O13 0.500000 0.523613 0.000000
O O14 0.648592 0.583807 0.978332
O O15 0.881981 0.976687 0.498614
O O16 0.000000 0.785326 0.500000
O O17 0.320701 0.758687 0.691077
O O18 0.773954 0.806881 0.073391
#
# Coordination Sequence:
#
# PCOD8044937 Si02
#       7
#     2   2   2   2   2   2   2
#     4  10  19  35  56  82 114 153 199 243 294 355
#     4  11  23  41  62  89 122 164 209 251 299 361
#     4  10  20  36  56  82 114 153 200 243 294 356
#     4  11  23  42  66  90 121 163 210 252 297 363
#     4  12  23  38  61  89 124 162 205 251 305 369
#     4  12  23  35  55  91 130 158 189 244 317 380
#     4  12  23  39  62  89 123 161 204 252 307 368
#
# _framework density 20.60107
#
# number of rings (size 3 to 8) (size 9 to 14) (size 15 to 20)
#    0.000    0.857    0.000   11.571    0.000    0.000 
#    0.000    0.000    0.000    5.143    0.000    0.000 
#    0.000    0.000    0.000    0.000    0.000    0.000 
#
# Total GULP energy -173516.956592 kJ/mol
# GULP energy per Si atom -12394.068328 kJ/mol
# Density = 2.055418 g / cm^3
# Si number density = 20.601070 Si / 1000 Ang^3
#
#
#
# Elastic Constant Matrix: (Units=GPa)
#
#
# Indices 1 2 3 4 5 6 
#
# 1 116.2266 40.8068 40.6359 0.0000 16.7241 0.0000
# 2 40.8068 76.4971 35.4009 0.0000 -4.5900 0.0000
# 3 40.6359 35.4009 136.3056 0.0000 21.4072 0.0000
# 4 0.0000 0.0000 0.0000 -38.1155 0.0000 -0.3584
# 5 16.7241 -4.5900 21.4072 0.0000 52.5271 0.0000
# 6 0.0000 0.0000 0.0000 -0.3584 0.0000 21.4519
#
#
#
# Elastic Compliance Matrix: (Units=1/GPa)
#
#
# Indices 1 2 3 4 5 6 
#
# 1 0.011648 -0.005786 -0.001398 0.000000 -0.003645 0.000000
# 2 -0.005786 0.018209 -0.003786 0.000000 0.004976 0.000000
# 3 -0.001398 -0.003786 0.009315 0.000000 -0.003682 0.000000
# 4 0.000000 0.000000 0.000000 -0.026232 0.000000 -0.000438
# 5 -0.003645 0.004976 -0.003682 0.000000 0.022134 0.000000
# 6 0.000000 0.000000 0.000000 -0.000438 0.000000 0.046609
#
#
# Mechanical properties :
#
#
# Convention : Reuss Voigt Hill
#
# Bulk Modulus (GPa) = 58.02516 62.52404 60.27460
# Shear Modulus (GPa) = 45.71821 21.31840 33.51831
#
# Velocity S-wave (km/s) = 4.71597 3.22035 4.03801
# Velocity P-wave (km/s) = 7.60796 6.65157 7.14578
#
# Compressibility (1/GPa) = 0.01723390
#
# Stress axis : x y z
#
# Youngs Moduli (GPa) = 85.84965 54.91693 107.35761
#
# Poissons Ratio (x) = 0.31773 0.15004
# Poissons Ratio (y) = 0.49669 0.40645
# Poissons Ratio (z) = 0.11998 0.20791
#
# Static dielectric constant tensor:
#      x y z
#    x 2.354230 0.000000 -1.491490 
#    y 0.000000 3.445060 0.000000 
#    z -1.491490 0.000000 1.996950 
# 
# 
# High freq. dielectric constant tensor:
#      x y z
#    x 1.818190 0.000000 0.022400 
#    y 0.000000 1.766200 0.000000 
#    z 0.022400 0.000000 1.828210 
# 
# From -- ./inp_files/12263.got.cif
#   From: 2010.03.12/outbox.cif.g09.slc.cpg/sg3_7_cif.got.tgz:12263.got - 2010.03.31 09:20:49.
