data_PCOD8044455
_publ_section_title
;
Structure prediction by ZEFSAII (Michael W. Deem and Ramdas Pophale) SiO2 
 PCOD8044455
Probable space group: P -1
;
_chemical_formula_sum "Si O2"
_cell_formula_units_Z 16
_cell_length_a 11.597769
_cell_length_b 12.285197
_cell_length_c 14.570047
_cell_angle_alpha 150.926966
_cell_angle_beta 128.770264
_cell_angle_gamma 59.739984
_cell_volume 781.318213
_symmetry_space_group_name_H-M "P -1"
_symmetry_group_IT_number 2
_symmetry_cell_setting 'triclinic'
loop_
_space_group_symop_operation_xyz
x,y,z
-x,-y,-z
loop_
_atom_site_type_symbol
_atom_site_label
_atom_site_fract_x
_atom_site_fract_y
_atom_site_fract_z
Si Si1 0.160106 0.239272 0.620725
Si Si2 0.776031 0.532257 0.359803
Si Si3 0.484251 0.214718 0.028411
Si Si4 0.530405 0.270771 0.297032
Si Si5 0.801888 0.613270 0.061483
Si Si6 0.137384 0.754008 0.309877
Si Si7 0.145840 0.635455 0.432304
Si Si8 0.960271 0.738801 0.767162
O O1 0.247106 0.307704 0.621224
O O2 0.194481 0.428091 0.856988
O O3 0.982970 0.212430 0.491330
O O4 0.206996 0.011078 0.520402
O O5 0.616283 0.396221 0.195477
O O6 0.892408 0.357164 0.266726
O O7 0.830393 0.689198 0.589319
O O8 0.449800 0.254693 0.147456
O O9 0.332460 0.242680 0.920656
O O10 0.525023 0.958473 0.842810
O O11 0.500000 0.500000 0.500000
O O12 0.707298 0.270630 0.369446
O O13 0.959082 0.746597 0.205477
O O14 0.784640 0.374457 0.826080
O O15 0.180042 0.647968 0.349901
O O16 0.095546 0.378985 0.251544
O O17 0.000000 0.000000 0.000000
#
# Coordination Sequence:
#
# PCOD8044455 Si02
#       8
#     2   2   2   2   2   2   2   2
#     4  10  21  38  61  84 119 157 200 253 291 347
#     4  10  23  40  58  89 121 160 203 241 306 361
#     4  11  23  39  58  86 128 158 194 253 299 359
#     4  11  23  37  59  88 120 161 200 242 305 361
#     4  10  21  37  57  89 116 155 203 243 303 348
#     4  10  20  37  62  86 114 154 205 255 294 347
#     4  10  19  38  61  88 116 151 206 251 299 352
#     4  10  22  40  62  86 120 160 204 249 297 361
#
# _framework density 20.478211000000002
#
# number of rings (size 3 to 8) (size 9 to 14) (size 15 to 20)
#    0.000    1.750    1.250    3.750    1.750    4.500 
#    0.000    0.625    0.000    0.000    0.000    0.000 
#    0.000    0.000    0.000    0.000    0.000    0.000 
#
# Total GULP energy -198351.493032 kJ/mol
# GULP energy per Si atom -12396.968315 kJ/mol
# Density = 2.043160 g / cm^3
# Si number density = 20.478211 Si / 1000 Ang^3
#
#
#
# Elastic Constant Matrix: (Units=GPa)
#
#
# Indices 1 2 3 4 5 6 
#
# 1 64.0559 47.5613 35.8480 6.6052 -0.5383 14.0309
# 2 47.5613 118.0986 49.2347 5.4617 -1.6202 21.2539
# 3 35.8480 49.2347 109.6854 17.9252 -10.4602 11.4941
# 4 6.6052 5.4617 17.9252 33.6538 -1.1754 10.8614
# 5 -0.5383 -1.6202 -10.4602 -1.1754 29.8431 -4.2123
# 6 14.0309 21.2539 11.4941 10.8614 -4.2123 30.8616
#
#
#
# Elastic Compliance Matrix: (Units=1/GPa)
#
#
# Indices 1 2 3 4 5 6 
#
# 1 0.024472 -0.007115 -0.004546 0.000289 -0.002224 -0.004938
# 2 -0.007115 0.013926 -0.003938 0.003188 -0.001505 -0.006216
# 3 -0.004546 -0.003938 0.013578 -0.006377 0.004578 0.002591
# 4 0.000289 0.003188 -0.006377 0.036714 -0.002476 -0.013211
# 5 -0.002224 -0.001505 0.004578 -0.002476 0.035754 0.006094
# 6 -0.004938 -0.006216 0.002591 -0.013211 0.006094 0.043444
#
#
# Mechanical properties :
#
#
# Convention : Reuss Voigt Hill
#
# Bulk Modulus (GPa) = 48.13372 61.90312 55.01842
# Shear Modulus (GPa) = 24.27043 29.48474 26.87759
#
# Velocity S-wave (km/s) = 3.44638 3.79860 3.62677
# Velocity P-wave (km/s) = 6.27635 7.03801 6.66806
#
# Compressibility (1/GPa) = 0.02077546
#
# Stress axis : x y z
#
# Youngs Moduli (GPa) = 40.86352 71.81048 73.65010
#
# Poissons Ratio (x) = 0.51096 0.33481
# Poissons Ratio (y) = 0.29076 0.29006
# Poissons Ratio (z) = 0.18576 0.28282
#
# Static dielectric constant tensor:
#      x y z
#    x 3.507620 0.098870 0.013970 
#    y 0.098870 3.845620 -0.069850 
#    z 0.013970 -0.069850 3.699240 
# 
# 
# High freq. dielectric constant tensor:
#      x y z
#    x 1.776490 0.006230 0.000360 
#    y 0.006230 1.808940 -0.007730 
#    z 0.000360 -0.007730 1.798230 
# 
# From -- ./inp_files/433244.got.cif
#   From: 2010.06.25/outbox.cif.g09.slc.cpg/sg2_217_cif.got.tgz:433244.got - 2010.06.27 13:26:56.
