data_PCOD8044653
_publ_section_title
;
Structure prediction by ZEFSAII (Michael W. Deem and Ramdas Pophale) SiO2 
 PCOD8044653
Probable space group: P -1
;
_chemical_formula_sum "Si O2"
_cell_formula_units_Z 16
_cell_length_a 8.864043
_cell_length_b 26.360476
_cell_length_c 26.384547
_cell_angle_alpha 11.060992
_cell_angle_beta 42.850859
_cell_angle_gamma 42.860858
_cell_volume 800.084636
_symmetry_space_group_name_H-M "P -1"
_symmetry_group_IT_number 2
_symmetry_cell_setting 'triclinic'
loop_
_space_group_symop_operation_xyz
x,y,z
-x,-y,-z
loop_
_atom_site_type_symbol
_atom_site_label
_atom_site_fract_x
_atom_site_fract_y
_atom_site_fract_z
Si Si1 0.076846 0.714577 0.202022
Si Si2 0.401538 0.959214 0.509336
Si Si3 0.887170 0.512002 0.961742
Si Si4 0.751764 0.176909 0.585874
Si Si5 0.285434 0.208942 0.706666
Si Si6 0.206120 0.083696 0.624669
Si Si7 0.275813 0.352722 0.944817
Si Si8 0.745003 0.384811 0.849330
O O1 0.197823 0.464341 0.446032
O O2 0.072990 0.659848 0.196763
O O3 0.824132 0.780656 0.220394
O O4 0.221281 0.956739 0.938762
O O5 0.589821 0.976211 0.404674
O O6 0.500000 0.000000 0.500000
O O7 0.201270 0.185097 0.325845
O O8 0.315323 0.670147 0.810946
O O9 0.064045 0.409875 0.976436
O O10 0.000000 0.500000 0.000000
O O11 0.552598 0.195496 0.658264
O O12 0.754641 0.460340 0.280124
O O13 0.980844 0.097347 0.635322
O O14 0.709434 0.955211 0.772213
O O15 0.220235 0.347692 0.393389
O O16 0.208492 0.847939 0.894448
O O17 0.496335 0.406477 0.867740
#
# Coordination Sequence:
#
# PCOD8044653 Si02
#       8
#     2   2   2   2   2   2   2   2
#     4  10  20  37  64  94 123 158 202 250 299 358
#     4  12  25  45  63  86 122 170 210 249 314 375
#     4  12  25  42  63  91 121 157 207 266 313 359
#     4  12  23  42  62  96 120 164 207 254 299 361
#     4  10  19  38  64  94 122 157 206 252 289 356
#     4  12  26  40  62  90 132 161 201 258 315 370
#     4  12  23  40  67  89 120 158 216 257 301 364
#     4  12  23  42  61  96 126 164 199 255 318 362
#
# _framework density 19.997883000000002
#
# number of rings (size 3 to 8) (size 9 to 14) (size 15 to 20)
#    0.000    0.500    2.500    7.500    0.000    0.000 
#    0.000    1.250    0.000    0.000    0.000    0.000 
#    0.000    0.000    0.000    0.000    0.000    0.000 
#
# Total GULP energy -198490.711231 kJ/mol
# GULP energy per Si atom -12405.669452 kJ/mol
# Density = 1.995237 g / cm^3
# Si number density = 19.997883 Si / 1000 Ang^3
#
#
#
# Elastic Constant Matrix: (Units=GPa)
#
#
# Indices 1 2 3 4 5 6 
#
# 1 -37.5086 -29.1935 -0.7748 20.3302 -12.8211 5.3044
# 2 -29.1935 164.3180 11.6532 24.5397 -3.1346 14.1896
# 3 -0.7748 11.6532 111.7069 2.8711 0.5896 13.9753
# 4 20.3302 24.5397 2.8711 37.2093 7.0504 1.1117
# 5 -12.8211 -3.1346 0.5896 7.0504 35.3479 -0.6588
# 6 5.3044 14.1896 13.9753 1.1117 -0.6588 38.3215
#
#
#
# Elastic Compliance Matrix: (Units=1/GPa)
#
#
# Indices 1 2 3 4 5 6 
#
# 1 -0.013606 -0.004587 -0.000281 0.011833 -0.007638 0.003210
# 2 -0.004587 0.005519 -0.000424 -0.000871 -0.001017 -0.001246
# 3 -0.000281 -0.000424 0.009404 -0.000133 -0.000330 -0.003236
# 4 0.011833 -0.000871 -0.000133 0.021054 -0.000018 -0.001878
# 5 -0.007638 -0.001017 -0.000330 -0.000018 0.025476 0.001993
# 6 0.003210 -0.001246 -0.003236 -0.001878 0.001993 0.027381
#
#
# Mechanical properties :
#
#
# Convention : Reuss Voigt Hill
#
# Bulk Modulus (GPa) = -107.89763 22.43179 -42.73292
# Shear Modulus (GPa) = 60.44231 39.29782 49.87006
#
# Velocity S-wave (km/s) = 5.50363 4.43775 4.99918
# Velocity P-wave (km/s) = 3.69933 6.12369 3.45070
#
# Compressibility (1/GPa) = -0.00926804
#
# Stress axis : x y z
#
# Youngs Moduli (GPa) = -73.49545 181.19008 106.33526
#
# Poissons Ratio (x) = 0.83119 0.02990
# Poissons Ratio (y) = -0.33715 0.04508
# Poissons Ratio (z) = -0.02067 0.07681
#
# Static dielectric constant tensor:
#      x y z
#    x 3.495980 0.027270 -0.018440 
#    y 0.027270 4.092440 0.056510 
#    z -0.018440 0.056510 3.839840 
# 
# 
# High freq. dielectric constant tensor:
#      x y z
#    x 1.765110 0.001190 0.000100 
#    y 0.001190 1.804690 -0.000640 
#    z 0.000100 -0.000640 1.806140 
# 
# From -- ./inp_files/226055.got.cif
#   From: 2010.06.25/outbox.cif.g09.slc.cpg/sg2_114_cif.got.tgz:226055.got - 2010.06.27 13:26:56.
