data_PCOD8044283
_publ_section_title
;
Structure prediction by ZEFSAII (Michael W. Deem and Ramdas Pophale) SiO2 
 PCOD8044283
Probable space group: P -1
;
_chemical_formula_sum "Si O2"
_cell_formula_units_Z 16
_cell_length_a 9.546285
_cell_length_b 5.341900
_cell_length_c 21.231771
_cell_angle_alpha 68.031123
_cell_angle_beta 85.669842
_cell_angle_gamma 133.051881
_cell_volume 640.322903
_symmetry_space_group_name_H-M "P -1"
_symmetry_group_IT_number 2
_symmetry_cell_setting 'triclinic'
loop_
_space_group_symop_operation_xyz
x,y,z
-x,-y,-z
loop_
_atom_site_type_symbol
_atom_site_label
_atom_site_fract_x
_atom_site_fract_y
_atom_site_fract_z
Si Si1 0.823135 0.384445 0.474640
Si Si2 0.588457 0.356503 0.749278
Si Si3 0.801935 0.227158 0.816627
Si Si4 0.531768 0.401711 0.356760
Si Si5 0.358211 0.284485 0.874428
Si Si6 0.641599 0.954587 0.978823
Si Si7 0.728222 0.852897 0.424891
Si Si8 0.229575 0.520415 0.766311
O O1 0.860174 0.761479 0.435479
O O2 0.000000 0.500000 0.500000
O O3 0.586556 0.977413 0.555047
O O4 0.850459 0.285415 0.413649
O O5 0.806195 0.514931 0.748989
O O6 0.642212 0.713695 0.675562
O O7 0.439702 0.177521 0.833112
O O8 0.442963 0.994362 0.736355
O O9 0.009156 0.360269 0.777978
O O10 0.575079 0.755669 0.848045
O O11 0.809787 0.291457 0.886024
O O12 0.673672 0.824719 0.355274
O O13 0.717164 0.526759 0.298573
O O14 0.188945 0.230800 0.848903
O O15 0.236525 0.968998 0.968547
O O16 0.500000 0.500000 0.000000
O O17 0.500000 0.000000 0.000000
O O18 0.500000 0.500000 0.500000
#
# Coordination Sequence:
#
# PCOD8044283 Si02
#       8
#     2   2   2   2   2   2   2   2
#     4  11  24  45  70 101 129 161 219 273 318 387
#     4  10  21  40  61  88 131 169 217 270 324 390
#     4  10  21  40  64  90 128 171 225 269 326 392
#     4  10  23  42  62  88 131 172 209 263 334 382
#     4   9  20  40  60  89 130 168 219 278 330 376
#     4  10  19  37  68  92 127 174 222 275 336 374
#     4  10  22  43  71  92 129 167 209 263 324 383
#     4  10  23  40  60  93 131 173 219 270 324 398
#
# _framework density 24.987393999999998
#
# number of rings (size 3 to 8) (size 9 to 14) (size 15 to 20)
#    0.000    2.000    1.250    1.875    5.250    2.500 
#    9.000    0.625    0.000    0.000    0.000    0.000 
#    0.000    0.000    0.000    0.000    0.000    0.000 
#
# Total GULP energy -198227.429846 kJ/mol
# GULP energy per Si atom -12389.214365 kJ/mol
# Density = 2.493052 g / cm^3
# Si number density = 24.987394 Si / 1000 Ang^3
#
#
#
# Elastic Constant Matrix: (Units=GPa)
#
#
# Indices 1 2 3 4 5 6 
#
# 1 197.2645 16.7667 61.7162 14.9129 15.5138 -8.2547
# 2 16.7667 55.5748 22.8889 27.2154 -5.7523 -16.3999
# 3 61.7162 22.8889 143.5206 40.9086 21.3909 -4.6437
# 4 14.9129 27.2154 40.9086 34.7367 -5.1906 -4.5995
# 5 15.5138 -5.7523 21.3909 -5.1906 39.5532 7.0947
# 6 -8.2547 -16.3999 -4.6437 -4.5995 7.0947 37.5132
#
#
#
# Elastic Compliance Matrix: (Units=1/GPa)
#
#
# Indices 1 2 3 4 5 6 
#
# 1 0.006005 -0.001341 -0.002601 0.001478 -0.001093 0.000801
# 2 -0.001341 0.035185 0.004874 -0.031586 -0.003372 0.012455
# 3 -0.002601 0.004874 0.014910 -0.021352 -0.009604 0.002603
# 4 0.001478 -0.031586 -0.021352 0.079513 0.018583 -0.009892
# 5 -0.001093 -0.003372 -0.009604 0.018583 0.034123 -0.007079
# 6 0.000801 0.012455 0.002603 -0.009892 -0.007079 0.032727
#
#
# Mechanical properties :
#
#
# Convention : Reuss Voigt Hill
#
# Bulk Modulus (GPa) = 17.25203 66.56708 41.90956
# Shear Modulus (GPa) = 22.73547 42.02648 32.38097
#
# Velocity S-wave (km/s) = 3.01969 4.10556 3.60376
# Velocity P-wave (km/s) = 4.36776 7.01229 5.84164
#
# Compressibility (1/GPa) = 0.05796420
#
# Stress axis : x y z
#
# Youngs Moduli (GPa) = 166.53450 28.42103 67.06714
#
# Poissons Ratio (x) = 0.03812 0.17443
# Poissons Ratio (y) = 0.22337 -0.32688
# Poissons Ratio (z) = 0.43312 -0.13852
#
# Static dielectric constant tensor:
#      x y z
#    x 4.745040 -0.366620 0.513770 
#    y -0.366620 4.706650 0.671020 
#    z 0.513770 0.671020 5.356190 
# 
# 
# High freq. dielectric constant tensor:
#      x y z
#    x 2.004800 -0.017450 0.025500 
#    y -0.017450 1.972860 0.037220 
#    z 0.025500 0.037220 2.003990 
# 
# From -- ./inp_files/52557.got.cif
#   From: 2010.06.25/outbox.cif.g09.slc.cpg/sg2_27_cif.got.tgz:52557.got - 2010.06.27 13:26:56.
