data_PCOD8044684
_publ_section_title
;
Structure prediction by ZEFSAII (Michael W. Deem and Ramdas Pophale) SiO2 
 PCOD8044684
Probable space group: P -1
;
_chemical_formula_sum "Si O2"
_cell_formula_units_Z 16
_cell_length_a 8.850830
_cell_length_b 18.955090
_cell_length_c 16.392071
_cell_angle_alpha 21.632812
_cell_angle_beta 64.314423
_cell_angle_gamma 52.159478
_cell_volume 706.716630
_symmetry_space_group_name_H-M "P -1"
_symmetry_group_IT_number 2
_symmetry_cell_setting 'triclinic'
loop_
_space_group_symop_operation_xyz
x,y,z
-x,-y,-z
loop_
_atom_site_type_symbol
_atom_site_label
_atom_site_fract_x
_atom_site_fract_y
_atom_site_fract_z
Si Si1 0.225054 0.808418 0.588419
Si Si2 0.811188 0.923502 0.540759
Si Si3 0.828727 0.858408 0.304985
Si Si4 0.330288 0.383472 0.137245
Si Si5 0.320596 0.396247 0.313989
Si Si6 0.711205 0.565428 0.410897
Si Si7 0.705501 0.983389 0.025113
Si Si8 0.160679 0.727043 0.142563
O O1 0.441736 0.707918 0.596286
O O2 0.024916 0.880937 0.499009
O O3 0.169352 0.038669 0.407601
O O4 0.269293 0.604742 0.859277
O O5 0.818175 0.690515 0.774563
O O6 0.585325 0.160597 0.301620
O O7 0.721390 0.801317 0.460086
O O8 0.716771 0.882291 0.220594
O O9 0.090112 0.642982 0.468707
O O10 0.748647 0.129259 0.054598
O O11 0.287994 0.475184 0.142545
O O12 0.152181 0.613613 0.182474
O O13 0.704711 0.803573 0.158162
O O14 0.710044 0.475234 0.598438
O O15 0.473352 0.715031 0.264543
O O16 0.922777 0.943684 0.999430
#
# Coordination Sequence:
#
# PCOD8044684 Si02
#       8
#     2   2   2   2   2   2   2   2
#     4  10  21  39  64  86 119 155 199 245 294 352
#     4   9  19  38  63  90 108 150 202 243 290 353
#     4  11  22  38  59  85 121 159 196 247 295 350
#     4  10  21  39  65  85 119 155 200 244 293 355
#     4  11  22  39  56  88 126 156 197 247 301 353
#     4  10  19  38  65  86 110 157 206 239 300 353
#     4  10  19  38  66  83 115 155 198 254 290 353
#     4  11  22  38  60  84 122 159 195 245 298 352
#
# _framework density 22.63991
#
# number of rings (size 3 to 8) (size 9 to 14) (size 15 to 20)
#    0.000    1.750    2.500    4.125    0.000    6.000 
#    0.000   12.500    0.000    0.000    0.000    0.000 
#    0.000    0.000    0.000    0.000    0.000    0.000 
#
# Total GULP energy -198220.408933 kJ/mol
# GULP energy per Si atom -12388.775558 kJ/mol
# Density = 2.258838 g / cm^3
# Si number density = 22.639910 Si / 1000 Ang^3
#
#
#
# Elastic Constant Matrix: (Units=GPa)
#
#
# Indices 1 2 3 4 5 6 
#
# 1 99.2827 23.7170 26.3325 -7.8694 -1.5339 -16.6261
# 2 23.7170 61.5689 36.3658 1.4706 3.8987 -9.3982
# 3 26.3325 36.3658 95.5258 -3.3298 0.7926 -16.0749
# 4 -7.8694 1.4706 -3.3298 14.9668 -6.8902 -2.1498
# 5 -1.5339 3.8987 0.7926 -6.8902 45.8830 -6.1454
# 6 -16.6261 -9.3982 -16.0749 -2.1498 -6.1454 26.9421
#
#
#
# Elastic Compliance Matrix: (Units=1/GPa)
#
#
# Indices 1 2 3 4 5 6 
#
# 1 0.013387 -0.004117 -0.000428 0.010090 0.003412 0.008153
# 2 -0.004117 0.022773 -0.007885 -0.007713 -0.003181 -0.000642
# 3 -0.000428 -0.007885 0.014929 0.005869 0.002198 0.006863
# 4 0.010090 -0.007713 0.005869 0.083959 0.015823 0.017346
# 5 0.003412 -0.003181 0.002198 0.015823 0.025783 0.009451
# 6 0.008153 -0.000642 0.006863 0.017346 0.009451 0.049559
#
#
# Mechanical properties :
#
#
# Convention : Reuss Voigt Hill
#
# Bulk Modulus (GPa) = 38.12421 47.68978 42.90700
# Shear Modulus (GPa) = 20.49250 28.88919 24.69085
#
# Velocity S-wave (km/s) = 3.01183 3.57603 3.30599
# Velocity P-wave (km/s) = 5.38245 6.17745 5.79360
#
# Compressibility (1/GPa) = 0.02623005
#
# Stress axis : x y z
#
# Youngs Moduli (GPa) = 74.69982 43.91223 66.98279
#
# Poissons Ratio (x) = 0.18077 0.02864
# Poissons Ratio (y) = 0.30752 0.52816
# Poissons Ratio (z) = 0.03194 0.34625
#
# Static dielectric constant tensor:
#      x y z
#    x 4.586380 -0.322960 -0.004680 
#    y -0.322960 3.897070 -0.211000 
#    z -0.004680 -0.211000 4.043530 
# 
# 
# High freq. dielectric constant tensor:
#      x y z
#    x 1.904160 -0.017390 -0.017610 
#    y -0.017390 1.858810 -0.015210 
#    z -0.017610 -0.015210 1.894720 
# 
# From -- ./inp_files/562533.got.cif
#   From: 2010.06.25/outbox.cif.g09.slc.cpg/sg2_282_cif.got.tgz:562533.got - 2010.06.27 13:26:56.
