data_PCOD8044873
_publ_section_title
;
Structure prediction by ZEFSAII (Michael W. Deem and Ramdas Pophale) SiO2 
 PCOD8044873
Probable space group: P 2
;
_chemical_formula_sum "Si O2"
_cell_formula_units_Z 12
_cell_length_a 9.221564
_cell_length_b 7.580350
_cell_length_c 16.067334
_cell_angle_alpha 90.000000
_cell_angle_beta 33.356975
_cell_angle_gamma 90.000000
_cell_volume 617.568017
_symmetry_space_group_name_H-M "P 2"
_symmetry_group_IT_number 3
_symmetry_cell_setting 'monoclinic'
loop_
_space_group_symop_operation_xyz
x,y,z
-x,y,-z
loop_
_atom_site_type_symbol
_atom_site_label
_atom_site_fract_x
_atom_site_fract_y
_atom_site_fract_z
Si Si1 0.756744 0.577080 0.558163
Si Si2 0.859824 0.086630 0.143765
Si Si3 0.721011 0.723064 0.120641
Si Si4 0.759436 0.891271 0.928496
Si Si5 0.614115 0.241284 0.531901
Si Si6 0.221278 0.866299 0.587858
O O1 0.498528 0.592075 0.739252
O O2 0.771076 0.403193 0.495087
O O3 0.785406 0.752238 0.491057
O O4 0.000000 0.561213 0.500000
O O5 0.625769 0.200063 0.291780
O O6 0.739314 0.902619 0.166624
O O7 0.085091 0.057460 0.106219
O O8 0.000000 0.188723 0.000000
O O9 0.671107 0.761562 0.046122
O O10 0.000000 0.623641 0.000000
O O11 0.977162 0.804506 0.762531
O O12 0.500000 0.947203 0.000000
O O13 0.500000 0.310027 0.500000
O O14 0.803529 0.071934 0.427441
O O15 0.500000 0.839512 0.500000
#
# Coordination Sequence:
#
# PCOD8044873 Si02
#       6
#     2   2   2   2   2   2
#     4  12  25  39  59  94 127 156 202 255 306 356
#     4   9  18  37  60  86 116 156 202 241 297 366
#     4   9  19  38  63  85 116 162 201 239 302 368
#     4  10  18  33  63  94 113 151 203 248 307 351
#     4  11  22  40  63  88 119 167 208 240 301 373
#     4  11  20  41  67  86 120 163 203 252 300 363
#
# _framework density 19.431056999999999
#
# number of rings (size 3 to 8) (size 9 to 14) (size 15 to 20)
#    0.000    2.000    5.000    2.500    0.000    1.333 
#    6.000    0.000    0.000    1.000    0.000    0.000 
#    0.000    0.000    0.000    0.000    0.000    0.000 
#
# Total GULP energy -148718.160419 kJ/mol
# GULP energy per Si atom -12393.180035 kJ/mol
# Density = 1.938683 g / cm^3
# Si number density = 19.431057 Si / 1000 Ang^3
#
#
#
# Elastic Constant Matrix: (Units=GPa)
#
#
# Indices 1 2 3 4 5 6 
#
# 1 138.8711 57.1630 45.3295 0.0000 -4.1174 0.0000
# 2 57.1630 78.1162 24.1991 0.0000 6.0954 0.0000
# 3 45.3295 24.1991 115.8031 0.0000 9.7097 0.0000
# 4 0.0000 0.0000 0.0000 -134.0353 0.0000 201.2897
# 5 -4.1174 6.0954 9.7097 0.0000 31.3973 0.0000
# 6 0.0000 0.0000 0.0000 201.2897 0.0000 -219.9200
#
#
#
# Elastic Compliance Matrix: (Units=1/GPa)
#
#
# Indices 1 2 3 4 5 6 
#
# 1 0.011586 -0.007787 -0.003246 0.000000 0.004035 0.000000
# 2 -0.007787 0.019024 -0.000546 0.000000 -0.004546 0.000000
# 3 -0.003246 -0.000546 0.010314 0.000000 -0.003509 0.000000
# 4 0.000000 0.000000 0.000000 0.019919 0.000000 0.018232
# 5 0.004035 -0.004546 -0.003509 0.000000 0.034347 0.000000
# 6 0.000000 0.000000 0.000000 0.018232 0.000000 0.012140
#
#
# Mechanical properties :
#
#
# Convention : Reuss Voigt Hill
#
# Bulk Modulus (GPa) = 56.29033 65.13039 60.71036
# Shear Modulus (GPa) = 36.65416 -50.77167 -7.05876
#
# Velocity S-wave (km/s) = 4.34795 -5.11721 -1.90804
# Velocity P-wave (km/s) = 7.36467 1.15022 5.14370
#
# Compressibility (1/GPa) = 0.01776504
#
# Stress axis : x y z
#
# Youngs Moduli (GPa) = 86.31461 52.56598 96.95266
#
# Poissons Ratio (x) = 0.40934 0.31471
# Poissons Ratio (y) = 0.67215 0.05294
# Poissons Ratio (z) = 0.28018 0.02870
#
# Static dielectric constant tensor:
#      x y z
#    x 3.599730 0.000000 -0.064530 
#    y 0.000000 3.218620 0.000000 
#    z -0.064530 0.000000 5.099720 
# 
# 
# High freq. dielectric constant tensor:
#      x y z
#    x 1.757160 0.000000 0.015990 
#    y 0.000000 1.716450 0.000000 
#    z 0.015990 0.000000 1.778940 
# 
# From -- ./inp_files/13459.got.cif
#   From: 2010.03.12/outbox.cif.g09.slc.cpg/sg3_7_cif.got.tgz:13459.got - 2010.03.31 09:20:49.
