data_PCOD8044955
_publ_section_title
;
Structure prediction by ZEFSAII (Michael W. Deem and Ramdas Pophale) SiO2 
 PCOD8044955
Probable space group: P 2
;
_chemical_formula_sum "Si O2"
_cell_formula_units_Z 16
_cell_length_a 9.675558
_cell_length_b 17.617835
_cell_length_c 8.267471
_cell_angle_alpha 90.000000
_cell_angle_beta 31.574911
_cell_angle_gamma 90.000000
_cell_volume 737.923896
_symmetry_space_group_name_H-M "P 2"
_symmetry_group_IT_number 3
_symmetry_cell_setting 'monoclinic'
loop_
_space_group_symop_operation_xyz
x,y,z
-x,y,-z
loop_
_atom_site_type_symbol
_atom_site_label
_atom_site_fract_x
_atom_site_fract_y
_atom_site_fract_z
Si Si1 0.492844 0.563860 0.698972
Si Si2 0.057676 0.826408 0.130420
Si Si3 0.044840 0.314918 0.142550
Si Si4 0.976600 0.149767 0.335755
Si Si5 0.523401 0.068629 0.288961
Si Si6 0.557008 0.904242 0.759714
Si Si7 0.006404 0.657630 0.802565
Si Si8 0.542927 0.397049 0.770484
O O1 0.500000 0.547701 0.500000
O O2 0.519496 0.486358 0.768732
O O3 0.720067 0.621644 0.528082
O O4 0.223840 0.602143 0.026644
O O5 0.028613 0.742010 0.235010
O O6 0.857201 0.882352 0.420801
O O7 0.355503 0.856017 0.851780
O O8 0.000000 0.826341 0.000000
O O9 0.034059 0.238033 0.254698
O O10 0.832898 0.373327 0.424539
O O11 0.331067 0.352461 0.874047
O O12 0.000000 0.296559 0.000000
O O13 0.000000 0.129094 0.500000
O O14 0.684734 0.132131 0.560497
O O15 0.183595 0.099301 0.031214
O O16 0.500000 0.049078 0.500000
O O17 0.475877 0.993383 0.233930
O O18 0.500000 0.883651 0.000000
O O19 0.000000 0.664672 0.000000
O O20 0.500000 0.376259 0.000000
#
# Coordination Sequence:
#
# PCOD8044955 Si02
#       8
#     2   2   2   2   2   2   2   2
#     4  10  19  36  60  88 119 160 206 252 303 368
#     4  11  22  41  66  93 122 163 212 259 306 369
#     4  12  25  44  67  93 124 167 213 254 301 370
#     4  12  25  44  67  96 130 164 201 256 317 368
#     4  12  25  44  67  94 125 166 213 256 301 368
#     4  12  25  42  62  92 129 166 204 256 317 370
#     4   9  19  35  60  88 118 156 206 255 302 361
#     4  12  25  42  63  94 129 164 205 260 317 366
#
# _framework density 21.682452999999999
#
# number of rings (size 3 to 8) (size 9 to 14) (size 15 to 20)
#    0.000    0.750    0.000    9.000    0.000    3.000 
#    0.000    3.750    0.000    0.000    0.000    0.000 
#    0.000    0.000    0.000    0.000    0.000    0.000 
#
# Total GULP energy -198542.134235 kJ/mol
# GULP energy per Si atom -12408.883390 kJ/mol
# Density = 2.163310 g / cm^3
# Si number density = 21.682453 Si / 1000 Ang^3
#
#
#
# Elastic Constant Matrix: (Units=GPa)
#
#
# Indices 1 2 3 4 5 6 
#
# 1 70.5200 -0.0066 16.3841 0.0000 8.3894 0.0000
# 2 -0.0066 120.1137 12.7263 0.0000 -8.6699 0.0000
# 3 16.3841 12.7263 78.9277 0.0000 -5.0747 0.0000
# 4 0.0000 0.0000 0.0000 -191.6238 0.0000 -63.4476
# 5 8.3894 -8.6699 -5.0747 0.0000 32.8350 0.0000
# 6 0.0000 0.0000 0.0000 -63.4476 0.0000 -7.1676
#
#
#
# Elastic Compliance Matrix: (Units=1/GPa)
#
#
# Indices 1 2 3 4 5 6 
#
# 1 0.015534 0.000049 -0.003522 0.000000 -0.004500 0.000000
# 2 0.000049 0.008609 -0.001265 0.000000 0.002065 0.000000
# 3 -0.003522 -0.001265 0.013778 0.000000 0.002695 0.000000
# 4 0.000000 0.000000 0.000000 0.002703 0.000000 -0.023923
# 5 -0.004500 0.002065 0.002695 0.000000 0.032567 0.000000
# 6 0.000000 0.000000 0.000000 -0.023923 0.000000 0.072253
#
#
# Mechanical properties :
#
#
# Convention : Reuss Voigt Hill
#
# Bulk Modulus (GPa) = 35.15631 36.41880 35.78755
# Shear Modulus (GPa) = 30.41340 -17.16078 6.62631
#
# Velocity S-wave (km/s) = 3.74929 -2.81634 1.75006
# Velocity P-wave (km/s) = 5.91543 2.50144 4.54145
#
# Compressibility (1/GPa) = 0.02844440
#
# Stress axis : x y z
#
# Youngs Moduli (GPa) = 64.37492 116.16322 72.57816
#
# Poissons Ratio (x) = -0.00571 0.25561
# Poissons Ratio (y) = -0.00317 0.09185
# Poissons Ratio (z) = 0.22672 0.14700
#
# Static dielectric constant tensor:
#      x y z
#    x 4.034510 0.000000 -0.377930 
#    y 0.000000 3.986330 0.000000 
#    z -0.377930 0.000000 4.449670 
# 
# 
# High freq. dielectric constant tensor:
#      x y z
#    x 1.849660 0.000000 -0.008130 
#    y 0.000000 1.865680 0.000000 
#    z -0.008130 0.000000 1.864330 
# 
# From -- ./inp_files/6210.got.cif
#   From: 2010.03.12/outbox.cif.g09.slc.cpg/sg3_4_cif.got.tgz:6210.got - 2010.03.31 09:20:49.
