data_PCOD8044208
_publ_section_title
;
Structure prediction by ZEFSAII (Michael W. Deem and Ramdas Pophale) SiO2 
 PCOD8044208
Probable space group: P -1
;
_chemical_formula_sum "Si O2"
_cell_formula_units_Z 16
_cell_length_a 14.631533
_cell_length_b 9.259498
_cell_length_c 9.068189
_cell_angle_alpha 115.731127
_cell_angle_beta 115.172192
_cell_angle_gamma 41.713195
_cell_volume 725.845472
_symmetry_space_group_name_H-M "P -1"
_symmetry_group_IT_number 2
_symmetry_cell_setting 'triclinic'
loop_
_space_group_symop_operation_xyz
x,y,z
-x,-y,-z
loop_
_atom_site_type_symbol
_atom_site_label
_atom_site_fract_x
_atom_site_fract_y
_atom_site_fract_z
Si Si1 0.487923 0.240074 0.372428
Si Si2 0.866529 0.149976 0.305542
Si Si3 0.012371 0.444759 0.156218
Si Si4 0.365906 0.656982 0.320676
Si Si5 0.234485 0.237578 0.665239
Si Si6 0.128836 0.023045 0.488288
Si Si7 0.864105 0.040696 0.949374
Si Si8 0.234314 0.423931 0.451453
O O1 0.442454 0.401237 0.272644
O O2 0.530464 0.304214 0.572296
O O3 0.364743 0.258546 0.356127
O O4 0.613219 0.994190 0.283910
O O5 0.780953 0.369645 0.441826
O O6 0.010974 0.078964 0.325912
O O7 0.905386 0.956187 0.351783
O O8 0.796192 0.161037 0.114836
O O9 0.096566 0.495591 0.317884
O O10 0.856279 0.592672 0.185060
O O11 0.096473 0.188845 0.125522
O O12 0.000000 0.500000 0.000000
O O13 0.265989 0.781852 0.167043
O O14 0.270722 0.769961 0.451228
O O15 0.143882 0.188721 0.518936
O O16 0.260946 0.329204 0.591364
O O17 0.000000 0.000000 0.000000
#
# Coordination Sequence:
#
# PCOD8044208 Si02
#       8
#     2   2   2   2   2   2   2   2
#     4  10  23  43  73  99 136 194 232 280 339 433
#     4  11  22  37  68 100 130 173 231 281 343 403
#     4  12  27  44  69 107 146 177 224 298 356 401
#     4  10  21  42  69  98 139 175 241 284 344 398
#     4  11  23  42  69  99 137 180 229 281 347 412
#     4  10  19  37  65  95 126 176 227 275 326 415
#     4  12  25  40  68 105 138 175 228 298 342 398
#     4  12  24  44  71 104 135 184 237 285 346 415
#
# _framework density 22.043258999999999
#
# number of rings (size 3 to 8) (size 9 to 14) (size 15 to 20)
#    0.000    1.000    3.750    3.750    3.500    0.000 
#    0.000    1.250    2.750    0.000    0.000    0.000 
#    0.000    0.000    0.000    0.000    0.000    0.000 
#
# Total GULP energy -198240.223132 kJ/mol
# GULP energy per Si atom -12390.013946 kJ/mol
# Density = 2.199309 g / cm^3
# Si number density = 22.043259 Si / 1000 Ang^3
#
#
#
# Elastic Constant Matrix: (Units=GPa)
#
#
# Indices 1 2 3 4 5 6 
#
# 1 88.7364 36.4157 19.6919 -4.0168 -9.4889 -5.8435
# 2 36.4157 124.8200 56.6263 -12.7854 -7.3039 -1.9674
# 3 19.6919 56.6263 114.4801 -13.6548 -8.0480 6.2807
# 4 -4.0168 -12.7854 -13.6548 38.5143 -1.5791 -4.7279
# 5 -9.4889 -7.3039 -8.0480 -1.5791 21.5411 -3.9222
# 6 -5.8435 -1.9674 6.2807 -4.7279 -3.9222 36.3644
#
#
#
# Elastic Compliance Matrix: (Units=1/GPa)
#
#
# Indices 1 2 3 4 5 6 
#
# 1 0.013493 -0.003353 -0.000359 0.000713 0.005217 0.002704
# 2 -0.003353 0.011474 -0.004871 0.001929 0.000968 0.001278
# 3 -0.000359 -0.004871 0.011761 0.002397 0.002436 -0.001778
# 4 0.000713 0.001929 0.002397 0.028208 0.004655 0.003974
# 5 0.005217 0.000968 0.002436 0.004655 0.051508 0.006631
# 6 0.002704 0.001278 -0.001778 0.003974 0.006631 0.029542
#
#
# Mechanical properties :
#
#
# Convention : Reuss Voigt Hill
#
# Bulk Modulus (GPa) = 51.11760 61.50047 56.30903
# Shear Modulus (GPa) = 29.46869 33.63748 31.55308
#
# Velocity S-wave (km/s) = 3.66027 3.91061 3.78751
# Velocity P-wave (km/s) = 6.41120 6.95349 6.68784
#
# Compressibility (1/GPa) = 0.01956273
#
# Stress axis : x y z
#
# Youngs Moduli (GPa) = 74.11146 87.15603 85.02794
#
# Poissons Ratio (x) = 0.29221 0.03054
# Poissons Ratio (y) = 0.24847 0.41414
# Poissons Ratio (z) = 0.02662 0.42450
#
# Static dielectric constant tensor:
#      x y z
#    x 4.040570 -0.093590 -0.015910 
#    y -0.093590 4.086820 0.069400 
#    z -0.015910 0.069400 3.793520 
# 
# 
# High freq. dielectric constant tensor:
#      x y z
#    x 1.873440 0.005570 -0.009270 
#    y 0.005570 1.879170 -0.003570 
#    z -0.009270 -0.003570 1.838630 
# 
# From -- ./inp_files/299292.got.cif
#   From: 2010.06.25/outbox.cif.g09.slc.cpg/sg2_150_cif.got.tgz:299292.got - 2010.06.27 13:26:56.
