data_PCOD8044450
_publ_section_title
;
Structure prediction by ZEFSAII (Michael W. Deem and Ramdas Pophale) SiO2 
 PCOD8044450
Probable space group: P -1
;
_chemical_formula_sum "Si O2"
_cell_formula_units_Z 16
_cell_length_a 14.768637
_cell_length_b 19.728543
_cell_length_c 8.499062
_cell_angle_alpha 42.281898
_cell_angle_beta 41.001605
_cell_angle_gamma 30.783016
_cell_volume 800.029791
_symmetry_space_group_name_H-M "P -1"
_symmetry_group_IT_number 2
_symmetry_cell_setting 'triclinic'
loop_
_space_group_symop_operation_xyz
x,y,z
-x,-y,-z
loop_
_atom_site_type_symbol
_atom_site_label
_atom_site_fract_x
_atom_site_fract_y
_atom_site_fract_z
Si Si1 0.192633 0.841273 0.383808
Si Si2 0.071039 0.553803 0.431450
Si Si3 0.418573 0.260389 0.480314
Si Si4 0.447909 0.328460 0.986746
Si Si5 0.770480 0.042195 0.579517
Si Si6 0.214941 0.195863 0.039518
Si Si7 0.839555 0.643492 0.879467
Si Si8 0.171461 0.636911 0.891281
O O1 0.238012 0.916440 0.300048
O O2 0.211288 0.735401 0.656573
O O3 0.335055 0.763097 0.186087
O O4 0.983743 0.952156 0.391833
O O5 0.274253 0.416883 0.467655
O O6 0.000000 0.500000 0.500000
O O7 0.927078 0.647582 0.599322
O O8 0.095724 0.646966 0.147552
O O9 0.435628 0.260414 0.269467
O O10 0.623339 0.176193 0.434099
O O11 0.332717 0.194793 0.752239
O O12 0.336840 0.337890 0.968371
O O13 0.361717 0.480492 0.877476
O O14 0.711862 0.954514 0.802320
O O15 0.246131 0.228096 0.115797
O O16 0.990842 0.315404 0.099528
O O17 0.000000 0.500000 0.000000
#
# Coordination Sequence:
#
# PCOD8044450 Si02
#       8
#     2   2   2   2   2   2   2   2
#     4  10  23  42  60  79 112 168 206 231 277 342
#     4  11  18  36  60  94 122 142 176 242 313 342
#     4  11  20  37  61  86 123 150 184 248 296 341
#     4  11  21  36  61  91 118 150 189 245 298 345
#     4  10  24  42  57  77 117 164 205 236 274 340
#     4  11  20  36  61  90 117 152 192 239 292 347
#     4  12  19  33  63  95 119 143 183 240 305 354
#     4  10  19  38  61  87 122 147 188 244 296 345
#
# _framework density 19.999257
#
# number of rings (size 3 to 8) (size 9 to 14) (size 15 to 20)
#    0.000    1.250    6.250    1.500    0.000    0.500 
#    0.000   11.250    0.000    0.000    0.000    0.000 
#    0.000    0.000    0.000    0.000    0.000    0.000 
#
# Total GULP energy -198397.264061 kJ/mol
# GULP energy per Si atom -12399.829004 kJ/mol
# Density = 1.995374 g / cm^3
# Si number density = 19.999257 Si / 1000 Ang^3
#
#
#
# Elastic Constant Matrix: (Units=GPa)
#
#
# Indices 1 2 3 4 5 6 
#
# 1 70.3342 27.6082 31.8225 -10.4044 -2.1724 -1.4382
# 2 27.6082 97.0492 40.5765 6.4501 0.8821 -11.3558
# 3 31.8225 40.5765 100.5684 13.2170 3.1207 10.7985
# 4 -10.4044 6.4501 13.2170 29.5709 0.7614 -0.9052
# 5 -2.1724 0.8821 3.1207 0.7614 21.4219 -2.2827
# 6 -1.4382 -11.3558 10.7985 -0.9052 -2.2827 37.6303
#
#
#
# Elastic Compliance Matrix: (Units=1/GPa)
#
#
# Indices 1 2 3 4 5 6 
#
# 1 0.020434 -0.003460 -0.006839 0.010989 0.003049 0.002149
# 2 -0.003460 0.014136 -0.004964 -0.001924 0.000449 0.005539
# 3 -0.006839 -0.004964 0.016073 -0.008632 -0.003246 -0.006777
# 4 0.010989 -0.001924 -0.008632 0.042031 0.001320 0.003407
# 5 0.003049 0.000449 -0.003246 0.001320 0.047837 0.004117
# 6 0.002149 0.005539 -0.006777 0.003407 0.004117 0.030604
#
#
# Mechanical properties :
#
#
# Convention : Reuss Voigt Hill
#
# Bulk Modulus (GPa) = 49.71245 51.99623 50.85434
# Shear Modulus (GPa) = 23.99825 28.92092 26.45959
#
# Velocity S-wave (km/s) = 3.46780 3.80689 3.64129
# Velocity P-wave (km/s) = 6.39885 6.73637 6.56978
#
# Compressibility (1/GPa) = 0.02011569
#
# Stress axis : x y z
#
# Youngs Moduli (GPa) = 48.93790 70.74172 62.21475
#
# Poissons Ratio (x) = 0.24477 0.42551
# Poissons Ratio (y) = 0.16933 0.30886
# Poissons Ratio (z) = 0.33470 0.35119
#
# Static dielectric constant tensor:
#      x y z
#    x 3.537080 -0.176990 0.046930 
#    y -0.176990 3.842830 0.085490 
#    z 0.046930 0.085490 3.648020 
# 
# 
# High freq. dielectric constant tensor:
#      x y z
#    x 1.762290 -0.015040 0.001330 
#    y -0.015040 1.787850 0.007740 
#    z 0.001330 0.007740 1.771950 
# 
# From -- ./inp_files/277496.got.cif
#   From: 2010.06.25/outbox.cif.g09.slc.cpg/sg2_139_cif.got.tgz:277496.got - 2010.06.27 13:26:56.
