data_PCOD8044156
_publ_section_title
;
Structure prediction by ZEFSAII (Michael W. Deem and Ramdas Pophale) SiO2 
 PCOD8044156
Probable space group: P -1
;
_chemical_formula_sum "Si O2"
_cell_formula_units_Z 16
_cell_length_a 19.093358
_cell_length_b 9.069430
_cell_length_c 25.785956
_cell_angle_alpha 28.926559
_cell_angle_beta 19.966159
_cell_angle_gamma 38.527794
_cell_volume 715.170093
_symmetry_space_group_name_H-M "P -1"
_symmetry_group_IT_number 2
_symmetry_cell_setting 'triclinic'
loop_
_space_group_symop_operation_xyz
x,y,z
-x,-y,-z
loop_
_atom_site_type_symbol
_atom_site_label
_atom_site_fract_x
_atom_site_fract_y
_atom_site_fract_z
Si Si1 0.253011 0.847625 0.224672
Si Si2 0.368018 0.242753 0.317401
Si Si3 0.862579 0.304606 0.537826
Si Si4 0.481074 0.316783 0.485468
Si Si5 0.486880 0.383866 0.342242
Si Si6 0.772619 0.601888 0.987845
Si Si7 0.687163 0.722851 0.770620
Si Si8 0.787267 0.456047 0.319521
O O1 0.202788 0.469878 0.366543
O O2 0.181924 0.902921 0.315063
O O3 0.500000 0.000000 0.000000
O O4 0.142945 0.037689 0.202124
O O5 0.588083 0.399694 0.143028
O O6 0.407322 0.215596 0.237751
O O7 0.273734 0.909386 0.510970
O O8 0.735252 0.578658 0.539389
O O9 0.115376 0.444350 0.315088
O O10 0.769383 0.069485 0.629056
O O11 0.499065 0.467731 0.368985
O O12 0.665558 0.512279 0.334337
O O13 0.264304 0.337168 0.659699
O O14 0.496534 0.963310 0.576115
O O15 0.685770 0.612883 0.103737
O O16 0.965772 0.434889 0.900288
O O17 0.500000 0.500000 0.000000
#
# Coordination Sequence:
#
# PCOD8044156 Si02
#       8
#     2   2   2   2   2   2   2   2
#     4  10  19  37  64  94 129 164 208 247 311 390
#     4  11  22  42  63  97 129 165 208 261 309 388
#     4  11  22  43  63  91 134 171 200 264 315 378
#     4  10  24  44  67  91 126 168 222 276 325 365
#     4  11  22  44  67  94 129 168 217 275 319 373
#     4  11  23  39  70  96 129 168 217 257 324 389
#     4  11  25  38  62  96 136 167 206 246 319 394
#     4  11  23  44  68  92 126 173 215 269 328 377
#
# _framework density 22.372301
#
# number of rings (size 3 to 8) (size 9 to 14) (size 15 to 20)
#    0.000    1.250    3.750    3.000    0.000    7.000 
#    0.000    0.000    0.000    0.000    0.000    0.000 
#    0.000    0.000    0.000    0.000    0.000    0.000 
#
# Total GULP energy -198345.202910 kJ/mol
# GULP energy per Si atom -12396.575182 kJ/mol
# Density = 2.232138 g / cm^3
# Si number density = 22.372301 Si / 1000 Ang^3
#
#
#
# Elastic Constant Matrix: (Units=GPa)
#
#
# Indices 1 2 3 4 5 6 
#
# 1 139.2529 30.6803 48.8593 23.2918 30.2320 14.9124
# 2 30.6803 111.8378 39.3043 29.9567 3.6656 -3.4971
# 3 48.8593 39.3043 92.5107 32.9900 9.8823 -6.0936
# 4 23.2918 29.9567 32.9900 45.5504 1.6496 -1.4419
# 5 30.2320 3.6656 9.8823 1.6496 30.8813 4.7263
# 6 14.9124 -3.4971 -6.0936 -1.4419 4.7263 39.0148
#
#
#
# Elastic Compliance Matrix: (Units=1/GPa)
#
#
# Indices 1 2 3 4 5 6 
#
# 1 0.011703 -0.000979 -0.004349 -0.001990 -0.009200 -0.004199
# 2 -0.000979 0.011502 -0.002511 -0.005242 0.000561 0.000751
# 3 -0.004349 -0.002511 0.017701 -0.008772 -0.001257 0.004030
# 4 -0.001990 -0.005242 -0.008772 0.032628 0.003684 -0.000319
# 5 -0.009200 0.000561 -0.001257 0.003684 0.041765 -0.001553
# 6 -0.004199 0.000751 0.004030 -0.000319 -0.001553 0.028109
#
#
# Mechanical properties :
#
#
# Convention : Reuss Voigt Hill
#
# Bulk Modulus (GPa) = 39.63834 64.58770 52.11302
# Shear Modulus (GPa) = 29.85181 38.07312 33.96247
#
# Velocity S-wave (km/s) = 3.65680 4.12976 3.90045
# Velocity P-wave (km/s) = 5.96537 7.18833 6.60521
#
# Compressibility (1/GPa) = 0.02522810
#
# Stress axis : x y z
#
# Youngs Moduli (GPa) = 85.45161 86.94479 56.49366
#
# Poissons Ratio (x) = 0.08508 0.24569
# Poissons Ratio (y) = 0.08362 0.14186
# Poissons Ratio (z) = 0.37163 0.21832
#
# Static dielectric constant tensor:
#      x y z
#    x 4.483850 -0.176750 0.191390 
#    y -0.176750 4.563780 0.176670 
#    z 0.191390 0.176670 3.967800 
# 
# 
# High freq. dielectric constant tensor:
#      x y z
#    x 1.890580 -0.001190 0.010430 
#    y -0.001190 1.892170 0.015530 
#    z 0.010430 0.015530 1.865820 
# 
# From -- ./inp_files/620681.got.cif
#   From: 2010.06.25/outbox.cif.g09.slc.cpg/sg2_311_cif.got.tgz:620681.got - 2010.06.27 13:26:56.
