data_PCOD8044638
_publ_section_title
;
Structure prediction by ZEFSAII (Michael W. Deem and Ramdas Pophale) SiO2 
 PCOD8044638
Probable space group: P -1
;
_chemical_formula_sum "Si O2"
_cell_formula_units_Z 16
_cell_length_a 11.454783
_cell_length_b 14.639733
_cell_length_c 13.592729
_cell_angle_alpha 108.405334
_cell_angle_beta 34.114606
_cell_angle_gamma 132.076411
_cell_volume 776.834115
_symmetry_space_group_name_H-M "P -1"
_symmetry_group_IT_number 2
_symmetry_cell_setting 'triclinic'
loop_
_space_group_symop_operation_xyz
x,y,z
-x,-y,-z
loop_
_atom_site_type_symbol
_atom_site_label
_atom_site_fract_x
_atom_site_fract_y
_atom_site_fract_z
Si Si1 0.375420 0.140212 0.816552
Si Si2 0.190874 0.785100 0.898202
Si Si3 0.260682 0.540087 0.900261
Si Si4 0.304912 0.440032 0.517422
Si Si5 0.341015 0.254955 0.710423
Si Si6 0.639152 0.228625 0.009063
Si Si7 0.894034 0.947131 0.821779
Si Si8 0.364110 0.960903 0.472608
O O1 0.507466 0.274007 0.701279
O O2 0.607346 0.131447 0.631454
O O3 0.374813 0.157475 0.939198
O O4 0.000000 0.000000 0.000000
O O5 0.333845 0.804831 0.911617
O O6 0.463876 0.896258 0.664854
O O7 0.939178 0.619824 0.969677
O O8 0.004817 0.818987 0.051922
O O9 0.579959 0.608106 0.647649
O O10 0.369682 0.657495 0.943594
O O11 0.000000 0.500000 0.000000
O O12 0.500000 0.500000 0.500000
O O13 0.393270 0.577443 0.461207
O O14 0.926740 0.295996 0.758766
O O15 0.221996 0.125824 0.677234
O O16 0.297497 0.075707 0.146014
O O17 0.000304 0.873913 0.702827
O O18 0.500000 0.000000 0.500000
#
# Coordination Sequence:
#
# PCOD8044638 Si02
#       8
#     2   2   2   2   2   2   2   2
#     4  10  19  39  60  89 118 152 205 255 283 356
#     4  10  20  37  61  90 119 154 208 242 290 363
#     4   9  19  36  58  84 119 156 205 239 275 362
#     4  11  20  38  65  87 113 168 204 231 297 364
#     4  10  19  38  64  91 112 156 208 245 283 360
#     4  11  24  40  57  92 131 157 186 256 308 349
#     4  11  24  38  61  93 126 153 196 253 310 344
#     4  12  21  37  63  89 113 162 206 244 295 351
#
# _framework density 20.596418
#
# number of rings (size 3 to 8) (size 9 to 14) (size 15 to 20)
#    0.000    1.500    8.750    0.000    1.750    2.000 
#    0.000    0.625    0.000    9.000    0.000    0.000 
#    0.000    0.000    0.000    0.000    0.000    0.000 
#
# Total GULP energy -198209.412071 kJ/mol
# GULP energy per Si atom -12388.088254 kJ/mol
# Density = 2.054954 g / cm^3
# Si number density = 20.596418 Si / 1000 Ang^3
#
#
#
# Elastic Constant Matrix: (Units=GPa)
#
#
# Indices 1 2 3 4 5 6 
#
# 1 96.9794 31.3415 48.5591 2.5585 11.8017 -13.9293
# 2 31.3415 51.0949 35.0314 22.1629 1.4968 -14.2791
# 3 48.5591 35.0314 106.1804 28.6812 3.8337 -7.9744
# 4 2.5585 22.1629 28.6812 35.1948 -7.2866 -3.3749
# 5 11.8017 1.4968 3.8337 -7.2866 34.0765 -3.1730
# 6 -13.9293 -14.2791 -7.9744 -3.3749 -3.1730 28.2402
#
#
#
# Elastic Compliance Matrix: (Units=1/GPa)
#
#
# Indices 1 2 3 4 5 6 
#
# 1 0.017440 -0.009266 -0.007440 0.010421 -0.002306 0.002802
# 2 -0.009266 0.039454 -0.001907 -0.021851 -0.001862 0.012020
# 3 -0.007440 -0.001907 0.016783 -0.012516 -0.002055 -0.001621
# 4 0.010421 -0.021851 -0.012516 0.053505 0.010021 -0.001922
# 5 -0.002306 -0.001862 -0.002055 0.010021 0.032807 0.002224
# 6 0.002802 0.012020 -0.001621 -0.001922 0.002224 0.042432
#
#
# Mechanical properties :
#
#
# Convention : Reuss Voigt Hill
#
# Bulk Modulus (GPa) = 27.43444 53.79095 40.61270
# Shear Modulus (GPa) = 19.85718 28.79047 24.32382
#
# Velocity S-wave (km/s) = 3.10838 3.74282 3.44026
# Velocity P-wave (km/s) = 5.12168 6.69714 5.96168
#
# Compressibility (1/GPa) = 0.03645053
#
# Stress axis : x y z
#
# Youngs Moduli (GPa) = 57.34101 25.34570 59.58537
#
# Poissons Ratio (x) = 0.23486 0.44329
# Poissons Ratio (y) = 0.53135 0.11363
# Poissons Ratio (z) = 0.42660 0.04833
#
# Static dielectric constant tensor:
#      x y z
#    x 2.896210 0.242260 -1.035990 
#    y 0.242260 3.675790 0.898250 
#    z -1.035990 0.898250 2.020570 
# 
# 
# High freq. dielectric constant tensor:
#      x y z
#    x 1.800420 -0.023480 0.006380 
#    y -0.023480 1.785870 0.030860 
#    z 0.006380 0.030860 1.804710 
# 
# From -- ./inp_files/522385.got.cif
#   From: 2010.06.25/outbox.cif.g09.slc.cpg/sg2_262_cif.got.tgz:522385.got - 2010.06.27 13:26:56.
