data_PCOD8044175
_publ_section_title
;
Structure prediction by ZEFSAII (Michael W. Deem and Ramdas Pophale) SiO2 
 PCOD8044175
Probable space group: P -1
;
_chemical_formula_sum "Si O2"
_cell_formula_units_Z 16
_cell_length_a 15.421827
_cell_length_b 7.679506
_cell_length_c 7.765141
_cell_angle_alpha 57.168835
_cell_angle_beta 63.982878
_cell_angle_gamma 51.896741
_cell_volume 600.495338
_symmetry_space_group_name_H-M "P -1"
_symmetry_group_IT_number 2
_symmetry_cell_setting 'triclinic'
loop_
_space_group_symop_operation_xyz
x,y,z
-x,-y,-z
loop_
_atom_site_type_symbol
_atom_site_label
_atom_site_fract_x
_atom_site_fract_y
_atom_site_fract_z
Si Si1 0.816011 0.196930 0.807588
Si Si2 0.451537 0.710132 0.591924
Si Si3 0.942661 0.230927 0.242174
Si Si4 0.720111 0.961154 0.206431
Si Si5 0.441593 0.270022 0.836444
Si Si6 0.779530 0.673063 0.960330
Si Si7 0.102220 0.484983 0.518654
Si Si8 0.233035 0.903691 0.448624
O O1 0.929911 0.942802 0.820928
O O2 0.837329 0.415135 0.716502
O O3 0.744530 0.247444 0.667144
O O4 0.751583 0.168544 0.039443
O O5 0.494124 0.435267 0.766798
O O6 0.542881 0.735297 0.384601
O O7 0.343010 0.771313 0.536793
O O8 0.407082 0.903272 0.682214
O O9 0.898037 0.442223 0.025435
O O10 0.937164 0.335526 0.380847
O O11 0.872909 0.091766 0.368923
O O12 0.726031 0.836884 0.089334
O O13 0.806819 0.784758 0.368038
O O14 0.314876 0.398991 0.948959
O O15 0.500000 0.000000 0.000000
O O16 0.796061 0.822040 0.713777
O O17 0.000000 0.500000 0.500000
#
# Coordination Sequence:
#
# PCOD8044175 Si02
#       8
#     2   2   2   2   2   2   2   2
#     4  10  23  41  60  88 129 175 207 238 305 365
#     4  11  24  41  66  95 123 153 204 265 312 362
#     4  10  21  39  62  89 125 175 210 243 297 366
#     4  10  25  42  57  94 131 159 201 256 312 359
#     4  11  23  43  70  95 115 157 210 254 317 377
#     4  10  21  41  66  89 125 163 206 255 304 370
#     4  10  22  37  59  90 125 163 212 255 295 350
#     4  10  19  37  65  87 121 159 208 248 294 363
#
# _framework density 26.644670999999999
#
# number of rings (size 3 to 8) (size 9 to 14) (size 15 to 20)
#    0.000    1.750    2.500    1.500    3.500    7.500 
#    0.000    0.625    0.000    0.000    0.000    0.000 
#    0.000    0.000    0.000    0.000    0.000    0.000 
#
# Total GULP energy -198314.497712 kJ/mol
# GULP energy per Si atom -12394.656107 kJ/mol
# Density = 2.658403 g / cm^3
# Si number density = 26.644671 Si / 1000 Ang^3
#
#
#
# Elastic Constant Matrix: (Units=GPa)
#
#
# Indices 1 2 3 4 5 6 
#
# 1 49.5965 -24.2521 -1.8180 -13.4578 -8.3534 3.7491
# 2 -24.2521 51.9680 3.4978 -12.3004 -1.0077 0.3021
# 3 -1.8180 3.4978 112.0651 -28.2227 -18.8127 11.9079
# 4 -13.4578 -12.3004 -28.2227 45.0194 -4.5880 -13.2566
# 5 -8.3534 -1.0077 -18.8127 -4.5880 34.4356 -7.6006
# 6 3.7491 0.3021 11.9079 -13.2566 -7.6006 20.9573
#
#
#
# Elastic Compliance Matrix: (Units=1/GPa)
#
#
# Indices 1 2 3 4 5 6 
#
# 1 0.053375 0.034830 0.013922 0.043767 0.032122 0.021374
# 2 0.034830 0.044036 0.010738 0.037571 0.024994 0.019864
# 3 0.013922 0.010738 0.016226 0.021319 0.017125 0.007831
# 4 0.043767 0.037571 0.021319 0.076039 0.043034 0.043222
# 5 0.032122 0.024994 0.017125 0.043034 0.059966 0.033132
# 6 0.021374 0.019864 0.007831 0.043222 0.033132 0.078513
#
#
# Mechanical properties :
#
#
# Convention : Reuss Voigt Hill
#
# Bulk Modulus (GPa) = 4.29893 18.72055 11.50974
# Shear Modulus (GPa) = 17.43901 35.82924 26.63413
#
# Velocity S-wave (km/s) = 2.56110 3.67100 3.16508
# Velocity P-wave (km/s) = 3.21910 5.00096 4.20548
#
# Compressibility (1/GPa) = 0.23261592
#
# Stress axis : x y z
#
# Youngs Moduli (GPa) = 18.73541 22.70873 61.63044
#
# Poissons Ratio (x) = -0.79093 -0.85805
# Poissons Ratio (y) = -0.65255 -0.66177
# Poissons Ratio (z) = -0.26084 -0.24384
#
# Static dielectric constant tensor:
#      x y z
#    x 4.716620 0.034590 -0.241500 
#    y 0.034590 4.840000 -0.148860 
#    z -0.241500 -0.148860 5.334600 
# 
# 
# High freq. dielectric constant tensor:
#      x y z
#    x 2.050130 0.002090 -0.017420 
#    y 0.002090 2.069060 -0.010370 
#    z -0.017420 -0.010370 2.087030 
# 
# From -- ./inp_files/327060.got.cif
#   From: 2010.06.25/outbox.cif.g09.slc.cpg/sg2_164_cif.got.tgz:327060.got - 2010.06.27 13:26:56.
