data_PCOD8044690
_publ_section_title
;
Structure prediction by ZEFSAII (Michael W. Deem and Ramdas Pophale) SiO2 
 PCOD8044690
Probable space group: P -1
;
_chemical_formula_sum "Si O2"
_cell_formula_units_Z 16
_cell_length_a 11.431446
_cell_length_b 15.576323
_cell_length_c 8.883418
_cell_angle_alpha 29.449717
_cell_angle_beta 66.964718
_cell_angle_gamma 69.232605
_cell_volume 715.352255
_symmetry_space_group_name_H-M "P -1"
_symmetry_group_IT_number 2
_symmetry_cell_setting 'triclinic'
loop_
_space_group_symop_operation_xyz
x,y,z
-x,-y,-z
loop_
_atom_site_type_symbol
_atom_site_label
_atom_site_fract_x
_atom_site_fract_y
_atom_site_fract_z
Si Si1 0.741702 0.371599 0.329351
Si Si2 0.862805 0.859450 0.190228
Si Si3 0.706570 0.659100 0.346884
Si Si4 0.997532 0.188130 0.515185
Si Si5 0.610711 0.358504 0.709730
Si Si6 0.744571 0.759895 0.834300
Si Si7 0.378790 0.024168 0.677340
Si Si8 0.479470 0.824628 0.373085
O O1 0.891047 0.328851 0.298610
O O2 0.694574 0.291597 0.630466
O O3 0.658570 0.264781 0.412764
O O4 0.719622 0.580779 0.027388
O O5 0.819459 0.713690 0.315929
O O6 0.745526 0.961818 0.173740
O O7 0.949065 0.761779 0.422434
O O8 0.942216 0.995222 0.846373
O O9 0.708331 0.450732 0.634226
O O10 0.572248 0.687023 0.453661
O O11 0.711760 0.755186 0.034779
O O12 0.108541 0.189943 0.332627
O O13 0.500000 0.500000 0.500000
O O14 0.564685 0.174008 0.077894
O O15 0.653157 0.904917 0.580883
O O16 0.486096 0.138691 0.527089
O O17 0.500000 0.000000 0.000000
#
# Coordination Sequence:
#
# PCOD8044690 Si02
#       8
#     2   2   2   2   2   2   2   2
#     4  11  20  36  63  90 121 162 203 247 301 363
#     4   9  19  37  67  90 112 163 214 247 282 370
#     4  10  21  38  62  93 121 152 203 255 305 356
#     4  10  19  38  65  88 121 160 208 246 300 357
#     4  11  19  35  61  88 120 155 198 246 301 357
#     4  10  24  37  59  91 130 158 192 258 316 347
#     4  10  20  39  63  91 121 160 204 248 301 365
#     4  11  19  37  68  89 112 161 215 241 286 374
#
# _framework density 22.366605
#
# number of rings (size 3 to 8) (size 9 to 14) (size 15 to 20)
#    0.000    1.750    3.750    1.125    0.000    1.000 
#    0.000    8.125   19.250    1.500    0.000    0.000 
#    0.000    0.000    0.000    0.000    0.000    0.000 
#
# Total GULP energy -198256.988047 kJ/mol
# GULP energy per Si atom -12391.061753 kJ/mol
# Density = 2.231570 g / cm^3
# Si number density = 22.366605 Si / 1000 Ang^3
#
#
#
# Elastic Constant Matrix: (Units=GPa)
#
#
# Indices 1 2 3 4 5 6 
#
# 1 144.3601 50.6055 46.1744 -13.6627 -8.6850 26.8794
# 2 50.6055 81.5948 36.3922 -0.8125 -3.5944 22.7793
# 3 46.1744 36.3922 84.0877 -16.8499 0.0626 6.4665
# 4 -13.6627 -0.8125 -16.8499 29.3975 -2.9873 -8.5395
# 5 -8.6850 -3.5944 0.0626 -2.9873 37.6316 -5.8994
# 6 26.8794 22.7793 6.4665 -8.5395 -5.8994 30.5335
#
#
#
# Elastic Compliance Matrix: (Units=1/GPa)
#
#
# Indices 1 2 3 4 5 6 
#
# 1 0.010444 -0.003278 -0.003655 0.001249 0.001362 -0.005362
# 2 -0.003278 0.022243 -0.008768 -0.010520 -0.001827 -0.015147
# 3 -0.003655 -0.008768 0.019373 0.011874 0.000657 0.009104
# 4 0.001249 -0.010520 0.011874 0.047101 0.005911 0.018549
# 5 0.001362 -0.001827 0.000657 0.005911 0.028302 0.007146
# 6 -0.005362 -0.015147 0.009104 0.018549 0.007146 0.053411
#
#
# Mechanical properties :
#
#
# Convention : Reuss Voigt Hill
#
# Bulk Modulus (GPa) = 48.40807 64.04298 56.22552
# Shear Modulus (GPa) = 22.81431 31.30389 27.05910
#
# Velocity S-wave (km/s) = 3.19723 3.74516 3.48199
# Velocity P-wave (km/s) = 5.94304 6.88455 6.43105
#
# Compressibility (1/GPa) = 0.02065771
#
# Stress axis : x y z
#
# Youngs Moduli (GPa) = 95.75194 44.95854 51.61873
#
# Poissons Ratio (x) = 0.14737 0.18864
# Poissons Ratio (y) = 0.31387 0.45261
# Poissons Ratio (z) = 0.34993 0.39421
#
# Static dielectric constant tensor:
#      x y z
#    x 4.310370 0.096370 -0.262710 
#    y 0.096370 3.910930 -0.062700 
#    z -0.262710 -0.062700 4.021450 
# 
# 
# High freq. dielectric constant tensor:
#      x y z
#    x 1.885060 0.003140 -0.018700 
#    y 0.003140 1.865130 -0.005570 
#    z -0.018700 -0.005570 1.874050 
# 
# From -- ./inp_files/271328.got.cif
#   From: 2010.06.25/outbox.cif.g09.slc.cpg/sg2_136_cif.got.tgz:271328.got - 2010.06.27 13:26:56.
