data_PCOD8044884
_publ_section_title
;
Structure prediction by ZEFSAII (Michael W. Deem and Ramdas Pophale) SiO2 
 PCOD8044884
Probable space group: P 2
;
_chemical_formula_sum "Si O2"
_cell_formula_units_Z 14
_cell_length_a 13.499665
_cell_length_b 9.994040
_cell_length_c 13.519040
_cell_angle_alpha 90.000000
_cell_angle_beta 22.025740
_cell_angle_gamma 90.000000
_cell_volume 684.018640
_symmetry_space_group_name_H-M "P 2"
_symmetry_group_IT_number 3
_symmetry_cell_setting 'monoclinic'
loop_
_space_group_symop_operation_xyz
x,y,z
-x,y,-z
loop_
_atom_site_type_symbol
_atom_site_label
_atom_site_fract_x
_atom_site_fract_y
_atom_site_fract_z
Si Si1 0.281912 0.509330 0.781058
Si Si2 0.381444 0.986590 0.879920
Si Si3 0.346817 0.273117 0.845725
Si Si4 0.606772 0.691979 0.134955
Si Si5 0.053243 0.043691 0.558655
Si Si6 0.912752 0.328650 0.407997
Si Si7 0.957205 0.622069 0.427495
O O1 0.500000 0.551503 0.500000
O O2 0.291548 0.348577 0.792963
O O3 0.335574 0.585374 0.833560
O O4 0.000000 0.552224 0.000000
O O5 0.351578 0.841160 0.856712
O O6 0.337369 0.110531 0.843884
O O7 0.668541 0.993102 0.661080
O O8 0.172721 0.992519 0.160691
O O9 0.628257 0.323480 0.621548
O O10 0.128404 0.325765 0.122820
O O11 0.309201 0.681869 0.371365
O O12 0.799921 0.670595 0.863874
O O13 0.000000 0.983162 0.500000
O O14 0.048141 0.204329 0.555148
O O15 0.942765 0.461750 0.443721
O O16 0.000000 0.673011 0.500000
#
# Coordination Sequence:
#
# PCOD8044884 Si02
#       7
#     2   2   2   2   2   2   2
#     4  12  24  42  69  94 116 158 206 259 323 370
#     4  10  23  38  60  81 123 168 190 249 316 346
#     4  10  20  40  63  87 116 151 200 255 307 357
#     4  12  25  43  59  93 133 162 205 257 302 374
#     4  10  20  34  57  86 119 162 216 248 285 357
#     4  10  18  36  58  87 122 157 199 260 297 339
#     4  12  23  37  62  92 130 174 208 248 301 359
#
# _framework density 20.467279999999999
#
# number of rings (size 3 to 8) (size 9 to 14) (size 15 to 20)
#    0.000    1.143    2.857    3.857    0.000    3.429 
#    0.000    5.714    0.000    0.000    0.000    0.000 
#    0.000    0.000    0.000    0.000    0.000    0.000 
#
# Total GULP energy -173587.674581 kJ/mol
# GULP energy per Si atom -12399.119613 kJ/mol
# Density = 2.042070 g / cm^3
# Si number density = 20.467280 Si / 1000 Ang^3
#
#
#
# Elastic Constant Matrix: (Units=GPa)
#
#
# Indices 1 2 3 4 5 6 
#
# 1 77.7779 19.7902 28.3610 0.0000 5.7464 0.0000
# 2 19.7902 136.8624 8.7254 0.0000 5.1650 0.0000
# 3 28.3610 8.7254 144.9416 0.0000 -8.9760 0.0000
# 4 0.0000 0.0000 0.0000 11.8058 0.0000 -1.5826
# 5 5.7464 5.1650 -8.9760 0.0000 17.4212 0.0000
# 6 0.0000 0.0000 0.0000 -1.5826 0.0000 7.7949
#
#
#
# Elastic Compliance Matrix: (Units=1/GPa)
#
#
# Indices 1 2 3 4 5 6 
#
# 1 0.014905 -0.001724 -0.003187 0.000000 -0.006047 0.000000
# 2 -0.001724 0.007639 -0.000235 0.000000 -0.001817 0.000000
# 3 -0.003187 -0.000235 0.007857 0.000000 0.005169 0.000000
# 4 0.000000 0.000000 0.000000 0.087074 0.000000 0.017678
# 5 -0.006047 -0.001817 0.005169 0.000000 0.062598 0.000000
# 6 0.000000 0.000000 0.000000 0.017678 0.000000 0.131878
#
#
# Mechanical properties :
#
#
# Convention : Reuss Voigt Hill
#
# Bulk Modulus (GPa) = 49.72852 52.59279 51.16065
# Shear Modulus (GPa) = 15.20004 27.58474 21.39239
#
# Velocity S-wave (km/s) = 2.72812 3.67515 3.23646
# Velocity P-wave (km/s) = 5.85430 6.61519 6.24634
#
# Compressibility (1/GPa) = 0.02010919
#
# Stress axis : x y z
#
# Youngs Moduli (GPa) = 67.09297 130.89952 127.27100
#
# Poissons Ratio (x) = 0.22564 0.40563
# Poissons Ratio (y) = 0.11565 0.02993
# Poissons Ratio (z) = 0.21384 0.03078
#
# Static dielectric constant tensor:
#      x y z
#    x 3.366090 0.000000 -0.076740 
#    y 0.000000 4.149510 0.000000 
#    z -0.076740 0.000000 3.880130 
# 
# 
# High freq. dielectric constant tensor:
#      x y z
#    x 1.766430 0.000000 -0.009570 
#    y 0.000000 1.817340 0.000000 
#    z -0.009570 0.000000 1.825040 
# 
# From -- ./inp_files/13967.got.cif
#   From: 2010.03.12/outbox.cif.g09.slc.cpg/sg3_7_cif.got.tgz:13967.got - 2010.03.31 09:20:49.
