data_PCOD8044379
_publ_section_title
;
Structure prediction by ZEFSAII (Michael W. Deem and Ramdas Pophale) SiO2 
 PCOD8044379
Probable space group: P -1
;
_chemical_formula_sum "Si O2"
_cell_formula_units_Z 16
_cell_length_a 9.771226
_cell_length_b 13.732139
_cell_length_c 7.952885
_cell_angle_alpha 93.400373
_cell_angle_beta 106.906660
_cell_angle_gamma 129.244843
_cell_volume 746.872799
_symmetry_space_group_name_H-M "P -1"
_symmetry_group_IT_number 2
_symmetry_cell_setting 'triclinic'
loop_
_space_group_symop_operation_xyz
x,y,z
-x,-y,-z
loop_
_atom_site_type_symbol
_atom_site_label
_atom_site_fract_x
_atom_site_fract_y
_atom_site_fract_z
Si Si1 0.082481 0.970705 0.167816
Si Si2 0.480751 0.078747 0.235874
Si Si3 0.835521 0.505915 0.240199
Si Si4 0.221369 0.295495 0.755381
Si Si5 0.390239 0.062891 0.830246
Si Si6 0.271967 0.642676 0.475637
Si Si7 0.040781 0.103163 0.396430
Si Si8 0.416205 0.656899 0.171763
O O1 0.903489 0.828451 0.172828
O O2 0.250219 0.972540 0.182080
O O3 0.179435 0.105563 0.322445
O O4 0.000000 0.000000 0.000000
O O5 0.596297 0.202830 0.415247
O O6 0.555398 0.003058 0.276999
O O7 0.509072 0.119180 0.053832
O O8 0.803344 0.604126 0.197828
O O9 0.726702 0.426551 0.366919
O O10 0.060886 0.586206 0.349094
O O11 0.754685 0.412397 0.036028
O O12 0.449421 0.371706 0.842547
O O13 0.144368 0.243739 0.531620
O O14 0.448989 0.185148 0.760752
O O15 0.158349 0.953248 0.770440
O O16 0.340217 0.612664 0.332700
O O17 0.000000 0.000000 0.500000
#
# Coordination Sequence:
#
# PCOD8044379 Si02
#       8
#     2   2   2   2   2   2   2   2
#     4  11  21  39  63  99 133 166 211 266 338 390
#     4  11  23  40  66 100 129 172 217 269 337 392
#     4  11  26  49  64  96 134 174 232 268 323 387
#     4  11  24  42  67  97 134 173 215 274 324 399
#     4  11  22  39  63  96 136 169 213 274 329 391
#     4  11  26  45  71  93 132 179 220 279 324 388
#     4  10  19  38  59  89 131 166 200 262 329 376
#     4  12  23  46  69  94 134 175 220 275 329 388
#
# _framework density 21.422657000000001
#
# number of rings (size 3 to 8) (size 9 to 14) (size 15 to 20)
#    0.000    1.000    5.000    2.250    3.500    1.000 
#    2.250    0.000    0.000    0.000    0.000    0.000 
#    0.000    0.000    0.000    0.000    0.000    0.000 
#
# Total GULP energy -198228.629936 kJ/mol
# GULP energy per Si atom -12389.289371 kJ/mol
# Density = 2.137390 g / cm^3
# Si number density = 21.422657 Si / 1000 Ang^3
#
#
#
# Elastic Constant Matrix: (Units=GPa)
#
#
# Indices 1 2 3 4 5 6 
#
# 1 125.0403 34.9061 18.8772 -2.6192 -3.9445 1.6578
# 2 34.9061 66.1462 31.7653 -7.5210 -6.6514 1.1613
# 3 18.8772 31.7653 116.4302 2.5545 -5.5114 5.0303
# 4 -2.6192 -7.5210 2.5545 30.2607 6.2455 -1.6506
# 5 -3.9445 -6.6514 -5.5114 6.2455 36.1867 -1.8203
# 6 1.6578 1.1613 5.0303 -1.6506 -1.8203 31.1860
#
#
#
# Elastic Compliance Matrix: (Units=1/GPa)
#
#
# Indices 1 2 3 4 5 6 
#
# 1 0.009391 -0.004912 -0.000152 -0.000445 0.000159 -0.000306
# 2 -0.004912 0.020789 -0.004927 0.004835 0.001733 0.000639
# 3 -0.000152 -0.004927 0.010120 -0.002371 0.000952 -0.001511
# 4 -0.000445 0.004835 -0.002371 0.035660 -0.005586 0.001787
# 5 0.000159 0.001733 0.000952 -0.005586 0.029139 0.001179
# 6 -0.000306 0.000639 -0.001511 0.001787 0.001179 0.032465
#
#
# Mechanical properties :
#
#
# Convention : Reuss Voigt Hill
#
# Bulk Modulus (GPa) = 49.21690 53.19042 51.20366
# Shear Modulus (GPa) = 30.42854 34.33121 32.37988
#
# Velocity S-wave (km/s) = 3.77290 4.00755 3.89199
# Velocity P-wave (km/s) = 6.48103 6.80418 6.64457
#
# Compressibility (1/GPa) = 0.02031822
#
# Stress axis : x y z
#
# Youngs Moduli (GPa) = 106.48037 48.10208 98.81345
#
# Poissons Ratio (x) = 0.23629 0.01502
# Poissons Ratio (y) = 0.52305 0.48686
# Poissons Ratio (z) = 0.01618 0.23700
#
# Static dielectric constant tensor:
#      x y z
#    x 3.741000 -0.188760 -0.384490 
#    y -0.188760 3.289170 -0.302990 
#    z -0.384490 -0.302990 3.823630 
# 
# 
# High freq. dielectric constant tensor:
#      x y z
#    x 1.850700 0.002000 -0.002310 
#    y 0.002000 1.812090 0.002400 
#    z -0.002310 0.002400 1.861050 
# 
# From -- ./inp_files/202597.got.cif
#   From: 2010.06.25/outbox.cif.g09.slc.cpg/sg2_102_cif.got.tgz:202597.got - 2010.06.27 13:26:56.
