data_PCOD8044500
_publ_section_title
;
Structure prediction by ZEFSAII (Michael W. Deem and Ramdas Pophale) SiO2 
 PCOD8044500
Probable space group: P -1
;
_chemical_formula_sum "Si O2"
_cell_formula_units_Z 14
_cell_length_a 12.429522
_cell_length_b 9.803859
_cell_length_c 8.603505
_cell_angle_alpha 114.167594
_cell_angle_beta 94.658415
_cell_angle_gamma 127.710634
_cell_volume 672.095888
_symmetry_space_group_name_H-M "P -1"
_symmetry_group_IT_number 2
_symmetry_cell_setting 'triclinic'
loop_
_space_group_symop_operation_xyz
x,y,z
-x,-y,-z
loop_
_atom_site_type_symbol
_atom_site_label
_atom_site_fract_x
_atom_site_fract_y
_atom_site_fract_z
Si Si1 0.416533 0.055377 0.091924
Si Si2 0.155868 0.071572 0.579943
Si Si3 0.904622 0.570507 0.848524
Si Si4 0.173230 0.821458 0.232155
Si Si5 0.712936 0.648519 0.756876
Si Si6 0.157292 0.952696 0.863579
Si Si7 0.390364 0.471811 0.644004
O O1 0.552596 0.303744 0.257703
O O2 0.311523 0.929050 0.174933
O O3 0.500000 0.000000 0.000000
O O4 0.310319 0.006455 0.917153
O O5 0.286267 0.329169 0.714314
O O6 0.206263 0.995959 0.425033
O O7 0.140385 0.982793 0.701477
O O8 0.000000 0.000000 0.500000
O O9 0.838989 0.337663 0.734459
O O10 0.761971 0.545279 0.805006
O O11 0.010203 0.708099 0.775410
O O12 0.010191 0.694912 0.071700
O O13 0.532782 0.498740 0.691000
O O14 0.726361 0.663720 0.578620
O O15 0.824590 0.889419 0.942915
#
# Coordination Sequence:
#
# PCOD8044500 Si02
#       7
#     2   2   2   2   2   2   2
#     4  10  23  43  63  87 122 159 198 250 303 353
#     4  12  24  39  61  91 124 157 200 250 297 352
#     4  10  20  38  62  86 122 163 198 246 299 347
#     4  10  23  40  61  90 120 160 206 241 296 366
#     4  10  19  38  62  85 118 161 202 247 299 347
#     4  10  22  36  59  91 121 158 208 243 286 363
#     4  10  22  38  60  87 118 155 203 249 296 358
#
# _framework density 20.830361
#
# number of rings (size 3 to 8) (size 9 to 14) (size 15 to 20)
#    0.000    1.714    0.000    5.571    0.000    9.714 
#    0.000    2.143    0.000    0.000    0.000    0.000 
#    0.000    0.000    0.000    0.000    0.000    0.000 
#
# Total GULP energy -173481.403307 kJ/mol
# GULP energy per Si atom -12391.528808 kJ/mol
# Density = 2.078295 g / cm^3
# Si number density = 20.830361 Si / 1000 Ang^3
#
#
#
# Elastic Constant Matrix: (Units=GPa)
#
#
# Indices 1 2 3 4 5 6 
#
# 1 140.9370 63.2716 58.1184 -4.3428 2.6266 -18.3255
# 2 63.2716 175.5263 55.0721 -2.5289 2.5401 -4.8918
# 3 58.1184 55.0721 82.4999 -9.9101 -1.6203 -2.1052
# 4 -4.3428 -2.5289 -9.9101 34.1498 -5.0027 3.9743
# 5 2.6266 2.5401 -1.6203 -5.0027 27.7248 -6.2442
# 6 -18.3255 -4.8918 -2.1052 3.9743 -6.2442 30.8734
#
#
#
# Elastic Compliance Matrix: (Units=1/GPa)
#
#
# Indices 1 2 3 4 5 6 
#
# 1 0.011544 -0.001833 -0.006925 -0.001430 -0.000184 0.006237
# 2 -0.001833 0.007576 -0.003902 -0.000919 -0.000966 -0.000231
# 3 -0.006925 -0.003902 0.020216 0.005461 0.002376 -0.003573
# 4 -0.001430 -0.000919 0.005461 0.031839 0.005470 -0.003614
# 5 -0.000184 -0.000966 0.002376 0.005470 0.038891 0.007061
# 6 0.006237 -0.000231 -0.003573 -0.003614 0.007061 0.037706
#
#
# Mechanical properties :
#
#
# Convention : Reuss Voigt Hill
#
# Bulk Modulus (GPa) = 71.34223 83.54304 77.44263
# Shear Modulus (GPa) = 28.12714 33.38299 30.75507
#
# Velocity S-wave (km/s) = 3.67862 4.00761 3.84663
# Velocity P-wave (km/s) = 7.23647 7.84908 7.54899
#
# Compressibility (1/GPa) = 0.01401694
#
# Stress axis : x y z
#
# Youngs Moduli (GPa) = 86.62345 131.99171 49.46582
#
# Poissons Ratio (x) = 0.24188 0.34257
# Poissons Ratio (y) = 0.15874 0.19300
# Poissons Ratio (z) = 0.59991 0.51500
#
# Static dielectric constant tensor:
#      x y z
#    x 3.658920 -0.110030 0.042350 
#    y -0.110030 4.079600 -0.057410 
#    z 0.042350 -0.057410 3.674940 
# 
# 
# High freq. dielectric constant tensor:
#      x y z
#    x 1.812900 -0.005200 0.017700 
#    y -0.005200 1.830250 0.001960 
#    z 0.017700 0.001960 1.805390 
# 
# From -- ./inp_files/245162.got.cif
#   From: 2010.06.25/outbox.cif.g09.slc.cpg/sg2_123_cif.got.tgz:245162.got - 2010.06.27 13:26:56.
