data_PCOD8044650
_publ_section_title
;
Structure prediction by ZEFSAII (Michael W. Deem and Ramdas Pophale) SiO2 
 PCOD8044650
Probable space group: P -1
;
_chemical_formula_sum "Si O2"
_cell_formula_units_Z 16
_cell_length_a 24.409768
_cell_length_b 11.780357
_cell_length_c 6.533284
_cell_angle_alpha 110.438976
_cell_angle_beta 58.376889
_cell_angle_gamma 150.093078
_cell_volume 772.691373
_symmetry_space_group_name_H-M "P -1"
_symmetry_group_IT_number 2
_symmetry_cell_setting 'triclinic'
loop_
_space_group_symop_operation_xyz
x,y,z
-x,-y,-z
loop_
_atom_site_type_symbol
_atom_site_label
_atom_site_fract_x
_atom_site_fract_y
_atom_site_fract_z
Si Si1 0.142927 0.172368 0.021928
Si Si2 0.620766 0.329818 0.326462
Si Si3 0.736372 0.266014 0.999576
Si Si4 0.988212 0.795751 0.751856
Si Si5 0.802000 0.913716 0.781755
Si Si6 0.423564 0.100154 0.264248
Si Si7 0.445327 0.589584 0.176923
Si Si8 0.320824 0.054919 0.817494
O O1 0.266552 0.403251 0.799441
O O2 0.058287 0.942956 0.916076
O O3 0.178575 0.169422 0.163128
O O4 0.067795 0.173569 0.222078
O O5 0.509699 0.151860 0.265756
O O6 0.572204 0.305243 0.620987
O O7 0.665760 0.266265 0.239146
O O8 0.881110 0.527231 0.844889
O O9 0.673685 0.136695 0.822608
O O10 0.728654 0.142736 0.092097
O O11 0.080048 0.878672 0.465375
O O12 0.680518 0.690909 0.741369
O O13 0.782016 0.005112 0.005681
O O14 0.344627 0.064072 0.539287
O O15 0.510719 0.321405 0.085964
O O16 0.550951 0.690872 0.166978
#
# Coordination Sequence:
#
# PCOD8044650 Si02
#       8
#     2   2   2   2   2   2   2   2
#     4  10  21  39  63  95 119 153 202 255 306 349
#     4  10  19  38  64  93 121 150 202 258 306 351
#     4  10  23  41  60  88 126 163 196 248 299 363
#     4  10  23  41  63  90 123 155 203 255 299 353
#     4  12  22  40  65  90 122 162 202 248 303 360
#     4  10  21  39  60  91 121 162 204 244 303 356
#     4  10  21  38  63  96 120 156 199 257 307 351
#     4  10  25  40  58  90 127 164 203 241 295 365
#
# _framework density 20.706842999999999
#
# number of rings (size 3 to 8) (size 9 to 14) (size 15 to 20)
#    0.000    1.750    2.500    1.125    0.000    9.500 
#    0.000    1.250    0.000    0.000    0.000    0.000 
#    0.000    0.000    0.000    0.000    0.000    0.000 
#
# Total GULP energy -198468.691844 kJ/mol
# GULP energy per Si atom -12404.293240 kJ/mol
# Density = 2.065971 g / cm^3
# Si number density = 20.706843 Si / 1000 Ang^3
#
#
#
# Elastic Constant Matrix: (Units=GPa)
#
#
# Indices 1 2 3 4 5 6 
#
# 1 54.4904 17.5187 39.8045 -2.2086 -8.1680 -1.2819
# 2 17.5187 96.9670 30.2672 -7.4638 0.8081 12.5441
# 3 39.8045 30.2672 141.4123 -5.2200 -14.4465 3.7708
# 4 -2.2086 -7.4638 -5.2200 23.9424 3.5469 -0.6263
# 5 -8.1680 0.8081 -14.4465 3.5469 30.4158 -2.6845
# 6 -1.2819 12.5441 3.7708 -0.6263 -2.6845 17.6130
#
#
#
# Elastic Compliance Matrix: (Units=1/GPa)
#
#
# Indices 1 2 3 4 5 6 
#
# 1 0.024579 -0.003486 -0.005900 -0.000611 0.004510 0.006200
# 2 -0.003486 0.013035 -0.001767 0.003608 -0.003385 -0.009547
# 3 -0.005900 -0.001767 0.009437 0.000526 0.002818 -0.000743
# 4 -0.000611 0.003608 0.000526 0.043680 -0.005279 -0.001978
# 5 0.004510 -0.003385 0.002818 -0.005279 0.036800 0.007557
# 6 0.006200 -0.009547 -0.000743 -0.001978 0.007557 0.065267
#
#
# Mechanical properties :
#
#
# Convention : Reuss Voigt Hill
#
# Bulk Modulus (GPa) = 40.40883 52.00561 46.20722
# Shear Modulus (GPa) = 22.38614 28.07953 25.23284
#
# Velocity S-wave (km/s) = 3.29157 3.68645 3.49460
# Velocity P-wave (km/s) = 5.83121 6.57949 6.21662
#
# Compressibility (1/GPa) = 0.02474706
#
# Stress axis : x y z
#
# Youngs Moduli (GPa) = 40.68484 76.71643 105.96124
#
# Poissons Ratio (x) = 0.26742 0.62513
# Poissons Ratio (y) = 0.14182 0.18721
# Poissons Ratio (z) = 0.24002 0.13554
#
# Static dielectric constant tensor:
#      x y z
#    x 3.549310 0.184510 -0.175240 
#    y 0.184510 3.751380 -0.046060 
#    z -0.175240 -0.046060 3.779280 
# 
# 
# High freq. dielectric constant tensor:
#      x y z
#    x 1.796650 0.006780 -0.008480 
#    y 0.006780 1.810940 -0.003390 
#    z -0.008480 -0.003390 1.818650 
# 
# From -- ./inp_files/69204.got.cif
#   From: 2010.06.25/outbox.cif.g09.slc.cpg/sg2_35_cif.got.tgz:69204.got - 2010.06.27 13:26:56.
