data_PCOD8044114
_publ_section_title
;
Structure prediction by ZEFSAII (Michael W. Deem and Ramdas Pophale) SiO2 
 PCOD8044114
Probable space group: P -1
;
_chemical_formula_sum "Si O2"
_cell_formula_units_Z 16
_cell_length_a 11.200291
_cell_length_b 17.897541
_cell_length_c 9.056364
_cell_angle_alpha 130.611256
_cell_angle_beta 93.990384
_cell_angle_gamma 125.122796
_cell_volume 787.834821
_symmetry_space_group_name_H-M "P -1"
_symmetry_group_IT_number 2
_symmetry_cell_setting 'triclinic'
loop_
_space_group_symop_operation_xyz
x,y,z
-x,-y,-z
loop_
_atom_site_type_symbol
_atom_site_label
_atom_site_fract_x
_atom_site_fract_y
_atom_site_fract_z
Si Si1 0.101233 0.840745 0.017482
Si Si2 0.236497 0.623278 0.691313
Si Si3 0.967404 0.867631 0.286994
Si Si4 0.777759 0.496098 0.736632
Si Si5 0.160069 0.377570 0.543085
Si Si6 0.482341 0.972073 0.288780
Si Si7 0.472062 0.499090 0.170363
Si Si8 0.950172 0.266287 0.686853
O O1 0.086394 0.933383 0.224437
O O2 0.336486 0.959136 0.194996
O O3 0.925493 0.655345 0.841637
O O4 0.036008 0.802562 0.791987
O O5 0.306231 0.651188 0.560451
O O6 0.257242 0.539034 0.681928
O O7 0.000000 0.500000 0.500000
O O8 0.385480 0.802613 0.013195
O O9 0.053670 0.845696 0.384634
O O10 0.000000 0.000000 0.500000
O O11 0.719735 0.691820 0.027329
O O12 0.578539 0.421131 0.689651
O O13 0.936029 0.578783 0.992775
O O14 0.327419 0.402827 0.598280
O O15 0.087950 0.360793 0.675655
O O16 0.500000 0.000000 0.500000
O O17 0.716205 0.141260 0.463963
O O18 0.500000 0.500000 0.000000
#
# Coordination Sequence:
#
# PCOD8044114 Si02
#       8
#     2   2   2   2   2   2   2   2
#     4   9  20  37  59  83 120 152 199 243 300 352
#     4  11  22  39  62  90 122 153 211 251 283 364
#     4  10  21  38  60  87 116 151 202 244 295 369
#     4   9  18  38  60  87 120 154 202 245 292 362
#     4  11  21  39  62  88 121 158 198 252 300 343
#     4  12  20  40  65  82 119 166 197 244 305 356
#     4  10  19  37  64  83 119 159 195 248 304 346
#     4  10  21  38  63  85 123 157 195 246 306 351
#
# _framework density 20.308826
#
# number of rings (size 3 to 8) (size 9 to 14) (size 15 to 20)
#    0.000    2.000    7.500    0.000    1.750    5.000 
#    0.000    4.375    0.000    0.000    0.000    0.000 
#    0.000    0.000    0.000    0.000    0.000    0.000 
#
# Total GULP energy -198211.792542 kJ/mol
# GULP energy per Si atom -12388.237034 kJ/mol
# Density = 2.026260 g / cm^3
# Si number density = 20.308826 Si / 1000 Ang^3
#
#
#
# Elastic Constant Matrix: (Units=GPa)
#
#
# Indices 1 2 3 4 5 6 
#
# 1 114.1603 30.1158 77.6001 -8.8359 7.8718 28.2386
# 2 30.1158 53.7458 37.9495 -17.4907 -1.5741 20.2711
# 3 77.6001 37.9495 157.3185 -24.0546 -1.0734 15.5971
# 4 -8.8359 -17.4907 -24.0546 29.9454 11.5879 1.1029
# 5 7.8718 -1.5741 -1.0734 11.5879 54.9253 -1.9594
# 6 28.2386 20.2711 15.5971 1.1029 -1.9594 29.3837
#
#
#
# Elastic Compliance Matrix: (Units=1/GPa)
#
#
# Indices 1 2 3 4 5 6 
#
# 1 0.017019 0.001083 -0.007047 0.001818 -0.003417 -0.013658
# 2 0.001083 0.037452 -0.003640 0.022065 -0.004739 -0.026089
# 3 -0.007047 -0.003640 0.011070 0.004451 0.000299 0.003261
# 4 0.001818 0.022065 0.004451 0.055907 -0.012130 -0.022239
# 5 -0.003417 -0.004739 0.000299 -0.012130 0.021421 0.008278
# 6 -0.013658 -0.026089 0.003261 -0.022239 0.008278 0.064813
#
#
# Mechanical properties :
#
#
# Convention : Reuss Voigt Hill
#
# Bulk Modulus (GPa) = 21.58371 68.50613 45.04492
# Shear Modulus (GPa) = 20.63258 34.82150 27.72704
#
# Velocity S-wave (km/s) = 3.19084 4.14526 3.69897
# Velocity P-wave (km/s) = 4.92200 7.53103 6.36170
#
# Compressibility (1/GPa) = 0.04633123
#
# Stress axis : x y z
#
# Youngs Moduli (GPa) = 58.75709 26.70091 90.33252
#
# Poissons Ratio (x) = -0.02891 0.63661
# Poissons Ratio (y) = -0.06361 0.32884
# Poissons Ratio (z) = 0.41408 0.09720
#
# Static dielectric constant tensor:
#      x y z
#    x 4.527580 0.053820 -0.470060 
#    y 0.053820 3.919730 -0.140260 
#    z -0.470060 -0.140260 4.640620 
# 
# 
# High freq. dielectric constant tensor:
#      x y z
#    x 1.796010 0.032900 0.005700 
#    y 0.032900 1.765290 -0.026360 
#    z 0.005700 -0.026360 1.799280 
# 
# From -- ./inp_files/282304.got.cif
#   From: 2010.06.25/outbox.cif.g09.slc.cpg/sg2_142_cif.got.tgz:282304.got - 2010.06.27 13:26:56.
