data_PCOD8044444
_publ_section_title
;
Structure prediction by ZEFSAII (Michael W. Deem and Ramdas Pophale) SiO2 
 PCOD8044444
Probable space group: P -1
;
_chemical_formula_sum "Si O2"
_cell_formula_units_Z 16
_cell_length_a 8.693646
_cell_length_b 21.080796
_cell_length_c 9.771499
_cell_angle_alpha 76.408689
_cell_angle_beta 132.879304
_cell_angle_gamma 67.203068
_cell_volume 816.171077
_symmetry_space_group_name_H-M "P -1"
_symmetry_group_IT_number 2
_symmetry_cell_setting 'triclinic'
loop_
_space_group_symop_operation_xyz
x,y,z
-x,-y,-z
loop_
_atom_site_type_symbol
_atom_site_label
_atom_site_fract_x
_atom_site_fract_y
_atom_site_fract_z
Si Si1 0.652569 0.279278 0.846970
Si Si2 0.651528 0.653221 0.093692
Si Si3 0.399157 0.469858 0.561494
Si Si4 0.322176 0.975787 0.566667
Si Si5 0.566568 0.156307 0.091168
Si Si6 0.341704 0.593106 0.946158
Si Si7 0.379526 0.107957 0.491700
Si Si8 0.616326 0.785101 0.345749
O O1 0.355303 0.346952 0.744589
O O2 0.552965 0.364851 0.649315
O O3 0.648973 0.210999 0.799887
O O4 0.996233 0.207728 0.169603
O O5 0.009120 0.561005 0.293059
O O6 0.498233 0.760640 0.906550
O O7 0.439656 0.641423 0.921843
O O8 0.500000 0.500000 0.500000
O O9 0.556455 0.444180 0.817406
O O10 0.514660 0.884953 0.838669
O O11 0.398047 0.929498 0.485857
O O12 0.455313 0.017402 0.638853
O O13 0.938378 0.065152 0.312866
O O14 0.349034 0.201549 0.799159
O O15 0.955554 0.676519 0.661341
O O16 0.500000 0.500000 0.000000
O O17 0.494752 0.128282 0.671465
#
# Coordination Sequence:
#
# PCOD8044444 Si02
#       8
#     2   2   2   2   2   2   2   2
#     4  10  20  41  60  90 123 162 198 242 303 370
#     4  10  19  38  61  86 120 164 197 235 302 368
#     4  11  23  38  63  90 125 160 195 249 308 350
#     4  10  22  40  61  88 122 162 197 256 305 354
#     4  10  21  39  62  88 122 159 204 248 304 352
#     4  11  20  37  62  89 119 163 207 239 293 371
#     4  11  21  40  65  87 120 159 205 246 310 355
#     4  11  20  37  67  89 118 159 209 246 295 364
#
# _framework density 19.603732000000001
#
# number of rings (size 3 to 8) (size 9 to 14) (size 15 to 20)
#    0.000    1.500    5.000    3.750    1.750    1.000 
#    0.000    3.750    0.000    0.000    0.000    0.000 
#    0.000    0.000    0.000    0.000    0.000    0.000 
#
# Total GULP energy -198311.249313 kJ/mol
# GULP energy per Si atom -12394.453082 kJ/mol
# Density = 1.955911 g / cm^3
# Si number density = 19.603732 Si / 1000 Ang^3
#
#
#
# Elastic Constant Matrix: (Units=GPa)
#
#
# Indices 1 2 3 4 5 6 
#
# 1 98.5087 43.3881 35.9340 -4.7749 -27.5835 24.4088
# 2 43.3881 140.1342 32.8281 8.3715 -15.0647 26.4821
# 3 35.9340 32.8281 66.6239 0.0489 -8.3952 12.8167
# 4 -4.7749 8.3715 0.0489 32.1410 6.5174 0.3449
# 5 -27.5835 -15.0647 -8.3952 6.5174 27.3498 -5.5284
# 6 24.4088 26.4821 12.8167 0.3449 -5.5284 26.0713
#
#
#
# Elastic Compliance Matrix: (Units=1/GPa)
#
#
# Indices 1 2 3 4 5 6 
#
# 1 0.019961 -0.000934 -0.006168 0.000227 0.015355 -0.011455
# 2 -0.000934 0.009925 -0.002609 -0.003258 0.003038 -0.007237
# 3 -0.006168 -0.002609 0.019695 0.000155 -0.001989 -0.001681
# 4 0.000227 -0.003258 0.000155 0.033913 -0.009486 0.000560
# 5 0.015355 0.003038 -0.001989 -0.009486 0.054397 -0.004823
# 6 -0.011455 -0.007237 -0.001681 0.000560 -0.004823 0.056228
#
#
# Mechanical properties :
#
#
# Convention : Reuss Voigt Hill
#
# Bulk Modulus (GPa) = 33.15743 58.84080 45.99912
# Shear Modulus (GPa) = 22.36184 29.98687 26.17435
#
# Velocity S-wave (km/s) = 3.38108 3.91532 3.65796
# Velocity P-wave (km/s) = 5.67387 7.10773 6.43089
#
# Compressibility (1/GPa) = 0.03015915
#
# Stress axis : x y z
#
# Youngs Moduli (GPa) = 50.09651 100.75231 50.77518
#
# Poissons Ratio (x) = 0.09407 0.31318
# Poissons Ratio (y) = 0.04678 0.13250
# Poissons Ratio (z) = 0.30899 0.26291
#
# Static dielectric constant tensor:
#      x y z
#    x 3.599760 0.266840 -0.056750 
#    y 0.266840 3.915020 -0.191540 
#    z -0.056750 -0.191540 3.466990 
# 
# 
# High freq. dielectric constant tensor:
#      x y z
#    x 1.752260 0.015540 0.003710 
#    y 0.015540 1.776580 -0.021040 
#    z 0.003710 -0.021040 1.750390 
# 
# From -- ./inp_files/208162.got.cif
#   From: 2010.06.25/outbox.cif.g09.slc.cpg/sg2_105_cif.got.tgz:208162.got - 2010.06.27 13:26:56.
