data_PCOD8044846
_publ_section_title
;
Structure prediction by ZEFSAII (Michael W. Deem and Ramdas Pophale) SiO2 
 PCOD8044846
Probable space group: P 2
;
_chemical_formula_sum "Si O2"
_cell_formula_units_Z 14
_cell_length_a 12.766339
_cell_length_b 9.481387
_cell_length_c 10.698957
_cell_angle_alpha 90.000000
_cell_angle_beta 147.278188
_cell_angle_gamma 90.000000
_cell_volume 700.042014
_symmetry_space_group_name_H-M "P 2"
_symmetry_group_IT_number 3
_symmetry_cell_setting 'monoclinic'
loop_
_space_group_symop_operation_xyz
x,y,z
-x,y,-z
loop_
_atom_site_type_symbol
_atom_site_label
_atom_site_fract_x
_atom_site_fract_y
_atom_site_fract_z
Si Si1 0.097517 0.486320 0.729304
Si Si2 0.557515 0.277537 0.913763
Si Si3 0.466867 0.000765 0.256667
Si Si4 0.776264 0.631112 0.787413
Si Si5 0.776794 0.955416 0.752531
Si Si6 0.705526 0.491299 0.473218
Si Si7 0.614986 0.686115 0.891443
O O1 0.000000 0.455318 0.500000
O O2 0.932060 0.496601 0.668151
O O3 0.240146 0.357136 0.906630
O O4 0.220722 0.633249 0.845529
O O5 0.576295 0.115466 0.892065
O O6 0.387260 0.341955 0.656684
O O7 0.500000 0.287180 0.000000
O O8 0.689554 0.009741 0.531964
O O9 0.331672 0.026725 0.240487
O O10 0.408257 0.853190 0.132755
O O11 0.673970 0.522822 0.588988
O O12 0.691754 0.613808 0.840156
O O13 0.732030 0.789892 0.699221
O O14 0.000000 0.598427 0.000000
O O15 0.000000 0.991798 0.000000
O O16 0.590636 0.614049 0.281134
#
# Coordination Sequence:
#
# PCOD8044846 Si02
#       7
#     2   2   2   2   2   2   2
#     4  11  23  43  63  87 121 166 215 263 310 360
#     4  11  25  45  62  82 124 177 210 256 311 366
#     4  10  21  41  62  94 127 160 208 250 314 380
#     4  10  17  34  62  96 125 155 191 249 321 372
#     4   9  19  37  63  91 129 160 188 252 319 372
#     4  11  21  39  65  88 122 161 205 256 310 374
#     4  10  21  37  66  96 122 155 203 265 317 368
#
# _framework density 19.998799999999999
#
# number of rings (size 3 to 8) (size 9 to 14) (size 15 to 20)
#    0.000    1.714    4.286    0.429    0.000    1.143 
#   12.857    1.429    0.000    0.000    0.000    0.000 
#    0.000    0.000    0.000    0.000    0.000    0.000 
#
# Total GULP energy -173526.512770 kJ/mol
# GULP energy per Si atom -12394.750912 kJ/mol
# Density = 1.995328 g / cm^3
# Si number density = 19.998800 Si / 1000 Ang^3
#
#
#
# Elastic Constant Matrix: (Units=GPa)
#
#
# Indices 1 2 3 4 5 6 
#
# 1 64.2721 29.8311 28.7046 0.0000 10.0091 0.0000
# 2 29.8311 111.1529 49.3656 0.0000 2.0020 0.0000
# 3 28.7046 49.3656 118.2046 0.0000 19.0807 0.0000
# 4 0.0000 0.0000 0.0000 27.4181 0.0000 -5.7935
# 5 10.0091 2.0020 19.0807 0.0000 36.9462 0.0000
# 6 0.0000 0.0000 0.0000 -5.7935 0.0000 25.9657
#
#
#
# Elastic Compliance Matrix: (Units=1/GPa)
#
#
# Indices 1 2 3 4 5 6 
#
# 1 0.019047 -0.003999 -0.002353 0.000000 -0.003728 0.000000
# 2 -0.003999 0.012015 -0.004491 0.000000 0.002752 0.000000
# 3 -0.002353 -0.004491 0.011744 0.000000 -0.005184 0.000000
# 4 0.000000 0.000000 0.000000 0.038277 0.000000 0.008540
# 5 -0.003728 0.002752 -0.005184 0.000000 0.030604 0.000000
# 6 0.000000 0.000000 0.000000 0.008540 0.000000 0.040418
#
#
# Mechanical properties :
#
#
# Convention : Reuss Voigt Hill
#
# Bulk Modulus (GPa) = 47.35205 56.60358 51.97782
# Shear Modulus (GPa) = 27.65019 30.44788 29.04903
#
# Velocity S-wave (km/s) = 3.72236 3.90614 3.81535
# Velocity P-wave (km/s) = 6.49642 6.97917 6.74212
#
# Compressibility (1/GPa) = 0.02111841
#
# Stress axis : x y z
#
# Youngs Moduli (GPa) = 52.50257 83.23026 85.15255
#
# Poissons Ratio (x) = 0.33288 0.20038
# Poissons Ratio (y) = 0.20998 0.38239
# Poissons Ratio (z) = 0.12355 0.37376
#
# Static dielectric constant tensor:
#      x y z
#    x 3.561680 0.000000 0.187090 
#    y 0.000000 3.396980 0.000000 
#    z 0.187090 0.000000 3.939940 
# 
# 
# High freq. dielectric constant tensor:
#      x y z
#    x 1.767730 0.000000 0.010880 
#    y 0.000000 1.755570 0.000000 
#    z 0.010880 0.000000 1.801110 
# 
# From -- ./inp_files/12215.got.cif
#   From: 2010.03.12/outbox.cif.g09.slc.cpg/sg3_7_cif.got.tgz:12215.got - 2010.03.31 09:20:49.
