data_PCOD8044819
_publ_section_title
;
Structure prediction by ZEFSAII (Michael W. Deem and Ramdas Pophale) SiO2 
 PCOD8044819
Probable space group: P -1
;
_chemical_formula_sum "Si O2"
_cell_formula_units_Z 16
_cell_length_a 10.324353
_cell_length_b 9.030994
_cell_length_c 10.432499
_cell_angle_alpha 96.503504
_cell_angle_beta 58.743859
_cell_angle_gamma 122.698265
_cell_volume 680.633954
_symmetry_space_group_name_H-M "P -1"
_symmetry_group_IT_number 2
_symmetry_cell_setting 'triclinic'
loop_
_space_group_symop_operation_xyz
x,y,z
-x,-y,-z
loop_
_atom_site_type_symbol
_atom_site_label
_atom_site_fract_x
_atom_site_fract_y
_atom_site_fract_z
Si Si1 0.159709 0.709489 0.454837
Si Si2 0.125043 0.124233 0.837537
Si Si3 0.537250 0.784502 0.980380
Si Si4 0.118286 0.008703 0.559492
Si Si5 0.787381 0.185169 0.842555
Si Si6 0.473173 0.340101 0.299708
Si Si7 0.120476 0.452263 0.853865
Si Si8 0.484952 0.682430 0.286060
O O1 0.223469 0.829660 0.305588
O O2 0.333938 0.715025 0.418444
O O3 0.000000 0.500000 0.500000
O O4 0.098361 0.818610 0.581433
O O5 0.044148 0.052266 0.729096
O O6 0.148286 0.307457 0.889972
O O7 0.320679 0.149265 0.745270
O O8 0.000000 0.000000 0.000000
O O9 0.565374 0.691970 0.836289
O O10 0.718782 0.991142 0.921457
O O11 0.355664 0.772665 0.029077
O O12 0.495857 0.676725 0.124205
O O13 0.328978 0.168988 0.441817
O O14 0.000000 0.000000 0.500000
O O15 0.998016 0.350121 0.780594
O O16 0.667913 0.378198 0.255149
O O17 0.446501 0.501442 0.354687
O O18 0.000000 0.500000 0.000000
#
# Coordination Sequence:
#
# PCOD8044819 Si02
#       8
#     2   2   2   2   2   2   2   2
#     4  11  24  44  68  99 133 181 231 288 348 413
#     4  11  27  46  67 101 140 184 228 287 350 410
#     4  10  19  38  68  97 138 181 231 279 338 403
#     4  12  27  47  73 101 135 185 237 290 350 413
#     4  10  20  37  66 101 134 179 235 280 336 409
#     4  11  23  42  69 101 138 184 230 285 345 412
#     4  11  23  41  67 104 141 179 229 285 345 410
#     4  10  24  41  67 102 141 176 226 284 344 413
#
# _framework density 23.507497000000001
#
# number of rings (size 3 to 8) (size 9 to 14) (size 15 to 20)
#    0.000    1.250    2.500    2.625    1.750    5.500 
#    2.250    0.000    0.000    0.000    0.000    0.000 
#    0.000    0.000    0.000    0.000    0.000    0.000 
#
# Total GULP energy -198263.793261 kJ/mol
# GULP energy per Si atom -12391.487079 kJ/mol
# Density = 2.345399 g / cm^3
# Si number density = 23.507497 Si / 1000 Ang^3
#
#
#
# Elastic Constant Matrix: (Units=GPa)
#
#
# Indices 1 2 3 4 5 6 
#
# 1 128.7757 41.5804 34.3459 1.1784 -24.2729 9.4330
# 2 41.5804 118.4279 42.1274 -4.7688 -18.2435 -3.4359
# 3 34.3459 42.1274 91.9727 -1.0048 -10.5812 1.8093
# 4 1.1784 -4.7688 -1.0048 38.3115 0.4872 -5.7663
# 5 -24.2729 -18.2435 -10.5812 0.4872 34.2373 6.8289
# 6 9.4330 -3.4359 1.8093 -5.7663 6.8289 37.5361
#
#
#
# Elastic Compliance Matrix: (Units=1/GPa)
#
#
# Indices 1 2 3 4 5 6 
#
# 1 0.010574 -0.002109 -0.002162 -0.001352 0.006550 -0.004145
# 2 -0.002109 0.011159 -0.004001 0.001530 0.002903 0.001451
# 3 -0.002162 -0.004001 0.013600 -0.000178 0.000666 -0.000627
# 4 -0.001352 0.001530 -0.000178 0.027092 -0.001568 0.004935
# 5 0.006550 0.002903 0.000666 -0.001568 0.037310 -0.008441
# 6 -0.004145 0.001451 -0.000627 0.004935 -0.008441 0.030140
#
#
# Mechanical properties :
#
#
# Convention : Reuss Voigt Hill
#
# Bulk Modulus (GPa) = 53.22752 63.92038 58.57395
# Shear Modulus (GPa) = 32.74766 36.75848 34.75307
#
# Velocity S-wave (km/s) = 3.73644 3.95864 3.84915
# Velocity P-wave (km/s) = 6.42702 6.93866 6.68773
#
# Compressibility (1/GPa) = 0.01878727
#
# Stress axis : x y z
#
# Youngs Moduli (GPa) = 94.57317 89.61579 73.52907
#
# Poissons Ratio (x) = 0.18900 0.15899
# Poissons Ratio (y) = 0.19945 0.29422
# Poissons Ratio (z) = 0.20449 0.35860
#
# Static dielectric constant tensor:
#      x y z
#    x 4.514350 0.268960 -0.245520 
#    y 0.268960 4.524670 0.145190 
#    z -0.245520 0.145190 4.139120 
# 
# 
# High freq. dielectric constant tensor:
#      x y z
#    x 1.937670 0.003900 -0.022270 
#    y 0.003900 1.928560 -0.001410 
#    z -0.022270 -0.001410 1.920960 
# 
# From -- ./inp_files/417528.got.cif
#   From: 2010.06.25/outbox.cif.g09.slc.cpg/sg2_209_cif.got.tgz:417528.got - 2010.06.27 13:26:56.
