data_PCOD8044865
_publ_section_title
;
Structure prediction by ZEFSAII (Michael W. Deem and Ramdas Pophale) SiO2 
 PCOD8044865
Probable space group: P 2
;
_chemical_formula_sum "Si O2"
_cell_formula_units_Z 15
_cell_length_a 11.437406
_cell_length_b 8.397052
_cell_length_c 11.050310
_cell_angle_alpha 90.000000
_cell_angle_beta 49.540072
_cell_angle_gamma 90.000000
_cell_volume 807.483381
_symmetry_space_group_name_H-M "P 2"
_symmetry_group_IT_number 3
_symmetry_cell_setting 'monoclinic'
loop_
_space_group_symop_operation_xyz
x,y,z
-x,y,-z
loop_
_atom_site_type_symbol
_atom_site_label
_atom_site_fract_x
_atom_site_fract_y
_atom_site_fract_z
Si Si1 0.644763 0.187740 0.736858
Si Si2 0.500000 0.248392 0.500000
Si Si3 0.426390 0.479447 0.931241
Si Si4 0.692003 0.530816 0.443549
Si Si5 0.080812 0.338289 0.569569
Si Si6 0.207614 0.210786 0.116358
Si Si7 0.602274 0.685707 0.270960
Si Si8 0.374892 0.044260 0.793903
O O1 0.549639 0.352999 0.797538
O O2 0.791170 0.209795 0.553131
O O3 0.697336 0.133309 0.835726
O O4 0.536158 0.048614 0.758221
O O5 0.608419 0.359553 0.508507
O O6 0.389911 0.147737 0.662006
O O7 0.376302 0.617468 0.875973
O O8 0.500000 0.561607 0.000000
O O9 0.268252 0.390143 0.064580
O O10 0.851209 0.497595 0.408429
O O11 0.712687 0.588270 0.290380
O O12 0.579624 0.665950 0.575395
O O13 0.000000 0.399690 0.500000
O O14 0.971496 0.235333 0.732101
O O15 0.236776 0.108342 0.974137
O O16 0.657778 0.866906 0.229545
#
# Coordination Sequence:
#
# PCOD8044865 Si02
#       8
#     2   1   2   2   2   2   2   2
#     4   9  16  33  56  80 108 142 191 239 274 328
#     4  10  18  32  58  76 104 146 192 246 268 314
#     4   9  16  31  51  78 109 144 193 237 270 320
#     4  10  18  35  56  84 105 141 197 236 274 329
#     4  10  18  33  61  86 110 143 188 241 282 331
#     4   9  19  31  56  83 110 143 188 238 279 326
#     4  10  20  31  55  83 115 145 187 239 282 331
#     4  11  19  33  53  86 114 145 187 232 288 335
#
# _framework density 18.576232000000001
#
# number of rings (size 3 to 8) (size 9 to 14) (size 15 to 20)
#    0.000    2.400    2.667    4.400    0.000    1.067 
#    0.000    2.667    2.933    2.400    0.000    0.000 
#    0.000    0.000    0.000    0.000    0.000    0.000 
#
# Total GULP energy -185861.795194 kJ/mol
# GULP energy per Si atom -12390.786346 kJ/mol
# Density = 1.853395 g / cm^3
# Si number density = 18.576232 Si / 1000 Ang^3
#
#
#
# Elastic Constant Matrix: (Units=GPa)
#
#
# Indices 1 2 3 4 5 6 
#
# 1 81.7541 25.2550 31.4861 0.0000 9.5511 0.0000
# 2 25.2550 77.6433 29.3227 0.0000 11.5430 0.0000
# 3 31.4861 29.3227 116.9137 0.0000 6.2070 0.0000
# 4 0.0000 0.0000 0.0000 21.8279 0.0000 4.4008
# 5 9.5511 11.5430 6.2070 0.0000 33.4560 0.0000
# 6 0.0000 0.0000 0.0000 4.4008 0.0000 17.7093
#
#
#
# Elastic Compliance Matrix: (Units=1/GPa)
#
#
# Indices 1 2 3 4 5 6 
#
# 1 0.014692 -0.003272 -0.003003 0.000000 -0.002508 0.000000
# 2 -0.003272 0.015592 -0.002821 0.000000 -0.003922 0.000000
# 3 -0.003003 -0.002821 0.010072 0.000000 -0.000038 0.000000
# 4 0.000000 0.000000 0.000000 0.048229 0.000000 -0.011985
# 5 -0.002508 -0.003922 -0.000038 0.000000 0.031966 0.000000
# 6 0.000000 0.000000 0.000000 -0.011985 0.000000 0.059446
#
#
# Mechanical properties :
#
#
# Convention : Reuss Voigt Hill
#
# Bulk Modulus (GPa) = 45.11866 49.82654 47.47260
# Shear Modulus (GPa) = 24.32171 27.28179 25.80175
#
# Velocity S-wave (km/s) = 3.62234 3.83644 3.73093
# Velocity P-wave (km/s) = 6.46809 6.81948 6.64611
#
# Compressibility (1/GPa) = 0.02216378
#
# Stress axis : x y z
#
# Youngs Moduli (GPa) = 68.06367 64.13448 99.28869
#
# Poissons Ratio (x) = 0.20984 0.29816
# Poissons Ratio (y) = 0.22270 0.28012
# Poissons Ratio (z) = 0.20439 0.18094
#
# Static dielectric constant tensor:
#      x y z
#    x 3.551130 0.000000 0.196470 
#    y 0.000000 2.994610 0.000000 
#    z 0.196470 0.000000 3.566960 
# 
# 
# High freq. dielectric constant tensor:
#      x y z
#    x 1.712210 0.000000 0.025350 
#    y 0.000000 1.676700 0.000000 
#    z 0.025350 0.000000 1.726830 
# 
# From -- ./inp_files/10426.got.cif
#   From: 2010.03.12/outbox.cif.g09.slc.cpg/sg3_6_cif.got.tgz:10426.got - 2010.03.31 09:20:49.
