data_PCOD8044832
_publ_section_title
;
Structure prediction by ZEFSAII (Michael W. Deem and Ramdas Pophale) SiO2 
 PCOD8044832
Probable space group: P 2
;
_chemical_formula_sum "Si O2"
_cell_formula_units_Z 14
_cell_length_a 7.498244
_cell_length_b 16.341990
_cell_length_c 5.363612
_cell_angle_alpha 90.000000
_cell_angle_beta 55.267559
_cell_angle_gamma 90.000000
_cell_volume 540.131375
_symmetry_space_group_name_H-M "P 2"
_symmetry_group_IT_number 3
_symmetry_cell_setting 'monoclinic'
loop_
_space_group_symop_operation_xyz
x,y,z
-x,y,-z
loop_
_atom_site_type_symbol
_atom_site_label
_atom_site_fract_x
_atom_site_fract_y
_atom_site_fract_z
Si Si1 0.259981 0.757760 0.037946
Si Si2 0.243228 0.507023 0.355838
Si Si3 0.378971 0.272907 0.854718
Si Si4 0.760558 0.441994 0.145393
Si Si5 0.137026 0.110470 0.141739
Si Si6 0.767872 0.690941 0.444945
Si Si7 0.137488 0.932252 0.139846
O O1 0.366081 0.736164 0.225255
O O2 0.296815 0.855229 0.974707
O O3 0.005656 0.731956 0.250028
O O4 0.350497 0.705586 0.728788
O O5 0.357757 0.452171 0.485714
O O6 0.224849 0.597381 0.480555
O O7 0.000000 0.471946 0.500000
O O8 0.353672 0.496031 0.989895
O O9 0.500000 0.257709 0.500000
O O10 0.209073 0.346049 0.940976
O O11 0.500000 0.308310 0.000000
O O12 0.299295 0.185101 0.007204
O O13 0.000000 0.480493 0.000000
O O14 0.000000 0.122542 0.500000
O O15 0.256209 0.021212 0.064022
O O16 0.000000 0.116110 0.000000
O O17 0.000000 0.916740 0.500000
O O18 0.000000 0.936252 0.000000
#
# Coordination Sequence:
#
# PCOD8044832 Si02
#       7
#     2   2   2   2   2   2   2
#     4  10  15  22  38  64 107 149 179 206 274 334
#     4  10  18  29  46  75 110 152 178 227 278 347
#     4  12  25  43  64  86 115 153 204 246 292 358
#     4  10  22  36  56  80 113 148 188 235 298 340
#     4  10  22  38  63  87 120 152 192 239 305 350
#     4  10  16  22  39  64 108 150 177 208 276 335
#     4  10  16  28  44  74 107 152 176 221 273 352
#
# _framework density 25.919620999999999
#
# number of rings (size 3 to 8) (size 9 to 14) (size 15 to 20)
#    0.000    1.714    4.286    3.000    4.000    1.714 
#    0.000    0.000    0.000    0.000    0.000    0.000 
#    0.000   22.857    0.000    0.000    0.000    0.000 
#
# Total GULP energy -173459.049150 kJ/mol
# GULP energy per Si atom -12389.932082 kJ/mol
# Density = 2.586063 g / cm^3
# Si number density = 25.919621 Si / 1000 Ang^3
#
#
#
# Elastic Constant Matrix: (Units=GPa)
#
#
# Indices 1 2 3 4 5 6 
#
# 1 82.0107 32.7297 67.4592 0.0000 49.0119 0.0000
# 2 32.7297 204.7788 66.3521 0.0000 24.4711 0.0000
# 3 67.4592 66.3521 233.9673 0.0000 57.0131 0.0000
# 4 0.0000 0.0000 0.0000 51.2235 0.0000 5.5213
# 5 49.0119 24.4711 57.0131 0.0000 50.1426 0.0000
# 6 0.0000 0.0000 0.0000 5.5213 0.0000 27.9988
#
#
#
# Elastic Compliance Matrix: (Units=1/GPa)
#
#
# Indices 1 2 3 4 5 6 
#
# 1 0.030225 -0.001008 -0.001867 0.000000 -0.026929 0.000000
# 2 -0.001008 0.005467 -0.001175 0.000000 -0.000346 0.000000
# 3 -0.001867 -0.001175 0.006309 0.000000 -0.004776 0.000000
# 4 0.000000 0.000000 0.000000 0.019946 0.000000 -0.003933
# 5 -0.026929 -0.000346 -0.004776 0.000000 0.051863 0.000000
# 6 0.000000 0.000000 0.000000 -0.003933 0.000000 0.036492
#
#
# Mechanical properties :
#
#
# Convention : Reuss Voigt Hill
#
# Bulk Modulus (GPa) = 29.49804 94.87099 62.18452
# Shear Modulus (GPa) = 29.46339 49.48735 39.47537
#
# Velocity S-wave (km/s) = 3.37519 4.37425 3.90679
# Velocity P-wave (km/s) = 5.15698 7.88629 6.66288
#
# Compressibility (1/GPa) = 0.03390056
#
# Stress axis : x y z
#
# Youngs Moduli (GPa) = 33.08561 182.92837 158.49431
#
# Poissons Ratio (x) = 0.18438 0.29587
# Poissons Ratio (y) = 0.03335 0.18628
# Poissons Ratio (z) = 0.06176 0.21500
#
# Static dielectric constant tensor:
#      x y z
#    x 4.854460 0.000000 0.615320 
#    y 0.000000 4.920270 0.000000 
#    z 0.615320 0.000000 5.714910 
# 
# 
# High freq. dielectric constant tensor:
#      x y z
#    x 2.052020 0.000000 0.029560 
#    y 0.000000 2.037420 0.000000 
#    z 0.029560 0.000000 2.082540 
# 
# From -- ./inp_files/1557.got.cif
#   From: 2010.03.12/outbox.cif.g09.slc.cpg/sg3_1_cif.got.tgz:1557.got - 2010.03.31 09:20:49.
