data_PCOD8044218
_publ_section_title
;
Structure prediction by ZEFSAII (Michael W. Deem and Ramdas Pophale) SiO2 
 PCOD8044218
Probable space group: P -1
;
_chemical_formula_sum "Si O2"
_cell_formula_units_Z 16
_cell_length_a 9.089286
_cell_length_b 14.363261
_cell_length_c 8.984470
_cell_angle_alpha 56.785874
_cell_angle_beta 74.639221
_cell_angle_gamma 110.875931
_cell_volume 741.259707
_symmetry_space_group_name_H-M "P -1"
_symmetry_group_IT_number 2
_symmetry_cell_setting 'triclinic'
loop_
_space_group_symop_operation_xyz
x,y,z
-x,-y,-z
loop_
_atom_site_type_symbol
_atom_site_label
_atom_site_fract_x
_atom_site_fract_y
_atom_site_fract_z
Si Si1 0.434065 0.212961 0.807297
Si Si2 0.233732 0.315825 0.599821
Si Si3 0.936821 0.126530 0.291975
Si Si4 0.308973 0.146894 0.229020
Si Si5 0.487727 0.384103 0.198670
Si Si6 0.121833 0.947339 0.969666
Si Si7 0.086821 0.433629 0.955606
Si Si8 0.836463 0.482171 0.461350
O O1 0.333658 0.286427 0.728412
O O2 0.663271 0.316808 0.616261
O O3 0.339554 0.067373 0.867500
O O4 0.413976 0.176618 0.018634
O O5 0.304482 0.305392 0.429453
O O6 0.277114 0.466443 0.473545
O O7 0.997032 0.202923 0.779654
O O8 0.867532 0.069954 0.192981
O O9 0.136764 0.156318 0.248039
O O10 0.770195 0.006991 0.553421
O O11 0.973069 0.273186 0.184115
O O12 0.462866 0.266664 0.201150
O O13 0.682741 0.464039 0.171165
O O14 0.500000 0.500000 0.000000
O O15 0.000000 0.000000 0.000000
O O16 0.053844 0.426653 0.794801
O O17 0.000000 0.500000 0.000000
O O18 0.000000 0.500000 0.500000
#
# Coordination Sequence:
#
# PCOD8044218 Si02
#       8
#     2   2   2   2   2   2   2   2
#     4  11  22  41  71 100 132 176 226 287 343 408
#     4  11  22  42  70  98 136 174 230 287 342 401
#     4  11  22  41  65 104 140 177 220 289 352 410
#     4  11  22  37  69 108 138 166 231 288 347 409
#     4  12  25  40  71 107 137 180 234 288 345 415
#     4  10  19  37  66 100 131 172 216 283 351 395
#     4  12  28  49  67  96 146 189 229 284 355 412
#     4  12  27  45  69  96 135 185 235 285 339 410
#
# _framework density 21.584878
#
# number of rings (size 3 to 8) (size 9 to 14) (size 15 to 20)
#    0.000    0.750    6.250    2.625    5.250    0.000 
#    0.000    1.250    0.000    0.000    0.000    0.000 
#    0.000    0.000    0.000    0.000    0.000    0.000 
#
# Total GULP energy -198399.891711 kJ/mol
# GULP energy per Si atom -12399.993232 kJ/mol
# Density = 2.153575 g / cm^3
# Si number density = 21.584878 Si / 1000 Ang^3
#
#
#
# Elastic Constant Matrix: (Units=GPa)
#
#
# Indices 1 2 3 4 5 6 
#
# 1 76.3556 37.3395 38.5922 -8.2838 5.1301 13.8937
# 2 37.3395 123.8687 45.8875 -6.5788 9.7769 11.2632
# 3 38.5922 45.8875 148.8774 -6.3724 12.7295 6.6322
# 4 -8.2838 -6.5788 -6.3724 42.5985 6.8992 -5.4296
# 5 5.1301 9.7769 12.7295 6.8992 22.3210 -0.7403
# 6 13.8937 11.2632 6.6322 -5.4296 -0.7403 34.4287
#
#
#
# Elastic Compliance Matrix: (Units=1/GPa)
#
#
# Indices 1 2 3 4 5 6 
#
# 1 0.017586 -0.003481 -0.003037 0.002036 -0.001584 -0.005086
# 2 -0.003481 0.010241 -0.001898 0.000905 -0.002933 -0.001501
# 3 -0.003037 -0.001898 0.008424 0.000994 -0.003572 0.000304
# 4 0.002036 0.000905 0.000994 0.026009 -0.009384 0.002591
# 5 -0.001584 -0.002933 -0.003572 -0.009384 0.051450 0.001913
# 6 -0.005086 -0.001501 0.000304 0.002591 0.001913 0.031980
#
#
# Mechanical properties :
#
#
# Convention : Reuss Voigt Hill
#
# Bulk Modulus (GPa) = 51.49258 65.86002 58.67630
# Shear Modulus (GPa) = 29.58653 35.02181 32.30417
#
# Velocity S-wave (km/s) = 3.70632 4.03242 3.87280
# Velocity P-wave (km/s) = 6.49795 7.22903 6.87322
#
# Compressibility (1/GPa) = 0.01942027
#
# Stress axis : x y z
#
# Youngs Moduli (GPa) = 56.86191 97.64279 118.71485
#
# Poissons Ratio (x) = 0.33987 0.36051
# Poissons Ratio (y) = 0.19792 0.22532
# Poissons Ratio (z) = 0.17268 0.18533
#
# Static dielectric constant tensor:
#      x y z
#    x 3.474570 0.346610 -0.014410 
#    y 0.346610 4.260890 -0.411700 
#    z -0.014410 -0.411700 4.512560 
# 
# 
# High freq. dielectric constant tensor:
#      x y z
#    x 1.803890 0.021710 0.001330 
#    y 0.021710 1.855330 -0.009270 
#    z 0.001330 -0.009270 1.869670 
# 
# From -- ./inp_files/205613.got.cif
#   From: 2010.06.25/outbox.cif.g09.slc.cpg/sg2_103_cif.got.tgz:205613.got - 2010.06.27 13:26:56.
