data_PCOD8044676
_publ_section_title
;
Structure prediction by ZEFSAII (Michael W. Deem and Ramdas Pophale) SiO2 
 PCOD8044676
Probable space group: P -1
;
_chemical_formula_sum "Si O2"
_cell_formula_units_Z 16
_cell_length_a 13.587936
_cell_length_b 13.731180
_cell_length_c 7.182456
_cell_angle_alpha 146.960661
_cell_angle_beta 86.011555
_cell_angle_gamma 109.130172
_cell_volume 633.170824
_symmetry_space_group_name_H-M "P -1"
_symmetry_group_IT_number 2
_symmetry_cell_setting 'triclinic'
loop_
_space_group_symop_operation_xyz
x,y,z
-x,-y,-z
loop_
_atom_site_type_symbol
_atom_site_label
_atom_site_fract_x
_atom_site_fract_y
_atom_site_fract_z
Si Si1 0.573425 0.388967 0.842236
Si Si2 0.566869 0.048036 0.758061
Si Si3 0.840250 0.807714 0.827514
Si Si4 0.809195 0.711405 0.249960
Si Si5 0.395542 0.533879 0.611392
Si Si6 0.020550 0.660518 0.597158
Si Si7 0.036251 0.730264 0.300562
Si Si8 0.807173 0.090632 0.757960
O O1 0.503576 0.146646 0.405198
O O2 0.500000 0.500000 0.000000
O O3 0.690179 0.502076 0.889714
O O4 0.605565 0.403974 0.077197
O O5 0.682935 0.054104 0.703435
O O6 0.500000 0.000000 0.500000
O O7 0.588901 0.266874 0.190082
O O8 0.809677 0.782760 0.574988
O O9 0.724235 0.672605 0.745779
O O10 0.924949 0.723809 0.728710
O O11 0.903907 0.047690 0.251641
O O12 0.915670 0.678522 0.144138
O O13 0.812869 0.882968 0.382484
O O14 0.500000 0.500000 0.500000
O O15 0.024379 0.587855 0.262871
O O16 0.000000 0.500000 0.500000
O O17 0.144096 0.844838 0.935262
O O18 0.118185 0.737394 0.134177
#
# Coordination Sequence:
#
# PCOD8044676 Si02
#       8
#     2   2   2   2   2   2   2   2
#     4  10  20  38  67  91 132 180 219 276 336 394
#     4  10  23  42  65  98 133 178 227 287 343 400
#     4  10  20  39  65  94 134 178 224 282 340 403
#     4  10  19  38  64  99 133 183 227 274 338 408
#     4  10  23  41  66  92 129 177 227 279 346 403
#     4  11  23  42  64  96 140 177 216 286 346 395
#     4  11  23  39  69 102 132 176 231 274 337 420
#     4  12  22  39  72  96 135 177 230 277 344 410
#
# _framework density 25.269642999999999
#
# number of rings (size 3 to 8) (size 9 to 14) (size 15 to 20)
#    0.000    1.500    3.750    1.875    3.500    1.500 
#    0.000    0.625    5.500    0.000    0.000    0.000 
#    0.000    0.000    0.000    0.000    0.000    0.000 
#
# Total GULP energy -198347.893013 kJ/mol
# GULP energy per Si atom -12396.743313 kJ/mol
# Density = 2.521213 g / cm^3
# Si number density = 25.269643 Si / 1000 Ang^3
#
#
#
# Elastic Constant Matrix: (Units=GPa)
#
#
# Indices 1 2 3 4 5 6 
#
# 1 187.1702 38.7478 48.3012 22.2824 24.9353 -4.7352
# 2 38.7478 116.6125 44.2064 30.6232 8.1691 -3.1400
# 3 48.3012 44.2064 93.7859 30.2122 6.0367 -0.7116
# 4 22.2824 30.6232 30.2122 55.7381 1.0136 -1.2675
# 5 24.9353 8.1691 6.0367 1.0136 39.2725 15.3388
# 6 -4.7352 -3.1400 -0.7116 -1.2675 15.3388 37.7823
#
#
#
# Elastic Compliance Matrix: (Units=1/GPa)
#
#
# Indices 1 2 3 4 5 6 
#
# 1 0.007001 -0.000672 -0.002685 -0.000822 -0.004946 0.002751
# 2 -0.000672 0.011373 -0.003611 -0.003957 -0.001830 0.001403
# 3 -0.002685 -0.003611 0.015426 -0.005330 0.000508 -0.000731
# 4 -0.000822 -0.003957 -0.005330 0.023291 0.001742 -0.000458
# 5 -0.004946 -0.001830 0.000508 0.001742 0.034627 -0.014762
# 6 0.002751 0.001403 -0.000731 -0.000458 -0.014762 0.032893
#
#
# Mechanical properties :
#
#
# Convention : Reuss Voigt Hill
#
# Bulk Modulus (GPa) = 50.34346 73.34215 61.84280
# Shear Modulus (GPa) = 34.44281 44.31279 39.37780
#
# Velocity S-wave (km/s) = 3.69590 4.19214 3.95182
# Velocity P-wave (km/s) = 6.17889 7.24699 6.73415
#
# Compressibility (1/GPa) = 0.01986355
#
# Stress axis : x y z
#
# Youngs Moduli (GPa) = 142.83429 87.92870 64.82399
#
# Poissons Ratio (x) = 0.05910 0.17405
# Poissons Ratio (y) = 0.09600 0.23410
# Poissons Ratio (z) = 0.38350 0.31754
#
# Static dielectric constant tensor:
#      x y z
#    x 5.530310 -0.487050 2.229040 
#    y -0.487050 5.341570 -0.209560 
#    z 2.229040 -0.209560 8.719640 
# 
# 
# High freq. dielectric constant tensor:
#      x y z
#    x 2.000710 -0.010590 0.015930 
#    y -0.010590 2.021370 0.025410 
#    z 0.015930 0.025410 2.036900 
# 
# From -- ./inp_files/274881.got.cif
#   From: 2010.06.25/outbox.cif.g09.slc.cpg/sg2_138_cif.got.tgz:274881.got - 2010.06.27 13:26:56.
