data_PCOD8044633
_publ_section_title
;
Structure prediction by ZEFSAII (Michael W. Deem and Ramdas Pophale) SiO2 
 PCOD8044633
Probable space group: P -1
;
_chemical_formula_sum "Si O2"
_cell_formula_units_Z 16
_cell_length_a 10.640452
_cell_length_b 15.003952
_cell_length_c 10.461508
_cell_angle_alpha 62.092088
_cell_angle_beta 42.758442
_cell_angle_gamma 39.708750
_cell_volume 706.160889
_symmetry_space_group_name_H-M "P -1"
_symmetry_group_IT_number 2
_symmetry_cell_setting 'triclinic'
loop_
_space_group_symop_operation_xyz
x,y,z
-x,-y,-z
loop_
_atom_site_type_symbol
_atom_site_label
_atom_site_fract_x
_atom_site_fract_y
_atom_site_fract_z
Si Si1 0.506223 0.955033 0.337752
Si Si2 0.863336 0.606579 0.712468
Si Si3 0.476659 0.151092 0.861735
Si Si4 0.049329 0.826788 0.265379
Si Si5 0.398967 0.674084 0.352273
Si Si6 0.328085 0.908421 0.974915
Si Si7 0.100681 0.628432 0.749068
Si Si8 0.055906 0.328086 0.667035
O O1 0.431052 0.960201 0.243966
O O2 0.669858 0.800502 0.379823
O O3 0.670836 0.997525 0.186591
O O4 0.247172 0.075377 0.531502
O O5 0.574581 0.738440 0.890816
O O6 0.897171 0.646423 0.525088
O O7 0.069317 0.574485 0.679656
O O8 0.899703 0.471534 0.769167
O O9 0.539809 0.237638 0.704625
O O10 0.654815 0.055991 0.916201
O O11 0.165803 0.258311 0.047981
O O12 0.259724 0.729426 0.283555
O O13 0.099970 0.718694 0.195404
O O14 0.079481 0.930354 0.120690
O O15 0.208159 0.696978 0.583817
O O16 0.676494 0.509397 0.237763
#
# Coordination Sequence:
#
# PCOD8044633 Si02
#       8
#     2   2   2   2   2   2   2   2
#     4  12  24  42  62  92 126 169 202 248 304 370
#     4  10  21  43  66  92 120 162 208 254 307 362
#     4  10  22  38  61  90 125 157 203 254 305 363
#     4  11  23  41  62  91 128 162 204 252 303 366
#     4  10  20  35  62  93 120 161 197 253 312 359
#     4  10  23  41  68  90 121 162 205 256 312 355
#     4  10  19  38  64  90 125 156 202 254 310 361
#     4  11  23  41  67  87 125 168 204 252 305 359
#
# _framework density 22.657724000000002
#
# number of rings (size 3 to 8) (size 9 to 14) (size 15 to 20)
#    0.000    1.500    2.500    2.625    0.000    6.000 
#    0.000    0.000    0.000    0.000    0.000    0.000 
#    0.000    0.000    0.000    0.000    0.000    0.000 
#
# Total GULP energy -198383.600343 kJ/mol
# GULP energy per Si atom -12398.975021 kJ/mol
# Density = 2.260615 g / cm^3
# Si number density = 22.657724 Si / 1000 Ang^3
#
#
#
# Elastic Constant Matrix: (Units=GPa)
#
#
# Indices 1 2 3 4 5 6 
#
# 1 53.6114 20.7783 20.9576 -3.1878 -10.3796 10.5093
# 2 20.7783 97.0912 26.5935 -13.0818 -4.3890 10.8625
# 3 20.9576 26.5935 70.0878 -20.0214 -22.3271 14.6803
# 4 -3.1878 -13.0818 -20.0214 25.2743 10.2260 -3.8076
# 5 -10.3796 -4.3890 -22.3271 10.2260 33.1933 -7.0240
# 6 10.5093 10.8625 14.6803 -3.8076 -7.0240 32.0091
#
#
#
# Elastic Compliance Matrix: (Units=1/GPa)
#
#
# Indices 1 2 3 4 5 6 
#
# 1 0.023265 -0.003724 -0.004843 -0.005146 0.004302 -0.003822
# 2 -0.003724 0.012615 -0.002996 0.004772 -0.003375 -0.001857
# 3 -0.004843 -0.002996 0.024608 0.012657 0.009674 -0.005051
# 4 -0.005146 0.004772 0.012657 0.055154 -0.009733 -0.001310
# 5 0.004302 -0.003375 0.009674 -0.009733 0.041204 0.003180
# 6 -0.003822 -0.001857 -0.005051 -0.001310 0.003180 0.035985
#
#
# Mechanical properties :
#
#
# Convention : Reuss Voigt Hill
#
# Bulk Modulus (GPa) = 26.76425 39.71659 33.24042
# Shear Modulus (GPa) = 21.89040 28.25941 25.07491
#
# Velocity S-wave (km/s) = 3.11164 3.53545 3.33029
# Velocity P-wave (km/s) = 4.97472 5.85088 5.43050
#
# Compressibility (1/GPa) = 0.03736328
#
# Stress axis : x y z
#
# Youngs Moduli (GPa) = 42.98269 79.26850 40.63732
#
# Poissons Ratio (x) = 0.29517 0.19680
# Poissons Ratio (y) = 0.16005 0.12175
# Poissons Ratio (z) = 0.20816 0.23749
#
# Static dielectric constant tensor:
#      x y z
#    x 4.230870 0.174090 -0.162050 
#    y 0.174090 4.161930 -0.280710 
#    z -0.162050 -0.280710 4.108030 
# 
# 
# High freq. dielectric constant tensor:
#      x y z
#    x 1.896760 0.003380 -0.005500 
#    y 0.003380 1.897610 -0.021530 
#    z -0.005500 -0.021530 1.883540 
# 
# From -- ./inp_files/433779.got.cif
#   From: 2010.06.25/outbox.cif.g09.slc.cpg/sg2_217_cif.got.tgz:433779.got - 2010.06.27 13:26:56.
