data_PCOD8044330
_publ_section_title
;
Structure prediction by ZEFSAII (Michael W. Deem and Ramdas Pophale) SiO2 
 PCOD8044330
Probable space group: P -1
;
_chemical_formula_sum "Si O2"
_cell_formula_units_Z 14
_cell_length_a 18.064183
_cell_length_b 11.904442
_cell_length_c 9.782083
_cell_angle_alpha 132.405328
_cell_angle_beta 146.890244
_cell_angle_gamma 37.610745
_cell_volume 700.899431
_symmetry_space_group_name_H-M "P -1"
_symmetry_group_IT_number 2
_symmetry_cell_setting 'triclinic'
loop_
_space_group_symop_operation_xyz
x,y,z
-x,-y,-z
loop_
_atom_site_type_symbol
_atom_site_label
_atom_site_fract_x
_atom_site_fract_y
_atom_site_fract_z
Si Si1 0.463532 0.916754 0.677754
Si Si2 0.257937 0.861119 0.757190
Si Si3 0.860060 0.897508 0.837000
Si Si4 0.335814 0.096775 0.241785
Si Si5 0.911426 0.396879 0.266462
Si Si6 0.948275 0.137709 0.340893
Si Si7 0.446104 0.267230 0.052896
O O1 0.302633 0.960256 0.385460
O O2 0.631726 0.805528 0.752690
O O3 0.429668 0.111547 0.831969
O O4 0.496349 0.783979 0.744063
O O5 0.173402 0.778665 0.645776
O O6 0.419925 0.711524 0.800262
O O7 0.132682 0.016251 0.583501
O O8 0.314869 0.942524 0.025476
O O9 0.816786 0.789989 0.794323
O O10 0.992751 0.248177 0.150204
O O11 0.918974 0.012689 0.095855
O O12 0.500000 0.000000 0.500000
O O13 0.926808 0.305391 0.361213
O O14 0.722480 0.536022 0.051430
O O15 0.000000 0.500000 0.500000
#
# Coordination Sequence:
#
# PCOD8044330 Si02
#       7
#     2   2   2   2   2   2   2
#     4   9  17  34  59  84 111 153 193 234 283 346
#     4   9  19  38  63  83 111 157 199 228 281 351
#     4  10  19  38  57  83 115 154 195 232 285 345
#     4   8  16  30  59  85 108 141 199 236 269 331
#     4  12  24  36  56  90 122 148 188 244 294 336
#     4  10  22  39  62  84 114 157 195 233 284 347
#     4  10  20  34  58  86 114 151 192 236 288 339
#
# _framework density 19.974335
#
# number of rings (size 3 to 8) (size 9 to 14) (size 15 to 20)
#    0.000    2.286    1.429    1.286    4.000    0.571 
#    0.000    3.571    0.000    0.000    0.000    0.000 
#    0.000    0.000    0.000    0.000    0.000    0.000 
#
# Total GULP energy -173447.972092 kJ/mol
# GULP energy per Si atom -12389.140864 kJ/mol
# Density = 1.992887 g / cm^3
# Si number density = 19.974335 Si / 1000 Ang^3
#
#
#
# Elastic Constant Matrix: (Units=GPa)
#
#
# Indices 1 2 3 4 5 6 
#
# 1 171.6621 60.9667 35.9250 -25.8091 16.2657 9.1653
# 2 60.9667 73.6288 30.5213 -18.7220 9.1430 9.8476
# 3 35.9250 30.5213 100.5232 -12.4448 1.1002 2.8328
# 4 -25.8091 -18.7220 -12.4448 24.3258 -4.2503 7.8106
# 5 16.2657 9.1430 1.1002 -4.2503 35.0854 -7.2180
# 6 9.1653 9.8476 2.8328 7.8106 -7.2180 16.7438
#
#
#
# Elastic Compliance Matrix: (Units=1/GPa)
#
#
# Indices 1 2 3 4 5 6 
#
# 1 0.009499 -0.003383 -0.000922 0.009208 -0.004268 -0.009189
# 2 -0.003383 0.029794 -0.003659 0.025831 -0.009357 -0.031136
# 3 -0.000922 -0.003659 0.011661 0.002352 0.001334 0.000162
# 4 0.009208 0.025831 0.002352 0.091820 -0.014272 -0.069615
# 5 -0.004268 -0.009357 0.001334 -0.014272 0.037401 0.030395
# 6 -0.009189 -0.031136 0.000162 -0.069615 0.030395 0.128614
#
#
# Mechanical properties :
#
#
# Convention : Reuss Voigt Hill
#
# Bulk Modulus (GPa) = 28.55096 66.73778 47.64437
# Shear Modulus (GPa) = 14.86349 29.79108 22.32728
#
# Velocity S-wave (km/s) = 2.73083 3.86614 3.34698
# Velocity P-wave (km/s) = 4.92627 7.30847 6.23225
#
# Compressibility (1/GPa) = 0.03502509
#
# Stress axis : x y z
#
# Youngs Moduli (GPa) = 105.27013 33.56335 85.75919
#
# Poissons Ratio (x) = 0.11355 0.07908
# Poissons Ratio (y) = 0.35614 0.31383
# Poissons Ratio (z) = 0.09707 0.12282
#
# Static dielectric constant tensor:
#      x y z
#    x 4.668330 0.068220 0.084830 
#    y 0.068220 3.259560 -0.299850 
#    z 0.084830 -0.299850 3.944250 
# 
# 
# High freq. dielectric constant tensor:
#      x y z
#    x 1.818850 0.005640 0.003410 
#    y 0.005640 1.709090 -0.010480 
#    z 0.003410 -0.010480 1.796600 
# 
# From -- ./inp_files/470527.got.cif
#   From: 2010.06.25/outbox.cif.g09.slc.cpg/sg2_236_cif.got.tgz:470527.got - 2010.06.27 13:26:56.
