data_PCOD8044368
_publ_section_title
;
Structure prediction by ZEFSAII (Michael W. Deem and Ramdas Pophale) SiO2 
 PCOD8044368
Probable space group: P -1
;
_chemical_formula_sum "Si O2"
_cell_formula_units_Z 14
_cell_length_a 21.822514
_cell_length_b 7.507590
_cell_length_c 9.956820
_cell_angle_alpha 45.761238
_cell_angle_beta 41.544902
_cell_angle_gamma 45.278478
_cell_volume 716.306065
_symmetry_space_group_name_H-M "P -1"
_symmetry_group_IT_number 2
_symmetry_cell_setting 'triclinic'
loop_
_space_group_symop_operation_xyz
x,y,z
-x,-y,-z
loop_
_atom_site_type_symbol
_atom_site_label
_atom_site_fract_x
_atom_site_fract_y
_atom_site_fract_z
Si Si1 0.926154 0.389611 0.819034
Si Si2 0.379980 0.295448 0.641163
Si Si3 0.269972 0.966312 0.893498
Si Si4 0.756053 0.197711 0.267508
Si Si5 0.135259 0.134890 0.504915
Si Si6 0.904989 0.922912 0.682426
Si Si7 0.472122 0.703384 0.817406
O O1 0.941373 0.597081 0.793494
O O2 0.875163 0.560733 0.676905
O O3 0.856514 0.251058 0.064792
O O4 0.031829 0.155898 0.733714
O O5 0.338760 0.523075 0.702799
O O6 0.437592 0.400750 0.381592
O O7 0.286143 0.242901 0.755489
O O8 0.455707 0.009914 0.730507
O O9 0.260004 0.952699 0.757325
O O10 0.368775 0.713812 0.913364
O O11 0.172570 0.955275 0.132838
O O12 0.771392 0.006507 0.474202
O O13 0.149479 0.965641 0.430861
O O14 0.000000 0.000000 0.500000
O O15 0.500000 0.500000 0.000000
#
# Coordination Sequence:
#
# PCOD8044368 Si02
#       7
#     2   2   2   2   2   2   2
#     4   9  19  39  54  81 124 158 201 249 282 339
#     4   9  21  41  60  87 121 149 194 254 293 354
#     4  10  22  39  60  93 119 155 204 243 295 361
#     4  12  21  38  61  87 122 155 197 247 299 352
#     4   9  21  36  57  79 119 165 196 244 296 334
#     4  10  19  38  59  86 123 160 201 244 288 351
#     4   9  20  43  65  84 120 154 192 251 301 354
#
# _framework density 19.544718
#
# number of rings (size 3 to 8) (size 9 to 14) (size 15 to 20)
#    1.714    0.571    1.429    1.286    2.000    0.571 
#    5.143    2.143    0.000    0.000    0.000    0.000 
#    0.000    0.000    0.000    0.000    0.000    0.000 
#
# Total GULP energy -173440.474434 kJ/mol
# GULP energy per Si atom -12388.605317 kJ/mol
# Density = 1.950023 g / cm^3
# Si number density = 19.544718 Si / 1000 Ang^3
#
#
#
# Elastic Constant Matrix: (Units=GPa)
#
#
# Indices 1 2 3 4 5 6 
#
# 1 101.2276 25.1392 29.4171 1.7580 19.5670 1.0533
# 2 25.1392 70.2943 26.2606 14.0170 17.2878 3.6282
# 3 29.4171 26.2606 90.3114 14.7907 5.9903 -5.3571
# 4 1.7580 14.0170 14.7907 33.0645 -2.8536 7.4714
# 5 19.5670 17.2878 5.9903 -2.8536 35.2651 -1.7196
# 6 1.0533 3.6282 -5.3571 7.4714 -1.7196 28.3054
#
#
#
# Elastic Compliance Matrix: (Units=1/GPa)
#
#
# Indices 1 2 3 4 5 6 
#
# 1 0.012400 -0.002124 -0.003451 0.001699 -0.005194 -0.001606
# 2 -0.002124 0.019924 -0.003464 -0.007130 -0.008664 -0.001775
# 3 -0.003451 -0.003464 0.014382 -0.005804 0.000938 0.004883
# 4 0.001699 -0.007130 -0.005804 0.038577 0.006170 -0.010056
# 5 -0.005194 -0.008664 0.000938 0.006170 0.035925 0.002035
# 6 -0.001606 -0.001775 0.004883 -0.010056 0.002035 0.039318
#
#
# Mechanical properties :
#
#
# Convention : Reuss Voigt Hill
#
# Bulk Modulus (GPa) = 34.93110 47.05190 40.99150
# Shear Modulus (GPa) = 26.57494 31.39476 28.98485
#
# Velocity S-wave (km/s) = 3.69141 4.01222 3.85515
# Velocity P-wave (km/s) = 6.00665 6.75205 6.39023
#
# Compressibility (1/GPa) = 0.02862779
#
# Stress axis : x y z
#
# Youngs Moduli (GPa) = 80.64448 50.19086 69.53113
#
# Poissons Ratio (x) = 0.10662 0.23992
# Poissons Ratio (y) = 0.17131 0.24088
# Poissons Ratio (z) = 0.27827 0.17388
#
# Static dielectric constant tensor:
#      x y z
#    x 3.206450 0.036230 0.031050 
#    y 0.036230 3.460080 0.224020 
#    z 0.031050 0.224020 3.520200 
# 
# 
# High freq. dielectric constant tensor:
#      x y z
#    x 1.728040 0.001950 0.005980 
#    y 0.001950 1.751190 0.017120 
#    z 0.005980 0.017120 1.761460 
# 
# From -- ./inp_files/473541.got.cif
#   From: 2010.06.25/outbox.cif.g09.slc.cpg/sg2_237_cif.got.tgz:473541.got - 2010.06.27 13:26:56.
