data_PCOD8044108
_publ_section_title
;
Structure prediction by ZEFSAII (Michael W. Deem and Ramdas Pophale) SiO2 
 PCOD8044108
Probable space group: P -1
;
_chemical_formula_sum "Si O2"
_cell_formula_units_Z 14
_cell_length_a 11.040101
_cell_length_b 15.299668
_cell_length_c 11.992894
_cell_angle_alpha 141.833702
_cell_angle_beta 143.550989
_cell_angle_gamma 64.016203
_cell_volume 630.991364
_symmetry_space_group_name_H-M "P -1"
_symmetry_group_IT_number 2
_symmetry_cell_setting 'triclinic'
loop_
_space_group_symop_operation_xyz
x,y,z
-x,-y,-z
loop_
_atom_site_type_symbol
_atom_site_label
_atom_site_fract_x
_atom_site_fract_y
_atom_site_fract_z
Si Si1 0.381885 0.609520 0.440827
Si Si2 0.908173 0.251479 0.713293
Si Si3 0.936722 0.563814 0.376184
Si Si4 0.228938 0.967389 0.392122
Si Si5 0.235210 0.770272 0.000330
Si Si6 0.152778 0.235576 0.667143
Si Si7 0.405199 0.576193 0.667900
O O1 0.325392 0.734087 0.460886
O O2 0.482493 0.674086 0.704494
O O3 0.575580 0.588553 0.493324
O O4 0.138811 0.428423 0.093476
O O5 0.953544 0.184538 0.564139
O O6 0.847016 0.121448 0.634436
O O7 0.032887 0.698665 0.681911
O O8 0.141047 0.528670 0.454418
O O9 0.728829 0.379421 0.078986
O O10 0.841151 0.623568 0.264778
O O11 0.101441 0.074974 0.396695
O O12 0.516904 0.081695 0.716332
O O13 0.137894 0.836754 0.092698
O O14 0.413458 0.304368 0.983388
#
# Coordination Sequence:
#
# PCOD8044108 Si02
#       7
#     2   2   2   2   2   2   2
#     4   9  19  35  63 103 128 166 211 261 332 386
#     4  10  20  38  68  98 133 168 208 272 332 389
#     4  11  22  46  69  94 127 174 226 267 304 397
#     4  11  23  43  63 100 136 168 215 272 323 388
#     4  10  25  44  66  90 134 178 220 266 313 377
#     4  11  23  39  71  99 128 170 211 271 340 376
#     4  10  19  37  63  99 129 157 216 269 313 387
#
# _framework density 22.187307000000001
#
# number of rings (size 3 to 8) (size 9 to 14) (size 15 to 20)
#    0.000    1.714    2.857    1.286    4.000    1.143 
#    0.000    8.571    0.000    0.000    0.000    0.000 
#    0.000    0.000    0.000    0.000    0.000    0.000 
#
# Total GULP energy -173572.040186 kJ/mol
# GULP energy per Si atom -12398.002870 kJ/mol
# Density = 2.213681 g / cm^3
# Si number density = 22.187307 Si / 1000 Ang^3
#
#
#
# Elastic Constant Matrix: (Units=GPa)
#
#
# Indices 1 2 3 4 5 6 
#
# 1 75.4889 34.8210 26.6044 6.2903 -26.3328 5.5793
# 2 34.8210 110.2300 24.3743 -5.5128 0.4267 -3.0503
# 3 26.6044 24.3743 71.6492 1.6742 -19.0698 4.4392
# 4 6.2903 -5.5128 1.6742 27.8589 3.9164 1.9985
# 5 -26.3328 0.4267 -19.0698 3.9164 35.5891 1.7019
# 6 5.5793 -3.0503 4.4392 1.9985 1.7019 39.6245
#
#
#
# Elastic Compliance Matrix: (Units=1/GPa)
#
#
# Indices 1 2 3 4 5 6 
#
# 1 0.025619 -0.008626 -0.000750 -0.009927 0.019967 -0.004544
# 2 -0.008626 0.013116 -0.004106 0.005929 -0.009526 0.002794
# 3 -0.000750 -0.004106 0.018479 -0.002954 0.009843 -0.002554
# 4 -0.009927 0.005929 -0.002954 0.041348 -0.013582 0.000683
# 5 0.019967 -0.009526 0.009843 -0.013582 0.050047 -0.006112
# 6 -0.004544 0.002794 -0.002554 0.000683 -0.006112 0.026606
#
#
# Mechanical properties :
#
#
# Convention : Reuss Voigt Hill
#
# Bulk Modulus (GPa) = 33.05928 47.66306 40.36117
# Shear Modulus (GPa) = 23.55577 32.05238 27.80407
#
# Velocity S-wave (km/s) = 3.26187 3.80495 3.54383
# Velocity P-wave (km/s) = 5.39619 6.39001 5.91401
#
# Compressibility (1/GPa) = 0.03024869
#
# Stress axis : x y z
#
# Youngs Moduli (GPa) = 39.03425 76.24553 54.11466
#
# Poissons Ratio (x) = 0.65772 0.04060
# Poissons Ratio (y) = 0.33672 0.22218
# Poissons Ratio (z) = 0.02929 0.31304
#
# Static dielectric constant tensor:
#      x y z
#    x 4.279880 -0.074350 -0.264390 
#    y -0.074350 3.970630 -0.019110 
#    z -0.264390 -0.019110 3.832240 
# 
# 
# High freq. dielectric constant tensor:
#      x y z
#    x 1.890070 -0.002710 -0.017870 
#    y -0.002710 1.864680 -0.002670 
#    z -0.017870 -0.002670 1.850650 
# 
# From -- ./inp_files/177005.got.cif
#   From: 2010.06.25/outbox.cif.g09.slc.cpg/sg2_89_cif.got.tgz:177005.got - 2010.06.27 13:26:56.
