data_PCOD8044749
_publ_section_title
;
Structure prediction by ZEFSAII (Michael W. Deem and Ramdas Pophale) SiO2 
 PCOD8044749
Probable space group: P -1
;
_chemical_formula_sum "Si O2"
_cell_formula_units_Z 14
_cell_length_a 12.364933
_cell_length_b 9.185737
_cell_length_c 8.842559
_cell_angle_alpha 133.631444
_cell_angle_beta 103.640403
_cell_angle_gamma 60.857157
_cell_volume 626.888355
_symmetry_space_group_name_H-M "P -1"
_symmetry_group_IT_number 2
_symmetry_cell_setting 'triclinic'
loop_
_space_group_symop_operation_xyz
x,y,z
-x,-y,-z
loop_
_atom_site_type_symbol
_atom_site_label
_atom_site_fract_x
_atom_site_fract_y
_atom_site_fract_z
Si Si1 0.583952 0.733359 0.329118
Si Si2 0.826028 0.021389 0.969584
Si Si3 0.628760 0.000028 0.090466
Si Si4 0.195790 0.215907 0.498305
Si Si5 0.729681 0.538978 0.933364
Si Si6 0.641232 0.214326 0.552659
Si Si7 0.076240 0.670978 0.915739
O O1 0.704119 0.689987 0.441823
O O2 0.491996 0.641586 0.301157
O O3 0.500000 0.000000 0.500000
O O4 0.627491 0.636799 0.105559
O O5 0.851233 0.875049 0.720984
O O6 0.934964 0.872533 0.018266
O O7 0.689333 0.079437 0.030899
O O8 0.834593 0.249640 0.095227
O O9 0.607438 0.172717 0.343370
O O10 0.728353 0.745917 0.987363
O O11 0.500000 0.000000 0.000000
O O12 0.077792 0.441874 0.685308
O O13 0.261093 0.023004 0.509353
O O14 0.701689 0.384020 0.695527
O O15 0.868267 0.385585 0.936985
#
# Coordination Sequence:
#
# PCOD8044749 Si02
#       7
#     2   2   2   2   2   2   2
#     4   9  17  33  62  91 116 164 217 248 294 377
#     4  11  24  40  67  96 129 162 213 274 307 366
#     4  12  27  42  61  98 137 158 205 274 327 370
#     4  10  19  38  66  91 120 165 220 259 303 377
#     4  11  22  40  66  91 125 173 211 255 318 384
#     4  11  21  39  63  93 127 171 214 253 315 388
#     4  10  22  43  67  94 121 170 224 252 310 380
#
# _framework density 22.332526999999999
#
# number of rings (size 3 to 8) (size 9 to 14) (size 15 to 20)
#    0.000    1.429    5.714    1.714    2.000    4.571 
#    0.000    0.714    0.000    0.000    0.000    0.000 
#    0.000    0.000    0.000    0.000    0.000    0.000 
#
# Total GULP energy -173486.414581 kJ/mol
# GULP energy per Si atom -12391.886756 kJ/mol
# Density = 2.228170 g / cm^3
# Si number density = 22.332527 Si / 1000 Ang^3
#
#
#
# Elastic Constant Matrix: (Units=GPa)
#
#
# Indices 1 2 3 4 5 6 
#
# 1 62.2955 4.8270 10.3260 -3.3746 9.0250 4.2151
# 2 4.8270 63.0375 13.1306 -1.7341 6.7268 -10.7126
# 3 10.3260 13.1306 131.9038 -4.9349 26.3515 1.3427
# 4 -3.3746 -1.7341 -4.9349 32.8766 -2.5987 4.9750
# 5 9.0250 6.7268 26.3515 -2.5987 21.6205 -3.5821
# 6 4.2151 -10.7126 1.3427 4.9750 -3.5821 27.4907
#
#
#
# Elastic Compliance Matrix: (Units=1/GPa)
#
#
# Indices 1 2 3 4 5 6 
#
# 1 0.017664 -0.001327 0.000484 0.001879 -0.008094 -0.004644
# 2 -0.001327 0.017643 -0.001290 -0.000633 -0.002286 0.006958
# 3 0.000484 -0.001290 0.010272 0.000960 -0.012686 -0.002905
# 4 0.001879 -0.000633 0.000960 0.031739 0.001031 -0.006191
# 5 -0.008094 -0.002286 -0.012686 0.001031 0.067515 0.009581
# 6 -0.004644 0.006958 -0.002905 -0.006191 0.009581 0.042310
#
#
# Mechanical properties :
#
#
# Convention : Reuss Voigt Hill
#
# Bulk Modulus (GPa) = 24.20651 34.86709 29.53680
# Shear Modulus (GPa) = 24.36886 31.66111 28.01498
#
# Velocity S-wave (km/s) = 3.30689 3.76934 3.54566
# Velocity P-wave (km/s) = 5.04414 5.88137 5.47877
#
# Compressibility (1/GPa) = 0.04131121
#
# Stress axis : x y z
#
# Youngs Moduli (GPa) = 56.61337 56.67986 97.35481
#
# Poissons Ratio (x) = 0.07522 -0.04710
# Poissons Ratio (y) = 0.07513 0.12561
# Poissons Ratio (z) = -0.02739 0.07313
#
# Static dielectric constant tensor:
#      x y z
#    x 4.553830 -0.174000 0.265140 
#    y -0.174000 4.072350 0.138920 
#    z 0.265140 0.138920 4.034820 
# 
# 
# High freq. dielectric constant tensor:
#      x y z
#    x 1.856160 -0.013730 0.024110 
#    y -0.013730 1.877120 0.014340 
#    z 0.024110 0.014340 1.880810 
# 
# From -- ./inp_files/182027.got.cif
#   From: 2010.06.25/outbox.cif.g09.slc.cpg/sg2_92_cif.got.tgz:182027.got - 2010.06.27 13:26:56.
