data_PCOD8044063
_publ_section_title
;
Structure prediction by ZEFSAII (Michael W. Deem and Ramdas Pophale) SiO2 
 PCOD8044063
Probable space group: P -1
;
_chemical_formula_sum "Si O2"
_cell_formula_units_Z 16
_cell_length_a 13.158177
_cell_length_b 8.094559
_cell_length_c 16.904273
_cell_angle_alpha 55.976299
_cell_angle_beta 147.112399
_cell_angle_gamma 103.816793
_cell_volume 695.340556
_symmetry_space_group_name_H-M "P -1"
_symmetry_group_IT_number 2
_symmetry_cell_setting 'triclinic'
loop_
_space_group_symop_operation_xyz
x,y,z
-x,-y,-z
loop_
_atom_site_type_symbol
_atom_site_label
_atom_site_fract_x
_atom_site_fract_y
_atom_site_fract_z
Si Si1 0.428795 0.743642 0.066341
Si Si2 0.640009 0.291255 0.589996
Si Si3 0.782321 0.729557 0.185034
Si Si4 0.584698 0.595026 0.961377
Si Si5 0.756916 0.401860 0.482034
Si Si6 0.163136 0.204507 0.117807
Si Si7 0.216143 0.323808 0.287568
Si Si8 0.622505 0.094022 0.392289
O O1 0.632432 0.693759 0.157572
O O2 0.315381 0.611403 0.985485
O O3 0.532978 0.631554 0.249006
O O4 0.262303 0.009550 0.905209
O O5 0.500000 0.500000 0.500000
O O6 0.767141 0.363282 0.593278
O O7 0.456759 0.260439 0.432274
O O8 0.802634 0.050846 0.806803
O O9 0.037750 0.571597 0.414858
O O10 0.749500 0.661925 0.092343
O O11 0.393895 0.835035 0.730749
O O12 0.500000 0.500000 0.000000
O O13 0.765163 0.183892 0.503846
O O14 0.118826 0.248894 0.171575
O O15 0.370634 0.219383 0.221928
O O16 0.949291 0.400361 0.877851
O O17 0.248316 0.181131 0.428853
#
# Coordination Sequence:
#
# PCOD8044063 Si02
#       8
#     2   2   2   2   2   2   2   2
#     4   9  21  40  64  91 120 164 204 257 314 374
#     4  11  23  38  55  88 131 160 203 263 312 367
#     4  10  21  40  63  90 126 158 207 257 315 377
#     4   9  20  39  62  90 126 160 201 257 310 375
#     4  11  21  37  62  90 121 163 206 251 315 373
#     4  10  20  38  62  85 113 161 210 254 300 367
#     4  10  20  38  63  82 115 159 210 253 301 369
#     4  10  19  37  63  88 120 161 211 254 313 369
#
# _framework density 23.010307000000001
#
# number of rings (size 3 to 8) (size 9 to 14) (size 15 to 20)
#    0.000    2.000    2.500    1.125    0.000    6.500 
#    0.000    3.750    0.000   16.500    0.000    0.000 
#    0.000    0.000    0.000    0.000    0.000    0.000 
#
# Total GULP energy -198220.300292 kJ/mol
# GULP energy per Si atom -12388.768768 kJ/mol
# Density = 2.295793 g / cm^3
# Si number density = 23.010307 Si / 1000 Ang^3
#
#
#
# Elastic Constant Matrix: (Units=GPa)
#
#
# Indices 1 2 3 4 5 6 
#
# 1 68.4864 13.0735 31.4209 -2.9840 -21.4859 7.5840
# 2 13.0735 84.2835 18.2397 -14.9511 -9.4005 -6.8822
# 3 31.4209 18.2397 103.9669 -24.3549 -21.3265 3.2052
# 4 -2.9840 -14.9511 -24.3549 40.1179 11.3138 -3.8297
# 5 -21.4859 -9.4005 -21.3265 11.3138 38.0023 -4.0864
# 6 7.5840 -6.8822 3.2052 -3.8297 -4.0864 22.4156
#
#
#
# Elastic Compliance Matrix: (Units=1/GPa)
#
#
# Indices 1 2 3 4 5 6 
#
# 1 0.020802 -0.002637 -0.005067 -0.005742 0.009286 -0.006411
# 2 -0.002637 0.013874 -0.000475 0.005044 0.000844 0.006235
# 3 -0.005067 -0.000475 0.013350 0.006948 0.002583 0.001318
# 4 -0.005742 0.005044 0.006948 0.033304 -0.007277 0.006861
# 5 0.009286 0.000844 0.002583 -0.007277 0.035603 0.001995
# 6 -0.006411 0.006235 0.001318 0.006861 0.001995 0.050043
#
#
# Mechanical properties :
#
#
# Convention : Reuss Voigt Hill
#
# Bulk Modulus (GPa) = 31.57614 42.46719 37.02167
# Shear Modulus (GPa) = 25.78769 33.04070 29.41419
#
# Velocity S-wave (km/s) = 3.35132 3.79345 3.57922
# Velocity P-wave (km/s) = 5.35981 6.13863 5.76239
#
# Compressibility (1/GPa) = 0.03166948
#
# Stress axis : x y z
#
# Youngs Moduli (GPa) = 48.07137 72.07513 74.90675
#
# Poissons Ratio (x) = 0.19004 0.37956
# Poissons Ratio (y) = 0.12675 0.03557
# Poissons Ratio (z) = 0.24358 0.03423
#
# Static dielectric constant tensor:
#      x y z
#    x 4.787350 0.873290 0.645890 
#    y 0.873290 4.885140 0.814480 
#    z 0.645890 0.814480 5.199310 
# 
# 
# High freq. dielectric constant tensor:
#      x y z
#    x 1.887070 0.016810 -0.021500 
#    y 0.016810 1.908020 0.000240 
#    z -0.021500 0.000240 1.904570 
# 
# From -- ./inp_files/572861.got.cif
#   From: 2010.06.25/outbox.cif.g09.slc.cpg/sg2_287_cif.got.tgz:572861.got - 2010.06.27 13:26:56.
