data_PCOD8044685
_publ_section_title
;
Structure prediction by ZEFSAII (Michael W. Deem and Ramdas Pophale) SiO2 
 PCOD8044685
Probable space group: P -1
;
_chemical_formula_sum "Si O2"
_cell_formula_units_Z 14
_cell_length_a 13.096324
_cell_length_b 22.835002
_cell_length_c 16.300844
_cell_angle_alpha 157.574924
_cell_angle_beta 24.558571
_cell_angle_gamma 144.748763
_cell_volume 763.903582
_symmetry_space_group_name_H-M "P -1"
_symmetry_group_IT_number 2
_symmetry_cell_setting 'triclinic'
loop_
_space_group_symop_operation_xyz
x,y,z
-x,-y,-z
loop_
_atom_site_type_symbol
_atom_site_label
_atom_site_fract_x
_atom_site_fract_y
_atom_site_fract_z
Si Si1 0.361182 0.568418 0.109784
Si Si2 0.119916 0.557036 0.734874
Si Si3 0.401723 0.381864 0.168135
Si Si4 0.945483 0.838363 0.798489
Si Si5 0.719047 0.758021 0.701745
Si Si6 0.077092 0.663255 0.177458
Si Si7 0.160842 0.833021 0.174654
O O1 0.171139 0.457690 0.072218
O O2 0.212033 0.732802 0.458659
O O3 0.500000 0.500000 0.000000
O O4 0.554221 0.586119 0.918187
O O5 0.236469 0.532605 0.526443
O O6 0.270705 0.420303 0.504728
O O7 0.142260 0.727442 0.971065
O O8 0.245168 0.237845 0.102469
O O9 0.657150 0.346562 0.986124
O O10 0.827246 0.862170 0.825638
O O11 0.000000 0.000000 0.000000
O O12 0.876643 0.760658 0.508288
O O13 0.447083 0.845604 0.994404
O O14 0.057187 0.754782 0.226607
O O15 0.000000 0.500000 0.000000
O O16 0.000000 0.000000 0.500000
#
# Coordination Sequence:
#
# PCOD8044685 Si02
#       7
#     2   2   2   2   2   2   2
#     4  10  21  39  60  89 118 151 208 256 292 353
#     4  10  20  37  61  88 113 162 209 236 294 380
#     4  10  19  38  65  86 114 161 211 241 293 365
#     4  10  22  38  59  88 118 158 207 248 295 365
#     4  10  20  38  61  84 116 159 217 230 286 382
#     4  12  19  36  68  87 115 166 204 239 294 372
#     4  12  24  37  57  95 129 151 191 265 310 340
#
# _framework density 18.326920000000001
#
# number of rings (size 3 to 8) (size 9 to 14) (size 15 to 20)
#    0.000    1.714    7.143    1.286    0.000    4.571 
#    0.000    1.429    0.000    0.000    0.000    0.000 
#    0.000    0.000    0.000    0.000    0.000    0.000 
#
# Total GULP energy -173559.214077 kJ/mol
# GULP energy per Si atom -12397.086720 kJ/mol
# Density = 1.828521 g / cm^3
# Si number density = 18.326920 Si / 1000 Ang^3
#
#
#
# Elastic Constant Matrix: (Units=GPa)
#
#
# Indices 1 2 3 4 5 6 
#
# 1 118.1411 72.7932 71.7859 3.6036 11.3786 1.0600
# 2 72.7932 112.0545 77.4035 -9.0575 16.4932 -2.0141
# 3 71.7859 77.4035 124.3125 -4.9208 15.0551 12.8990
# 4 3.6036 -9.0575 -4.9208 38.4109 1.6226 16.3284
# 5 11.3786 16.4932 15.0551 1.6226 28.0898 -3.1397
# 6 1.0600 -2.0141 12.8990 16.3284 -3.1397 35.6143
#
#
#
# Elastic Compliance Matrix: (Units=1/GPa)
#
#
# Indices 1 2 3 4 5 6 
#
# 1 0.016491 -0.007341 -0.005773 -0.005764 0.001500 0.003960
# 2 -0.007341 0.020080 -0.007763 0.003762 -0.004646 0.002031
# 3 -0.005773 -0.007763 0.017894 0.005211 -0.004056 -0.009495
# 4 -0.005764 0.003762 0.005211 0.036413 -0.006872 -0.018804
# 5 0.001500 -0.004646 -0.004056 -0.006872 0.041179 0.007943
# 6 0.003960 0.002031 -0.009495 -0.018804 0.007943 0.040836
#
#
# Mechanical properties :
#
#
# Convention : Reuss Voigt Hill
#
# Bulk Modulus (GPa) = 78.66638 88.71925 83.69281
# Shear Modulus (GPa) = 22.84310 29.25805 26.05057
#
# Velocity S-wave (km/s) = 3.53430 3.99990 3.77429
# Velocity P-wave (km/s) = 7.72478 8.35743 8.04732
#
# Compressibility (1/GPa) = 0.01271191
#
# Stress axis : x y z
#
# Youngs Moduli (GPa) = 60.63834 49.80141 55.88375
#
# Poissons Ratio (x) = 0.36558 0.32262
# Poissons Ratio (y) = 0.44513 0.43382
# Poissons Ratio (z) = 0.35007 0.38660
#
# Static dielectric constant tensor:
#      x y z
#    x 3.429800 0.033230 0.161720 
#    y 0.033230 3.210000 -0.389280 
#    z 0.161720 -0.389280 3.414370 
# 
# 
# High freq. dielectric constant tensor:
#      x y z
#    x 1.714470 0.006230 0.012110 
#    y 0.006230 1.701100 -0.028530 
#    z 0.012110 -0.028530 1.706920 
# 
# From -- ./inp_files/220925.got.cif
#   From: 2010.06.25/outbox.cif.g09.slc.cpg/sg2_111_cif.got.tgz:220925.got - 2010.06.27 13:26:56.
