data_PCOD8044860
_publ_section_title
;
Structure prediction by ZEFSAII (Michael W. Deem and Ramdas Pophale) SiO2 
 PCOD8044860
Probable space group: P 2
;
_chemical_formula_sum "Si O2"
_cell_formula_units_Z 15
_cell_length_a 12.184593
_cell_length_b 8.745815
_cell_length_c 9.548821
_cell_angle_alpha 90.000000
_cell_angle_beta 127.431610
_cell_angle_gamma 90.000000
_cell_volume 808.025379
_symmetry_space_group_name_H-M "P 2"
_symmetry_group_IT_number 3
_symmetry_cell_setting 'monoclinic'
loop_
_space_group_symop_operation_xyz
x,y,z
-x,y,-z
loop_
_atom_site_type_symbol
_atom_site_label
_atom_site_fract_x
_atom_site_fract_y
_atom_site_fract_z
Si Si1 0.716198 0.172340 0.104463
Si Si2 0.500000 0.935393 0.000000
Si Si3 0.869670 0.097604 0.486603
Si Si4 0.094050 0.740453 0.448201
Si Si5 0.989268 0.225189 0.157855
Si Si6 0.060213 0.571178 0.898920
Si Si7 0.623021 0.660622 0.243884
Si Si8 0.648657 0.509129 0.970411
O O1 0.743584 0.164582 0.295189
O O2 0.852806 0.142943 0.115829
O O3 0.646784 0.329358 0.000695
O O4 0.607451 0.037202 0.993327
O O5 0.425569 0.834070 0.822887
O O6 0.000000 0.156975 0.500000
O O7 0.877443 0.163557 0.651822
O O8 0.869518 0.915899 0.498651
O O9 0.242306 0.654161 0.552623
O O10 0.000000 0.675031 0.500000
O O11 0.002658 0.707631 0.241760
O O12 0.988999 0.405076 0.190384
O O13 0.000000 0.190181 0.000000
O O14 0.227159 0.565753 0.033163
O O15 0.000000 0.612910 0.000000
O O16 0.497844 0.559577 0.212547
O O17 0.669822 0.594819 0.131853
#
# Coordination Sequence:
#
# PCOD8044860 Si02
#       8
#     2   1   2   2   2   2   2   2
#     4  10  18  33  55  81 104 137 178 218 264 319
#     4  10  18  32  52  78 110 138 168 224 268 320
#     4   9  19  31  51  81 107 132 173 221 266 312
#     4  11  20  34  55  81 109 138 180 224 269 316
#     4   9  20  36  54  77 108 139 176 222 264 315
#     4  10  21  36  56  80 108 144 182 220 267 318
#     4  10  20  33  52  83 110 137 177 226 268 316
#     4   9  19  33  54  80 109 138 179 217 269 314
#
# _framework density 18.563773000000001
#
# number of rings (size 3 to 8) (size 9 to 14) (size 15 to 20)
#    0.000    2.400    2.667    0.800    1.867    1.067 
#    0.000    0.667    0.000    0.800    0.000    0.000 
#    0.000    0.000    0.000    0.000    0.000    0.000 
#
# Total GULP energy -185861.371158 kJ/mol
# GULP energy per Si atom -12390.758077 kJ/mol
# Density = 1.852152 g / cm^3
# Si number density = 18.563773 Si / 1000 Ang^3
#
#
#
# Elastic Constant Matrix: (Units=GPa)
#
#
# Indices 1 2 3 4 5 6 
#
# 1 107.2785 40.4242 45.5915 0.0000 5.6802 0.0000
# 2 40.4242 70.4225 24.1122 0.0000 9.1299 0.0000
# 3 45.5915 24.1122 66.3634 0.0000 4.1919 0.0000
# 4 0.0000 0.0000 0.0000 18.9996 0.0000 5.7802
# 5 5.6802 9.1299 4.1919 0.0000 30.8634 0.0000
# 6 0.0000 0.0000 0.0000 5.7802 0.0000 16.4121
#
#
#
# Elastic Compliance Matrix: (Units=1/GPa)
#
#
# Indices 1 2 3 4 5 6 
#
# 1 0.014987 -0.005808 -0.008190 0.000000 0.000072 0.000000
# 2 -0.005808 0.018981 -0.002642 0.000000 -0.004187 0.000000
# 3 -0.008190 -0.002642 0.021697 0.000000 -0.000658 0.000000
# 4 0.000000 0.000000 0.000000 0.058949 0.000000 -0.020761
# 5 0.000072 -0.004187 -0.000658 0.000000 0.033716 0.000000
# 6 0.000000 0.000000 0.000000 -0.020761 0.000000 0.068243
#
#
# Mechanical properties :
#
#
# Convention : Reuss Voigt Hill
#
# Bulk Modulus (GPa) = 44.67390 51.59115 48.13252
# Shear Modulus (GPa) = 19.43150 22.18412 20.80781
#
# Velocity S-wave (km/s) = 3.23885 3.46066 3.35159
# Velocity P-wave (km/s) = 6.17286 6.61966 6.40016
#
# Compressibility (1/GPa) = 0.02238443
#
# Stress axis : x y z
#
# Youngs Moduli (GPa) = 66.72457 52.68321 46.08964
#
# Poissons Ratio (x) = 0.30598 0.37749
# Poissons Ratio (y) = 0.38753 0.12177
# Poissons Ratio (z) = 0.54650 0.13919
#
# Static dielectric constant tensor:
#      x y z
#    x 3.602530 0.000000 0.205250 
#    y 0.000000 3.419150 0.000000 
#    z 0.205250 0.000000 3.370340 
# 
# 
# High freq. dielectric constant tensor:
#      x y z
#    x 1.707780 0.000000 0.023170 
#    y 0.000000 1.724940 0.000000 
#    z 0.023170 0.000000 1.695300 
# 
# From -- ./inp_files/7260.got.cif
#   From: 2010.03.12/outbox.cif.g09.slc.cpg/sg3_4_cif.got.tgz:7260.got - 2010.03.31 09:20:49.
