data_PCOD8044308
_publ_section_title
;
Structure prediction by ZEFSAII (Michael W. Deem and Ramdas Pophale) SiO2 
 PCOD8044308
Probable space group: P -1
;
_chemical_formula_sum "Si O2"
_cell_formula_units_Z 14
_cell_length_a 15.155546
_cell_length_b 15.153584
_cell_length_c 8.986611
_cell_angle_alpha 33.787230
_cell_angle_beta 73.582314
_cell_angle_gamma 48.702586
_cell_volume 665.173813
_symmetry_space_group_name_H-M "P -1"
_symmetry_group_IT_number 2
_symmetry_cell_setting 'triclinic'
loop_
_space_group_symop_operation_xyz
x,y,z
-x,-y,-z
loop_
_atom_site_type_symbol
_atom_site_label
_atom_site_fract_x
_atom_site_fract_y
_atom_site_fract_z
Si Si1 0.768611 0.561461 0.849156
Si Si2 0.979738 0.712550 0.695011
Si Si3 0.331915 0.978604 0.594188
Si Si4 0.652821 0.440620 0.260840
Si Si5 0.637776 0.698138 0.408489
Si Si6 0.860496 0.300581 0.599146
Si Si7 0.563612 0.275834 0.389668
O O1 0.730993 0.644308 0.578912
O O2 0.704625 0.794706 0.650972
O O3 0.693035 0.499680 0.019679
O O4 0.950198 0.301497 0.168102
O O5 0.072723 0.646094 0.601781
O O6 0.798567 0.979326 0.384249
O O7 0.000000 0.500000 0.000000
O O8 0.359351 0.958303 0.429863
O O9 0.473320 0.717410 0.987726
O O10 0.747552 0.347690 0.491461
O O11 0.679386 0.216671 0.523707
O O12 0.766447 0.501328 0.498948
O O13 0.565002 0.629471 0.581315
O O14 0.500000 0.000000 0.000000
O O15 0.000000 0.000000 0.000000
O O16 0.500000 0.500000 0.000000
#
# Coordination Sequence:
#
# PCOD8044308 Si02
#       7
#     2   2   2   2   2   2   2
#     4  10  20  40  67  98 127 181 224 272 332 408
#     4   9  22  41  67  91 128 180 224 265 325 411
#     4  10  19  37  72  97 123 168 242 272 314 392
#     4  10  21  41  69  92 126 181 231 264 326 408
#     4  12  26  42  67 106 138 172 226 288 335 391
#     4  11  27  45  65  99 145 175 213 283 355 388
#     4  10  22  39  67 100 128 167 234 281 317 397
#
# _framework density 21.047129999999999
#
# number of rings (size 3 to 8) (size 9 to 14) (size 15 to 20)
#    0.000    1.714    2.857    1.286   10.000    1.714 
#    5.143    5.714    0.000    0.000    0.000    0.000 
#    0.000    0.000    0.000    0.000    0.000    0.000 
#
# Total GULP energy -173454.512525 kJ/mol
# GULP energy per Si atom -12389.608038 kJ/mol
# Density = 2.099923 g / cm^3
# Si number density = 21.047130 Si / 1000 Ang^3
#
#
#
# Elastic Constant Matrix: (Units=GPa)
#
#
# Indices 1 2 3 4 5 6 
#
# 1 159.3293 63.7285 56.0122 9.0774 18.3981 -7.5958
# 2 63.7285 117.4108 45.5433 8.5843 12.8257 -2.1665
# 3 56.0122 45.5433 105.4542 6.2121 20.2697 -3.6903
# 4 9.0774 8.5843 6.2121 29.4883 -2.2166 0.5787
# 5 18.3981 12.8257 20.2697 -2.2166 45.7646 -1.3533
# 6 -7.5958 -2.1665 -3.6903 0.5787 -1.3533 38.6457
#
#
#
# Elastic Compliance Matrix: (Units=1/GPa)
#
#
# Indices 1 2 3 4 5 6 
#
# 1 0.008975 -0.003489 -0.002876 -0.001270 -0.001381 0.001264
# 2 -0.003489 0.011774 -0.003013 -0.001762 -0.000657 -0.000310
# 3 -0.002876 -0.003013 0.013147 -0.001306 -0.003874 0.000405
# 4 -0.001270 -0.001762 -0.001306 0.035354 0.003269 -0.000888
# 5 -0.001381 -0.000657 -0.003874 0.003269 0.024468 0.000130
# 6 0.001264 -0.000310 0.000405 -0.000888 0.000130 0.026164
#
#
# Mechanical properties :
#
#
# Convention : Reuss Voigt Hill
#
# Bulk Modulus (GPa) = 66.04277 79.19581 72.61929
# Shear Modulus (GPa) = 34.79855 37.24041 36.01948
#
# Velocity S-wave (km/s) = 4.07057 4.21097 4.14136
# Velocity P-wave (km/s) = 7.31706 7.83278 7.57931
#
# Compressibility (1/GPa) = 0.01514170
#
# Stress axis : x y z
#
# Youngs Moduli (GPa) = 111.42279 84.93049 76.06225
#
# Poissons Ratio (x) = 0.29631 0.21874
# Poissons Ratio (y) = 0.38874 0.22915
# Poissons Ratio (z) = 0.32043 0.25586
#
# Static dielectric constant tensor:
#      x y z
#    x 6.179710 -2.603830 1.138590 
#    y -2.603830 8.947660 -1.822330 
#    z 1.138590 -1.822330 4.424290 
# 
# 
# High freq. dielectric constant tensor:
#      x y z
#    x 1.854360 0.000210 0.007320 
#    y 0.000210 1.808580 -0.000220 
#    z 0.007320 -0.000220 1.810440 
# 
# From -- ./inp_files/209205.got.cif
#   From: 2010.06.25/outbox.cif.g09.slc.cpg/sg2_105_cif.got.tgz:209205.got - 2010.06.27 13:26:56.
