data_PCOD8044968
_publ_section_title
;
Structure prediction by ZEFSAII (Michael W. Deem and Ramdas Pophale) SiO2 
 PCOD8044968
Probable space group: P 2
;
_chemical_formula_sum "Si O2"
_cell_formula_units_Z 14
_cell_length_a 8.050331
_cell_length_b 5.009983
_cell_length_c 16.445956
_cell_angle_alpha 90.000000
_cell_angle_beta 62.841399
_cell_angle_gamma 90.000000
_cell_volume 590.167597
_symmetry_space_group_name_H-M "P 2"
_symmetry_group_IT_number 3
_symmetry_cell_setting 'monoclinic'
loop_
_space_group_symop_operation_xyz
x,y,z
-x,y,-z
loop_
_atom_site_type_symbol
_atom_site_label
_atom_site_fract_x
_atom_site_fract_y
_atom_site_fract_z
Si Si1 0.696872 0.782460 0.439515
Si Si2 0.685406 0.430486 0.001277
Si Si3 0.122108 0.596557 0.359812
Si Si4 0.211924 0.944699 0.929476
Si Si5 0.796421 0.075979 0.566396
Si Si6 0.822879 0.990646 0.246165
Si Si7 0.057464 0.489063 0.203641
O O1 0.500000 0.621367 0.500000
O O2 0.891598 0.618642 0.409479
O O3 0.680208 0.026022 0.509700
O O4 0.687286 0.897590 0.349405
O O5 0.653499 0.147858 0.052477
O O6 0.752611 0.641768 0.052891
O O7 0.500000 0.536054 0.000000
O O8 0.836433 0.383211 0.897927
O O9 0.198594 0.383962 0.408654
O O10 0.181898 0.485913 0.257906
O O11 0.241030 0.867178 0.350605
O O12 0.269218 0.975700 0.822190
O O13 0.000000 0.026657 0.000000
O O14 0.000000 0.968506 0.500000
O O15 0.880546 0.293475 0.254064
O O16 0.001217 0.796135 0.202784
#
# Coordination Sequence:
#
# PCOD8044968 Si02
#       7
#     2   2   2   2   2   2   2
#     4  10  23  43  65  97 133 163 216 279 322 358
#     4  12  25  42  65 100 133 163 203 278 326 363
#     4  10  21  38  64  88 119 171 213 249 306 385
#     4  12  22  43  71  93 128 170 220 250 315 403
#     4  10  19  38  61  84 118 167 210 248 308 378
#     4  11  23  39  67  94 124 173 216 256 311 391
#     4  11  20  40  64  95 126 167 219 254 310 393
#
# _framework density 23.722072000000001
#
# number of rings (size 3 to 8) (size 9 to 14) (size 15 to 20)
#    0.000    1.143    2.857    5.571    0.000    1.143 
#    5.143   17.857    0.000    0.000    0.000    0.000 
#    0.000    0.000    0.000    0.000    0.000    0.000 
#
# Total GULP energy -173455.361812 kJ/mol
# GULP energy per Si atom -12389.668701 kJ/mol
# Density = 2.366808 g / cm^3
# Si number density = 23.722072 Si / 1000 Ang^3
#
#
#
# Elastic Constant Matrix: (Units=GPa)
#
#
# Indices 1 2 3 4 5 6 
#
# 1 50.9238 12.6890 33.9954 0.0000 9.5421 0.0000
# 2 12.6890 106.7713 33.2500 0.0000 8.3155 0.0000
# 3 33.9954 33.2500 147.7228 0.0000 35.1153 0.0000
# 4 0.0000 0.0000 0.0000 23.7135 0.0000 13.3444
# 5 9.5421 8.3155 35.1153 0.0000 30.6903 0.0000
# 6 0.0000 0.0000 0.0000 13.3444 0.0000 26.2723
#
#
#
# Elastic Compliance Matrix: (Units=1/GPa)
#
#
# Indices 1 2 3 4 5 6 
#
# 1 0.023391 -0.001180 -0.004759 0.000000 -0.001508 0.000000
# 2 -0.001180 0.010132 -0.001983 0.000000 -0.000109 0.000000
# 3 -0.004759 -0.001983 0.010757 0.000000 -0.010291 0.000000
# 4 0.000000 0.000000 0.000000 0.059048 0.000000 -0.029992
# 5 -0.001508 -0.000109 -0.010291 0.000000 0.044857 0.000000
# 6 0.000000 0.000000 0.000000 -0.029992 0.000000 0.053297
#
#
# Mechanical properties :
#
#
# Convention : Reuss Voigt Hill
#
# Bulk Modulus (GPa) = 35.16689 51.69853 43.43271
# Shear Modulus (GPa) = 22.04543 31.16745 26.60644
#
# Velocity S-wave (km/s) = 3.05178 3.62865 3.35265
# Velocity P-wave (km/s) = 5.22251 6.27669 5.77371
#
# Compressibility (1/GPa) = 0.02843584
#
# Stress axis : x y z
#
# Youngs Moduli (GPa) = 42.75206 98.69595 92.96040
#
# Poissons Ratio (x) = 0.11650 0.44238
# Poissons Ratio (y) = 0.05047 0.18433
# Poissons Ratio (z) = 0.20345 0.19570
#
# Static dielectric constant tensor:
#      x y z
#    x 4.092590 0.000000 0.358880 
#    y 0.000000 4.007020 0.000000 
#    z 0.358880 0.000000 4.649090 
# 
# 
# High freq. dielectric constant tensor:
#      x y z
#    x 1.904700 0.000000 0.034740 
#    y 0.000000 1.938690 0.000000 
#    z 0.034740 0.000000 1.952840 
# 
# From -- ./inp_files/13349.got.cif
#   From: 2010.03.12/outbox.cif.g09.slc.cpg/sg3_7_cif.got.tgz:13349.got - 2010.03.31 09:20:49.
