data_PCOD8044862
_publ_section_title
;
Structure prediction by ZEFSAII (Michael W. Deem and Ramdas Pophale) SiO2 
 PCOD8044862
Probable space group: P 2
;
_chemical_formula_sum "Si O2"
_cell_formula_units_Z 16
_cell_length_a 8.871117
_cell_length_b 12.011260
_cell_length_c 9.005447
_cell_angle_alpha 90.000000
_cell_angle_beta 60.150925
_cell_angle_gamma 90.000000
_cell_volume 832.264285
_symmetry_space_group_name_H-M "P 2"
_symmetry_group_IT_number 3
_symmetry_cell_setting 'monoclinic'
loop_
_space_group_symop_operation_xyz
x,y,z
-x,y,-z
loop_
_atom_site_type_symbol
_atom_site_label
_atom_site_fract_x
_atom_site_fract_y
_atom_site_fract_z
Si Si1 0.328103 0.752970 0.683104
Si Si2 0.692075 0.922294 0.839075
Si Si3 0.662400 0.131067 0.018221
Si Si4 0.016022 0.495396 0.324099
Si Si5 0.333998 0.504550 0.684139
Si Si6 0.177998 0.362301 0.999087
Si Si7 0.975563 0.749792 0.678731
Si Si8 0.478092 0.966177 0.685011
O O1 0.500000 0.761044 0.500000
O O2 0.328868 0.630110 0.756256
O O3 0.152246 0.770469 0.679114
O O4 0.348675 0.859574 0.781409
O O5 0.662940 0.937220 0.674914
O O6 0.819409 0.822758 0.822471
O O7 0.500000 0.902349 0.000000
O O8 0.766419 0.037529 0.872182
O O9 0.601886 0.077226 0.203694
O O10 0.500000 0.174515 0.000000
O O11 0.786705 0.233094 0.993812
O O12 0.828005 0.485638 0.343512
O O13 0.084112 0.621928 0.286706
O O14 0.000000 0.451480 0.500000
O O15 0.159270 0.421996 0.167798
O O16 0.500000 0.482399 0.500000
O O17 0.329724 0.420390 0.826138
O O18 0.000000 0.378912 0.000000
O O19 0.000000 0.790945 0.500000
O O20 0.500000 0.989993 0.500000
#
# Coordination Sequence:
#
# PCOD8044862 Si02
#       8
#     2   2   2   2   2   2   2   2
#     4   9  17  30  52  83 113 138 172 217 265 321
#     4   9  20  37  53  76 112 142 173 219 267 316
#     4   9  21  38  52  73 106 139 177 224 266 309
#     4   9  20  37  54  79 112 141 174 219 267 319
#     4   9  19  35  56  82 110 140 175 218 266 318
#     4  10  21  38  56  76 106 142 181 224 267 313
#     4  10  18  32  56  82 110 142 175 214 267 324
#     4   9  17  33  55  77 106 138 172 219 265 312
#
# _framework density 19.224663
#
# number of rings (size 3 to 8) (size 9 to 14) (size 15 to 20)
#    0.000    3.000    0.000    1.500    0.000    5.500 
#    0.000    9.375    0.000    0.000    0.000    0.000 
#    0.000    0.000    0.000    0.000    0.000    0.000 
#
# Total GULP energy -198260.041870 kJ/mol
# GULP energy per Si atom -12391.252617 kJ/mol
# Density = 1.918091 g / cm^3
# Si number density = 19.224663 Si / 1000 Ang^3
#
#
#
# Elastic Constant Matrix: (Units=GPa)
#
#
# Indices 1 2 3 4 5 6 
#
# 1 57.3218 44.0432 39.8459 0.0000 0.4555 0.0000
# 2 44.0432 129.6138 65.0816 0.0000 -1.8676 0.0000
# 3 39.8459 65.0816 109.1449 0.0000 9.1971 0.0000
# 4 0.0000 0.0000 0.0000 25.7049 0.0000 0.3016
# 5 0.4555 -1.8676 9.1971 0.0000 29.9236 0.0000
# 6 0.0000 0.0000 0.0000 0.3016 0.0000 41.1069
#
#
#
# Elastic Compliance Matrix: (Units=1/GPa)
#
#
# Indices 1 2 3 4 5 6 
#
# 1 0.026186 -0.005756 -0.006225 0.000000 0.001155 0.000000
# 2 -0.005756 0.012507 -0.005574 0.000000 0.002581 0.000000
# 3 -0.006225 -0.005574 0.015173 0.000000 -0.004917 0.000000
# 4 0.000000 0.000000 0.000000 0.038906 0.000000 -0.000285
# 5 0.001155 0.002581 -0.004917 0.000000 0.035073 0.000000
# 6 0.000000 0.000000 0.000000 -0.000285 0.000000 0.024329
#
#
# Mechanical properties :
#
#
# Convention : Reuss Voigt Hill
#
# Bulk Modulus (GPa) = 53.31627 66.00244 59.65936
# Shear Modulus (GPa) = 25.83505 29.15440 27.49472
#
# Velocity S-wave (km/s) = 3.66983 3.89846 3.78587
# Velocity P-wave (km/s) = 6.76390 7.39397 7.08594
#
# Compressibility (1/GPa) = 0.01875600
#
# Stress axis : x y z
#
# Youngs Moduli (GPa) = 38.18875 79.95478 65.90749
#
# Poissons Ratio (x) = 0.46019 0.41028
# Poissons Ratio (y) = 0.21980 0.36737
# Poissons Ratio (z) = 0.23773 0.44568
#
# Static dielectric constant tensor:
#      x y z
#    x 3.370950 0.000000 0.152440 
#    y 0.000000 3.672020 0.000000 
#    z 0.152440 0.000000 3.480430 
# 
# 
# High freq. dielectric constant tensor:
#      x y z
#    x 1.740360 0.000000 0.011980 
#    y 0.000000 1.747740 0.000000 
#    z 0.011980 0.000000 1.737430 
# 
# From -- ./inp_files/6006.got.cif
#   From: 2010.03.12/outbox.cif.g09.slc.cpg/sg3_4_cif.got.tgz:6006.got - 2010.03.31 09:20:49.
