data_PCOD8044619
_publ_section_title
;
Structure prediction by ZEFSAII (Michael W. Deem and Ramdas Pophale) SiO2 
 PCOD8044619
Probable space group: P -1
;
_chemical_formula_sum "Si O2"
_cell_formula_units_Z 16
_cell_length_a 6.840524
_cell_length_b 8.610849
_cell_length_c 15.413444
_cell_angle_alpha 80.195901
_cell_angle_beta 52.151035
_cell_angle_gamma 80.002741
_cell_volume 703.638370
_symmetry_space_group_name_H-M "P -1"
_symmetry_group_IT_number 2
_symmetry_cell_setting 'triclinic'
loop_
_space_group_symop_operation_xyz
x,y,z
-x,-y,-z
loop_
_atom_site_type_symbol
_atom_site_label
_atom_site_fract_x
_atom_site_fract_y
_atom_site_fract_z
Si Si1 0.522795 0.702659 0.554069
Si Si2 0.173870 0.684184 0.066147
Si Si3 0.214348 0.888351 0.192186
Si Si4 0.963868 0.828384 0.686556
Si Si5 0.354464 0.315329 0.845168
Si Si6 0.006723 0.143762 0.567792
Si Si7 0.429930 0.646904 0.394237
Si Si8 0.614325 0.581834 0.843092
O O1 0.702948 0.831566 0.526215
O O2 0.572276 0.673005 0.441738
O O3 0.598426 0.537815 0.597670
O O4 0.239519 0.763201 0.645227
O O5 0.123911 0.837777 0.127049
O O6 0.206652 0.525970 0.131088
O O7 0.942400 0.676204 0.064092
O O8 0.419932 0.696304 0.940713
O O9 0.510584 0.832079 0.123692
O O10 0.079651 0.799012 0.316301
O O11 0.152925 0.076148 0.206003
O O12 0.789320 0.688164 0.728208
O O13 0.966621 0.953083 0.591348
O O14 0.406878 0.285684 0.732017
O O15 0.459977 0.477309 0.832061
O O16 0.840776 0.254000 0.535298
#
# Coordination Sequence:
#
# PCOD8044619 Si02
#       8
#     2   2   2   2   2   2   2   2
#     4  11  21  37  62  88 113 157 207 235 287 356
#     4  10  19  38  64  87 112 159 196 242 290 351
#     4   8  20  37  58  83 122 151 190 239 297 346
#     4  10  22  40  56  90 125 155 191 249 296 345
#     4  10  19  39  60  84 115 159 194 237 296 351
#     4   9  20  39  56  82 123 156 187 241 297 342
#     4  10  22  36  60  88 116 152 200 247 286 345
#     4  10  22  37  60  89 121 147 200 247 288 347
#
# _framework density 22.738954
#
# number of rings (size 3 to 8) (size 9 to 14) (size 15 to 20)
#    0.750    1.500    0.000    2.625    0.000    7.000 
#    0.000    5.625    0.000    0.000    0.000    0.000 
#    0.000    0.000    0.000    0.000    0.000    0.000 
#
# Total GULP energy -198345.269631 kJ/mol
# GULP energy per Si atom -12396.579352 kJ/mol
# Density = 2.268720 g / cm^3
# Si number density = 22.738954 Si / 1000 Ang^3
#
#
#
# Elastic Constant Matrix: (Units=GPa)
#
#
# Indices 1 2 3 4 5 6 
#
# 1 80.4360 27.8497 12.6260 -5.1098 -31.5033 -16.0802
# 2 27.8497 105.0404 18.5115 7.0177 -19.4432 -14.1804
# 3 12.6260 18.5115 40.5333 -6.9458 -22.3310 -17.2081
# 4 -5.1098 7.0177 -6.9458 32.4952 3.1761 -1.9825
# 5 -31.5033 -19.4432 -22.3310 3.1761 35.4575 2.8530
# 6 -16.0802 -14.1804 -17.2081 -1.9825 2.8530 22.8038
#
#
#
# Elastic Compliance Matrix: (Units=1/GPa)
#
#
# Indices 1 2 3 4 5 6 
#
# 1 0.042362 -0.001429 0.049686 0.015198 0.061953 0.060047
# 2 -0.001429 0.011742 -0.001016 -0.003124 0.004431 0.004701
# 3 0.049686 -0.001016 0.126627 0.031503 0.110955 0.118816
# 4 0.015198 -0.003124 0.031503 0.040094 0.025396 0.032855
# 5 0.061953 0.004431 0.110955 0.025396 0.144080 0.114352
# 6 0.060047 0.004701 0.118816 0.032855 0.114352 0.167328
#
#
# Mechanical properties :
#
#
# Convention : Reuss Voigt Hill
#
# Bulk Modulus (GPa) = 3.63356 38.22045 20.92701
# Shear Modulus (GPa) = 9.44306 29.28613 19.36460
#
# Velocity S-wave (km/s) = 2.04006 3.59266 2.92139
# Velocity P-wave (km/s) = 2.67404 5.83562 4.53900
#
# Compressibility (1/GPa) = 0.27521242
#
# Stress axis : x y z
#
# Youngs Moduli (GPa) = 23.60610 85.16769 7.89719
#
# Poissons Ratio (x) = 0.12172 -0.39238
# Poissons Ratio (y) = 0.03374 0.00802
# Poissons Ratio (z) = -1.17288 0.08650
#
# Static dielectric constant tensor:
#      x y z
#    x 3.858580 -0.099580 -0.007770 
#    y -0.099580 3.951080 0.252190 
#    z -0.007770 0.252190 3.899630 
# 
# 
# High freq. dielectric constant tensor:
#      x y z
#    x 1.887650 -0.001310 -0.002740 
#    y -0.001310 1.889220 0.024570 
#    z -0.002740 0.024570 1.886630 
# 
# From -- ./inp_files/582404.got.cif
#   From: 2010.06.25/outbox.cif.g09.slc.cpg/sg2_292_cif.got.tgz:582404.got - 2010.06.27 13:26:56.
