data_PCOD8044264
_publ_section_title
;
Structure prediction by ZEFSAII (Michael W. Deem and Ramdas Pophale) SiO2 
 PCOD8044264
Probable space group: P -1
;
_chemical_formula_sum "Si O2"
_cell_formula_units_Z 16
_cell_length_a 20.398516
_cell_length_b 6.997841
_cell_length_c 9.389506
_cell_angle_alpha 134.040078
_cell_angle_beta 124.717866
_cell_angle_gamma 76.579496
_cell_volume 760.906393
_symmetry_space_group_name_H-M "P -1"
_symmetry_group_IT_number 2
_symmetry_cell_setting 'triclinic'
loop_
_space_group_symop_operation_xyz
x,y,z
-x,-y,-z
loop_
_atom_site_type_symbol
_atom_site_label
_atom_site_fract_x
_atom_site_fract_y
_atom_site_fract_z
Si Si1 0.229140 0.228786 0.053096
Si Si2 0.383769 0.975671 0.868772
Si Si3 0.481130 0.790834 0.648652
Si Si4 0.636154 0.457217 0.840278
Si Si5 0.216793 0.548306 0.477709
Si Si6 0.769618 0.369055 0.163775
Si Si7 0.954485 0.325660 0.722987
Si Si8 0.097559 0.288991 0.700150
O O1 0.308100 0.401863 0.152356
O O2 0.232072 0.333965 0.272276
O O3 0.146280 0.253104 0.885434
O O4 0.227805 0.912919 0.903887
O O5 0.419178 0.801644 0.707801
O O6 0.285848 0.842524 0.694119
O O7 0.432555 0.978663 0.084131
O O8 0.398825 0.299278 0.008311
O O9 0.500000 0.500000 0.500000
O O10 0.434644 0.810482 0.450367
O O11 0.685144 0.337811 0.957137
O O12 0.226176 0.432621 0.589391
O O13 0.126218 0.585946 0.371090
O O14 0.847990 0.479078 0.215583
O O15 0.016415 0.380563 0.692256
O O16 0.929284 0.002196 0.567053
O O17 0.000000 0.500000 0.000000
#
# Coordination Sequence:
#
# PCOD8044264 Si02
#       8
#     2   2   2   2   2   2   2   2
#     4  11  21  40  63  89 126 169 205 256 305 366
#     4  10  19  37  67  90 126 163 210 255 307 371
#     4   9  19  35  65  99 119 165 208 251 312 371
#     4  10  20  39  65  90 126 166 209 252 309 365
#     4  12  22  38  62  92 125 165 210 257 314 371
#     4  11  24  40  61  96 127 166 209 255 307 372
#     4  11  22  41  68  90 121 166 212 260 314 363
#     4  10  23  43  64  87 127 166 208 259 312 366
#
# _framework density 21.027553999999999
#
# number of rings (size 3 to 8) (size 9 to 14) (size 15 to 20)
#    0.000    1.500    5.000    0.750    0.000    2.500 
#    0.000    1.875    0.000    4.500    0.000    0.000 
#    0.000    0.000    0.000    0.000    0.000    0.000 
#
# Total GULP energy -198245.846016 kJ/mol
# GULP energy per Si atom -12390.365376 kJ/mol
# Density = 2.097969 g / cm^3
# Si number density = 21.027554 Si / 1000 Ang^3
#
#
#
# Elastic Constant Matrix: (Units=GPa)
#
#
# Indices 1 2 3 4 5 6 
#
# 1 71.6224 31.8808 32.7216 -15.4060 -13.0700 -19.6686
# 2 31.8808 62.0318 26.4485 -17.3672 -3.5077 2.2842
# 3 32.7216 26.4485 145.0166 -24.3055 -4.7626 -5.4030
# 4 -15.4060 -17.3672 -24.3055 28.6110 -6.7776 -0.7646
# 5 -13.0700 -3.5077 -4.7626 -6.7776 40.3924 -4.9439
# 6 -19.6686 2.2842 -5.4030 -0.7646 -4.9439 23.5820
#
#
#
# Elastic Compliance Matrix: (Units=1/GPa)
#
#
# Indices 1 2 3 4 5 6 
#
# 1 0.038100 -0.015029 -0.001263 0.015591 0.018048 0.037233
# 2 -0.015029 0.026277 -0.001192 0.005532 -0.003747 -0.015959
# 3 -0.001263 -0.001192 0.008579 0.006344 0.001760 0.001602
# 4 0.015591 0.005532 0.006344 0.056934 0.018224 0.019588
# 5 0.018048 -0.003747 0.001760 0.018224 0.036482 0.024058
# 6 0.037233 -0.015959 0.001602 0.019588 0.024058 0.081051
#
#
# Mechanical properties :
#
#
# Convention : Reuss Voigt Hill
#
# Bulk Modulus (GPa) = 26.32304 51.19696 38.76000
# Shear Modulus (GPa) = 16.94605 31.02508 23.98556
#
# Velocity S-wave (km/s) = 2.84191 3.84532 3.38105
# Velocity P-wave (km/s) = 4.82847 6.64197 5.80646
#
# Compressibility (1/GPa) = 0.03798954
#
# Stress axis : x y z
#
# Youngs Moduli (GPa) = 26.24639 38.05567 116.56465
#
# Poissons Ratio (x) = 0.57192 0.14723
# Poissons Ratio (y) = 0.39444 0.13894
# Poissons Ratio (z) = 0.03315 0.04536
#
# Static dielectric constant tensor:
#      x y z
#    x 4.028430 -0.210730 -0.030960 
#    y -0.210730 3.386320 -0.306290 
#    z -0.030960 -0.306290 4.666050 
# 
# 
# High freq. dielectric constant tensor:
#      x y z
#    x 1.835920 -0.023460 -0.001660 
#    y -0.023460 1.776390 -0.013850 
#    z -0.001660 -0.013850 1.854830 
# 
# From -- ./inp_files/351123.got.cif
#   From: 2010.06.25/outbox.cif.g09.slc.cpg/sg2_176_cif.got.tgz:351123.got - 2010.06.27 13:26:56.
