data_PCOD8044456
_publ_section_title
;
Structure prediction by ZEFSAII (Michael W. Deem and Ramdas Pophale) SiO2 
 PCOD8044456
Probable space group: P -1
;
_chemical_formula_sum "Si O2"
_cell_formula_units_Z 14
_cell_length_a 12.705985
_cell_length_b 22.555842
_cell_length_c 8.587780
_cell_angle_alpha 141.857667
_cell_angle_beta 144.388547
_cell_angle_gamma 28.869683
_cell_volume 667.181853
_symmetry_space_group_name_H-M "P -1"
_symmetry_group_IT_number 2
_symmetry_cell_setting 'triclinic'
loop_
_space_group_symop_operation_xyz
x,y,z
-x,-y,-z
loop_
_atom_site_type_symbol
_atom_site_label
_atom_site_fract_x
_atom_site_fract_y
_atom_site_fract_z
Si Si1 0.144349 0.360172 0.679452
Si Si2 0.070606 0.101751 0.904674
Si Si3 0.293364 0.665530 0.435542
Si Si4 0.047331 0.049509 0.417788
Si Si5 0.212553 0.521725 0.243056
Si Si6 0.220230 0.619773 0.927272
Si Si7 0.509602 0.932801 0.528577
O O1 0.377589 0.212090 0.656975
O O2 0.037022 0.390072 0.785372
O O3 0.953081 0.401733 0.398410
O O4 0.218450 0.447450 0.945588
O O5 0.108282 0.046707 0.664774
O O6 0.321070 0.067607 0.154435
O O7 0.024649 0.037949 0.852135
O O8 0.848658 0.253717 0.972018
O O9 0.245290 0.620178 0.436912
O O10 0.580546 0.578118 0.588243
O O11 0.182383 0.809389 0.619420
O O12 0.171412 0.650544 0.115224
O O13 0.256162 0.004204 0.455072
O O14 0.500000 0.500000 0.000000
O O15 0.500000 0.000000 0.500000
#
# Coordination Sequence:
#
# PCOD8044456 Si02
#       7
#     2   2   2   2   2   2   2
#     4  10  22  39  58  86 123 153 200 247 304 359
#     4   9  22  40  63  88 121 163 204 247 303 357
#     4  10  21  37  62  85 117 160 201 245 305 356
#     4  10  21  42  62  89 120 164 206 244 302 367
#     4  10  21  39  58  86 120 158 197 249 303 369
#     4  10  19  38  61  88 116 155 199 253 294 355
#     4  11  23  38  60  93 125 159 197 255 302 364
#
# _framework density 20.983784
#
# number of rings (size 3 to 8) (size 9 to 14) (size 15 to 20)
#    0.000    2.000    1.429    1.286    2.000    2.286 
#    2.571    2.857    0.000    0.000    0.000    0.000 
#    0.000    0.000    0.000    0.000    0.000    0.000 
#
# Total GULP energy -173472.233716 kJ/mol
# GULP energy per Si atom -12390.873837 kJ/mol
# Density = 2.093602 g / cm^3
# Si number density = 20.983784 Si / 1000 Ang^3
#
#
#
# Elastic Constant Matrix: (Units=GPa)
#
#
# Indices 1 2 3 4 5 6 
#
# 1 88.3331 39.1259 8.2382 8.4401 12.3321 -0.6730
# 2 39.1259 115.7830 19.4028 9.7487 -0.0162 10.1574
# 3 8.2382 19.4028 89.2294 5.3396 -2.6395 10.2079
# 4 8.4401 9.7487 5.3396 25.1980 5.9246 0.3458
# 5 12.3321 -0.0162 -2.6395 5.9246 26.1462 3.9435
# 6 -0.6730 10.1574 10.2079 0.3458 3.9435 26.5973
#
#
#
# Elastic Compliance Matrix: (Units=1/GPa)
#
#
# Indices 1 2 3 4 5 6 
#
# 1 0.014830 -0.005106 -0.000840 -0.001127 -0.007394 0.003759
# 2 -0.005106 0.011218 -0.001155 -0.003193 0.003697 -0.004477
# 3 -0.000840 -0.001155 0.012310 -0.002501 0.002914 -0.004704
# 4 -0.001127 -0.003193 -0.002501 0.044184 -0.010201 0.003089
# 5 -0.007394 0.003697 0.002914 -0.010201 0.045755 -0.009369
# 6 0.003759 -0.004477 -0.004704 0.003089 -0.009369 0.042557
#
#
# Mechanical properties :
#
#
# Convention : Reuss Voigt Hill
#
# Bulk Modulus (GPa) = 41.40125 47.43104 44.41614
# Shear Modulus (GPa) = 25.89220 30.69355 28.29288
#
# Velocity S-wave (km/s) = 3.51652 3.82871 3.67593
# Velocity P-wave (km/s) = 6.02170 6.49601 6.26334
#
# Compressibility (1/GPa) = 0.02415386
#
# Stress axis : x y z
#
# Youngs Moduli (GPa) = 67.43313 89.14166 81.23564
#
# Poissons Ratio (x) = 0.45519 0.06824
# Poissons Ratio (y) = 0.34434 0.09385
# Poissons Ratio (z) = 0.05665 0.10299
#
# Static dielectric constant tensor:
#      x y z
#    x 3.510620 0.087160 0.039120 
#    y 0.087160 4.029200 0.062170 
#    z 0.039120 0.062170 4.134790 
# 
# 
# High freq. dielectric constant tensor:
#      x y z
#    x 1.799070 0.002580 -0.001770 
#    y 0.002580 1.833280 0.004540 
#    z -0.001770 0.004540 1.832970 
# 
# From -- ./inp_files/151551.got.cif
#   From: 2010.06.25/outbox.cif.g09.slc.cpg/sg2_76_cif.got.tgz:151551.got - 2010.06.27 13:26:56.
