data_PCOD8044060
_publ_section_title
;
Structure prediction by ZEFSAII (Michael W. Deem and Ramdas Pophale) SiO2 
 PCOD8044060
Probable space group: P -1
;
_chemical_formula_sum "Si O2"
_cell_formula_units_Z 16
_cell_length_a 10.925213
_cell_length_b 9.400338
_cell_length_c 13.260880
_cell_angle_alpha 120.443876
_cell_angle_beta 55.224147
_cell_angle_gamma 85.493896
_cell_volume 824.325759
_symmetry_space_group_name_H-M "P -1"
_symmetry_group_IT_number 2
_symmetry_cell_setting 'triclinic'
loop_
_space_group_symop_operation_xyz
x,y,z
-x,-y,-z
loop_
_atom_site_type_symbol
_atom_site_label
_atom_site_fract_x
_atom_site_fract_y
_atom_site_fract_z
Si Si1 0.195731 0.771675 0.608289
Si Si2 0.483405 0.187096 0.027808
Si Si3 0.579446 0.955894 0.714883
Si Si4 0.169522 0.889803 0.072457
Si Si5 0.661871 0.000906 0.474099
Si Si6 0.752695 0.047953 0.164677
Si Si7 0.798030 0.588178 0.607163
Si Si8 0.954629 0.714361 0.099535
O O1 0.225255 0.801216 0.722789
O O2 0.238363 0.557052 0.491314
O O3 0.326318 0.813486 0.497367
O O4 0.992709 0.924358 0.730020
O O5 0.306258 0.368959 0.221438
O O6 0.651941 0.195968 0.981920
O O7 0.500000 0.000000 0.000000
O O8 0.481664 0.157784 0.897449
O O9 0.656679 0.998472 0.595942
O O10 0.449391 0.883402 0.721078
O O11 0.733628 0.783419 0.644775
O O12 0.133211 0.715101 0.024620
O O13 0.175820 0.958729 0.981784
O O14 0.836385 0.809821 0.287533
O O15 0.500000 0.000000 0.500000
O O16 0.853847 0.834441 0.089868
O O17 0.000000 0.500000 0.500000
O O18 0.000000 0.500000 0.000000
#
# Coordination Sequence:
#
# PCOD8044060 Si02
#       8
#     2   2   2   2   2   2   2   2
#     4  10  21  36  61  90 125 149 196 252 296 349
#     4  10  20  38  61  82 118 158 197 240 298 348
#     4  11  21  40  64  86 118 166 199 236 302 362
#     4  10  19  39  61  86 119 158 199 237 302 358
#     4  10  20  41  59  86 127 160 192 237 308 360
#     4  10  19  37  63  88 116 156 196 241 308 346
#     4  11  24  40  59  93 119 152 206 256 290 344
#     4  10  22  37  59  91 123 155 194 248 296 349
#
# _framework density 19.409801999999999
#
# number of rings (size 3 to 8) (size 9 to 14) (size 15 to 20)
#    0.000    2.000    5.000    3.000    0.000    3.500 
#    0.000    6.250    0.000    0.000    0.000    0.000 
#    0.000    0.000    0.000    0.000    0.000    0.000 
#
# Total GULP energy -198311.599955 kJ/mol
# GULP energy per Si atom -12394.474997 kJ/mol
# Density = 1.936562 g / cm^3
# Si number density = 19.409802 Si / 1000 Ang^3
#
#
#
# Elastic Constant Matrix: (Units=GPa)
#
#
# Indices 1 2 3 4 5 6 
#
# 1 105.2572 22.0271 40.7053 -4.7656 -12.5032 8.6808
# 2 22.0271 74.8237 37.2465 -12.3055 11.1645 10.3529
# 3 40.7053 37.2465 95.2915 -12.8681 2.7162 1.2764
# 4 -4.7656 -12.3055 -12.8681 38.0498 4.9954 3.6126
# 5 -12.5032 11.1645 2.7162 4.9954 39.4850 -6.6850
# 6 8.6808 10.3529 1.2764 3.6126 -6.6850 25.0441
#
#
#
# Elastic Compliance Matrix: (Units=1/GPa)
#
#
# Indices 1 2 3 4 5 6 
#
# 1 0.012411 -0.001854 -0.004832 -0.001103 0.004604 -0.001901
# 2 -0.001854 0.020846 -0.006061 0.006651 -0.008762 -0.010964
# 3 -0.004832 -0.006061 0.015233 0.002402 -0.000681 0.002876
# 4 -0.001103 0.006651 0.002402 0.030997 -0.007850 -0.009056
# 5 0.004604 -0.008762 -0.000681 -0.007850 0.032302 0.011816
# 6 -0.001901 -0.010964 0.002876 -0.009056 0.011816 0.049435
#
#
# Mechanical properties :
#
#
# Convention : Reuss Voigt Hill
#
# Bulk Modulus (GPa) = 43.48636 52.81448 48.15042
# Shear Modulus (GPa) = 25.72252 32.20867 28.96560
#
# Velocity S-wave (km/s) = 3.64433 4.07800 3.86724
# Velocity P-wave (km/s) = 6.33728 7.03155 6.69342
#
# Compressibility (1/GPa) = 0.02299572
#
# Stress axis : x y z
#
# Youngs Moduli (GPa) = 80.57553 47.97057 65.64889
#
# Poissons Ratio (x) = 0.08893 0.31719
# Poissons Ratio (y) = 0.14937 0.39793
# Poissons Ratio (z) = 0.38931 0.29077
#
# Static dielectric constant tensor:
#      x y z
#    x 3.511700 0.282670 -0.060450 
#    y 0.282670 3.439610 -0.203260 
#    z -0.060450 -0.203260 3.821650 
# 
# 
# High freq. dielectric constant tensor:
#      x y z
#    x 1.761350 0.017570 -0.002230 
#    y 0.017570 1.731310 -0.019420 
#    z -0.002230 -0.019420 1.760050 
# 
# From -- ./inp_files/513541.got.cif
#   From: 2010.06.25/outbox.cif.g09.slc.cpg/sg2_257_cif.got.tgz:513541.got - 2010.06.27 13:26:56.
