data_PCOD8044267
_publ_section_title
;
Structure prediction by ZEFSAII (Michael W. Deem and Ramdas Pophale) SiO2 
 PCOD8044267
Probable space group: P -1
;
_chemical_formula_sum "Si O2"
_cell_formula_units_Z 14
_cell_length_a 10.772592
_cell_length_b 11.215172
_cell_length_c 11.687267
_cell_angle_alpha 37.359534
_cell_angle_beta 129.320706
_cell_angle_gamma 100.829884
_cell_volume 490.486889
_symmetry_space_group_name_H-M "P -1"
_symmetry_group_IT_number 2
_symmetry_cell_setting 'triclinic'
loop_
_space_group_symop_operation_xyz
x,y,z
-x,-y,-z
loop_
_atom_site_type_symbol
_atom_site_label
_atom_site_fract_x
_atom_site_fract_y
_atom_site_fract_z
Si Si1 0.601341 0.151349 0.533198
Si Si2 0.662686 0.705392 0.364439
Si Si3 0.954981 0.817400 0.575047
Si Si4 0.236149 0.891765 0.974645
Si Si5 0.165305 0.650221 0.472530
Si Si6 0.162090 0.526674 0.130274
Si Si7 0.341659 0.328879 0.035938
O O1 0.759843 0.192043 0.636440
O O2 0.370725 0.359370 0.300844
O O3 0.566023 0.180211 0.351512
O O4 0.713625 0.856404 0.860268
O O5 0.829281 0.488618 0.531769
O O6 0.808991 0.645649 0.609279
O O7 0.500000 0.000000 0.000000
O O8 0.488044 0.682844 0.322870
O O9 0.758985 0.989407 0.236003
O O10 0.951318 0.686290 0.795561
O O11 0.160285 0.594721 0.791683
O O12 0.000000 0.000000 0.500000
O O13 0.079517 0.141894 0.779604
O O14 0.139816 0.753315 0.010570
O O15 0.346744 0.411507 0.847639
#
# Coordination Sequence:
#
# PCOD8044267 Si02
#       7
#     2   2   2   2   2   2   2
#     4  10  19  37  67  93 130 178 215 270 337 391
#     4  12  26  44  66  95 134 181 222 268 335 398
#     4   8  17  37  69  92 129 170 205 277 335 366
#     4  10  22  43  67  95 130 169 223 277 327 393
#     4  11  23  41  66  95 130 176 221 270 337 390
#     4  10  20  42  66  92 132 172 215 270 326 396
#     4   9  19  36  63  99 131 168 224 272 323 399
#
# _framework density 28.543067000000001
#
# number of rings (size 3 to 8) (size 9 to 14) (size 15 to 20)
#    0.000    2.000    1.429    1.714    0.000    1.143 
#    7.714    0.714    0.000    0.000    0.000    0.000 
#    0.000    0.000    0.000    0.000    0.000    0.000 
#
# Total GULP energy -173503.914019 kJ/mol
# GULP energy per Si atom -12393.136716 kJ/mol
# Density = 2.847810 g / cm^3
# Si number density = 28.543067 Si / 1000 Ang^3
#
#
#
# Elastic Constant Matrix: (Units=GPa)
#
#
# Indices 1 2 3 4 5 6 
#
# 1 83.1133 50.7275 31.8140 5.8873 -10.4690 -8.9650
# 2 50.7275 192.6383 83.6912 15.6678 5.0197 -15.5419
# 3 31.8140 83.6912 89.6590 -5.5428 -16.1389 -4.2389
# 4 5.8873 15.6678 -5.5428 51.4676 -1.6718 -3.2371
# 5 -10.4690 5.0197 -16.1389 -1.6718 55.4114 -7.2882
# 6 -8.9650 -15.5419 -4.2389 -3.2371 -7.2882 40.4525
#
#
#
# Elastic Compliance Matrix: (Units=1/GPa)
#
#
# Indices 1 2 3 4 5 6 
#
# 1 0.015312 -0.002901 -0.002150 -0.000851 0.002832 0.002496
# 2 -0.002901 0.010939 -0.010174 -0.004153 -0.004449 0.001360
# 3 -0.002150 -0.010174 0.023116 0.006064 0.007412 -0.000142
# 4 -0.000851 -0.004153 0.006064 0.021602 0.002776 0.001080
# 5 0.002832 -0.004449 0.007412 0.002776 0.021732 0.003833
# 6 0.002496 0.001360 -0.000142 0.001080 0.003833 0.026558
#
#
# Mechanical properties :
#
#
# Convention : Reuss Voigt Hill
#
# Bulk Modulus (GPa) = 52.86730 77.54176 65.20453
# Shear Modulus (GPa) = 32.04847 42.74482 37.39665
#
# Velocity S-wave (km/s) = 3.35447 3.87402 3.62357
# Velocity P-wave (km/s) = 5.79357 6.87287 6.35617
#
# Compressibility (1/GPa) = 0.01891528
#
# Stress axis : x y z
#
# Youngs Moduli (GPa) = 65.30984 91.41865 43.26071
#
# Poissons Ratio (x) = 0.26524 0.09299
# Poissons Ratio (y) = 0.18949 0.44015
# Poissons Ratio (z) = 0.14039 0.93012
#
# Static dielectric constant tensor:
#      x y z
#    x 4.799370 0.267110 -0.840850 
#    y 0.267110 6.215680 0.652710 
#    z -0.840850 0.652710 6.347930 
# 
# 
# High freq. dielectric constant tensor:
#      x y z
#    x 2.146950 0.020510 -0.032470 
#    y 0.020510 2.196340 0.008270 
#    z -0.032470 0.008270 2.183760 
# 
# From -- ./inp_files/425086.got.cif
#   From: 2010.06.25/outbox.cif.g09.slc.cpg/sg2_213_cif.got.tgz:425086.got - 2010.06.27 13:26:56.
