data_PCOD8044253
_publ_section_title
;
Structure prediction by ZEFSAII (Michael W. Deem and Ramdas Pophale) SiO2 
 PCOD8044253
Probable space group: P -1
;
_chemical_formula_sum "Si O2"
_cell_formula_units_Z 16
_cell_length_a 9.115308
_cell_length_b 11.970029
_cell_length_c 13.778299
_cell_angle_alpha 64.300004
_cell_angle_beta 121.208314
_cell_angle_gamma 68.385601
_cell_volume 739.906269
_symmetry_space_group_name_H-M "P -1"
_symmetry_group_IT_number 2
_symmetry_cell_setting 'triclinic'
loop_
_space_group_symop_operation_xyz
x,y,z
-x,-y,-z
loop_
_atom_site_type_symbol
_atom_site_label
_atom_site_fract_x
_atom_site_fract_y
_atom_site_fract_z
Si Si1 0.812377 0.340432 0.953240
Si Si2 0.218498 0.588080 0.873285
Si Si3 0.499611 0.285533 0.936610
Si Si4 0.548984 0.285621 0.418247
Si Si5 0.739932 0.725905 0.311956
Si Si6 0.885913 0.918874 0.329530
Si Si7 0.702637 0.981945 0.455347
Si Si8 0.398467 0.915220 0.313587
O O1 0.583040 0.363141 0.878789
O O2 0.718701 0.483307 0.779861
O O3 0.845026 0.405269 0.038276
O O4 0.092329 0.119635 0.106122
O O5 0.253407 0.449180 0.866885
O O6 0.986617 0.805948 0.671753
O O7 0.500000 0.500000 0.000000
O O8 0.403809 0.231266 0.852899
O O9 0.762365 0.095313 0.155157
O O10 0.571292 0.226968 0.558986
O O11 0.798146 0.235132 0.496172
O O12 0.534501 0.176860 0.382394
O O13 0.826467 0.819835 0.298435
O O14 0.541421 0.811045 0.300573
O O15 0.000000 0.500000 0.500000
O O16 0.749934 0.004913 0.355146
O O17 0.534880 0.948589 0.409784
#
# Coordination Sequence:
#
# PCOD8044253 Si02
#       8
#     2   2   2   2   2   2   2   2
#     4  11  23  41  67 100 135 169 217 269 333 393
#     4  10  19  37  66  97 130 168 211 268 319 384
#     4  11  21  42  66  97 132 173 222 273 319 389
#     4  12  22  42  68  98 133 176 215 268 338 388
#     4  11  25  47  67  91 130 174 226 272 324 391
#     4  11  22  41  67  98 127 175 224 269 324 391
#     4  11  22  40  65  97 142 170 214 272 326 394
#     4  11  25  46  63  99 136 171 216 275 329 388
#
# _framework density 21.624361
#
# number of rings (size 3 to 8) (size 9 to 14) (size 15 to 20)
#    0.000    1.000    2.500    6.375    0.000    1.000 
#   11.250    1.250    0.000    0.000    0.000    0.000 
#    0.000    0.000    0.000    0.000    0.000    0.000 
#
# Total GULP energy -198445.491967 kJ/mol
# GULP energy per Si atom -12402.843248 kJ/mol
# Density = 2.157514 g / cm^3
# Si number density = 21.624361 Si / 1000 Ang^3
#
#
#
# Elastic Constant Matrix: (Units=GPa)
#
#
# Indices 1 2 3 4 5 6 
#
# 1 69.0830 15.9256 17.5487 -10.5294 -9.4469 -0.6790
# 2 15.9256 98.3705 9.6319 -1.2585 -5.6614 -5.7835
# 3 17.5487 9.6319 137.0889 -19.7788 -22.7624 -4.2411
# 4 -10.5294 -1.2585 -19.7788 34.5844 3.5300 7.2316
# 5 -9.4469 -5.6614 -22.7624 3.5300 32.6046 -3.7236
# 6 -0.6790 -5.7835 -4.2411 7.2316 -3.7236 22.8979
#
#
#
# Elastic Compliance Matrix: (Units=1/GPa)
#
#
# Indices 1 2 3 4 5 6 
#
# 1 0.016311 -0.002391 -0.000807 0.004331 0.003150 -0.001125
# 2 -0.002391 0.010844 -0.000299 -0.001344 0.001502 0.003281
# 3 -0.000807 -0.000299 0.008985 0.004048 0.005687 0.001211
# 4 0.004331 -0.001344 0.004048 0.034843 -0.001141 -0.010651
# 5 0.003150 0.001502 0.005687 -0.001141 0.036837 0.007877
# 6 -0.001125 0.003281 0.001211 -0.010651 0.007877 0.049336
#
#
# Mechanical properties :
#
#
# Convention : Reuss Voigt Hill
#
# Bulk Modulus (GPa) = 34.30943 43.41719 38.86331
# Shear Modulus (GPa) = 28.75773 35.44646 32.10210
#
# Velocity S-wave (km/s) = 3.65070 4.05308 3.85714
# Velocity P-wave (km/s) = 5.80265 6.48266 6.15205
#
# Compressibility (1/GPa) = 0.02914651
#
# Stress axis : x y z
#
# Youngs Moduli (GPa) = 61.30671 92.21539 111.30186
#
# Poissons Ratio (x) = 0.22050 0.08980
# Poissons Ratio (y) = 0.14659 0.03326
# Poissons Ratio (z) = 0.04947 0.02756
#
# Static dielectric constant tensor:
#      x y z
#    x 3.573700 -0.428850 -0.112560 
#    y -0.428850 3.682440 -0.190820 
#    z -0.112560 -0.190820 3.873730 
# 
# 
# High freq. dielectric constant tensor:
#      x y z
#    x 1.839100 0.000010 -0.001250 
#    y 0.000010 1.845560 0.000310 
#    z -0.001250 0.000310 1.863150 
# 
# From -- ./inp_files/274068.got.cif
#   From: 2010.06.25/outbox.cif.g09.slc.cpg/sg2_138_cif.got.tgz:274068.got - 2010.06.27 13:26:56.
