data_PCOD8044159
_publ_section_title
;
Structure prediction by ZEFSAII (Michael W. Deem and Ramdas Pophale) SiO2 
 PCOD8044159
Probable space group: P -1
;
_chemical_formula_sum "Si O2"
_cell_formula_units_Z 14
_cell_length_a 16.919541
_cell_length_b 11.790100
_cell_length_c 9.183781
_cell_angle_alpha 66.952446
_cell_angle_beta 27.200802
_cell_angle_gamma 49.742769
_cell_volume 543.795453
_symmetry_space_group_name_H-M "P -1"
_symmetry_group_IT_number 2
_symmetry_cell_setting 'triclinic'
loop_
_space_group_symop_operation_xyz
x,y,z
-x,-y,-z
loop_
_atom_site_type_symbol
_atom_site_label
_atom_site_fract_x
_atom_site_fract_y
_atom_site_fract_z
Si Si1 0.003284 0.252701 0.753984
Si Si2 0.882340 0.261361 0.434669
Si Si3 0.787398 0.103797 0.466222
Si Si4 0.084837 0.329431 0.276925
Si Si5 0.665389 0.719931 0.689597
Si Si6 0.458813 0.361990 0.630976
Si Si7 0.501632 0.638251 0.760591
O O1 0.102580 0.248470 0.438871
O O2 0.171756 0.238015 0.605182
O O3 0.043055 0.086314 0.789163
O O4 0.714006 0.429723 0.161358
O O5 0.955044 0.106331 0.295463
O O6 0.721709 0.429006 0.509559
O O7 0.110160 0.221398 0.152306
O O8 0.732319 0.294982 0.805829
O O9 0.672290 0.247989 0.457526
O O10 0.577145 0.142574 0.885350
O O11 0.820848 0.529659 0.601949
O O12 0.298110 0.320285 0.926702
O O13 0.593504 0.719737 0.642550
O O14 0.576793 0.302990 0.306767
#
# Coordination Sequence:
#
# PCOD8044159 Si02
#       7
#     2   2   2   2   2   2   2
#     4  11  21  35  63  95 127 158 206 258 306 363
#     4   9  21  40  64  90 123 170 204 243 318 380
#     4  11  21  38  64  89 127 166 204 248 311 374
#     4  10  19  37  64  95 121 156 216 250 303 367
#     4   9  17  36  61  88 116 165 206 243 301 369
#     4  11  22  39  68  95 117 162 212 260 300 361
#     4   9  20  38  67  88 123 166 207 249 313 365
#
# _framework density 25.744973999999999
#
# number of rings (size 3 to 8) (size 9 to 14) (size 15 to 20)
#    0.000    2.000    2.857    2.143    0.000    6.286 
#    0.000    1.429   12.571    0.000    0.000    0.000 
#    0.000    0.000    0.000    0.000    0.000    0.000 
#
# Total GULP energy -173639.938941 kJ/mol
# GULP energy per Si atom -12402.852781 kJ/mol
# Density = 2.568638 g / cm^3
# Si number density = 25.744974 Si / 1000 Ang^3
#
#
#
# Elastic Constant Matrix: (Units=GPa)
#
#
# Indices 1 2 3 4 5 6 
#
# 1 141.8403 50.5531 24.5753 9.2549 18.6422 27.7188
# 2 50.5531 122.7707 22.0903 20.5981 13.4984 24.6184
# 3 24.5753 22.0903 63.2872 12.3150 6.9775 3.1672
# 4 9.2549 20.5981 12.3150 17.4761 -2.4962 14.4237
# 5 18.6422 13.4984 6.9775 -2.4962 29.3695 -9.3707
# 6 27.7188 24.6184 3.1672 14.4237 -9.3707 44.0450
#
#
#
# Elastic Compliance Matrix: (Units=1/GPa)
#
#
# Indices 1 2 3 4 5 6 
#
# 1 0.010652 -0.002173 -0.003141 0.005093 -0.007290 -0.008482
# 2 -0.002173 0.012317 -0.000399 -0.011450 -0.006131 -0.003043
# 3 -0.003141 -0.000399 0.020541 -0.017627 -0.002284 0.006009
# 4 0.005093 -0.011450 -0.017627 0.104918 0.006004 -0.028619
# 5 -0.007290 -0.006131 -0.002284 0.006004 0.047772 0.016376
# 6 -0.008482 -0.003043 0.006009 -0.028619 0.016376 0.042167
#
#
# Mechanical properties :
#
#
# Convention : Reuss Voigt Hill
#
# Bulk Modulus (GPa) = 31.16798 58.03729 44.60264
# Shear Modulus (GPa) = 19.19471 33.55675 26.37573
#
# Velocity S-wave (km/s) = 2.73348 3.61422 3.20425
# Velocity P-wave (km/s) = 4.70056 6.32526 5.57244
#
# Compressibility (1/GPa) = 0.03208421
#
# Stress axis : x y z
#
# Youngs Moduli (GPa) = 93.87636 81.18711 48.68330
#
# Poissons Ratio (x) = 0.17644 0.15290
# Poissons Ratio (y) = 0.20402 0.01943
# Poissons Ratio (z) = 0.29483 0.03241
#
# Static dielectric constant tensor:
#      x y z
#    x 5.029270 0.370650 -0.060890 
#    y 0.370650 4.553770 -0.098640 
#    z -0.060890 -0.098640 4.243460 
# 
# 
# High freq. dielectric constant tensor:
#      x y z
#    x 2.051380 0.023000 -0.001610 
#    y 0.023000 2.017010 -0.014960 
#    z -0.001610 -0.014960 2.007500 
# 
# From -- ./inp_files/255779.got.cif
#   From: 2010.06.25/outbox.cif.g09.slc.cpg/sg2_128_cif.got.tgz:255779.got - 2010.06.27 13:26:56.
