data_PCOD8044715
_publ_section_title
;
Structure prediction by ZEFSAII (Michael W. Deem and Ramdas Pophale) SiO2 
 PCOD8044715
Probable space group: P -1
;
_chemical_formula_sum "Si O2"
_cell_formula_units_Z 14
_cell_length_a 14.813970
_cell_length_b 15.397276
_cell_length_c 9.253800
_cell_angle_alpha 29.635801
_cell_angle_beta 141.075902
_cell_angle_gamma 139.421637
_cell_volume 631.750410
_symmetry_space_group_name_H-M "P -1"
_symmetry_group_IT_number 2
_symmetry_cell_setting 'triclinic'
loop_
_space_group_symop_operation_xyz
x,y,z
-x,-y,-z
loop_
_atom_site_type_symbol
_atom_site_label
_atom_site_fract_x
_atom_site_fract_y
_atom_site_fract_z
Si Si1 0.176259 0.679623 0.376130
Si Si2 0.514057 0.192262 0.311824
Si Si3 0.953056 0.702880 0.304625
Si Si4 0.435039 0.300847 0.767816
Si Si5 0.866614 0.962619 0.275858
Si Si6 0.417793 0.979564 0.775085
Si Si7 0.897157 0.047405 0.640288
O O1 0.315371 0.684460 0.646700
O O2 0.148706 0.502867 0.490960
O O3 0.027565 0.678708 0.279913
O O4 0.210752 0.869981 0.055353
O O5 0.500000 0.000000 0.500000
O O6 0.456162 0.156235 0.458611
O O7 0.427622 0.296487 0.942507
O O8 0.078524 0.780585 0.469350
O O9 0.856116 0.850744 0.955914
O O10 0.500000 0.500000 0.500000
O O11 0.270401 0.217625 0.613135
O O12 0.551013 0.189993 0.024046
O O13 0.944551 0.935277 0.262995
O O14 0.000000 0.000000 0.500000
O O15 0.241617 0.942661 0.647202
O O16 0.500000 0.000000 0.000000
#
# Coordination Sequence:
#
# PCOD8044715 Si02
#       7
#     2   2   2   2   2   2   2
#     4  10  19  38  65  94 122 176 222 265 324 406
#     4  10  20  39  70  89 128 173 222 259 333 395
#     4   9  20  36  63  95 128 163 221 270 330 394
#     4  11  25  45  69  96 130 181 229 268 331 402
#     4  11  23  41  66  92 133 176 221 270 335 401
#     4  11  23  42  68  95 135 171 214 277 337 390
#     4  10  22  38  64  95 135 163 211 277 340 382
#
# _framework density 22.160651000000001
#
# number of rings (size 3 to 8) (size 9 to 14) (size 15 to 20)
#    0.000    1.714    2.857    2.571    4.000    5.714 
#    2.571    2.857    0.000    0.000    0.000    0.000 
#    0.000    0.000    0.000    0.000    0.000    0.000 
#
# Total GULP energy -173433.717538 kJ/mol
# GULP energy per Si atom -12388.122681 kJ/mol
# Density = 2.211021 g / cm^3
# Si number density = 22.160651 Si / 1000 Ang^3
#
#
#
# Elastic Constant Matrix: (Units=GPa)
#
#
# Indices 1 2 3 4 5 6 
#
# 1 50.4102 34.0162 34.9369 -7.5210 -7.1481 2.0033
# 2 34.0162 188.9827 91.4489 2.0282 0.2765 4.7153
# 3 34.9369 91.4489 108.9396 4.7715 -18.4552 4.3589
# 4 -7.5210 2.0282 4.7715 48.4846 0.7941 0.4922
# 5 -7.1481 0.2765 -18.4552 0.7941 37.3591 7.5385
# 6 2.0033 4.7153 4.3589 0.4922 7.5385 35.6273
#
#
#
# Elastic Compliance Matrix: (Units=1/GPa)
#
#
# Indices 1 2 3 4 5 6 
#
# 1 0.026854 -0.001238 -0.007502 0.004940 0.001500 -0.000814
# 2 -0.001238 0.009620 -0.008520 0.000312 -0.004690 0.000827
# 3 -0.007502 -0.008520 0.020585 -0.002958 0.009450 -0.002928
# 4 0.004940 0.000312 -0.002958 0.021686 -0.000969 -0.000052
# 5 0.001500 -0.004690 0.009450 -0.000969 0.033323 -0.007657
# 6 -0.000814 0.000827 -0.002928 -0.000052 -0.007657 0.029984
#
#
# Mechanical properties :
#
#
# Convention : Reuss Voigt Hill
#
# Bulk Modulus (GPa) = 44.36820 74.34851 59.35835
# Shear Modulus (GPa) = 27.16137 36.82288 31.99213
#
# Velocity S-wave (km/s) = 3.50474 4.08074 3.80366
# Velocity P-wave (km/s) = 6.03674 7.47167 6.79220
#
# Compressibility (1/GPa) = 0.02253867
#
# Stress axis : x y z
#
# Youngs Moduli (GPa) = 37.23786 103.95132 48.57958
#
# Poissons Ratio (x) = 0.12871 0.36446
# Poissons Ratio (y) = 0.04611 0.41388
# Poissons Ratio (z) = 0.27937 0.88563
#
# Static dielectric constant tensor:
#      x y z
#    x 4.120890 -0.003410 -0.180170 
#    y -0.003410 3.956010 -0.158990 
#    z -0.180170 -0.158990 4.048590 
# 
# 
# High freq. dielectric constant tensor:
#      x y z
#    x 1.854860 0.004220 0.002150 
#    y 0.004220 1.879700 0.010980 
#    z 0.002150 0.010980 1.856670 
# 
# From -- ./inp_files/294889.got.cif
#   From: 2010.06.25/outbox.cif.g09.slc.cpg/sg2_148_cif.got.tgz:294889.got - 2010.06.27 13:26:56.
