data_PCOD8044195
_publ_section_title
;
Structure prediction by ZEFSAII (Michael W. Deem and Ramdas Pophale) SiO2 
 PCOD8044195
Probable space group: P -1
;
_chemical_formula_sum "Si O2"
_cell_formula_units_Z 14
_cell_length_a 12.101926
_cell_length_b 11.814645
_cell_length_c 17.306706
_cell_angle_alpha 37.853372
_cell_angle_beta 31.029694
_cell_angle_gamma 57.820955
_cell_volume 696.897487
_symmetry_space_group_name_H-M "P -1"
_symmetry_group_IT_number 2
_symmetry_cell_setting 'triclinic'
loop_
_space_group_symop_operation_xyz
x,y,z
-x,-y,-z
loop_
_atom_site_type_symbol
_atom_site_label
_atom_site_fract_x
_atom_site_fract_y
_atom_site_fract_z
Si Si1 0.711289 0.576907 0.200878
Si Si2 0.536886 0.154465 0.787243
Si Si3 0.731563 0.306669 0.757229
Si Si4 0.114838 0.861206 0.538571
Si Si5 0.583732 0.117456 0.513772
Si Si6 0.669365 0.567602 0.055199
Si Si7 0.765747 0.211990 0.189545
O O1 0.577467 0.698830 0.253829
O O2 0.568214 0.329107 0.427944
O O3 0.762877 0.649182 0.041639
O O4 0.954684 0.634594 0.070798
O O5 0.670732 0.245715 0.738040
O O6 0.752939 0.190025 0.582099
O O7 0.327737 0.912505 0.046351
O O8 0.551407 0.386579 0.859544
O O9 0.000000 0.500000 0.500000
O O10 0.308027 0.960533 0.438764
O O11 0.000000 0.000000 0.500000
O O12 0.888194 0.661415 0.813841
O O13 0.730954 0.119058 0.347120
O O14 0.309592 0.951450 0.747598
O O15 0.592754 0.324586 0.227888
#
# Coordination Sequence:
#
# PCOD8044195 Si02
#       7
#     2   2   2   2   2   2   2
#     4  10  19  39  63  86 119 161 209 255 289 364
#     4  10  24  38  62  91 122 167 200 250 318 353
#     4  10  22  43  62  87 122 166 214 248 290 377
#     4  12  22  40  62  91 131 162 195 256 315 369
#     4  10  21  36  63  92 120 160 210 250 303 354
#     4  10  19  39  64  90 121 160 208 250 306 360
#     4  10  19  37  65  92 113 164 213 253 289 356
#
# _framework density 20.089036
#
# number of rings (size 3 to 8) (size 9 to 14) (size 15 to 20)
#    0.000    1.714    4.286    0.857    0.000    6.286 
#    2.571    2.143    0.000    0.000    0.000    0.000 
#    0.000    0.000    0.000    0.000    0.000    0.000 
#
# Total GULP energy -173435.465116 kJ/mol
# GULP energy per Si atom -12388.247508 kJ/mol
# Density = 2.004331 g / cm^3
# Si number density = 20.089036 Si / 1000 Ang^3
#
#
#
# Elastic Constant Matrix: (Units=GPa)
#
#
# Indices 1 2 3 4 5 6 
#
# 1 80.2189 58.1121 23.0045 -6.2767 -4.8286 -14.8494
# 2 58.1121 151.2850 63.4406 -0.9456 -12.7752 -18.2915
# 3 23.0045 63.4406 100.5918 -3.5772 -19.3213 6.8377
# 4 -6.2767 -0.9456 -3.5772 34.5140 10.6997 2.9726
# 5 -4.8286 -12.7752 -19.3213 10.6997 31.2664 2.1424
# 6 -14.8494 -18.2915 6.8377 2.9726 2.1424 29.3635
#
#
#
# Elastic Compliance Matrix: (Units=1/GPa)
#
#
# Indices 1 2 3 4 5 6 
#
# 1 0.018311 -0.006109 -0.000919 0.003116 -0.001677 0.005476
# 2 -0.006109 0.012777 -0.007174 -0.002118 0.000106 0.006747
# 3 -0.000919 -0.007174 0.016861 -0.000316 0.008099 -0.009419
# 4 0.003116 -0.002118 -0.000316 0.033304 -0.011827 -0.002179
# 5 -0.001677 0.000106 0.008099 -0.011827 0.041126 -0.004471
# 6 0.005476 0.006747 -0.009419 -0.002179 -0.004471 0.043768
#
#
# Mechanical properties :
#
#
# Convention : Reuss Voigt Hill
#
# Bulk Modulus (GPa) = 51.16407 69.02335 60.09371
# Shear Modulus (GPa) = 24.86764 31.53135 28.19949
#
# Velocity S-wave (km/s) = 3.52216 3.96609 3.75070
# Velocity P-wave (km/s) = 6.48573 7.44355 6.98109
#
# Compressibility (1/GPa) = 0.01954496
#
# Stress axis : x y z
#
# Youngs Moduli (GPa) = 54.61234 78.26841 59.30962
#
# Poissons Ratio (x) = 0.47811 0.05448
# Poissons Ratio (y) = 0.33360 0.42551
# Poissons Ratio (z) = 0.05017 0.56153
#
# Static dielectric constant tensor:
#      x y z
#    x 4.063750 -0.147150 0.317790 
#    y -0.147150 3.828850 -0.052600 
#    z 0.317790 -0.052600 3.979240 
# 
# 
# High freq. dielectric constant tensor:
#      x y z
#    x 1.774450 -0.012700 -0.000080 
#    y -0.012700 1.785450 -0.008580 
#    z -0.000080 -0.008580 1.771660 
# 
# From -- ./inp_files/257149.got.cif
#   From: 2010.06.25/outbox.cif.g09.slc.cpg/sg2_129_cif.got.tgz:257149.got - 2010.06.27 13:26:56.
