data_PCOD8044642
_publ_section_title
;
Structure prediction by ZEFSAII (Michael W. Deem and Ramdas Pophale) SiO2 
 PCOD8044642
Probable space group: P -1
;
_chemical_formula_sum "Si O2"
_cell_formula_units_Z 16
_cell_length_a 11.114551
_cell_length_b 13.404413
_cell_length_c 12.420752
_cell_angle_alpha 114.519812
_cell_angle_beta 50.152522
_cell_angle_gamma 145.008395
_cell_volume 788.924597
_symmetry_space_group_name_H-M "P -1"
_symmetry_group_IT_number 2
_symmetry_cell_setting 'triclinic'
loop_
_space_group_symop_operation_xyz
x,y,z
-x,-y,-z
loop_
_atom_site_type_symbol
_atom_site_label
_atom_site_fract_x
_atom_site_fract_y
_atom_site_fract_z
Si Si1 0.708134 0.207136 0.058691
Si Si2 0.961862 0.517336 0.188214
Si Si3 0.339736 0.443025 0.666899
Si Si4 0.088986 0.625253 0.407654
Si Si5 0.591034 0.793325 0.195513
Si Si6 0.181186 0.951009 0.169955
Si Si7 0.712019 0.575804 0.693845
Si Si8 0.871519 0.872623 0.859163
O O1 0.874646 0.348335 0.123993
O O2 0.403849 0.060481 0.181618
O O3 0.764816 0.108249 0.982633
O O4 0.784003 0.302995 0.941517
O O5 0.734204 0.471179 0.260532
O O6 0.992481 0.529015 0.303832
O O7 0.500000 0.500000 0.500000
O O8 0.501266 0.518142 0.715894
O O9 0.093605 0.227855 0.702774
O O10 0.400884 0.794298 0.299054
O O11 0.000000 0.500000 0.500000
O O12 0.962132 0.674203 0.525164
O O13 0.426370 0.602895 0.251987
O O14 0.687412 0.808823 0.031409
O O15 0.829019 0.957329 0.206739
O O16 0.179187 0.073847 0.185890
O O17 0.806044 0.712698 0.791481
#
# Coordination Sequence:
#
# PCOD8044642 Si02
#       8
#     2   2   2   2   2   2   2   2
#     4   9  20  36  63  95 120 160 204 265 324 369
#     4  10  19  38  64  91 121 164 208 253 323 379
#     4  11  21  37  63  84 124 167 200 256 319 370
#     4  10  22  40  62  87 128 168 209 256 304 382
#     4  10  23  42  63  92 127 166 212 262 304 368
#     4  10  20  38  60  91 131 151 208 270 309 377
#     4  11  22  42  65  92 126 169 208 253 320 377
#     4  11  22  40  67  94 125 162 211 266 313 367
#
# _framework density 20.280771999999999
#
# number of rings (size 3 to 8) (size 9 to 14) (size 15 to 20)
#    0.000    1.750    2.500    1.875    0.000    2.500 
#    9.000    5.000    0.000    0.000    0.000    0.000 
#    0.000    0.000    0.000    0.000    0.000    0.000 
#
# Total GULP energy -198335.571677 kJ/mol
# GULP energy per Si atom -12395.973230 kJ/mol
# Density = 2.023461 g / cm^3
# Si number density = 20.280772 Si / 1000 Ang^3
#
#
#
# Elastic Constant Matrix: (Units=GPa)
#
#
# Indices 1 2 3 4 5 6 
#
# 1 77.3010 23.1530 27.6304 -14.2907 -9.8492 14.2697
# 2 23.1530 105.1596 44.6155 -4.4067 -8.4543 13.8419
# 3 27.6304 44.6155 91.7179 -16.7273 -8.8963 15.1262
# 4 -14.2907 -4.4067 -16.7273 22.4681 11.0875 -7.6947
# 5 -9.8492 -8.4543 -8.8963 11.0875 34.2872 -8.4983
# 6 14.2697 13.8419 15.1262 -7.6947 -8.4983 19.3818
#
#
#
# Elastic Compliance Matrix: (Units=1/GPa)
#
#
# Indices 1 2 3 4 5 6 
#
# 1 0.016585 -0.001670 -0.001854 0.006413 0.000063 -0.006997
# 2 -0.001670 0.012875 -0.005770 -0.005338 0.001728 -0.004824
# 3 -0.001854 -0.005770 0.016542 0.009352 -0.001803 -0.004501
# 4 0.006413 -0.005338 0.009352 0.066039 -0.015638 0.011152
# 5 0.000063 0.001728 -0.001803 -0.015638 0.036677 0.010000
# 6 -0.006997 -0.004824 -0.004501 0.011152 0.010000 0.072516
#
#
# Mechanical properties :
#
#
# Convention : Reuss Voigt Hill
#
# Bulk Modulus (GPa) = 36.47949 51.66403 44.07176
# Shear Modulus (GPa) = 20.08346 27.14606 23.61476
#
# Velocity S-wave (km/s) = 3.15027 3.66254 3.41602
# Velocity P-wave (km/s) = 5.59094 6.58903 6.11039
#
# Compressibility (1/GPa) = 0.02741266
#
# Stress axis : x y z
#
# Youngs Moduli (GPa) = 60.29662 77.66741 60.45347
#
# Poissons Ratio (x) = 0.12971 0.11209
# Poissons Ratio (y) = 0.10070 0.34884
# Poissons Ratio (z) = 0.11180 0.44817
#
# Static dielectric constant tensor:
#      x y z
#    x 4.041910 0.332660 -0.268140 
#    y 0.332660 3.774360 -0.194720 
#    z -0.268140 -0.194720 3.781530 
# 
# 
# High freq. dielectric constant tensor:
#      x y z
#    x 1.794450 0.010500 -0.016900 
#    y 0.010500 1.786750 -0.009230 
#    z -0.016900 -0.009230 1.792590 
# 
# From -- ./inp_files/433072.got.cif
#   From: 2010.06.25/outbox.cif.g09.slc.cpg/sg2_217_cif.got.tgz:433072.got - 2010.06.27 13:26:56.
