data_PCOD8044543
_publ_section_title
;
Structure prediction by ZEFSAII (Michael W. Deem and Ramdas Pophale) SiO2 
 PCOD8044543
Probable space group: P -1
;
_chemical_formula_sum "Si O2"
_cell_formula_units_Z 16
_cell_length_a 8.945386
_cell_length_b 12.048404
_cell_length_c 12.633735
_cell_angle_alpha 48.698342
_cell_angle_beta 111.404530
_cell_angle_gamma 131.741419
_cell_volume 756.493296
_symmetry_space_group_name_H-M "P -1"
_symmetry_group_IT_number 2
_symmetry_cell_setting 'triclinic'
loop_
_space_group_symop_operation_xyz
x,y,z
-x,-y,-z
loop_
_atom_site_type_symbol
_atom_site_label
_atom_site_fract_x
_atom_site_fract_y
_atom_site_fract_z
Si Si1 0.028768 0.597816 0.199103
Si Si2 0.458264 0.514092 0.359063
Si Si3 0.526328 0.143498 0.831900
Si Si4 0.521991 0.733613 0.838222
Si Si5 0.594370 0.001396 0.329222
Si Si6 0.639992 0.366104 0.369743
Si Si7 0.174847 0.329860 0.061694
Si Si8 0.958753 0.697264 0.720239
O O1 0.242529 0.733831 0.226284
O O2 0.030581 0.471861 0.188965
O O3 0.874380 0.475777 0.330936
O O4 0.977672 0.715490 0.044356
O O5 0.500000 0.500000 0.500000
O O6 0.510760 0.713796 0.219419
O O7 0.613184 0.503853 0.338218
O O8 0.224414 0.341566 0.375796
O O9 0.381617 0.039984 0.759320
O O10 0.500000 0.000000 0.000000
O O11 0.504732 0.892378 0.768740
O O12 0.489011 0.696648 0.729075
O O13 0.744855 0.788337 0.876723
O O14 0.359248 0.549086 0.978596
O O15 0.816262 0.116478 0.369399
O O16 0.435874 0.813762 0.468845
O O17 0.069923 0.275671 0.182361
#
# Coordination Sequence:
#
# PCOD8044543 Si02
#       8
#     2   2   2   2   2   2   2   2
#     4  10  23  41  66  97 127 181 214 261 339 396
#     4  11  24  48  66  96 133 183 214 265 336 401
#     4  11  26  44  68  99 137 170 220 276 330 391
#     4  10  22  36  64  97 127 166 213 283 323 371
#     4  12  24  41  65  99 132 171 224 278 322 385
#     4  11  22  45  66  91 135 171 226 269 325 400
#     4  10  19  38  62  96 125 170 218 261 329 395
#     4  11  22  38  69  95 131 171 222 268 323 397
#
# _framework density 21.150220000000001
#
# number of rings (size 3 to 8) (size 9 to 14) (size 15 to 20)
#    0.000    1.250    5.000    1.500    3.500    1.000 
#    0.000    3.750    0.000    0.000    0.000    0.000 
#    0.000    0.000    0.000    0.000    0.000    0.000 
#
# Total GULP energy -198345.974073 kJ/mol
# GULP energy per Si atom -12396.623380 kJ/mol
# Density = 2.110208 g / cm^3
# Si number density = 21.150220 Si / 1000 Ang^3
#
#
#
# Elastic Constant Matrix: (Units=GPa)
#
#
# Indices 1 2 3 4 5 6 
#
# 1 119.9292 33.7375 25.1162 -15.9594 4.5335 -5.3715
# 2 33.7375 85.5406 24.4261 -0.4992 2.5611 1.9874
# 3 25.1162 24.4261 92.5146 -15.2258 -5.8409 6.2811
# 4 -15.9594 -0.4992 -15.2258 29.5212 -8.2105 9.4243
# 5 4.5335 2.5611 -5.8409 -8.2105 27.6552 2.6095
# 6 -5.3715 1.9874 6.2811 9.4243 2.6095 31.4561
#
#
#
# Elastic Compliance Matrix: (Units=1/GPa)
#
#
# Indices 1 2 3 4 5 6 
#
# 1 0.010277 -0.003711 -0.001145 0.004529 -0.000322 0.000888
# 2 -0.003711 0.014288 -0.003829 -0.004895 -0.003066 0.000949
# 3 -0.001145 -0.003829 0.014981 0.011443 0.007766 -0.007017
# 4 0.004529 -0.004895 0.011443 0.053712 0.019861 -0.018942
# 5 -0.000322 -0.003066 0.007766 0.019861 0.045081 -0.011102
# 6 0.000888 0.000949 -0.007017 -0.018942 -0.011102 0.039879
#
#
# Mechanical properties :
#
#
# Convention : Reuss Voigt Hill
#
# Bulk Modulus (GPa) = 45.09331 51.61599 48.35465
# Shear Modulus (GPa) = 24.63305 32.04015 28.33660
#
# Velocity S-wave (km/s) = 3.41643 3.89637 3.66427
# Velocity P-wave (km/s) = 6.07696 6.68579 6.38863
#
# Compressibility (1/GPa) = 0.02217624
#
# Stress axis : x y z
#
# Youngs Moduli (GPa) = 97.30824 69.98729 66.75195
#
# Poissons Ratio (x) = 0.25969 0.07646
# Poissons Ratio (y) = 0.36107 0.25557
# Poissons Ratio (z) = 0.11146 0.26796
#
# Static dielectric constant tensor:
#      x y z
#    x 4.126390 0.068840 0.081310 
#    y 0.068840 3.777110 0.005830 
#    z 0.081310 0.005830 3.692230 
# 
# 
# High freq. dielectric constant tensor:
#      x y z
#    x 1.844700 -0.000890 0.006350 
#    y -0.000890 1.812070 0.005330 
#    z 0.006350 0.005330 1.822630 
# 
# From -- ./inp_files/279374.got.cif
#   From: 2010.06.25/outbox.cif.g09.slc.cpg/sg2_140_cif.got.tgz:279374.got - 2010.06.27 13:26:56.
