data_PCOD8044397
_publ_section_title
;
Structure prediction by ZEFSAII (Michael W. Deem and Ramdas Pophale) SiO2 
 PCOD8044397
Probable space group: P -1
;
_chemical_formula_sum "Si O2"
_cell_formula_units_Z 16
_cell_length_a 17.347589
_cell_length_b 9.698286
_cell_length_c 14.229140
_cell_angle_alpha 56.375014
_cell_angle_beta 138.738722
_cell_angle_gamma 90.624035
_cell_volume 886.844383
_symmetry_space_group_name_H-M "P -1"
_symmetry_group_IT_number 2
_symmetry_cell_setting 'triclinic'
loop_
_space_group_symop_operation_xyz
x,y,z
-x,-y,-z
loop_
_atom_site_type_symbol
_atom_site_label
_atom_site_fract_x
_atom_site_fract_y
_atom_site_fract_z
Si Si1 0.321219 0.820206 0.561067
Si Si2 0.610693 0.865145 0.058771
Si Si3 0.103382 0.182346 0.613194
Si Si4 0.472859 0.980379 0.697754
Si Si5 0.311197 0.653253 0.939237
Si Si6 0.180760 0.451763 0.929977
Si Si7 0.208532 0.650933 0.640546
Si Si8 0.827054 0.711073 0.818405
O O1 0.406115 0.860989 0.698333
O O2 0.193374 0.822144 0.491363
O O3 0.213525 0.047506 0.302721
O O4 0.486028 0.552685 0.767043
O O5 0.782175 0.797134 0.241243
O O6 0.666404 0.617171 0.188938
O O7 0.491949 0.045399 0.792804
O O8 0.500000 0.000000 0.000000
O O9 0.990869 0.385773 0.351564
O O10 0.982042 0.224843 0.564528
O O11 0.228615 0.915677 0.783745
O O12 0.330507 0.216992 0.409670
O O13 0.658099 0.790940 0.887835
O O14 0.214007 0.610451 0.925352
O O15 0.290596 0.630090 0.819779
O O16 0.150976 0.381321 0.023211
O O17 0.000000 0.500000 0.000000
#
# Coordination Sequence:
#
# PCOD8044397 Si02
#       8
#     2   2   2   2   2   2   2   2
#     4   9  20  34  58  85 118 148 195 245 299 328
#     4  12  24  37  58  88 128 163 189 242 302 372
#     4  11  24  34  61  94 121 154 197 234 318 351
#     4   9  21  38  56  87 115 161 193 242 297 342
#     4  10  20  34  60  88 119 153 197 248 299 346
#     4  10  19  38  60  86 122 152 199 249 287 348
#     4  11  19  37  56  85 124 149 195 249 288 356
#     4  10  22  34  61  91 115 151 208 254 287 338
#
# _framework density 18.041495999999999
#
# number of rings (size 3 to 8) (size 9 to 14) (size 15 to 20)
#    0.750    1.000    3.750    3.375    7.000    0.000 
#    0.000    0.000    0.000    1.500    0.000    0.000 
#    0.000    0.000    0.000    0.000    0.000    0.000 
#
# Total GULP energy -198260.928777 kJ/mol
# GULP energy per Si atom -12391.308049 kJ/mol
# Density = 1.800043 g / cm^3
# Si number density = 18.041496 Si / 1000 Ang^3
#
#
#
# Elastic Constant Matrix: (Units=GPa)
#
#
# Indices 1 2 3 4 5 6 
#
# 1 130.2340 36.2874 42.2703 4.9723 -13.0022 4.3273
# 2 36.2874 64.1995 29.8062 -5.7823 -4.1165 -8.1954
# 3 42.2703 29.8062 108.3967 -3.7670 -2.5132 -2.6484
# 4 4.9723 -5.7823 -3.7670 26.3376 -2.3434 4.4090
# 5 -13.0022 -4.1165 -2.5132 -2.3434 26.2332 -5.0182
# 6 4.3273 -8.1954 -2.6484 4.4090 -5.0182 26.9144
#
#
#
# Elastic Compliance Matrix: (Units=1/GPa)
#
#
# Indices 1 2 3 4 5 6 
#
# 1 0.010502 -0.004966 -0.002804 -0.002768 0.003455 -0.002379
# 2 -0.004966 0.021427 -0.003595 0.004204 0.002213 0.006693
# 3 -0.002804 -0.003595 0.011338 0.001276 -0.000729 0.000127
# 4 -0.002768 0.004204 0.001276 0.040525 0.002192 -0.004379
# 5 0.003455 0.002213 -0.000729 0.002192 0.041734 0.007469
# 6 -0.002379 0.006693 0.000127 -0.004379 0.007469 0.041698
#
#
# Mechanical properties :
#
#
# Convention : Reuss Voigt Hill
#
# Bulk Modulus (GPa) = 48.68994 57.72866 53.20930
# Shear Modulus (GPa) = 25.40688 28.86147 27.13417
#
# Velocity S-wave (km/s) = 3.75673 4.00400 3.88233
# Velocity P-wave (km/s) = 6.77228 7.31048 7.04652
#
# Compressibility (1/GPa) = 0.02053812
#
# Stress axis : x y z
#
# Youngs Moduli (GPa) = 95.22136 46.67044 88.20057
#
# Poissons Ratio (x) = 0.23174 0.24733
# Poissons Ratio (y) = 0.47282 0.31704
# Poissons Ratio (z) = 0.26701 0.16776
#
# Static dielectric constant tensor:
#      x y z
#    x 3.403870 0.092850 0.037300 
#    y 0.092850 3.238740 -0.099010 
#    z 0.037300 -0.099010 3.490790 
# 
# 
# High freq. dielectric constant tensor:
#      x y z
#    x 1.694170 0.004530 0.014840 
#    y 0.004530 1.668490 -0.013240 
#    z 0.014840 -0.013240 1.702540 
# 
# From -- ./inp_files/401332.got.cif
#   From: 2010.06.25/outbox.cif.g09.slc.cpg/sg2_201_cif.got.tgz:401332.got - 2010.06.27 13:26:56.
