data_PCOD8044216
_publ_section_title
;
Structure prediction by ZEFSAII (Michael W. Deem and Ramdas Pophale) SiO2 
 PCOD8044216
Probable space group: P -1
;
_chemical_formula_sum "Si O2"
_cell_formula_units_Z 16
_cell_length_a 20.012640
_cell_length_b 13.051976
_cell_length_c 11.591206
_cell_angle_alpha 147.587279
_cell_angle_beta 147.359710
_cell_angle_gamma 30.488962
_cell_volume 746.734241
_symmetry_space_group_name_H-M "P -1"
_symmetry_group_IT_number 2
_symmetry_cell_setting 'triclinic'
loop_
_space_group_symop_operation_xyz
x,y,z
-x,-y,-z
loop_
_atom_site_type_symbol
_atom_site_label
_atom_site_fract_x
_atom_site_fract_y
_atom_site_fract_z
Si Si1 0.428552 0.402940 0.889315
Si Si2 0.294510 0.027865 0.068200
Si Si3 0.950654 0.059306 0.352691
Si Si4 0.359593 0.525682 0.164345
Si Si5 0.295559 0.199191 0.000515
Si Si6 0.911589 0.368579 0.001887
Si Si7 0.566257 0.177931 0.319219
Si Si8 0.845193 0.544187 0.581316
O O1 0.273907 0.444697 0.667002
O O2 0.539258 0.136320 0.808610
O O3 0.500000 0.500000 0.000000
O O4 0.400574 0.516460 0.081986
O O5 0.270725 0.057912 0.925194
O O6 0.238813 0.276686 0.269516
O O7 0.205806 0.912691 0.869159
O O8 0.941892 0.291149 0.530290
O O9 0.000000 0.000000 0.500000
O O10 0.055199 0.864664 0.229029
O O11 0.201538 0.556212 0.984571
O O12 0.489857 0.317226 0.223445
O O13 0.340070 0.748882 0.403872
O O14 0.160019 0.450831 0.034148
O O15 0.441659 0.199876 0.244691
O O16 0.321740 0.076723 0.798113
O O17 0.052167 0.378078 0.257151
#
# Coordination Sequence:
#
# PCOD8044216 Si02
#       8
#     2   2   2   2   2   2   2   2
#     4  12  25  45  68  93 130 177 225 270 325 384
#     4  11  23  41  67  98 129 173 220 269 326 387
#     4  11  23  40  67  98 136 175 211 268 328 391
#     4  10  22  41  66  98 133 170 217 275 324 391
#     4  10  19  37  65  99 135 164 211 270 335 389
#     4  10  24  41  64 100 133 170 221 261 333 396
#     4   9  20  36  64 102 131 165 213 270 336 382
#     4  11  25  44  65  91 136 176 222 267 318 392
#
# _framework density 21.426632000000001
#
# number of rings (size 3 to 8) (size 9 to 14) (size 15 to 20)
#    0.000    1.500    2.500    1.875    5.250    3.500 
#    0.000    0.625    0.000    0.000    0.000    0.000 
#    0.000    0.000    0.000    0.000    0.000    0.000 
#
# Total GULP energy -198317.265247 kJ/mol
# GULP energy per Si atom -12394.829078 kJ/mol
# Density = 2.137786 g / cm^3
# Si number density = 21.426632 Si / 1000 Ang^3
#
#
#
# Elastic Constant Matrix: (Units=GPa)
#
#
# Indices 1 2 3 4 5 6 
#
# 1 118.6094 30.6134 41.5882 -1.9393 -0.4174 -9.1968
# 2 30.6134 115.3258 39.4256 14.4932 -2.6047 -9.5607
# 3 41.5882 39.4256 116.0123 4.5508 5.8713 -4.5896
# 4 -1.9393 14.4932 4.5508 30.7589 3.9139 7.3147
# 5 -0.4174 -2.6047 5.8713 3.9139 25.0557 0.4178
# 6 -9.1968 -9.5607 -4.5896 7.3147 0.4178 21.8840
#
#
#
# Elastic Compliance Matrix: (Units=1/GPa)
#
#
# Indices 1 2 3 4 5 6 
#
# 1 0.010128 -0.001564 -0.003070 0.001164 0.000501 0.002530
# 2 -0.001564 0.011537 -0.002997 -0.006881 0.002850 0.006000
# 3 -0.003070 -0.002997 0.010873 0.000047 -0.002913 -0.000279
# 4 0.001164 -0.006881 0.000047 0.040462 -0.006762 -0.015902
# 5 0.000501 0.002850 -0.002913 -0.006762 0.041916 0.002305
# 6 0.002530 0.006000 -0.000279 -0.015902 0.002305 0.054593
#
#
# Mechanical properties :
#
#
# Convention : Reuss Voigt Hill
#
# Bulk Modulus (GPa) = 57.88299 63.68912 60.78606
# Shear Modulus (GPa) = 26.24231 31.42774 28.83503
#
# Velocity S-wave (km/s) = 3.50344 3.83399 3.67244
# Velocity P-wave (km/s) = 6.59080 7.02767 6.81273
#
# Compressibility (1/GPa) = 0.01727623
#
# Stress axis : x y z
#
# Youngs Moduli (GPa) = 98.73365 86.67406 91.96713
#
# Poissons Ratio (x) = 0.13558 0.28235
# Poissons Ratio (y) = 0.15444 0.27564
# Poissons Ratio (z) = 0.30313 0.25977
#
# Static dielectric constant tensor:
#      x y z
#    x 3.763910 -0.153180 0.268420 
#    y -0.153180 3.899860 0.110650 
#    z 0.268420 0.110650 3.833300 
# 
# 
# High freq. dielectric constant tensor:
#      x y z
#    x 1.827920 -0.018820 0.020390 
#    y -0.018820 1.844480 0.013160 
#    z 0.020390 0.013160 1.837470 
# 
# From -- ./inp_files/472027.got.cif
#   From: 2010.06.25/outbox.cif.g09.slc.cpg/sg2_237_cif.got.tgz:472027.got - 2010.06.27 13:26:56.
