data_PCOD8044474
_publ_section_title
;
Structure prediction by ZEFSAII (Michael W. Deem and Ramdas Pophale) SiO2 
 PCOD8044474
Probable space group: P -1
;
_chemical_formula_sum "Si O2"
_cell_formula_units_Z 16
_cell_length_a 12.257294
_cell_length_b 16.271052
_cell_length_c 9.770083
_cell_angle_alpha 146.610824
_cell_angle_beta 65.784532
_cell_angle_gamma 130.222308
_cell_volume 779.225800
_symmetry_space_group_name_H-M "P -1"
_symmetry_group_IT_number 2
_symmetry_cell_setting 'triclinic'
loop_
_space_group_symop_operation_xyz
x,y,z
-x,-y,-z
loop_
_atom_site_type_symbol
_atom_site_label
_atom_site_fract_x
_atom_site_fract_y
_atom_site_fract_z
Si Si1 0.274331 0.097786 0.220140
Si Si2 0.892887 0.257474 0.823764
Si Si3 0.781173 0.471485 0.070287
Si Si4 0.172428 0.105184 0.571685
Si Si5 0.327147 0.407696 0.463403
Si Si6 0.616508 0.333781 0.422662
Si Si7 0.639361 0.495626 0.915270
Si Si8 0.876463 0.313692 0.220395
O O1 0.254816 0.173947 0.477844
O O2 0.239179 0.187434 0.238425
O O3 0.448647 0.177927 0.235623
O O4 0.153316 0.872976 0.959008
O O5 0.050465 0.342666 0.786693
O O6 0.796161 0.031367 0.562929
O O7 0.793035 0.302119 0.854934
O O8 0.931696 0.342607 0.076042
O O9 0.712707 0.495672 0.272237
O O10 0.669181 0.421644 0.933479
O O11 0.226120 0.287480 0.885588
O O12 0.000000 0.000000 0.500000
O O13 0.500000 0.500000 0.500000
O O14 0.297703 0.457933 0.399806
O O15 0.617544 0.357673 0.617349
O O16 0.712633 0.262232 0.236725
O O17 0.500000 0.500000 0.000000
O O18 0.000000 0.500000 0.500000
#
# Coordination Sequence:
#
# PCOD8044474 Si02
#       8
#     2   2   2   2   2   2   2   2
#     4  10  21  39  64  87 121 167 206 249 318 376
#     4  10  22  38  65  91 124 170 212 251 320 377
#     4  11  20  40  63  92 126 169 209 261 310 377
#     4  11  20  38  64  92 119 166 214 254 306 384
#     4  10  19  38  61  91 120 166 207 250 314 371
#     4  11  22  39  61  91 127 162 202 261 313 371
#     4  12  22  39  63  94 125 162 217 262 308 369
#     4  11  23  39  61  95 124 161 209 259 313 378
#
# _framework density 20.533201999999999
#
# number of rings (size 3 to 8) (size 9 to 14) (size 15 to 20)
#    0.000    1.250    5.000    1.875    1.750    0.000 
#    0.000    5.000    0.000    0.000    0.000    0.000 
#    0.000    0.000    0.000    0.000    0.000    0.000 
#
# Total GULP energy -198298.179076 kJ/mol
# GULP energy per Si atom -12393.636192 kJ/mol
# Density = 2.048647 g / cm^3
# Si number density = 20.533202 Si / 1000 Ang^3
#
#
#
# Elastic Constant Matrix: (Units=GPa)
#
#
# Indices 1 2 3 4 5 6 
#
# 1 97.1071 31.2045 8.7340 -1.1956 -6.6038 -5.3613
# 2 31.2045 92.2697 13.6729 2.1723 -5.2470 -4.6260
# 3 8.7340 13.6729 64.7864 10.0710 2.1799 -4.9854
# 4 -1.1956 2.1723 10.0710 35.7982 2.4815 -13.3328
# 5 -6.6038 -5.2470 2.1799 2.4815 26.0611 -3.2504
# 6 -5.3613 -4.6260 -4.9854 -13.3328 -3.2504 46.9850
#
#
#
# Elastic Compliance Matrix: (Units=1/GPa)
#
#
# Indices 1 2 3 4 5 6 
#
# 1 0.011823 -0.003675 -0.000985 0.001252 0.002394 0.001404
# 2 -0.003675 0.012541 -0.002137 -0.000162 0.001872 0.000672
# 3 -0.000985 -0.002137 0.016777 -0.004482 -0.001648 0.000071
# 4 0.001252 -0.000162 -0.004482 0.032624 -0.001347 0.008816
# 5 0.002394 0.001872 -0.001648 -0.001347 0.039953 0.002664
# 6 0.001404 0.000672 0.000071 0.008816 0.002664 0.024203
#
#
# Mechanical properties :
#
#
# Convention : Reuss Voigt Hill
#
# Bulk Modulus (GPa) = 36.30391 40.15399 38.22895
# Shear Modulus (GPa) = 31.11382 35.13896 33.12639
#
# Velocity S-wave (km/s) = 3.89690 4.14130 4.02096
# Velocity P-wave (km/s) = 6.16172 6.51654 6.34161
#
# Compressibility (1/GPa) = 0.02754524
#
# Stress axis : x y z
#
# Youngs Moduli (GPa) = 84.57852 79.73555 59.60553
#
# Poissons Ratio (x) = 0.29306 0.05874
# Poissons Ratio (y) = 0.31086 0.12740
# Poissons Ratio (z) = 0.08334 0.17043
#
# Static dielectric constant tensor:
#      x y z
#    x 4.006470 -0.330920 -0.377670 
#    y -0.330920 4.641550 0.090580 
#    z -0.377670 0.090580 3.336970 
# 
# 
# High freq. dielectric constant tensor:
#      x y z
#    x 1.810520 0.002660 -0.032650 
#    y 0.002660 1.819150 0.000180 
#    z -0.032650 0.000180 1.772040 
# 
# From -- ./inp_files/274631.got.cif
#   From: 2010.06.25/outbox.cif.g09.slc.cpg/sg2_138_cif.got.tgz:274631.got - 2010.06.27 13:26:56.
