data_PCOD8044199
_publ_section_title
;
Structure prediction by ZEFSAII (Michael W. Deem and Ramdas Pophale) SiO2 
 PCOD8044199
Probable space group: P -1
;
_chemical_formula_sum "Si O2"
_cell_formula_units_Z 14
_cell_length_a 10.740343
_cell_length_b 9.409717
_cell_length_c 10.914946
_cell_angle_alpha 61.611766
_cell_angle_beta 127.393003
_cell_angle_gamma 144.461758
_cell_volume 508.987631
_symmetry_space_group_name_H-M "P -1"
_symmetry_group_IT_number 2
_symmetry_cell_setting 'triclinic'
loop_
_space_group_symop_operation_xyz
x,y,z
-x,-y,-z
loop_
_atom_site_type_symbol
_atom_site_label
_atom_site_fract_x
_atom_site_fract_y
_atom_site_fract_z
Si Si1 0.197241 0.606435 0.934446
Si Si2 0.546154 0.096347 0.814099
Si Si3 0.402083 0.554942 0.635933
Si Si4 0.794067 0.284329 0.652787
Si Si5 0.734600 0.809004 0.467054
Si Si6 0.726939 0.695866 0.968448
Si Si7 0.028579 0.897424 0.281643
O O1 0.988624 0.520966 0.760970
O O2 0.438715 0.861481 0.916313
O O3 0.210263 0.667588 0.061775
O O4 0.192675 0.410675 0.998484
O O5 0.599773 0.069752 0.721479
O O6 0.380859 0.126317 0.695147
O O7 0.323526 0.677456 0.522992
O O8 0.411690 0.468819 0.544022
O O9 0.649541 0.751694 0.784095
O O10 0.210301 0.300839 0.699612
O O11 0.898131 0.228617 0.651660
O O12 0.000000 0.000000 0.500000
O O13 0.758406 0.855168 0.611698
O O14 0.500000 0.500000 0.000000
O O15 0.946813 0.929586 0.093353
#
# Coordination Sequence:
#
# PCOD8044199 Si02
#       7
#     2   2   2   2   2   2   2
#     4  10  21  42  65  93 128 169 217 266 322 381
#     4  11  23  39  68  96 125 172 219 266 321 388
#     4  10  19  37  65  92 127 171 214 265 327 380
#     4  11  23  40  67  95 131 168 221 266 320 390
#     4  10  20  37  61  95 129 164 215 266 321 381
#     4   9  18  36  64  90 122 171 215 258 325 384
#     4   9  20  37  63  89 132 171 214 264 319 385
#
# _framework density 27.505580999999999
#
# number of rings (size 3 to 8) (size 9 to 14) (size 15 to 20)
#    0.000    2.000    1.429    2.571    0.000    3.429 
#    0.000    0.000    3.143    5.143    0.000    0.000 
#    0.000    0.000    0.000    0.000    0.000    0.000 
#
# Total GULP energy -173609.705217 kJ/mol
# GULP energy per Si atom -12400.693230 kJ/mol
# Density = 2.744298 g / cm^3
# Si number density = 27.505581 Si / 1000 Ang^3
#
#
#
# Elastic Constant Matrix: (Units=GPa)
#
#
# Indices 1 2 3 4 5 6 
#
# 1 64.7147 11.5081 43.6960 21.9170 -6.3944 -20.0279
# 2 11.5081 117.8676 76.9252 45.8091 -3.4824 -11.2899
# 3 43.6960 76.9252 241.0630 41.5447 -2.8519 -8.5269
# 4 21.9170 45.8091 41.5447 55.1075 3.3949 3.4152
# 5 -6.3944 -3.4824 -2.8519 3.3949 48.9112 5.8327
# 6 -20.0279 -11.2899 -8.5269 3.4152 5.8327 29.8950
#
#
#
# Elastic Compliance Matrix: (Units=1/GPa)
#
#
# Indices 1 2 3 4 5 6 
#
# 1 0.031087 0.009662 -0.004598 -0.018636 0.002827 0.024741
# 2 0.009662 0.018115 -0.004141 -0.016741 0.001841 0.013686
# 3 -0.004598 -0.004141 0.006036 0.000920 -0.000253 -0.002978
# 4 -0.018636 -0.016741 0.000920 0.040399 -0.003703 -0.022438
# 5 0.002827 0.001841 -0.000253 -0.003703 0.021334 -0.001222
# 6 0.024741 0.013686 -0.002978 -0.022438 -0.001222 0.057146
#
#
# Mechanical properties :
#
#
# Convention : Reuss Voigt Hill
#
# Bulk Modulus (GPa) = 17.51801 76.43377 46.97589
# Shear Modulus (GPa) = 26.13712 46.21713 36.17713
#
# Velocity S-wave (km/s) = 3.08595 4.10357 3.63059
# Velocity P-wave (km/s) = 4.36809 7.09233 5.88988
#
# Compressibility (1/GPa) = 0.05708410
#
# Stress axis : x y z
#
# Youngs Moduli (GPa) = 32.16830 55.20298 165.66856
#
# Poissons Ratio (x) = -0.53336 0.76168
# Poissons Ratio (y) = -0.31081 0.68603
# Poissons Ratio (z) = 0.14790 0.22859
#
# Static dielectric constant tensor:
#      x y z
#    x 5.200150 0.200890 -0.431700 
#    y 0.200890 5.115150 0.782120 
#    z -0.431700 0.782120 5.712820 
# 
# 
# High freq. dielectric constant tensor:
#      x y z
#    x 2.134650 0.033190 -0.025460 
#    y 0.033190 2.128200 0.028040 
#    z -0.025460 0.028040 2.136940 
# 
# From -- ./inp_files/392612.got.cif
#   From: 2010.06.25/outbox.cif.g09.slc.cpg/sg2_197_cif.got.tgz:392612.got - 2010.06.27 13:26:56.
