data_PCOD8044265
_publ_section_title
;
Structure prediction by ZEFSAII (Michael W. Deem and Ramdas Pophale) SiO2 
 PCOD8044265
Probable space group: P -1
;
_chemical_formula_sum "Si O2"
_cell_formula_units_Z 16
_cell_length_a 17.544051
_cell_length_b 8.898453
_cell_length_c 23.485765
_cell_angle_alpha 141.810354
_cell_angle_beta 160.359064
_cell_angle_gamma 36.065316
_cell_volume 719.865698
_symmetry_space_group_name_H-M "P -1"
_symmetry_group_IT_number 2
_symmetry_cell_setting 'triclinic'
loop_
_space_group_symop_operation_xyz
x,y,z
-x,-y,-z
loop_
_atom_site_type_symbol
_atom_site_label
_atom_site_fract_x
_atom_site_fract_y
_atom_site_fract_z
Si Si1 0.936855 0.743140 0.872552
Si Si2 0.585327 0.321715 0.382975
Si Si3 0.272346 0.157426 0.731298
Si Si4 0.006577 0.411832 0.414323
Si Si5 0.113893 0.630252 0.189649
Si Si6 0.388919 0.899242 0.541391
Si Si7 0.020931 0.497155 0.744010
Si Si8 0.781172 0.173062 0.101812
O O1 0.997410 0.576670 0.923463
O O2 0.657150 0.822299 0.684648
O O3 0.087864 0.565643 0.874582
O O4 0.000000 0.000000 0.000000
O O5 0.303835 0.496353 0.233373
O O6 0.626250 0.135384 0.411500
O O7 0.744388 0.508855 0.551682
O O8 0.661716 0.140380 0.326869
O O9 0.049388 0.334416 0.588909
O O10 0.188122 0.211605 0.754540
O O11 0.502497 0.253510 0.912776
O O12 0.815696 0.264528 0.218062
O O13 0.000000 0.500000 0.500000
O O14 0.267280 0.196474 0.525311
O O15 0.263337 0.711513 0.368586
O O16 0.896245 0.866219 0.083137
O O17 0.066588 0.702799 0.794393
#
# Coordination Sequence:
#
# PCOD8044265 Si02
#       8
#     2   2   2   2   2   2   2   2
#     4  11  23  39  65  99 129 164 214 272 320 370
#     4  11  20  38  67  90 127 167 215 260 313 384
#     4  11  24  42  63  95 133 176 201 266 336 371
#     4  10  19  37  67  91 117 170 229 246 302 396
#     4  10  21  44  65  90 125 176 214 257 318 386
#     4  10  19  39  66  91 122 169 217 266 311 369
#     4  11  22  41  62  94 133 162 215 267 317 378
#     4  10  25  42  64  93 136 170 206 265 335 367
#
# _framework density 22.226368000000001
#
# number of rings (size 3 to 8) (size 9 to 14) (size 15 to 20)
#    0.000    1.500    3.750    2.625    3.500    2.000 
#    2.250    1.875    2.750    0.000    0.000    0.000 
#    0.000    0.000    0.000    0.000    0.000    0.000 
#
# Total GULP energy -198279.428597 kJ/mol
# GULP energy per Si atom -12392.464287 kJ/mol
# Density = 2.217578 g / cm^3
# Si number density = 22.226368 Si / 1000 Ang^3
#
#
#
# Elastic Constant Matrix: (Units=GPa)
#
#
# Indices 1 2 3 4 5 6 
#
# 1 111.4409 44.9323 38.0874 9.9823 6.4662 -26.0217
# 2 44.9323 91.6641 18.0673 6.6196 1.6753 -21.6811
# 3 38.0874 18.0673 54.6045 13.7239 5.4166 5.6808
# 4 9.9823 6.6196 13.7239 41.3210 -0.0589 -3.8794
# 5 6.4662 1.6753 5.4166 -0.0589 28.8710 12.2664
# 6 -26.0217 -21.6811 5.6808 -3.8794 12.2664 35.5603
#
#
#
# Elastic Compliance Matrix: (Units=1/GPa)
#
#
# Indices 1 2 3 4 5 6 
#
# 1 0.019568 -0.002296 -0.014446 0.002184 -0.009497 0.018741
# 2 -0.002296 0.015135 -0.004133 0.000390 -0.003624 0.009501
# 3 -0.014446 -0.004133 0.033654 -0.009048 0.006337 -0.021640
# 4 0.002184 0.000390 -0.009048 0.027254 -0.001659 0.006827
# 5 -0.009497 -0.003624 0.006337 -0.001659 0.047080 -0.026593
# 6 0.018741 0.009501 -0.021640 0.006827 -0.026593 0.061003
#
#
# Mechanical properties :
#
#
# Convention : Reuss Voigt Hill
#
# Bulk Modulus (GPa) = 37.58418 51.09817 44.34118
# Shear Modulus (GPa) = 19.66084 31.59198 25.62641
#
# Velocity S-wave (km/s) = 2.97740 3.77420 3.39923
# Velocity P-wave (km/s) = 5.36343 6.48325 5.94975
#
# Compressibility (1/GPa) = 0.02660694
#
# Stress axis : x y z
#
# Youngs Moduli (GPa) = 51.10449 66.07343 29.71407
#
# Poissons Ratio (x) = 0.15169 0.42925
# Poissons Ratio (y) = 0.11733 0.12281
# Poissons Ratio (z) = 0.73825 0.27309
#
# Static dielectric constant tensor:
#      x y z
#    x 4.060680 -0.390820 -0.057540 
#    y -0.390820 4.237820 0.072590 
#    z -0.057540 0.072590 3.937090 
# 
# 
# High freq. dielectric constant tensor:
#      x y z
#    x 1.859700 -0.028720 -0.005540 
#    y -0.028720 1.882030 0.011870 
#    z -0.005540 0.011870 1.865180 
# 
# From -- ./inp_files/391393.got.cif
#   From: 2010.06.25/outbox.cif.g09.slc.cpg/sg2_196_cif.got.tgz:391393.got - 2010.06.27 13:26:56.
