data_PCOD8044224
_publ_section_title
;
Structure prediction by ZEFSAII (Michael W. Deem and Ramdas Pophale) SiO2 
 PCOD8044224
Probable space group: P -1
;
_chemical_formula_sum "Si O2"
_cell_formula_units_Z 16
_cell_length_a 12.160218
_cell_length_b 8.809758
_cell_length_c 14.483313
_cell_angle_alpha 51.683080
_cell_angle_beta 42.767722
_cell_angle_gamma 79.383092
_cell_volume 711.763483
_symmetry_space_group_name_H-M "P -1"
_symmetry_group_IT_number 2
_symmetry_cell_setting 'triclinic'
loop_
_space_group_symop_operation_xyz
x,y,z
-x,-y,-z
loop_
_atom_site_type_symbol
_atom_site_label
_atom_site_fract_x
_atom_site_fract_y
_atom_site_fract_z
Si Si1 0.819843 0.505643 0.076821
Si Si2 0.499346 0.084521 0.331089
Si Si3 0.281601 0.336955 0.080289
Si Si4 0.231668 0.572865 0.486549
Si Si5 0.371513 0.588279 0.586697
Si Si6 0.168315 0.500365 0.266702
Si Si7 0.459772 0.081512 0.140760
Si Si8 0.314104 0.325628 0.383885
O O1 0.687880 0.269913 0.195442
O O2 0.731231 0.549728 0.206416
O O3 0.856448 0.707596 0.906399
O O4 0.000000 0.500000 0.000000
O O5 0.503210 0.129278 0.203400
O O6 0.315350 0.092162 0.481489
O O7 0.484377 0.848397 0.449939
O O8 0.205362 0.430256 0.171463
O O9 0.294150 0.126930 0.191115
O O10 0.488650 0.519604 0.849120
O O11 0.225809 0.556693 0.607244
O O12 0.299600 0.411344 0.461875
O O13 0.023219 0.497245 0.610993
O O14 0.384237 0.822238 0.262621
O O15 0.500000 0.500000 0.500000
O O16 0.153232 0.319254 0.420389
O O17 0.340360 0.749906 0.095521
#
# Coordination Sequence:
#
# PCOD8044224 Si02
#       8
#     2   2   2   2   2   2   2   2
#     4  11  22  38  63  93 127 165 217 255 304 377
#     4  10  20  41  72  86 121 170 213 254 325 378
#     4  10  19  37  66  87 127 169 207 257 321 381
#     4  11  25  37  64  98 130 161 216 266 317 379
#     4  11  24  43  64  89 125 170 212 260 311 375
#     4  11  19  38  65  94 132 161 204 265 321 381
#     4  10  20  40  66  94 125 168 206 264 334 370
#     4  10  19  39  64  93 125 165 203 259 328 380
#
# _framework density 22.479379000000002
#
# number of rings (size 3 to 8) (size 9 to 14) (size 15 to 20)
#    0.000    1.500    3.750    3.750    0.000    2.500 
#    2.250    0.625   16.500    0.000    0.000    0.000 
#    0.000    0.000    0.000    0.000    0.000    0.000 
#
# Total GULP energy -198241.468751 kJ/mol
# GULP energy per Si atom -12390.091797 kJ/mol
# Density = 2.242821 g / cm^3
# Si number density = 22.479379 Si / 1000 Ang^3
#
#
#
# Elastic Constant Matrix: (Units=GPa)
#
#
# Indices 1 2 3 4 5 6 
#
# 1 134.9269 30.1660 32.0061 -1.0034 2.2082 -9.1463
# 2 30.1660 139.5396 38.3040 10.4726 -3.7882 -6.6731
# 3 32.0061 38.3040 45.2915 8.2323 -2.9019 2.2134
# 4 -1.0034 10.4726 8.2323 26.1506 -3.8016 7.9367
# 5 2.2082 -3.7882 -2.9019 -3.8016 39.0629 9.4593
# 6 -9.1463 -6.6731 2.2134 7.9367 9.4593 33.2717
#
#
#
# Elastic Compliance Matrix: (Units=1/GPa)
#
#
# Indices 1 2 3 4 5 6 
#
# 1 0.009358 -0.000085 -0.007061 0.001407 -0.001693 0.003171
# 2 -0.000085 0.009665 -0.007864 -0.002470 -0.000661 0.003215
# 3 -0.007061 -0.007864 0.035293 -0.006227 0.002914 -0.005209
# 4 0.001407 -0.002470 -0.006227 0.046048 0.006750 -0.012598
# 5 -0.001693 -0.000661 0.002914 0.006750 0.029089 -0.010672
# 6 0.003171 0.003215 -0.005209 -0.012598 -0.010672 0.037958
#
#
# Mechanical properties :
#
#
# Convention : Reuss Voigt Hill
#
# Bulk Modulus (GPa) = 41.15845 57.85670 49.50758
# Shear Modulus (GPa) = 24.32738 34.31582 29.32160
#
# Velocity S-wave (km/s) = 3.29326 3.91134 3.61554
# Velocity P-wave (km/s) = 5.72800 6.79645 6.28497
#
# Compressibility (1/GPa) = 0.02429635
#
# Stress axis : x y z
#
# Youngs Moduli (GPa) = 106.85619 103.46903 28.33432
#
# Poissons Ratio (x) = 0.00878 0.20006
# Poissons Ratio (y) = 0.00907 0.22283
# Poissons Ratio (z) = 0.75448 0.81371
#
# Static dielectric constant tensor:
#      x y z
#    x 4.794980 -0.293080 0.452860 
#    y -0.293080 4.142440 -0.027890 
#    z 0.452860 -0.027890 4.047180 
# 
# 
# High freq. dielectric constant tensor:
#      x y z
#    x 1.910100 -0.007900 0.020170 
#    y -0.007900 1.882000 0.015850 
#    z 0.020170 0.015850 1.850400 
# 
# From -- ./inp_files/319448.got.cif
#   From: 2010.06.25/outbox.cif.g09.slc.cpg/sg2_160_cif.got.tgz:319448.got - 2010.06.27 13:26:56.
