data_PCOD8044022
_publ_section_title
;
Structure prediction by ZEFSAII (Michael W. Deem and Ramdas Pophale) SiO2 
 PCOD8044022
Probable space group: P -1
;
_chemical_formula_sum "Si O2"
_cell_formula_units_Z 16
_cell_length_a 22.279906
_cell_length_b 8.995357
_cell_length_c 22.989466
_cell_angle_alpha 144.234562
_cell_angle_beta 162.334974
_cell_angle_gamma 37.285464
_cell_volume 810.581501
_symmetry_space_group_name_H-M "P -1"
_symmetry_group_IT_number 2
_symmetry_cell_setting 'triclinic'
loop_
_space_group_symop_operation_xyz
x,y,z
-x,-y,-z
loop_
_atom_site_type_symbol
_atom_site_label
_atom_site_fract_x
_atom_site_fract_y
_atom_site_fract_z
Si Si1 0.595642 0.212555 0.484254
Si Si2 0.090474 0.112403 0.269019
Si Si3 0.549393 0.698629 0.862913
Si Si4 0.070984 0.063223 0.679878
Si Si5 0.853595 0.355282 0.468985
Si Si6 0.694046 0.264841 0.464235
Si Si7 0.715870 0.849432 0.663575
Si Si8 0.285724 0.874460 0.139181
O O1 0.500000 0.500000 0.500000
O O2 0.617423 0.150013 0.416355
O O3 0.812109 0.156313 0.697996
O O4 0.477594 0.003674 0.339332
O O5 0.145046 0.339113 0.434089
O O6 0.157132 0.156663 0.279060
O O7 0.854648 0.106549 0.041580
O O8 0.362962 0.731907 0.745451
O O9 0.469162 0.760371 0.743711
O O10 0.656702 0.412594 0.877048
O O11 0.707385 0.895997 0.082671
O O12 0.009923 0.257384 0.632443
O O13 0.910272 0.112250 0.598860
O O14 0.077033 0.770913 0.569018
O O15 0.708604 0.559582 0.583893
O O16 0.500000 0.000000 0.500000
O O17 0.816647 0.977898 0.852018
#
# Coordination Sequence:
#
# PCOD8044022 Si02
#       8
#     2   2   2   2   2   2   2   2
#     4  12  25  43  58  82 128 166 196 240 293 352
#     4  12  23  40  63  90 119 156 200 248 294 352
#     4  11  19  38  65  92 117 150 199 249 296 351
#     4  10  21  36  63  95 117 148 198 252 299 349
#     4  10  19  37  62  94 120 148 190 255 308 338
#     4  11  22  39  58  86 123 160 196 241 295 351
#     4  12  18  39  60  86 118 155 194 246 297 344
#     4  12  23  37  63  90 117 158 201 242 294 357
#
# _framework density 19.738914999999999
#
# number of rings (size 3 to 8) (size 9 to 14) (size 15 to 20)
#    0.000    0.750    8.750    0.750    0.000    1.500 
#    0.000    0.625    0.000    1.500    0.000    0.000 
#    0.000    0.000    0.000    0.000    0.000    0.000 
#
# Total GULP energy -198379.451248 kJ/mol
# GULP energy per Si atom -12398.715703 kJ/mol
# Density = 1.969399 g / cm^3
# Si number density = 19.738915 Si / 1000 Ang^3
#
#
#
# Elastic Constant Matrix: (Units=GPa)
#
#
# Indices 1 2 3 4 5 6 
#
# 1 80.7915 34.6620 21.3928 5.6225 -8.7551 -14.0587
# 2 34.6620 82.3675 31.6347 -0.6929 -13.7435 -17.9475
# 3 21.3928 31.6347 106.0584 -13.7455 -13.4328 -9.6256
# 4 5.6225 -0.6929 -13.7455 27.9452 -4.0220 -5.3425
# 5 -8.7551 -13.7435 -13.4328 -4.0220 14.8958 -1.7294
# 6 -14.0587 -17.9475 -9.6256 -5.3425 -1.7294 31.5628
#
#
#
# Elastic Compliance Matrix: (Units=1/GPa)
#
#
# Indices 1 2 3 4 5 6 
#
# 1 0.016036 -0.004895 -0.001400 -0.002869 0.003293 0.003627
# 2 -0.004895 0.019843 -0.001088 0.005443 0.017154 0.010633
# 3 -0.001400 -0.001088 0.013529 0.009890 0.013660 0.005306
# 4 -0.002869 0.005443 0.009890 0.047989 0.026887 0.014429
# 5 0.003293 0.017154 0.013660 0.026887 0.107472 0.025826
# 6 0.003627 0.010633 0.005306 0.014429 0.025826 0.044820
#
#
# Mechanical properties :
#
#
# Convention : Reuss Voigt Hill
#
# Bulk Modulus (GPa) = 28.86690 49.39961 39.13325
# Shear Modulus (GPa) = 18.11566 26.98262 22.54914
#
# Velocity S-wave (km/s) = 3.03275 3.70127 3.38356
# Velocity P-wave (km/s) = 5.18840 6.58382 5.92732
#
# Compressibility (1/GPa) = 0.03464175
#
# Stress axis : x y z
#
# Youngs Moduli (GPa) = 62.35957 50.39440 73.91430
#
# Poissons Ratio (x) = 0.24668 0.10349
# Poissons Ratio (y) = 0.30524 0.08045
# Poissons Ratio (z) = 0.08731 0.05485
#
# Static dielectric constant tensor:
#      x y z
#    x 3.576480 -0.290280 -0.046270 
#    y -0.290280 3.630700 -0.078880 
#    z -0.046270 -0.078880 3.824330 
# 
# 
# High freq. dielectric constant tensor:
#      x y z
#    x 1.753420 -0.021590 -0.007780 
#    y -0.021590 1.765400 -0.011490 
#    z -0.007780 -0.011490 1.773500 
# 
# From -- ./inp_files/285184.got.cif
#   From: 2010.06.25/outbox.cif.g09.slc.cpg/sg2_143_cif.got.tgz:285184.got - 2010.06.27 13:26:56.
