data_PCOD8044082
_publ_section_title
;
Structure prediction by ZEFSAII (Michael W. Deem and Ramdas Pophale) SiO2 
 PCOD8044082
Probable space group: P -1
;
_chemical_formula_sum "Si O2"
_cell_formula_units_Z 16
_cell_length_a 25.488679
_cell_length_b 22.715345
_cell_length_c 10.073210
_cell_angle_alpha 151.921335
_cell_angle_beta 141.258547
_cell_angle_gamma 17.504620
_cell_volume 743.804728
_symmetry_space_group_name_H-M "P -1"
_symmetry_group_IT_number 2
_symmetry_cell_setting 'triclinic'
loop_
_space_group_symop_operation_xyz
x,y,z
-x,-y,-z
loop_
_atom_site_type_symbol
_atom_site_label
_atom_site_fract_x
_atom_site_fract_y
_atom_site_fract_z
Si Si1 0.384706 0.861965 0.779335
Si Si2 0.218113 0.691468 0.121494
Si Si3 0.855926 0.635540 0.377266
Si Si4 0.074448 0.423607 0.142292
Si Si5 0.074377 0.123722 0.848269
Si Si6 0.460728 0.580676 0.932082
Si Si7 0.539706 0.800255 0.189586
Si Si8 0.044554 0.159414 0.169518
O O1 0.519360 0.573941 0.415219
O O2 0.224505 0.019120 0.872680
O O3 0.531895 0.751870 0.931462
O O4 0.282685 0.078033 0.889739
O O5 0.393345 0.511577 0.023456
O O6 0.100362 0.954447 0.494312
O O7 0.282014 0.497534 0.967511
O O8 0.068560 0.819423 0.984001
O O9 0.000000 0.500000 0.500000
O O10 0.916671 0.572048 0.219916
O O11 0.653945 0.978877 0.672995
O O12 0.860609 0.475707 0.097706
O O13 0.095477 0.540278 0.460398
O O14 0.000000 0.500000 0.000000
O O15 0.111439 0.070566 0.971762
O O16 0.500000 0.500000 0.000000
O O17 0.237827 0.919813 0.159544
O O18 0.500000 0.000000 0.500000
#
# Coordination Sequence:
#
# PCOD8044082 Si02
#       8
#     2   2   2   2   2   2   2   2
#     4  10  20  38  59  87 123 163 205 255 311 370
#     4  11  25  39  63  99 121 160 214 259 318 376
#     4  11  19  38  62  86 121 166 207 255 314 364
#     4  11  21  36  62  91 122 168 212 251 311 378
#     4  10  19  37  63  91 123 158 207 259 318 372
#     4  11  25  43  63  86 123 171 210 250 311 379
#     4  12  22  37  61  95 127 153 205 266 318 372
#     4  12  22  40  64  89 128 158 202 269 314 366
#
# _framework density 21.511023000000002
#
# number of rings (size 3 to 8) (size 9 to 14) (size 15 to 20)
#    0.000    1.000    3.750    4.875    0.000    3.500 
#    0.000    1.250    0.000    3.750    0.000    0.000 
#    0.000    0.000    0.000    0.000    0.000    0.000 
#
# Total GULP energy -198296.354816 kJ/mol
# GULP energy per Si atom -12393.522176 kJ/mol
# Density = 2.146206 g / cm^3
# Si number density = 21.511023 Si / 1000 Ang^3
#
#
#
# Elastic Constant Matrix: (Units=GPa)
#
#
# Indices 1 2 3 4 5 6 
#
# 1 83.5925 31.1081 40.8126 -23.3923 8.5305 21.9128
# 2 31.1081 78.3718 14.7724 -6.4372 9.3889 8.4556
# 3 40.8126 14.7724 108.3356 -8.6215 26.6508 -2.5254
# 4 -23.3923 -6.4372 -8.6215 41.0151 2.3729 2.2312
# 5 8.5305 9.3889 26.6508 2.3729 34.8739 -5.2920
# 6 21.9128 8.4556 -2.5254 2.2312 -5.2920 22.9646
#
#
#
# Elastic Compliance Matrix: (Units=1/GPa)
#
#
# Indices 1 2 3 4 5 6 
#
# 1 0.033413 -0.005580 -0.009787 0.018295 -0.005591 -0.033970
# 2 -0.005580 0.015320 0.000829 -0.000346 -0.003521 -0.001003
# 3 -0.009787 0.000829 0.014664 -0.002435 -0.007480 0.009159
# 4 0.018295 -0.000346 -0.002435 0.035993 -0.008468 -0.023046
# 5 -0.005591 -0.003521 -0.007480 -0.008468 0.039677 0.015775
# 6 -0.033970 -0.001003 0.009159 -0.023046 0.015775 0.083210
#
#
# Mechanical properties :
#
#
# Convention : Reuss Voigt Hill
#
# Bulk Modulus (GPa) = 29.13733 49.29847 39.21790
# Shear Modulus (GPa) = 19.02624 32.01117 25.51870
#
# Velocity S-wave (km/s) = 2.97726 3.86181 3.44802
# Velocity P-wave (km/s) = 5.03919 6.54617 5.84148
#
# Compressibility (1/GPa) = 0.03432023
#
# Stress axis : x y z
#
# Youngs Moduli (GPa) = 29.92868 65.27341 68.19207
#
# Poissons Ratio (x) = 0.36424 0.66739
# Poissons Ratio (y) = 0.16701 -0.05650
# Poissons Ratio (z) = 0.29291 -0.05408
#
# Static dielectric constant tensor:
#      x y z
#    x 3.943110 -0.215510 0.223380 
#    y -0.215510 4.323490 0.402320 
#    z 0.223380 0.402320 4.109260 
# 
# 
# High freq. dielectric constant tensor:
#      x y z
#    x 1.833150 -0.003080 0.015550 
#    y -0.003080 1.839400 0.011080 
#    z 0.015550 0.011080 1.866910 
# 
# From -- ./inp_files/272107.got.cif
#   From: 2010.06.25/outbox.cif.g09.slc.cpg/sg2_137_cif.got.tgz:272107.got - 2010.06.27 13:26:56.
