data_PCOD8044879
_publ_section_title
;
Structure prediction by ZEFSAII (Michael W. Deem and Ramdas Pophale) SiO2 
 PCOD8044879
Probable space group: P 2
;
_chemical_formula_sum "Si O2"
_cell_formula_units_Z 13
_cell_length_a 8.639484
_cell_length_b 8.706203
_cell_length_c 8.846475
_cell_angle_alpha 90.000000
_cell_angle_beta 78.001932
_cell_angle_gamma 90.000000
_cell_volume 650.870151
_symmetry_space_group_name_H-M "P 2"
_symmetry_group_IT_number 3
_symmetry_cell_setting 'monoclinic'
loop_
_space_group_symop_operation_xyz
x,y,z
-x,y,-z
loop_
_atom_site_type_symbol
_atom_site_label
_atom_site_fract_x
_atom_site_fract_y
_atom_site_fract_z
Si Si1 0.830562 0.920340 0.222140
Si Si2 0.341088 0.973254 0.459830
Si Si3 0.000000 0.671576 0.000000
Si Si4 0.234001 0.420589 0.065264
Si Si5 0.501274 0.470817 0.777318
Si Si6 0.500000 0.268108 0.500000
Si Si7 0.000000 0.171870 0.000000
Si Si8 0.502957 0.822646 0.179386
O O1 0.812815 0.922315 0.410127
O O2 0.926058 0.771279 0.150184
O O3 0.655218 0.924504 0.188338
O O4 0.916743 0.072264 0.146041
O O5 0.500000 0.896549 0.500000
O O6 0.346771 0.908743 0.284784
O O7 0.356400 0.159353 0.468510
O O8 0.134998 0.573921 0.053378
O O9 0.315772 0.431690 0.214249
O O10 0.380046 0.409547 0.924231
O O11 0.123941 0.272736 0.069838
O O12 0.444019 0.381027 0.642054
O O13 0.484194 0.652502 0.755144
O O14 0.500000 0.813044 0.000000
#
# Coordination Sequence:
#
# PCOD8044879 Si02
#       8
#     2   2   1   2   2   1   1   2
#     4  10  19  37  60  86 121 169 206 239 313 372
#     4   8  20  37  54  89 117 154 205 246 304 357
#     4  10  18  34  64  88 126 162 204 256 308 380
#     4  10  21  37  58  92 121 162 209 252 304 366
#     4  11  21  37  62  91 124 152 216 257 304 360
#     4  10  22  34  58  92 120 160 190 262 316 352
#     4  10  22  36  62  88 130 174 198 246 314 382
#     4  11  20  36  63  96 119 150 213 270 303 353
#
# _framework density 19.97326
#
# number of rings (size 3 to 8) (size 9 to 14) (size 15 to 20)
#    0.462    1.538    3.077    0.923    3.231    1.231 
#    0.000    0.000    0.000   31.385    0.000    0.000 
#    0.000    0.000    0.000    0.000    0.000    0.000 
#
# Total GULP energy -161079.125301 kJ/mol
# GULP energy per Si atom -12390.701946 kJ/mol
# Density = 1.992780 g / cm^3
# Si number density = 19.973260 Si / 1000 Ang^3
#
#
#
# Elastic Constant Matrix: (Units=GPa)
#
#
# Indices 1 2 3 4 5 6 
#
# 1 76.7459 42.1035 23.3737 0.0000 -15.0803 0.0000
# 2 42.1035 137.1652 69.8244 0.0000 -11.4471 0.0000
# 3 23.3737 69.8244 125.3282 0.0000 -29.6027 0.0000
# 4 0.0000 0.0000 0.0000 36.9589 0.0000 -6.0440
# 5 -15.0803 -11.4471 -29.6027 0.0000 26.6062 0.0000
# 6 0.0000 0.0000 0.0000 -6.0440 0.0000 15.0358
#
#
#
# Elastic Compliance Matrix: (Units=1/GPa)
#
#
# Indices 1 2 3 4 5 6 
#
# 1 0.017401 -0.005660 0.002255 0.000000 0.009937 0.000000
# 2 -0.005660 0.012154 -0.007106 0.000000 -0.005885 0.000000
# 3 0.002255 -0.007106 0.015053 0.000000 0.014969 0.000000
# 4 0.000000 0.000000 0.000000 0.028961 0.000000 0.011641
# 5 0.009937 -0.005885 0.014969 0.000000 0.057341 0.000000
# 6 0.000000 0.000000 0.000000 0.011641 0.000000 0.071187
#
#
# Mechanical properties :
#
#
# Convention : Reuss Voigt Hill
#
# Bulk Modulus (GPa) = 42.39685 67.76029 55.07857
# Shear Modulus (GPa) = 21.64686 29.31605 25.48145
#
# Velocity S-wave (km/s) = 3.29567 3.83530 3.57568
# Velocity P-wave (km/s) = 5.97953 7.32201 6.68456
#
# Compressibility (1/GPa) = 0.02358666
#
# Stress axis : x y z
#
# Youngs Moduli (GPa) = 57.46848 82.27772 66.43131
#
# Poissons Ratio (x) = 0.46569 -0.14982
# Poissons Ratio (y) = 0.32527 0.47205
# Poissons Ratio (z) = -0.12960 0.58465
#
# Static dielectric constant tensor:
#      x y z
#    x 3.611550 0.000000 -0.171750 
#    y 0.000000 3.683690 0.000000 
#    z -0.171750 0.000000 3.768960 
# 
# 
# High freq. dielectric constant tensor:
#      x y z
#    x 1.753200 0.000000 -0.017340 
#    y 0.000000 1.787190 0.000000 
#    z -0.017340 0.000000 1.774350 
# 
# From -- ./inp_files/5305.got.cif
#   From: 2010.03.12/outbox.cif.g09.slc.cpg/sg3_3_cif.got.tgz:5305.got - 2010.03.31 09:20:49.
