data_PCOD8044395
_publ_section_title
;
Structure prediction by ZEFSAII (Michael W. Deem and Ramdas Pophale) SiO2 
 PCOD8044395
Probable space group: P -1
;
_chemical_formula_sum "Si O2"
_cell_formula_units_Z 16
_cell_length_a 9.942112
_cell_length_b 18.304900
_cell_length_c 15.747241
_cell_angle_alpha 157.726463
_cell_angle_beta 38.104214
_cell_angle_gamma 132.425963
_cell_volume 652.510462
_symmetry_space_group_name_H-M "P -1"
_symmetry_group_IT_number 2
_symmetry_cell_setting 'triclinic'
loop_
_space_group_symop_operation_xyz
x,y,z
-x,-y,-z
loop_
_atom_site_type_symbol
_atom_site_label
_atom_site_fract_x
_atom_site_fract_y
_atom_site_fract_z
Si Si1 0.306787 0.773571 0.434593
Si Si2 0.183287 0.124493 0.267044
Si Si3 0.580895 0.709031 0.805665
Si Si4 0.239748 0.244045 0.551535
Si Si5 0.286621 0.749994 0.708131
Si Si6 0.174761 0.688621 0.079295
Si Si7 0.196507 0.163843 0.013978
Si Si8 0.500772 0.364197 0.979745
O O1 0.447711 0.588612 0.216718
O O2 0.055396 0.753621 0.517571
O O3 0.426759 0.784800 0.295887
O O4 0.309447 0.961293 0.693167
O O5 0.373963 0.228880 0.245484
O O6 0.204726 0.125500 0.357732
O O7 0.226419 0.893159 0.972875
O O8 0.654106 0.474328 0.529866
O O9 0.722936 0.829922 0.922709
O O10 0.317186 0.786950 0.046369
O O11 0.504562 0.200678 0.395540
O O12 0.081767 0.184580 0.641047
O O13 0.152533 0.477344 0.826547
O O14 0.072827 0.790096 0.795415
O O15 0.301598 0.664923 0.081099
O O16 0.274868 0.332624 0.102224
#
# Coordination Sequence:
#
# PCOD8044395 Si02
#       8
#     2   2   2   2   2   2   2   2
#     4  10  21  34  60  90 115 153 190 238 297 345
#     4  11  22  38  61  88 121 150 199 241 285 348
#     4  10  22  38  61  88 118 153 191 246 294 339
#     4  10  20  39  61  84 116 160 197 236 286 343
#     4  10  22  37  59  87 117 160 191 236 292 344
#     4   9  20  38  63  84 115 157 196 238 290 345
#     4  10  21  36  57  89 119 149 191 241 290 349
#     4  10  19  38  60  85 120 150 189 241 296 346
#
# _framework density 24.520679999999999
#
# number of rings (size 3 to 8) (size 9 to 14) (size 15 to 20)
#    0.000    2.000    1.250    1.875    0.000    9.000 
#    0.000    0.625    0.000    0.000    0.000    0.000 
#    0.000    0.000    0.000    0.000    0.000    0.000 
#
# Total GULP energy -198368.211485 kJ/mol
# GULP energy per Si atom -12398.013218 kJ/mol
# Density = 2.446487 g / cm^3
# Si number density = 24.520680 Si / 1000 Ang^3
#
#
#
# Elastic Constant Matrix: (Units=GPa)
#
#
# Indices 1 2 3 4 5 6 
#
# 1 37.7785 27.0050 29.1050 -2.4355 8.2488 16.6536
# 2 27.0050 79.7899 23.6078 -31.7366 0.5807 17.8945
# 3 29.1050 23.6078 117.2634 -20.2729 4.4630 10.6676
# 4 -2.4355 -31.7366 -20.2729 42.0958 6.3355 -5.5233
# 5 8.2488 0.5807 4.4630 6.3355 30.8549 -6.0079
# 6 16.6536 17.8945 10.6676 -5.5233 -6.0079 37.2871
#
#
#
# Elastic Compliance Matrix: (Units=1/GPa)
#
#
# Indices 1 2 3 4 5 6 
#
# 1 0.059165 -0.018986 -0.011527 -0.016797 -0.013996 -0.018759
# 2 -0.018986 0.026591 0.003073 0.020203 -0.000454 -0.002241
# 3 -0.011527 0.003073 0.011957 0.007588 0.000005 0.001378
# 4 -0.016797 0.020203 0.007588 0.042642 -0.005537 0.001060
# 5 -0.013996 -0.000454 0.000005 -0.005537 0.039640 0.012035
# 6 -0.018759 -0.002241 0.001378 0.001060 0.012035 0.037975
#
#
# Mechanical properties :
#
#
# Convention : Reuss Voigt Hill
#
# Bulk Modulus (GPa) = 23.34685 43.80750 33.57718
# Shear Modulus (GPa) = 17.41388 32.38848 24.90118
#
# Velocity S-wave (km/s) = 2.66779 3.63831 3.19018
# Velocity P-wave (km/s) = 4.36251 5.96272 5.22425
#
# Compressibility (1/GPa) = 0.04283233
#
# Stress axis : x y z
#
# Youngs Moduli (GPa) = 16.90187 37.60612 83.63584
#
# Poissons Ratio (x) = 0.71399 0.96410
# Poissons Ratio (y) = 0.32090 -0.25700
# Poissons Ratio (z) = 0.19483 -0.11556
#
# Static dielectric constant tensor:
#      x y z
#    x 4.156720 0.370520 0.154630 
#    y 0.370520 4.471810 -0.351010 
#    z 0.154630 -0.351010 4.788390 
# 
# 
# High freq. dielectric constant tensor:
#      x y z
#    x 1.956150 0.016790 0.011160 
#    y 0.016790 1.973330 -0.012560 
#    z 0.011160 -0.012560 1.997700 
# 
# From -- ./inp_files/260116.got.cif
#   From: 2010.06.25/outbox.cif.g09.slc.cpg/sg2_131_cif.got.tgz:260116.got - 2010.06.27 13:26:56.
