data_PCOD8044932
_publ_section_title
;
Structure prediction by ZEFSAII (Michael W. Deem and Ramdas Pophale) SiO2 
 PCOD8044932
Probable space group: P 2
;
_chemical_formula_sum "Si O2"
_cell_formula_units_Z 8
_cell_length_a 6.992218
_cell_length_b 6.586866
_cell_length_c 8.801441
_cell_angle_alpha 90.000000
_cell_angle_beta 96.151098
_cell_angle_gamma 90.000000
_cell_volume 403.032451
_symmetry_space_group_name_H-M "P 2"
_symmetry_group_IT_number 3
_symmetry_cell_setting 'monoclinic'
loop_
_space_group_symop_operation_xyz
x,y,z
-x,y,-z
loop_
_atom_site_type_symbol
_atom_site_label
_atom_site_fract_x
_atom_site_fract_y
_atom_site_fract_z
Si Si1 0.277322 0.341620 0.347617
Si Si2 0.992518 0.608804 0.825067
Si Si3 0.677749 0.564935 0.365346
Si Si4 0.191112 0.909316 0.426783
O O1 0.472448 0.461197 0.318870
O O2 0.204995 0.423512 0.505882
O O3 0.118230 0.393402 0.206037
O O4 0.305808 0.100520 0.365934
O O5 0.210167 0.583513 0.783559
O O6 0.871192 0.773501 0.721619
O O7 0.000000 0.673916 0.000000
O O8 0.667807 0.787240 0.445694
O O9 0.000000 0.980564 0.500000
#
# Coordination Sequence:
#
# PCOD8044932 Si02
#       4
#     2   2   2   2
#     4  10  19  34  59  81 106 142 184 227 273 320
#     4  10  21  36  54  80 116 148 178 220 272 328
#     4   9  20  35  56  84 108 137 182 234 272 315
#     4   9  18  36  59  83 109 142 185 230 274 320
#
# _framework density 19.849516000000001
#
# number of rings (size 3 to 8) (size 9 to 14) (size 15 to 20)
#    0.000    2.500    0.000    3.750    0.000   10.000 
#    0.000    0.000    0.000    9.000    0.000    0.000 
#    0.000    0.000    0.000    0.000    0.000    0.000 
#
# Total GULP energy -99123.436682 kJ/mol
# GULP energy per Si atom -12390.429585 kJ/mol
# Density = 1.980434 g / cm^3
# Si number density = 19.849516 Si / 1000 Ang^3
#
#
#
# Elastic Constant Matrix: (Units=GPa)
#
#
# Indices 1 2 3 4 5 6 
#
# 1 110.2951 57.0105 47.8008 0.0000 -16.6910 0.0000
# 2 57.0105 132.8934 26.3633 0.0000 -4.9623 0.0000
# 3 47.8008 26.3633 119.5661 0.0000 -18.8163 0.0000
# 4 0.0000 0.0000 0.0000 13.7631 0.0000 1.8526
# 5 -16.6910 -4.9623 -18.8163 0.0000 24.1847 0.0000
# 6 0.0000 0.0000 0.0000 1.8526 0.0000 29.2631
#
#
#
# Elastic Compliance Matrix: (Units=1/GPa)
#
#
# Indices 1 2 3 4 5 6 
#
# 1 0.014188 -0.005150 -0.003603 0.000000 0.005932 0.000000
# 2 -0.005150 0.009741 -0.000380 0.000000 -0.001852 0.000000
# 3 -0.003603 -0.000380 0.010807 0.000000 0.005844 0.000000
# 4 0.000000 0.000000 0.000000 0.073283 0.000000 -0.004639
# 5 0.005932 -0.001852 0.005844 0.000000 0.049609 0.000000
# 6 0.000000 0.000000 0.000000 -0.004639 0.000000 0.034466
#
#
# Mechanical properties :
#
#
# Convention : Reuss Voigt Hill
#
# Bulk Modulus (GPa) = 60.71964 69.45597 65.08780
# Shear Modulus (GPa) = 23.16420 28.88086 26.02253
#
# Velocity S-wave (km/s) = 3.41983 3.81857 3.62469
# Velocity P-wave (km/s) = 6.80074 7.38304 7.09786
#
# Compressibility (1/GPa) = 0.01646914
#
# Stress axis : x y z
#
# Youngs Moduli (GPa) = 70.48270 102.66398 92.52846
#
# Poissons Ratio (x) = 0.52875 0.33338
# Poissons Ratio (y) = 0.36300 0.03517
# Poissons Ratio (z) = 0.25395 0.03902
#
# Static dielectric constant tensor:
#      x y z
#    x 3.517600 0.000000 -0.007060 
#    y 0.000000 3.654690 0.000000 
#    z -0.007060 0.000000 3.264760 
# 
# 
# High freq. dielectric constant tensor:
#      x y z
#    x 1.780540 0.000000 -0.000310 
#    y 0.000000 1.773190 0.000000 
#    z -0.000310 0.000000 1.733330 
# 
# From -- ./inp_files/4669.got.cif
#   From: 2010.03.12/outbox.cif.g09.slc.cpg/sg3_3_cif.got.tgz:4669.got - 2010.03.31 09:20:49.
