data_PCOD8044182
_publ_section_title
;
Structure prediction by ZEFSAII (Michael W. Deem and Ramdas Pophale) SiO2 
 PCOD8044182
Probable space group: P -1
;
_chemical_formula_sum "Si O2"
_cell_formula_units_Z 16
_cell_length_a 9.130372
_cell_length_b 9.006073
_cell_length_c 11.504090
_cell_angle_alpha 115.654428
_cell_angle_beta 95.974772
_cell_angle_gamma 60.710375
_cell_volume 736.689158
_symmetry_space_group_name_H-M "P -1"
_symmetry_group_IT_number 2
_symmetry_cell_setting 'triclinic'
loop_
_space_group_symop_operation_xyz
x,y,z
-x,-y,-z
loop_
_atom_site_type_symbol
_atom_site_label
_atom_site_fract_x
_atom_site_fract_y
_atom_site_fract_z
Si Si1 0.136328 0.919563 0.220123
Si Si2 0.159380 0.290235 0.101473
Si Si3 0.830284 0.504971 0.520625
Si Si4 0.748573 0.776534 0.168989
Si Si5 0.629197 0.910942 0.744544
Si Si6 0.932297 0.316001 0.702767
Si Si7 0.859460 0.300221 0.230722
Si Si8 0.316651 0.572902 0.957990
O O1 0.118626 0.839966 0.315800
O O2 0.278979 0.980593 0.266759
O O3 0.180391 0.750651 0.078099
O O4 0.956828 0.088718 0.217697
O O5 0.320000 0.126894 0.128284
O O6 0.169146 0.484245 0.167743
O O7 0.990794 0.335774 0.175872
O O8 0.166030 0.219024 0.946197
O O9 0.686267 0.714200 0.615941
O O10 0.881990 0.351247 0.575499
O O11 0.771619 0.442107 0.379458
O O12 0.000000 0.500000 0.500000
O O13 0.724681 0.595558 0.103374
O O14 0.868003 0.766593 0.281476
O O15 0.571370 0.965151 0.239469
O O16 0.701945 0.345127 0.147843
O O17 0.500000 0.500000 0.000000
#
# Coordination Sequence:
#
# PCOD8044182 Si02
#       8
#     2   2   2   2   2   2   2   2
#     4  11  22  40  63  99 129 164 221 265 322 376
#     4  10  19  37  65  88 128 168 216 254 316 389
#     4  11  20  45  69  87 128 181 223 253 304 400
#     4  12  21  39  61 102 133 161 211 271 334 378
#     4  10  23  39  64  98 128 176 208 265 330 378
#     4  11  22  37  67  98 124 172 221 263 309 383
#     4  11  23  43  66  92 126 178 219 256 319 388
#     4  12  23  38  63  97 133 165 201 274 338 374
#
# _framework density 21.718793000000002
#
# number of rings (size 3 to 8) (size 9 to 14) (size 15 to 20)
#    0.000    1.000    7.500    1.875    0.000    1.500 
#    2.250    3.750    0.000    1.500    3.250    0.000 
#    0.000    0.000    0.000    0.000    0.000    0.000 
#
# Total GULP energy -198330.179883 kJ/mol
# GULP energy per Si atom -12395.636243 kJ/mol
# Density = 2.166936 g / cm^3
# Si number density = 21.718793 Si / 1000 Ang^3
#
#
#
# Elastic Constant Matrix: (Units=GPa)
#
#
# Indices 1 2 3 4 5 6 
#
# 1 75.3759 60.0017 37.4044 -9.7613 1.2846 -3.2545
# 2 60.0017 147.2027 59.0100 -3.7386 -12.5102 2.7107
# 3 37.4044 59.0100 118.2409 -9.3867 -15.2048 -14.6838
# 4 -9.7613 -3.7386 -9.3867 35.2019 -2.6213 -3.7168
# 5 1.2846 -12.5102 -15.2048 -2.6213 20.8445 -2.5350
# 6 -3.2545 2.7107 -14.6838 -3.7168 -2.5350 38.5802
#
#
#
# Elastic Compliance Matrix: (Units=1/GPa)
#
#
# Indices 1 2 3 4 5 6 
#
# 1 0.022326 -0.008297 -0.003580 0.003829 -0.008373 0.000922
# 2 -0.008297 0.011840 -0.003131 -0.001793 0.004794 -0.002581
# 3 -0.003580 -0.003131 0.013366 0.003557 0.009263 0.005956
# 4 0.003829 -0.001793 0.003557 0.031211 0.005839 0.005193
# 5 -0.008373 0.004794 0.009263 0.005839 0.059706 0.006968
# 6 0.000922 -0.002581 0.005956 0.005193 0.006968 0.029404
#
#
# Mechanical properties :
#
#
# Convention : Reuss Voigt Hill
#
# Bulk Modulus (GPa) = 57.09010 72.62798 64.85904
# Shear Modulus (GPa) = 24.54519 31.21887 27.88203
#
# Velocity S-wave (km/s) = 3.36540 3.79544 3.58687
# Velocity P-wave (km/s) = 6.43772 7.26084 6.86164
#
# Compressibility (1/GPa) = 0.01751617
#
# Stress axis : x y z
#
# Youngs Moduli (GPa) = 44.79023 84.46295 74.81926
#
# Poissons Ratio (x) = 0.70075 0.26789
# Poissons Ratio (y) = 0.37160 0.23423
# Poissons Ratio (z) = 0.16037 0.26442
#
# Static dielectric constant tensor:
#      x y z
#    x 5.402110 -1.041250 0.950910 
#    y -1.041250 5.007260 -0.562410 
#    z 0.950910 -0.562410 -0.613680 
# 
# 
# High freq. dielectric constant tensor:
#      x y z
#    x 1.820560 0.001700 -0.000920 
#    y 0.001700 1.879950 -0.003890 
#    z -0.000920 -0.003890 1.843300 
# 
# From -- ./inp_files/383291.got.cif
#   From: 2010.06.25/outbox.cif.g09.slc.cpg/sg2_192_cif.got.tgz:383291.got - 2010.06.27 13:26:56.
