data_PCOD8044549
_publ_section_title
;
Structure prediction by ZEFSAII (Michael W. Deem and Ramdas Pophale) SiO2 
 PCOD8044549
Probable space group: P -1
;
_chemical_formula_sum "Si O2"
_cell_formula_units_Z 14
_cell_length_a 9.206837
_cell_length_b 8.721347
_cell_length_c 15.692317
_cell_angle_alpha 113.999893
_cell_angle_beta 133.560463
_cell_angle_gamma 93.019433
_cell_volume 720.951041
_symmetry_space_group_name_H-M "P -1"
_symmetry_group_IT_number 2
_symmetry_cell_setting 'triclinic'
loop_
_space_group_symop_operation_xyz
x,y,z
-x,-y,-z
loop_
_atom_site_type_symbol
_atom_site_label
_atom_site_fract_x
_atom_site_fract_y
_atom_site_fract_z
Si Si1 0.139015 0.740288 0.681503
Si Si2 0.796465 0.734901 0.405398
Si Si3 0.219847 0.571848 0.417041
Si Si4 0.084067 0.874733 0.390049
Si Si5 0.914534 0.949026 0.170558
Si Si6 0.569900 0.696787 0.834519
Si Si7 0.277799 0.274364 0.275454
O O1 0.387362 0.770466 0.764280
O O2 0.001374 0.724708 0.536062
O O3 0.998198 0.541805 0.633495
O O4 0.180625 0.923069 0.795310
O O5 0.555435 0.535776 0.267473
O O6 0.867051 0.785419 0.346917
O O7 0.752420 0.897783 0.468529
O O8 0.228252 0.763596 0.428018
O O9 0.195913 0.429584 0.297697
O O10 0.449959 0.628059 0.574777
O O11 0.991702 0.849558 0.250922
O O12 0.707184 0.778240 0.995859
O O13 0.133201 0.080999 0.228535
O O14 0.753676 0.776132 0.848930
#
# Coordination Sequence:
#
# PCOD8044549 Si02
#       7
#     2   2   2   2   2   2   2
#     4  10  19  38  63  88 104 148 202 239 272 322
#     4  10  20  35  62  89 110 142 198 242 275 324
#     4  10  19  38  63  84 110 148 196 239 276 326
#     4  10  21  38  57  86 118 148 185 236 287 337
#     4  10  24  38  55  86 124 151 180 225 298 348
#     4  12  20  37  63  85 115 149 191 239 276 334
#     4  10  22  37  61  87 110 149 196 236 274 334
#
# _framework density 19.418793999999998
#
# number of rings (size 3 to 8) (size 9 to 14) (size 15 to 20)
#    0.000    1.714    2.857    2.143    2.000    1.143 
#    0.000    0.714    3.143    0.000    0.000    0.000 
#    0.000    0.000    0.000    0.000    0.000    0.000 
#
# Total GULP energy -173643.336183 kJ/mol
# GULP energy per Si atom -12403.095442 kJ/mol
# Density = 1.937460 g / cm^3
# Si number density = 19.418794 Si / 1000 Ang^3
#
#
#
# Elastic Constant Matrix: (Units=GPa)
#
#
# Indices 1 2 3 4 5 6 
#
# 1 90.6114 35.8088 33.9028 -1.0444 -16.2511 9.2106
# 2 35.8088 116.9661 46.6507 4.5289 -16.1227 -4.6392
# 3 33.9028 46.6507 108.4711 3.2920 -20.5762 9.4710
# 4 -1.0444 4.5289 3.2920 12.3959 5.3027 -3.1390
# 5 -16.2511 -16.1227 -20.5762 5.3027 21.9320 -3.7599
# 6 9.2106 -4.6392 9.4710 -3.1390 -3.7599 30.9319
#
#
#
# Elastic Compliance Matrix: (Units=1/GPa)
#
#
# Indices 1 2 3 4 5 6 
#
# 1 0.014329 -0.002930 -0.001637 -0.000983 0.006564 -0.003507
# 2 -0.002930 0.011856 -0.003374 -0.004954 0.005232 0.003817
# 3 -0.001637 -0.003374 0.013742 -0.007994 0.010487 -0.003763
# 4 -0.000983 -0.004954 -0.007994 0.101550 -0.035044 0.008043
# 5 0.006564 0.005232 0.010487 -0.035044 0.072772 0.000909
# 6 -0.003507 0.003817 -0.003763 0.008043 0.000909 0.036024
#
#
# Mechanical properties :
#
#
# Convention : Reuss Voigt Hill
#
# Bulk Modulus (GPa) = 41.58783 60.97481 51.28132
# Shear Modulus (GPa) = 18.23674 26.36440 22.30057
#
# Velocity S-wave (km/s) = 3.06785 3.68866 3.39248
# Velocity P-wave (km/s) = 5.83195 7.04341 6.46612
#
# Compressibility (1/GPa) = 0.02404549
#
# Stress axis : x y z
#
# Youngs Moduli (GPa) = 69.78835 84.34196 72.76839
#
# Poissons Ratio (x) = 0.24712 0.11914
# Poissons Ratio (y) = 0.20448 0.24551
# Poissons Ratio (z) = 0.11426 0.28456
#
# Static dielectric constant tensor:
#      x y z
#    x 3.546630 0.025770 -0.256720 
#    y 0.025770 3.573970 0.139170 
#    z -0.256720 0.139170 3.396780 
# 
# 
# High freq. dielectric constant tensor:
#      x y z
#    x 1.759590 0.004350 -0.022020 
#    y 0.004350 1.755040 0.011730 
#    z -0.022020 0.011730 1.740470 
# 
# From -- ./inp_files/153716.got.cif
#   From: 2010.06.25/outbox.cif.g09.slc.cpg/sg2_77_cif.got.tgz:153716.got - 2010.06.27 13:26:56.
