data_PCOD8044813
_publ_section_title
;
Structure prediction by ZEFSAII (Michael W. Deem and Ramdas Pophale) SiO2 
 PCOD8044813
Probable space group: P -1
;
_chemical_formula_sum "Si O2"
_cell_formula_units_Z 14
_cell_length_a 22.395907
_cell_length_b 8.963374
_cell_length_c 7.351161
_cell_angle_alpha 60.829789
_cell_angle_beta 48.808772
_cell_angle_gamma 30.584419
_cell_volume 552.692852
_symmetry_space_group_name_H-M "P -1"
_symmetry_group_IT_number 2
_symmetry_cell_setting 'triclinic'
loop_
_space_group_symop_operation_xyz
x,y,z
-x,-y,-z
loop_
_atom_site_type_symbol
_atom_site_label
_atom_site_fract_x
_atom_site_fract_y
_atom_site_fract_z
Si Si1 0.309100 0.323827 0.075736
Si Si2 0.573770 0.212062 0.295186
Si Si3 0.064199 0.571205 0.550379
Si Si4 0.490178 0.300677 0.823949
Si Si5 0.904341 0.855169 0.361768
Si Si6 0.684147 0.523297 0.406278
Si Si7 0.149430 0.473991 0.827978
O O1 0.150105 0.581876 0.299910
O O2 0.375563 0.020289 0.162738
O O3 0.368534 0.374922 0.045526
O O4 0.328158 0.323486 0.826091
O O5 0.518707 0.282808 0.566451
O O6 0.555268 0.443215 0.137339
O O7 0.469199 0.274973 0.345622
O O8 0.735910 0.876300 0.154857
O O9 0.137455 0.259503 0.549629
O O10 0.049381 0.610286 0.775184
O O11 0.922221 0.826838 0.563902
O O12 0.776440 0.198522 0.355422
O O13 0.048051 0.664657 0.091557
O O14 0.765673 0.499126 0.402630
#
# Coordination Sequence:
#
# PCOD8044813 Si02
#       7
#     2   2   2   2   2   2   2
#     4  10  19  38  68  94 135 178 224 274 337 407
#     4  10  21  40  70 100 137 180 225 282 342 404
#     4  11  24  45  71  94 140 181 228 280 340 400
#     4   9  19  37  66 101 132 183 223 273 350 404
#     4  11  26  48  69  98 139 187 225 280 343 408
#     4  11  24  43  70  97 144 181 221 283 350 397
#     4  12  24  43  72 105 135 177 234 282 333 411
#
# _framework density 25.330521999999998
#
# number of rings (size 3 to 8) (size 9 to 14) (size 15 to 20)
#    0.000    1.429    2.857    2.143    4.000    0.571 
#    0.000    2.143    0.000    0.000    0.000    0.000 
#    0.000    0.000    0.000    0.000    0.000    0.000 
#
# Total GULP energy -173524.056499 kJ/mol
# GULP energy per Si atom -12394.575464 kJ/mol
# Density = 2.527287 g / cm^3
# Si number density = 25.330522 Si / 1000 Ang^3
#
#
#
# Elastic Constant Matrix: (Units=GPa)
#
#
# Indices 1 2 3 4 5 6 
#
# 1 102.7020 12.3979 21.6330 -13.0802 4.7732 -11.2214
# 2 12.3979 100.6754 23.7633 -16.6204 3.3947 3.7111
# 3 21.6330 23.7633 58.7352 -6.7176 -19.4755 -2.9201
# 4 -13.0802 -16.6204 -6.7176 34.7770 0.9379 -9.3932
# 5 4.7732 3.3947 -19.4755 0.9379 21.3736 -5.5775
# 6 -11.2214 3.7111 -2.9201 -9.3932 -5.5775 28.4814
#
#
#
# Elastic Compliance Matrix: (Units=1/GPa)
#
#
# Indices 1 2 3 4 5 6 
#
# 1 0.012643 0.001158 -0.007218 0.005262 -0.008741 0.004114
# 2 0.001158 0.013257 -0.009391 0.004440 -0.011926 -0.003105
# 3 -0.007218 -0.009391 0.037465 0.001833 0.039939 0.010647
# 4 0.005262 0.004440 0.001833 0.037010 0.001886 0.014258
# 5 -0.008741 -0.011926 0.039939 0.001886 0.092402 0.020922
# 6 0.004114 -0.003105 0.010647 0.014258 0.020922 0.047027
#
#
# Mechanical properties :
#
#
# Convention : Reuss Voigt Hill
#
# Bulk Modulus (GPa) = 30.80263 41.96677 36.38470
# Shear Modulus (GPa) = 17.76034 30.54765 24.15399
#
# Velocity S-wave (km/s) = 2.65078 3.47646 3.09132
# Velocity P-wave (km/s) = 4.64280 5.71997 5.20930
#
# Compressibility (1/GPa) = 0.03246476
#
# Stress axis : x y z
#
# Youngs Moduli (GPa) = 79.09363 75.43441 26.69125
#
# Poissons Ratio (x) = -0.08738 0.19264
# Poissons Ratio (y) = -0.09162 0.25066
# Poissons Ratio (z) = 0.57086 0.70841
#
# Static dielectric constant tensor:
#      x y z
#    x 4.878690 -0.008680 -0.306120 
#    y -0.008680 4.373480 -0.335150 
#    z -0.306120 -0.335150 4.281350 
# 
# 
# High freq. dielectric constant tensor:
#      x y z
#    x 2.023910 -0.005020 -0.018710 
#    y -0.005020 1.998270 -0.022700 
#    z -0.018710 -0.022700 1.995010 
# 
# From -- ./inp_files/352107.got.cif
#   From: 2010.06.25/outbox.cif.g09.slc.cpg/sg2_177_cif.got.tgz:352107.got - 2010.06.27 13:26:56.
