data_PCOD8044127
_publ_section_title
;
Structure prediction by ZEFSAII (Michael W. Deem and Ramdas Pophale) SiO2 
 PCOD8044127
Probable space group: P -1
;
_chemical_formula_sum "Si O2"
_cell_formula_units_Z 16
_cell_length_a 21.440359
_cell_length_b 9.384548
_cell_length_c 15.047290
_cell_angle_alpha 51.696144
_cell_angle_beta 161.717175
_cell_angle_gamma 128.335298
_cell_volume 739.122646
_symmetry_space_group_name_H-M "P -1"
_symmetry_group_IT_number 2
_symmetry_cell_setting 'triclinic'
loop_
_space_group_symop_operation_xyz
x,y,z
-x,-y,-z
loop_
_atom_site_type_symbol
_atom_site_label
_atom_site_fract_x
_atom_site_fract_y
_atom_site_fract_z
Si Si1 0.588346 0.954470 0.814550
Si Si2 0.666980 0.199113 0.989562
Si Si3 0.454268 0.694142 0.471526
Si Si4 0.247010 0.630309 0.498919
Si Si5 0.513682 0.543819 0.232801
Si Si6 0.184200 0.583627 0.630575
Si Si7 0.005293 0.792806 0.441936
Si Si8 0.203211 0.469073 0.088989
O O1 0.401589 0.799456 0.607167
O O2 0.586623 0.096466 0.675493
O O3 0.806311 0.887337 0.134682
O O4 0.561347 0.048151 0.837669
O O5 0.819613 0.103920 0.297376
O O6 0.492875 0.276030 0.784614
O O7 0.785619 0.367189 0.030426
O O8 0.500779 0.641573 0.655367
O O9 0.259861 0.556038 0.228743
O O10 0.642110 0.672377 0.670152
O O11 0.290976 0.452270 0.568659
O O12 0.293370 0.616344 0.671458
O O13 0.015241 0.650185 0.160807
O O14 0.330219 0.519054 0.926955
O O15 0.016859 0.408492 0.464256
O O16 0.088724 0.764442 0.465270
#
# Coordination Sequence:
#
# PCOD8044127 Si02
#       8
#     2   2   2   2   2   2   2   2
#     4  11  23  37  61  96 127 151 193 261 308 342
#     4   9  19  40  63  87 121 164 207 236 290 367
#     4   9  21  42  60  85 118 166 209 230 290 374
#     4  12  23  36  62  97 121 149 199 264 308 336
#     4  10  21  39  65  87 121 166 201 242 289 368
#     4  10  21  38  63  94 115 155 210 248 290 358
#     4  10  19  37  64  88 117 164 202 244 290 365
#     4   9  19  39  66  82 114 167 208 242 282 365
#
# _framework density 21.647286000000001
#
# number of rings (size 3 to 8) (size 9 to 14) (size 15 to 20)
#    0.000    2.000    2.500    1.500    1.750    1.500 
#    0.000    6.250    0.000    0.000    0.000    0.000 
#    0.000    0.000    0.000    0.000    0.000    0.000 
#
# Total GULP energy -198249.389900 kJ/mol
# GULP energy per Si atom -12390.586869 kJ/mol
# Density = 2.159802 g / cm^3
# Si number density = 21.647286 Si / 1000 Ang^3
#
#
#
# Elastic Constant Matrix: (Units=GPa)
#
#
# Indices 1 2 3 4 5 6 
#
# 1 115.0578 32.1811 41.3819 -8.5155 0.1866 -16.8649
# 2 32.1811 58.2526 45.8183 -7.4045 2.4721 -9.1876
# 3 41.3819 45.8183 121.6041 -5.3204 -4.8140 -3.5499
# 4 -8.5155 -7.4045 -5.3204 26.7339 -4.1789 -0.5809
# 5 0.1866 2.4721 -4.8140 -4.1789 28.4828 -6.7930
# 6 -16.8649 -9.1876 -3.5499 -0.5809 -6.7930 24.0005
#
#
#
# Elastic Compliance Matrix: (Units=1/GPa)
#
#
# Indices 1 2 3 4 5 6 
#
# 1 0.011707 -0.003173 -0.002374 0.002841 0.001951 0.007281
# 2 -0.003173 0.027766 -0.009041 0.004774 -0.001614 0.006721
# 3 -0.002374 -0.009041 0.012424 -0.000504 0.002186 -0.002685
# 4 0.002841 0.004774 -0.000504 0.040784 0.007072 0.006738
# 5 0.001951 -0.001614 0.002186 0.007072 0.039615 0.012460
# 6 0.007281 0.006721 -0.002685 0.006738 0.012460 0.052648
#
#
# Mechanical properties :
#
#
# Convention : Reuss Voigt Hill
#
# Bulk Modulus (GPa) = 44.01323 59.29746 51.65535
# Shear Modulus (GPa) = 22.55364 27.54565 25.04965
#
# Velocity S-wave (km/s) = 3.23130 3.57105 3.40541
# Velocity P-wave (km/s) = 5.85644 6.66747 6.27507
#
# Compressibility (1/GPa) = 0.02272044
#
# Stress axis : x y z
#
# Youngs Moduli (GPa) = 85.41781 36.01537 80.49084
#
# Poissons Ratio (x) = 0.11429 0.19110
# Poissons Ratio (y) = 0.27106 0.72769
# Poissons Ratio (z) = 0.20280 0.32560
#
# Static dielectric constant tensor:
#      x y z
#    x 4.102510 -0.428570 -0.006600 
#    y -0.428570 3.681580 -0.123820 
#    z -0.006600 -0.123820 3.905640 
# 
# 
# High freq. dielectric constant tensor:
#      x y z
#    x 1.849670 -0.032490 -0.011430 
#    y -0.032490 1.815370 -0.008030 
#    z -0.011430 -0.008030 1.855450 
# 
# From -- ./inp_files/218821.got.cif
#   From: 2010.06.25/outbox.cif.g09.slc.cpg/sg2_110_cif.got.tgz:218821.got - 2010.06.27 13:26:56.
