data_PCOD8044281
_publ_section_title
;
Structure prediction by ZEFSAII (Michael W. Deem and Ramdas Pophale) SiO2 
 PCOD8044281
Probable space group: P -1
;
_chemical_formula_sum "Si O2"
_cell_formula_units_Z 16
_cell_length_a 11.068131
_cell_length_b 14.271808
_cell_length_c 8.031653
_cell_angle_alpha 120.367615
_cell_angle_beta 111.495562
_cell_angle_gamma 38.920975
_cell_volume 686.853398
_symmetry_space_group_name_H-M "P -1"
_symmetry_group_IT_number 2
_symmetry_cell_setting 'triclinic'
loop_
_space_group_symop_operation_xyz
x,y,z
-x,-y,-z
loop_
_atom_site_type_symbol
_atom_site_label
_atom_site_fract_x
_atom_site_fract_y
_atom_site_fract_z
Si Si1 0.530267 0.297751 0.389523
Si Si2 0.900423 0.752515 0.880307
Si Si3 0.338265 0.252079 0.022241
Si Si4 0.690606 0.136825 0.646110
Si Si5 0.360298 0.030821 0.325015
Si Si6 0.416927 0.586053 0.768417
Si Si7 0.692156 0.557443 0.082523
Si Si8 0.935824 0.130642 0.957360
O O1 0.380639 0.302653 0.247496
O O2 0.670969 0.141552 0.440873
O O3 0.432220 0.456410 0.585283
O O4 0.642691 0.286002 0.284042
O O5 0.795029 0.763500 0.994537
O O6 0.122649 0.580170 0.834545
O O7 0.895361 0.888195 0.018924
O O8 0.797099 0.791853 0.683335
O O9 0.528422 0.084578 0.883449
O O10 0.237786 0.387567 0.952455
O O11 0.753313 0.988422 0.639963
O O12 0.482560 0.298398 0.759475
O O13 0.858294 0.120751 0.743714
O O14 0.500000 0.000000 0.500000
O O15 0.243487 0.688396 0.901197
O O16 0.617010 0.501126 0.882573
O O17 0.000000 0.000000 0.000000
#
# Coordination Sequence:
#
# PCOD8044281 Si02
#       8
#     2   2   2   2   2   2   2   2
#     4  10  19  37  68  90 122 169 213 252 317 372
#     4  12  22  38  67  94 123 169 212 254 316 373
#     4  10  23  42  64  90 128 165 207 263 320 373
#     4  10  20  40  63  92 128 167 205 256 313 366
#     4  11  24  44  63  87 126 169 210 256 318 383
#     4   9  20  39  64  95 129 166 207 262 317 364
#     4   9  20  39  66  94 126 163 207 262 307 372
#     4  11  22  40  63  93 134 168 211 257 306 374
#
# _framework density 23.294637000000002
#
# number of rings (size 3 to 8) (size 9 to 14) (size 15 to 20)
#    0.000    1.750    1.250    3.750    0.000    2.000 
#    0.000   18.125    8.250    0.000    0.000    0.000 
#    0.000    0.000    0.000    0.000    0.000    0.000 
#
# Total GULP energy -198248.482593 kJ/mol
# GULP energy per Si atom -12390.530162 kJ/mol
# Density = 2.324162 g / cm^3
# Si number density = 23.294637 Si / 1000 Ang^3
#
#
#
# Elastic Constant Matrix: (Units=GPa)
#
#
# Indices 1 2 3 4 5 6 
#
# 1 143.9271 32.5862 27.5779 -18.8012 16.0585 29.6658
# 2 32.5862 106.6531 40.4375 -39.7062 4.6621 9.2734
# 3 27.5779 40.4375 92.0919 -25.1006 14.4764 1.3999
# 4 -18.8012 -39.7062 -25.1006 43.2233 7.8817 -1.6059
# 5 16.0585 4.6621 14.4764 7.8817 27.6246 -5.6945
# 6 29.6658 9.2734 1.3999 -1.6059 -5.6945 32.8820
#
#
#
# Elastic Compliance Matrix: (Units=1/GPa)
#
#
# Indices 1 2 3 4 5 6 
#
# 1 0.011547 0.000756 0.000296 0.007563 -0.011688 -0.012298
# 2 0.000756 0.016549 -0.001890 0.015659 -0.007920 -0.005875
# 3 0.000296 -0.001890 0.016091 0.009756 -0.011466 -0.001928
# 4 0.007563 0.015659 0.009756 0.051370 -0.029756 -0.014299
# 5 -0.011688 -0.007920 -0.011466 -0.029756 0.063532 0.022816
# 6 -0.012298 -0.005875 -0.001928 -0.014299 0.022816 0.046499
#
#
# Mechanical properties :
#
#
# Convention : Reuss Voigt Hill
#
# Bulk Modulus (GPa) = 23.52426 60.43058 41.97742
# Shear Modulus (GPa) = 22.57986 36.88402 29.73194
#
# Velocity S-wave (km/s) = 3.11676 3.98347 3.57647
# Velocity P-wave (km/s) = 4.80341 6.86699 5.92572
#
# Compressibility (1/GPa) = 0.04250931
#
# Stress axis : x y z
#
# Youngs Moduli (GPa) = 86.60202 60.42672 62.14682
#
# Poissons Ratio (x) = -0.04566 -0.01839
# Poissons Ratio (y) = -0.06544 0.11749
# Poissons Ratio (z) = -0.02563 0.11424
#
# Static dielectric constant tensor:
#      x y z
#    x 4.436180 0.453020 0.079070 
#    y 0.453020 4.234300 -0.289440 
#    z 0.079070 -0.289440 4.170940 
# 
# 
# High freq. dielectric constant tensor:
#      x y z
#    x 1.929150 0.031050 0.006590 
#    y 0.031050 1.916350 -0.026030 
#    z 0.006590 -0.026030 1.905980 
# 
# From -- ./inp_files/274133.got.cif
#   From: 2010.06.25/outbox.cif.g09.slc.cpg/sg2_138_cif.got.tgz:274133.got - 2010.06.27 13:26:56.
