data_PCOD8044039
_publ_section_title
;
Structure prediction by ZEFSAII (Michael W. Deem and Ramdas Pophale) SiO2 
 PCOD8044039
Probable space group: P -1
;
_chemical_formula_sum "Si O2"
_cell_formula_units_Z 16
_cell_length_a 13.031423
_cell_length_b 12.876312
_cell_length_c 12.373955
_cell_angle_alpha 98.651615
_cell_angle_beta 39.291376
_cell_angle_gamma 67.334727
_cell_volume 777.381224
_symmetry_space_group_name_H-M "P -1"
_symmetry_group_IT_number 2
_symmetry_cell_setting 'triclinic'
loop_
_space_group_symop_operation_xyz
x,y,z
-x,-y,-z
loop_
_atom_site_type_symbol
_atom_site_label
_atom_site_fract_x
_atom_site_fract_y
_atom_site_fract_z
Si Si1 0.196811 0.289443 0.922389
Si Si2 0.020589 0.515067 0.663258
Si Si3 0.921939 0.310899 0.465035
Si Si4 0.907500 0.753016 0.457863
Si Si5 0.297928 0.039913 0.926902
Si Si6 0.333894 0.591958 0.911526
Si Si7 0.397837 0.757674 0.750186
Si Si8 0.372431 0.389774 0.677623
O O1 0.278955 0.125052 0.849662
O O2 0.397114 0.257101 0.681964
O O3 0.205274 0.338570 0.041357
O O4 0.913050 0.437935 0.116948
O O5 0.007854 0.601739 0.587452
O O6 0.966954 0.426877 0.650684
O O7 0.299661 0.379486 0.478898
O O8 0.598057 0.465352 0.751576
O O9 0.034843 0.211373 0.473199
O O10 0.063521 0.179689 0.228343
O O11 0.588679 0.911676 0.723023
O O12 0.063939 0.719047 0.222541
O O13 0.245171 0.947934 0.917723
O O14 0.265801 0.732860 0.922629
O O15 0.406066 0.457332 0.754395
O O16 0.396264 0.721869 0.620184
#
# Coordination Sequence:
#
# PCOD8044039 Si02
#       8
#     2   2   2   2   2   2   2   2
#     4   9  18  35  61  88 111 146 196 243 278 339
#     4   8  16  34  58  85 108 148 200 237 269 341
#     4  10  21  38  60  84 119 156 194 236 290 341
#     4  11  20  37  62  87 114 154 198 243 283 333
#     4  10  22  40  58  88 122 150 189 237 293 351
#     4  11  22  39  59  88 118 150 200 241 279 341
#     4   9  20  36  56  83 120 155 180 233 295 350
#     4  10  19  37  63  83 114 155 197 234 286 342
#
# _framework density 20.581921999999999
#
# number of rings (size 3 to 8) (size 9 to 14) (size 15 to 20)
#    0.000    2.250    1.250    2.250    1.750    0.500 
#    2.250    1.875    0.000    0.000    0.000    0.000 
#    0.000    0.000    0.000    0.000    0.000    0.000 
#
# Total GULP energy -198287.003078 kJ/mol
# GULP energy per Si atom -12392.937692 kJ/mol
# Density = 2.053508 g / cm^3
# Si number density = 20.581922 Si / 1000 Ang^3
#
#
#
# Elastic Constant Matrix: (Units=GPa)
#
#
# Indices 1 2 3 4 5 6 
#
# 1 56.2836 34.7819 3.5183 -12.2998 10.1610 -6.8208
# 2 34.7819 128.2617 21.3085 -3.3523 16.0160 15.2025
# 3 3.5183 21.3085 55.6718 -10.0115 5.5335 1.6085
# 4 -12.2998 -3.3523 -10.0115 25.0979 -2.5911 1.7133
# 5 10.1610 16.0160 5.5335 -2.5911 20.9873 -1.7139
# 6 -6.8208 15.2025 1.6085 1.7133 -1.7139 27.7647
#
#
#
# Elastic Compliance Matrix: (Units=1/GPa)
#
#
# Indices 1 2 3 4 5 6 
#
# 1 0.027688 -0.008307 0.004011 0.012787 -0.005730 0.009975
# 2 -0.008307 0.012344 -0.004129 -0.004049 -0.005515 -0.008651
# 3 0.004011 -0.004129 0.021272 0.009492 -0.003126 0.001235
# 4 0.012787 -0.004049 0.009492 0.049298 0.000630 0.001805
# 5 -0.005730 -0.005515 -0.003126 0.000630 0.055958 0.005209
# 6 0.009975 -0.008651 0.001235 0.001805 0.005209 0.043343
#
#
# Mechanical properties :
#
#
# Convention : Reuss Voigt Hill
#
# Bulk Modulus (GPa) = 22.49694 39.93717 31.21705
# Shear Modulus (GPa) = 20.69785 26.81055 23.75420
#
# Velocity S-wave (km/s) = 3.17461 3.61311 3.40093
# Velocity P-wave (km/s) = 4.93880 6.07060 5.53371
#
# Compressibility (1/GPa) = 0.04445050
#
# Stress axis : x y z
#
# Youngs Moduli (GPa) = 36.11693 81.01341 47.01122
#
# Poissons Ratio (x) = 0.67301 -0.18854
# Poissons Ratio (y) = 0.30004 0.19413
# Poissons Ratio (z) = -0.14485 0.33454
#
# Static dielectric constant tensor:
#      x y z
#    x 3.574580 0.050000 0.178500 
#    y 0.050000 3.947720 -0.097270 
#    z 0.178500 -0.097270 3.548190 
# 
# 
# High freq. dielectric constant tensor:
#      x y z
#    x 1.798610 -0.001940 0.011990 
#    y -0.001940 1.809050 -0.011460 
#    z 0.011990 -0.011460 1.786520 
# 
# From -- ./inp_files/189234.got.cif
#   From: 2010.06.25/outbox.cif.g09.slc.cpg/sg2_95_cif.got.tgz:189234.got - 2010.06.27 13:26:56.
