data_PCOD8044069
_publ_section_title
;
Structure prediction by ZEFSAII (Michael W. Deem and Ramdas Pophale) SiO2 
 PCOD8044069
Probable space group: P -1
;
_chemical_formula_sum "Si O2"
_cell_formula_units_Z 16
_cell_length_a 23.232563
_cell_length_b 7.130375
_cell_length_c 12.169221
_cell_angle_alpha 56.430074
_cell_angle_beta 150.983110
_cell_angle_gamma 116.062848
_cell_volume 809.875539
_symmetry_space_group_name_H-M "P -1"
_symmetry_group_IT_number 2
_symmetry_cell_setting 'triclinic'
loop_
_space_group_symop_operation_xyz
x,y,z
-x,-y,-z
loop_
_atom_site_type_symbol
_atom_site_label
_atom_site_fract_x
_atom_site_fract_y
_atom_site_fract_z
Si Si1 0.542627 0.850540 0.281251
Si Si2 0.186216 0.282881 0.472033
Si Si3 0.283103 0.576533 0.361136
Si Si4 0.476422 0.899499 0.611153
Si Si5 0.666937 0.137129 0.232088
Si Si6 0.050042 0.783593 0.795797
Si Si7 0.946866 0.713116 0.411805
Si Si8 0.714641 0.627046 0.164407
O O1 0.632048 0.624042 0.489058
O O2 0.531016 0.901544 0.374956
O O3 0.587558 0.066416 0.224392
O O4 0.414169 0.814236 0.027825
O O5 0.221735 0.497703 0.394864
O O6 0.259674 0.255280 0.716522
O O7 0.044655 0.309439 0.248781
O O8 0.223609 0.054641 0.541225
O O9 0.354404 0.785313 0.444777
O O10 0.181146 0.663497 0.076781
O O11 0.500000 0.000000 0.500000
O O12 0.582146 0.707432 0.878467
O O13 0.727505 0.358910 0.292368
O O14 0.022007 0.714943 0.647943
O O15 0.043516 0.054403 0.712896
O O16 0.807878 0.693169 0.207955
O O17 0.000000 0.500000 0.500000
#
# Coordination Sequence:
#
# PCOD8044069 Si02
#       8
#     2   2   2   2   2   2   2   2
#     4  10  22  38  59  88 120 159 195 245 300 350
#     4  10  21  38  65  88 117 153 202 255 298 347
#     4  11  23  40  60  90 124 157 192 250 306 354
#     4  12  25  39  56  87 126 162 197 241 300 360
#     4  10  19  37  63  89 115 149 206 251 292 350
#     4  10  22  40  61  89 119 156 202 241 297 360
#     4  10  22  41  63  86 116 161 202 244 289 350
#     4  11  21  37  61  89 115 157 203 246 297 353
#
# _framework density 19.756121
#
# number of rings (size 3 to 8) (size 9 to 14) (size 15 to 20)
#    0.000    1.500    2.500    2.625    0.000    3.500 
#    2.250    0.000    0.000    8.250    0.000    0.000 
#    0.000    0.000    0.000    0.000    0.000    0.000 
#
# Total GULP energy -198480.803771 kJ/mol
# GULP energy per Si atom -12405.050236 kJ/mol
# Density = 1.971115 g / cm^3
# Si number density = 19.756121 Si / 1000 Ang^3
#
#
#
# Elastic Constant Matrix: (Units=GPa)
#
#
# Indices 1 2 3 4 5 6 
#
# 1 96.3201 31.6259 18.1980 -0.8046 -3.1654 -2.6683
# 2 31.6259 83.1944 10.9489 -6.1633 5.5210 0.1462
# 3 18.1980 10.9489 99.5370 3.7611 9.9568 -0.0357
# 4 -0.8046 -6.1633 3.7611 25.0502 5.7212 2.7789
# 5 -3.1654 5.5210 9.9568 5.7212 21.5146 2.3502
# 6 -2.6683 0.1462 -0.0357 2.7789 2.3502 35.1338
#
#
#
# Elastic Compliance Matrix: (Units=1/GPa)
#
#
# Indices 1 2 3 4 5 6 
#
# 1 0.012550 -0.004902 -0.002138 -0.001582 0.004427 0.000800
# 2 -0.004902 0.014655 -0.000342 0.004818 -0.005556 -0.000443
# 3 -0.002138 -0.000342 0.011018 -0.000652 -0.005180 0.000248
# 4 -0.001582 0.004818 -0.000652 0.044354 -0.012656 -0.002802
# 5 0.004427 -0.005556 -0.005180 -0.012656 0.054570 -0.002295
# 6 0.000800 -0.000443 0.000248 -0.002802 -0.002295 0.028901
#
#
# Mechanical properties :
#
#
# Convention : Reuss Voigt Hill
#
# Bulk Modulus (GPa) = 42.62840 44.51078 43.56959
# Shear Modulus (GPa) = 26.50676 30.89162 28.69919
#
# Velocity S-wave (km/s) = 3.66689 3.95859 3.81553
# Velocity P-wave (km/s) = 6.28906 6.59340 6.44303
#
# Compressibility (1/GPa) = 0.02345854
#
# Stress axis : x y z
#
# Youngs Moduli (GPa) = 79.68194 68.23668 90.76148
#
# Poissons Ratio (x) = 0.33448 0.19405
# Poissons Ratio (y) = 0.39058 0.03106
# Poissons Ratio (z) = 0.17036 0.02335
#
# Static dielectric constant tensor:
#      x y z
#    x 3.648660 0.134980 0.055540 
#    y 0.134980 3.571520 0.053920 
#    z 0.055540 0.053920 3.490330 
# 
# 
# High freq. dielectric constant tensor:
#      x y z
#    x 1.772400 0.005340 0.007020 
#    y 0.005340 1.775320 0.000890 
#    z 0.007020 0.000890 1.766990 
# 
# From -- ./inp_files/70145.got.cif
#   From: 2010.06.25/outbox.cif.g09.slc.cpg/sg2_36_cif.got.tgz:70145.got - 2010.06.27 13:26:56.
