data_PCOD8044768
_publ_section_title
;
Structure prediction by ZEFSAII (Michael W. Deem and Ramdas Pophale) SiO2 
 PCOD8044768
Probable space group: P -1
;
_chemical_formula_sum "Si O2"
_cell_formula_units_Z 14
_cell_length_a 14.442323
_cell_length_b 11.575561
_cell_length_c 12.582260
_cell_angle_alpha 94.346247
_cell_angle_beta 150.056049
_cell_angle_gamma 63.670982
_cell_volume 681.429126
_symmetry_space_group_name_H-M "P -1"
_symmetry_group_IT_number 2
_symmetry_cell_setting 'triclinic'
loop_
_space_group_symop_operation_xyz
x,y,z
-x,-y,-z
loop_
_atom_site_type_symbol
_atom_site_label
_atom_site_fract_x
_atom_site_fract_y
_atom_site_fract_z
Si Si1 0.177335 0.461982 0.333795
Si Si2 0.067762 0.995231 0.687260
Si Si3 0.392406 0.008439 0.506425
Si Si4 0.601759 0.655761 0.682704
Si Si5 0.092925 0.741430 0.815328
Si Si6 0.397329 0.176612 0.691744
Si Si7 0.312346 0.635225 0.552614
O O1 0.380251 0.375720 0.426846
O O2 0.341497 0.320897 0.581658
O O3 0.106484 0.625492 0.315585
O O4 0.905720 0.514767 0.034599
O O5 0.057002 0.884227 0.737808
O O6 0.386236 0.898049 0.002913
O O7 0.000000 0.000000 0.500000
O O8 0.841683 0.197484 0.516135
O O9 0.553130 0.011484 0.754712
O O10 0.050883 0.187008 0.203167
O O11 0.500000 0.000000 0.500000
O O12 0.455152 0.846005 0.574506
O O13 0.411682 0.645269 0.542255
O O14 0.899204 0.740400 0.554643
O O15 0.415944 0.545128 0.125855
#
# Coordination Sequence:
#
# PCOD8044768 Si02
#       7
#     2   2   2   2   2   2   2
#     4  11  22  35  64  97 138 169 208 255 320 391
#     4  12  27  47  69  91 122 172 228 278 331 374
#     4  10  19  38  66  94 137 178 201 253 315 391
#     4  11  20  38  60  99 137 177 206 249 319 394
#     4  10  23  43  67  94 133 165 214 272 316 385
#     4  10  21  43  62  94 133 165 212 266 319 377
#     4  12  23  43  65  96 129 167 217 273 314 385
#
# _framework density 20.545057
#
# number of rings (size 3 to 8) (size 9 to 14) (size 15 to 20)
#    0.857    0.286    5.714    1.286    2.000    1.143 
#    2.571    2.857    0.000    0.000    0.000    0.000 
#    0.000    0.000    0.000    0.000    0.000    0.000 
#
# Total GULP energy -173475.316631 kJ/mol
# GULP energy per Si atom -12391.094045 kJ/mol
# Density = 2.049830 g / cm^3
# Si number density = 20.545057 Si / 1000 Ang^3
#
#
#
# Elastic Constant Matrix: (Units=GPa)
#
#
# Indices 1 2 3 4 5 6 
#
# 1 30.0149 25.3591 -8.1184 -0.0458 5.4184 16.4748
# 2 25.3591 126.3472 15.6047 -4.6890 -6.2459 23.4863
# 3 -8.1184 15.6047 47.7483 1.9917 -1.9911 15.3349
# 4 -0.0458 -4.6890 1.9917 39.9032 1.9829 0.7945
# 5 5.4184 -6.2459 -1.9911 1.9829 20.3384 -0.2111
# 6 16.4748 23.4863 15.3349 0.7945 -0.2111 24.9574
#
#
#
# Elastic Compliance Matrix: (Units=1/GPa)
#
#
# Indices 1 2 3 4 5 6 
#
# 1 0.124689 -0.014393 0.058214 -0.000730 -0.032956 -0.104789
# 2 -0.014393 0.011481 -0.006933 0.001292 0.006587 0.002971
# 3 0.058214 -0.006933 0.053441 -0.001482 -0.012934 -0.064803
# 4 -0.000730 0.001292 -0.001482 0.025400 -0.002037 -0.000649
# 5 -0.032956 0.006587 -0.012934 -0.002037 0.059153 0.024069
# 6 -0.104789 0.002971 -0.064803 -0.000649 0.024069 0.146487
#
#
# Mechanical properties :
#
#
# Convention : Reuss Voigt Hill
#
# Bulk Modulus (GPa) = 3.79669 29.97792 16.88730
# Shear Modulus (GPa) = 11.50296 28.45746 19.98021
#
# Velocity S-wave (km/s) = 2.36877 3.72576 3.12189
# Velocity P-wave (km/s) = 3.05506 5.75599 4.60786
#
# Compressibility (1/GPa) = 0.26338727
#
# Stress axis : x y z
#
# Youngs Moduli (GPa) = 8.01997 87.10000 18.71207
#
# Poissons Ratio (x) = 1.25367 -1.08931
# Poissons Ratio (y) = 0.11543 0.12973
# Poissons Ratio (z) = -0.46688 0.60386
#
# Static dielectric constant tensor:
#      x y z
#    x 3.512270 0.298870 0.098530 
#    y 0.298870 3.950590 -0.116730 
#    z 0.098530 -0.116730 3.891730 
# 
# 
# High freq. dielectric constant tensor:
#      x y z
#    x 1.779220 0.028240 0.009740 
#    y 0.028240 1.819010 -0.002090 
#    z 0.009740 -0.002090 1.794620 
# 
# From -- ./inp_files/452513.got.cif
#   From: 2010.06.25/outbox.cif.g09.slc.cpg/sg2_227_cif.got.tgz:452513.got - 2010.06.27 13:26:56.
