data_PCOD8044028
_publ_section_title
;
Structure prediction by ZEFSAII (Michael W. Deem and Ramdas Pophale) SiO2 
 PCOD8044028
Probable space group: P -1
;
_chemical_formula_sum "Si O2"
_cell_formula_units_Z 16
_cell_length_a 10.569769
_cell_length_b 12.218829
_cell_length_c 12.350654
_cell_angle_alpha 49.082179
_cell_angle_beta 62.169819
_cell_angle_gamma 99.601134
_cell_volume 753.647104
_symmetry_space_group_name_H-M "P -1"
_symmetry_group_IT_number 2
_symmetry_cell_setting 'triclinic'
loop_
_space_group_symop_operation_xyz
x,y,z
-x,-y,-z
loop_
_atom_site_type_symbol
_atom_site_label
_atom_site_fract_x
_atom_site_fract_y
_atom_site_fract_z
Si Si1 0.884749 0.724915 0.898541
Si Si2 0.330314 0.774464 0.165327
Si Si3 0.063713 0.146431 0.596245
Si Si4 0.919057 0.638790 0.362988
Si Si5 0.077187 0.743099 0.600317
Si Si6 0.056419 0.679472 0.057410
Si Si7 0.531382 0.124097 0.187076
Si Si8 0.483575 0.371756 0.183252
O O1 0.997613 0.789974 0.696584
O O2 0.649126 0.519446 0.113966
O O3 0.898401 0.900178 0.819998
O O4 0.985054 0.685671 0.967210
O O5 0.276720 0.601932 0.377316
O O6 0.127066 0.717980 0.267303
O O7 0.409121 0.767159 0.024315
O O8 0.500000 0.000000 0.000000
O O9 0.103030 0.225325 0.652714
O O10 0.266135 0.220584 0.421816
O O11 0.984249 0.226536 0.507844
O O12 0.933126 0.674204 0.205040
O O13 0.972836 0.513587 0.796102
O O14 0.316951 0.890127 0.416176
O O15 0.299843 0.874026 0.845530
O O16 0.520473 0.241151 0.204006
O O17 0.500000 0.500000 0.000000
#
# Coordination Sequence:
#
# PCOD8044028 Si02
#       8
#     2   2   2   2   2   2   2   2
#     4  12  26  41  64  94 132 170 204 260 322 375
#     4  10  19  37  62  96 122 161 214 264 309 359
#     4  12  24  42  64  96 129 165 215 261 310 376
#     4  10  22  39  62  88 129 168 206 257 309 373
#     4  12  22  41  67  96 128 159 214 265 316 370
#     4  11  25  44  62  94 130 168 210 258 316 377
#     4  11  22  36  66  95 124 161 210 265 317 369
#     4  12  22  39  63  94 125 162 209 259 318 369
#
# _framework density 21.230096
#
# number of rings (size 3 to 8) (size 9 to 14) (size 15 to 20)
#    0.000    0.750    3.750    6.000    0.000    3.000 
#    0.000    0.625    0.000    0.000    0.000    0.000 
#    0.000    0.000    0.000    0.000    0.000    0.000 
#
# Total GULP energy -198454.344916 kJ/mol
# GULP energy per Si atom -12403.396557 kJ/mol
# Density = 2.118178 g / cm^3
# Si number density = 21.230096 Si / 1000 Ang^3
#
#
#
# Elastic Constant Matrix: (Units=GPa)
#
#
# Indices 1 2 3 4 5 6 
#
# 1 79.0301 8.8185 21.9344 -6.3404 -5.2949 15.8411
# 2 8.8185 126.2327 30.5526 2.7940 -9.2619 -6.6645
# 3 21.9344 30.5526 65.4758 -10.1855 -22.7831 5.5810
# 4 -6.3404 2.7940 -10.1855 28.2648 6.8888 -1.6910
# 5 -5.2949 -9.2619 -22.7831 6.8888 31.6025 -9.4335
# 6 15.8411 -6.6645 5.5810 -1.6910 -9.4335 26.4744
#
#
#
# Elastic Compliance Matrix: (Units=1/GPa)
#
#
# Indices 1 2 3 4 5 6 
#
# 1 0.016228 -0.000749 -0.005641 0.002321 -0.005180 -0.010407
# 2 -0.000749 0.009426 -0.004507 -0.002774 0.001192 0.004019
# 3 -0.005641 -0.004507 0.025224 0.004598 0.015762 0.002834
# 4 0.002321 -0.002774 0.004598 0.039249 -0.006523 -0.002874
# 5 -0.005180 0.001192 0.015762 -0.006523 0.049023 0.017128
# 6 -0.010407 0.004019 0.002834 -0.002874 0.017128 0.050333
#
#
# Mechanical properties :
#
#
# Convention : Reuss Voigt Hill
#
# Bulk Modulus (GPa) = 34.38305 43.70552 39.04429
# Shear Modulus (GPa) = 22.62734 31.23053 26.92894
#
# Velocity S-wave (km/s) = 3.26822 3.83959 3.56537
# Velocity P-wave (km/s) = 5.52017 6.34727 5.94812
#
# Compressibility (1/GPa) = 0.02908410
#
# Stress axis : x y z
#
# Youngs Moduli (GPa) = 61.62256 106.08911 39.64511
#
# Poissons Ratio (x) = 0.07949 0.22364
# Poissons Ratio (y) = 0.04617 0.17866
# Poissons Ratio (z) = 0.34761 0.47810
#
# Static dielectric constant tensor:
#      x y z
#    x 3.657750 0.126880 -0.306250 
#    y 0.126880 4.115470 0.129220 
#    z -0.306250 0.129220 4.106800 
# 
# 
# High freq. dielectric constant tensor:
#      x y z
#    x 1.807710 0.007910 -0.024700 
#    y 0.007910 1.848790 0.001240 
#    z -0.024700 0.001240 1.833710 
# 
# From -- ./inp_files/427539.got.cif
#   From: 2010.06.25/outbox.cif.g09.slc.cpg/sg2_214_cif.got.tgz:427539.got - 2010.06.27 13:26:56.
