data_PCOD8044367
_publ_section_title
;
Structure prediction by ZEFSAII (Michael W. Deem and Ramdas Pophale) SiO2 
 PCOD8044367
Probable space group: P -1
;
_chemical_formula_sum "Si O2"
_cell_formula_units_Z 14
_cell_length_a 14.635976
_cell_length_b 9.460197
_cell_length_c 12.813244
_cell_angle_alpha 127.280115
_cell_angle_beta 132.031256
_cell_angle_gamma 93.901398
_cell_volume 627.289583
_symmetry_space_group_name_H-M "P -1"
_symmetry_group_IT_number 2
_symmetry_cell_setting 'triclinic'
loop_
_space_group_symop_operation_xyz
x,y,z
-x,-y,-z
loop_
_atom_site_type_symbol
_atom_site_label
_atom_site_fract_x
_atom_site_fract_y
_atom_site_fract_z
Si Si1 0.182415 0.200464 0.067048
Si Si2 0.565313 0.664261 0.955956
Si Si3 0.265945 0.371004 0.767774
Si Si4 0.363883 0.278594 0.440124
Si Si5 0.062280 0.766524 0.628424
Si Si6 0.068852 0.820400 0.253410
Si Si7 0.277884 0.828356 0.260152
O O1 0.219826 0.227922 0.231768
O O2 0.402571 0.476151 0.306018
O O3 0.042247 0.210281 0.943946
O O4 0.074602 0.902026 0.801666
O O5 0.673269 0.606103 0.055512
O O6 0.722474 0.977895 0.156639
O O7 0.464482 0.647306 0.970908
O O8 0.375902 0.387208 0.611453
O O9 0.111182 0.357231 0.638178
O O10 0.167265 0.073475 0.519506
O O11 0.263811 0.968126 0.226705
O O12 0.000000 0.500000 0.500000
O O13 0.233999 0.868417 0.358103
O O14 0.894895 0.516989 0.051474
O O15 0.500000 0.000000 0.500000
#
# Coordination Sequence:
#
# PCOD8044367 Si02
#       7
#     2   2   2   2   2   2   2
#     4   9  20  38  60  84 118 158 197 235 292 366
#     4  10  21  40  63  83 117 162 201 246 293 352
#     4  10  21  40  64  85 114 161 206 240 294 359
#     4  10  19  38  59  85 118 160 193 237 300 346
#     4  10  22  40  60  89 120 153 201 250 300 349
#     4  10  21  37  59  90 116 149 200 239 290 359
#     4  11  21  36  59  88 123 147 188 249 295 347
#
# _framework density 22.318238000000001
#
# number of rings (size 3 to 8) (size 9 to 14) (size 15 to 20)
#    0.000    2.000    2.857    0.429    0.000    2.286 
#    2.571    0.000    0.000    0.000    0.000    0.000 
#    0.000    0.000    0.000    0.000    0.000    0.000 
#
# Total GULP energy -173534.619519 kJ/mol
# GULP energy per Si atom -12395.329966 kJ/mol
# Density = 2.226744 g / cm^3
# Si number density = 22.318238 Si / 1000 Ang^3
#
#
#
# Elastic Constant Matrix: (Units=GPa)
#
#
# Indices 1 2 3 4 5 6 
#
# 1 63.0959 24.5987 22.0266 8.6559 14.1096 -8.6082
# 2 24.5987 132.0864 54.5227 13.5175 -8.5504 0.0248
# 3 22.0266 54.5227 76.2838 1.1539 8.1290 -2.4361
# 4 8.6559 13.5175 1.1539 44.5723 7.6403 -8.5004
# 5 14.1096 -8.5504 8.1290 7.6403 32.0452 -4.0350
# 6 -8.6082 0.0248 -2.4361 -8.5004 -4.0350 24.0076
#
#
#
# Elastic Compliance Matrix: (Units=1/GPa)
#
#
# Indices 1 2 3 4 5 6 
#
# 1 0.020774 -0.003353 -0.002500 -0.000408 -0.008604 0.005608
# 2 -0.003353 0.013038 -0.009226 -0.004945 0.008156 -0.002532
# 3 -0.002500 -0.009226 0.021216 0.004324 -0.007582 0.001523
# 4 -0.000408 -0.004945 0.004324 0.026824 -0.007559 0.008525
# 5 -0.008604 0.008156 -0.007582 -0.007559 0.040939 0.000341
# 6 0.005608 -0.002532 0.001523 0.008525 0.000341 0.046897
#
#
# Mechanical properties :
#
#
# Convention : Reuss Voigt Hill
#
# Bulk Modulus (GPa) = 40.20779 52.64021 46.42400
# Shear Modulus (GPa) = 24.02295 31.47956 27.75125
#
# Velocity S-wave (km/s) = 3.28439 3.75972 3.53006
# Velocity P-wave (km/s) = 5.69541 6.51803 6.12055
#
# Compressibility (1/GPa) = 0.02487080
#
# Stress axis : x y z
#
# Youngs Moduli (GPa) = 48.13720 76.69961 47.13494
#
# Poissons Ratio (x) = 0.25719 0.11782
# Poissons Ratio (y) = 0.16142 0.43485
# Poissons Ratio (z) = 0.12032 0.70760
#
# Static dielectric constant tensor:
#      x y z
#    x 3.805280 0.157230 0.196950 
#    y 0.157230 4.206140 -0.003240 
#    z 0.196950 -0.003240 4.211810 
# 
# 
# High freq. dielectric constant tensor:
#      x y z
#    x 1.860500 0.015110 0.023600 
#    y 0.015110 1.877660 0.007050 
#    z 0.023600 0.007050 1.882910 
# 
# From -- ./inp_files/346444.got.cif
#   From: 2010.06.25/outbox.cif.g09.slc.cpg/sg2_174_cif.got.tgz:346444.got - 2010.06.27 13:26:56.
