data_PCOD8044568
_publ_section_title
;
Structure prediction by ZEFSAII (Michael W. Deem and Ramdas Pophale) SiO2 
 PCOD8044568
Probable space group: P -1
;
_chemical_formula_sum "Si O2"
_cell_formula_units_Z 12
_cell_length_a 13.258875
_cell_length_b 8.643295
_cell_length_c 9.229076
_cell_angle_alpha 108.415610
_cell_angle_beta 46.904273
_cell_angle_gamma 75.749762
_cell_volume 546.063818
_symmetry_space_group_name_H-M "P -1"
_symmetry_group_IT_number 2
_symmetry_cell_setting 'triclinic'
loop_
_space_group_symop_operation_xyz
x,y,z
-x,-y,-z
loop_
_atom_site_type_symbol
_atom_site_label
_atom_site_fract_x
_atom_site_fract_y
_atom_site_fract_z
Si Si1 0.907429 0.821306 0.126244
Si Si2 0.249085 0.832786 0.069110
Si Si3 0.627185 0.601988 0.706953
Si Si4 0.264905 0.755920 0.711237
Si Si5 0.101659 0.687766 0.386207
Si Si6 0.922811 0.608073 0.320751
O O1 0.888535 0.791304 0.305334
O O2 0.734819 0.062950 0.308408
O O3 0.071590 0.816455 0.936452
O O4 0.929810 0.635302 0.961940
O O5 0.192328 0.715548 0.174791
O O6 0.405371 0.810351 0.002965
O O7 0.339994 0.717162 0.789617
O O8 0.063285 0.086483 0.302711
O O9 0.615818 0.449430 0.573332
O O10 0.734047 0.483272 0.715627
O O11 0.724309 0.678162 0.556643
O O12 0.011160 0.595650 0.381644
#
# Coordination Sequence:
#
# PCOD8044568 Si02
#       6
#     2   2   2   2   2   2
#     4   9  18  35  64  90 117 161 202 241 303 358
#     4  11  23  40  63  92 120 161 204 246 296 362
#     4  11  24  39  64  93 121 156 205 250 298 354
#     4  10  19  38  63  88 118 160 206 245 290 362
#     4  11  23  40  63  88 125 162 197 246 306 357
#     4  10  20  37  61  91 124 157 197 252 303 352
#
# _framework density 21.975452000000001
#
# number of rings (size 3 to 8) (size 9 to 14) (size 15 to 20)
#    0.000    1.667    1.667    4.500    2.333    0.667 
#    0.000    0.833    0.000    0.000    0.000    0.000 
#    0.000    0.000    0.000    0.000    0.000    0.000 
#
# Total GULP energy -148725.732146 kJ/mol
# GULP energy per Si atom -12393.811012 kJ/mol
# Density = 2.192543 g / cm^3
# Si number density = 21.975452 Si / 1000 Ang^3
#
#
#
# Elastic Constant Matrix: (Units=GPa)
#
#
# Indices 1 2 3 4 5 6 
#
# 1 317.3378 343.8355 87.8699 -130.4626 -190.5390 19.5556
# 2 343.8355 615.1880 111.6783 -229.8854 -309.1598 38.8745
# 3 87.8699 111.6783 47.3003 -50.2824 -61.9277 3.7571
# 4 -130.4626 -229.8854 -50.2824 103.8436 130.6561 -19.7947
# 5 -190.5390 -309.1598 -61.9277 130.6561 233.3374 -32.7139
# 6 19.5556 38.8745 3.7571 -19.7947 -32.7139 40.0707
#
#
#
# Elastic Compliance Matrix: (Units=1/GPa)
#
#
# Indices 1 2 3 4 5 6 
#
# 1 0.010640 -0.004957 -0.011631 -0.006863 0.002824 -0.000378
# 2 -0.004957 0.012405 0.005603 0.022072 0.001833 0.002259
# 3 -0.011631 0.005603 0.058136 0.031299 -0.003086 0.007731
# 4 -0.006863 0.022072 0.031299 0.084478 -0.014059 0.009256
# 5 0.002824 0.001833 -0.003086 -0.014059 0.016598 0.003738
# 6 -0.000378 0.002259 0.007731 0.009256 0.003738 0.029848
#
#
# Mechanical properties :
#
#
# Convention : Reuss Voigt Hill
#
# Bulk Modulus (GPa) = 16.88821 229.62148 123.25485
# Shear Modulus (GPa) = 19.69964 104.54652 62.12308
#
# Velocity S-wave (km/s) = 2.99731 6.90489 5.32266
# Velocity P-wave (km/s) = 4.43623 12.97254 9.69451
#
# Compressibility (1/GPa) = 0.05921292
#
# Stress axis : x y z
#
# Youngs Moduli (GPa) = 93.98577 80.61003 17.20101
#
# Poissons Ratio (x) = 0.39959 0.20006
# Poissons Ratio (y) = 0.46589 -0.09639
# Poissons Ratio (z) = 1.09312 -0.45170
#
# Static dielectric constant tensor:
#      x y z
#    x 4.001740 -0.020320 0.048570 
#    y -0.020320 4.131140 0.040990 
#    z 0.048570 0.040990 3.864200 
# 
# 
# High freq. dielectric constant tensor:
#      x y z
#    x 1.869860 -0.004950 0.005350 
#    y -0.004950 1.868340 -0.008450 
#    z 0.005350 -0.008450 1.844000 
# 
# From -- ./inp_files/147786.got.cif
#   From: 2010.06.25/outbox.cif.g09.slc.cpg/sg2_74_cif.got.tgz:147786.got - 2010.06.27 13:26:56.
