data_PCOD8044692
_publ_section_title
;
Structure prediction by ZEFSAII (Michael W. Deem and Ramdas Pophale) SiO2 
 PCOD8044692
Probable space group: P -1
;
_chemical_formula_sum "Si O2"
_cell_formula_units_Z 14
_cell_length_a 7.738959
_cell_length_b 6.640433
_cell_length_c 16.237468
_cell_angle_alpha 111.328750
_cell_angle_beta 124.383342
_cell_angle_gamma 59.243649
_cell_volume 588.477864
_symmetry_space_group_name_H-M "P -1"
_symmetry_group_IT_number 2
_symmetry_cell_setting 'triclinic'
loop_
_space_group_symop_operation_xyz
x,y,z
-x,-y,-z
loop_
_atom_site_type_symbol
_atom_site_label
_atom_site_fract_x
_atom_site_fract_y
_atom_site_fract_z
Si Si1 0.130222 0.412524 0.269335
Si Si2 0.786604 0.341365 0.378830
Si Si3 0.993665 0.998283 0.145646
Si Si4 0.370694 0.527206 0.199002
Si Si5 0.637179 0.910630 0.942272
Si Si6 0.701939 0.745335 0.534936
Si Si7 0.225598 0.087959 0.756771
O O1 0.283311 0.473248 0.254782
O O2 0.292189 0.291513 0.371623
O O3 0.919774 0.651346 0.275393
O O4 0.017633 0.243824 0.175758
O O5 0.641769 0.463285 0.274845
O O6 0.670447 0.524948 0.449332
O O7 0.055225 0.267326 0.432198
O O8 0.762113 0.089892 0.341807
O O9 0.248168 0.797261 0.181659
O O10 0.878668 0.983432 0.199717
O O11 0.865977 0.955735 0.023917
O O12 0.315370 0.365821 0.092844
O O13 0.485359 0.053707 0.844489
O O14 0.500000 0.000000 0.000000
O O15 0.500000 0.000000 0.500000
#
# Coordination Sequence:
#
# PCOD8044692 Si02
#       7
#     2   2   2   2   2   2   2
#     4  11  23  39  65  94 128 166 213 268 317 370
#     4  10  22  44  64  91 131 162 213 262 316 388
#     4  10  19  38  65  88 133 170 204 264 309 368
#     4  10  22  41  63  96 126 168 216 257 319 380
#     4   9  19  38  63  92 127 173 212 254 317 375
#     4  11  24  44  69  95 122 170 217 259 329 383
#     4   9  20  40  61  93 129 164 212 258 315 376
#
# _framework density 23.790192000000001
#
# number of rings (size 3 to 8) (size 9 to 14) (size 15 to 20)
#    0.000    2.000    1.429    1.286    2.000    2.286 
#   15.429    0.000    0.000    0.000    0.000    0.000 
#    0.000    0.000    0.000    0.000    0.000    0.000 
#
# Total GULP energy -173472.464616 kJ/mol
# GULP energy per Si atom -12390.890330 kJ/mol
# Density = 2.373604 g / cm^3
# Si number density = 23.790192 Si / 1000 Ang^3
#
#
#
# Elastic Constant Matrix: (Units=GPa)
#
#
# Indices 1 2 3 4 5 6 
#
# 1 35.3866 24.8552 14.4461 -3.3398 6.5362 -11.0430
# 2 24.8552 183.1353 72.4767 9.6673 16.1622 -37.4442
# 3 14.4461 72.4767 141.9475 24.9860 20.7799 -11.1460
# 4 -3.3398 9.6673 24.9860 48.6183 -10.2098 -0.8651
# 5 6.5362 16.1622 20.7799 -10.2098 35.7352 -1.9938
# 6 -11.0430 -37.4442 -11.1460 -0.8651 -1.9938 35.0609
#
#
#
# Elastic Compliance Matrix: (Units=1/GPa)
#
#
# Indices 1 2 3 4 5 6 
#
# 1 0.033771 -0.002216 -0.001894 0.003300 -0.002707 0.007595
# 2 -0.002216 0.008781 -0.003447 -0.000248 -0.001213 0.007509
# 3 -0.001894 -0.003447 0.010963 -0.006443 -0.006384 -0.001314
# 4 0.003300 -0.000248 -0.006443 0.026424 0.010804 -0.000007
# 5 -0.002707 -0.001213 -0.006384 0.010804 0.035722 -0.001880
# 6 0.007595 0.007509 -0.001314 -0.000007 -0.001880 0.038408
#
#
# Mechanical properties :
#
#
# Convention : Reuss Voigt Hill
#
# Bulk Modulus (GPa) = 26.04124 64.89173 45.46649
# Shear Modulus (GPa) = 27.47521 40.46230 33.96876
#
# Velocity S-wave (km/s) = 3.40206 4.12855 3.78279
# Velocity P-wave (km/s) = 5.13829 7.07548 6.18322
#
# Compressibility (1/GPa) = 0.03840062
#
# Stress axis : x y z
#
# Youngs Moduli (GPa) = 29.61147 113.88458 91.21691
#
# Poissons Ratio (x) = 0.25242 0.17272
# Poissons Ratio (y) = 0.06563 0.31442
# Poissons Ratio (z) = 0.05607 0.39255
#
# Static dielectric constant tensor:
#      x y z
#    x 4.069230 -0.457740 0.422450 
#    y -0.457740 4.344830 0.062760 
#    z 0.422450 0.062760 5.065540 
# 
# 
# High freq. dielectric constant tensor:
#      x y z
#    x 1.922680 -0.032020 0.017450 
#    y -0.032020 1.946510 0.016380 
#    z 0.017450 0.016380 1.954080 
# 
# From -- ./inp_files/126964.got.cif
#   From: 2010.06.25/outbox.cif.g09.slc.cpg/sg2_64_cif.got.tgz:126964.got - 2010.06.27 13:26:56.
