data_PCOD8044149
_publ_section_title
;
Structure prediction by ZEFSAII (Michael W. Deem and Ramdas Pophale) SiO2 
 PCOD8044149
Probable space group: P -1
;
_chemical_formula_sum "Si O2"
_cell_formula_units_Z 16
_cell_length_a 21.233742
_cell_length_b 8.629470
_cell_length_c 5.756817
_cell_angle_alpha 125.446108
_cell_angle_beta 75.256696
_cell_angle_gamma 118.723798
_cell_volume 753.171037
_symmetry_space_group_name_H-M "P -1"
_symmetry_group_IT_number 2
_symmetry_cell_setting 'triclinic'
loop_
_space_group_symop_operation_xyz
x,y,z
-x,-y,-z
loop_
_atom_site_type_symbol
_atom_site_label
_atom_site_fract_x
_atom_site_fract_y
_atom_site_fract_z
Si Si1 0.880768 0.143585 0.004652
Si Si2 0.522956 0.743165 0.179066
Si Si3 0.017634 0.120602 0.839233
Si Si4 0.661307 0.022542 0.007905
Si Si5 0.169320 0.263927 0.982855
Si Si6 0.439966 0.944661 0.197456
Si Si7 0.778971 0.287972 0.470042
Si Si8 0.227825 0.032703 0.424930
O O1 0.855968 0.924660 0.974718
O O2 0.849788 0.090701 0.728285
O O3 0.967878 0.250259 0.000178
O O4 0.851505 0.298957 0.287697
O O5 0.451317 0.777248 0.209655
O O6 0.549498 0.844274 0.492678
O O7 0.500000 0.500000 0.000000
O O8 0.589139 0.847540 0.031148
O O9 0.102813 0.267564 0.896572
O O10 0.000000 0.000000 0.500000
O O11 0.000000 0.000000 0.000000
O O12 0.708056 0.899895 0.765258
O O13 0.638154 0.139687 0.924417
O O14 0.709888 0.204604 0.294995
O O15 0.208797 0.481481 0.266534
O O16 0.227215 0.234220 0.732133
O O17 0.500000 0.000000 0.000000
O O18 0.759041 0.129665 0.563406
#
# Coordination Sequence:
#
# PCOD8044149 Si02
#       8
#     2   2   2   2   2   2   2   2
#     4   9  20  38  59  84 125 162 208 270 326 370
#     4  10  21  41  66  92 119 153 200 248 305 371
#     4  10  19  37  64  92 128 172 221 281 339 389
#     4  10  21  40  59  84 127 160 196 250 317 366
#     4  10  21  38  62  86 121 165 217 259 322 379
#     4   9  20  40  62  87 121 153 185 248 300 361
#     4  10  22  39  58  88 122 165 212 261 307 387
#     4  10  20  39  58  82 122 163 203 262 312 372
#
# _framework density 21.243514999999999
#
# number of rings (size 3 to 8) (size 9 to 14) (size 15 to 20)
#    0.000    2.250    1.250    0.750    0.000    4.500 
#    0.000   30.625    0.000    0.000    0.000    0.000 
#    0.000    0.000    0.000    0.000    0.000    0.000 
#
# Total GULP energy -198232.418639 kJ/mol
# GULP energy per Si atom -12389.526165 kJ/mol
# Density = 2.119516 g / cm^3
# Si number density = 21.243515 Si / 1000 Ang^3
#
#
#
# Elastic Constant Matrix: (Units=GPa)
#
#
# Indices 1 2 3 4 5 6 
#
# 1 150.2568 31.6922 66.5621 7.5018 16.6119 -0.8440
# 2 31.6922 40.8555 52.5646 8.7271 -2.3285 0.6740
# 3 66.5621 52.5646 157.6516 8.3153 -0.6503 -10.6654
# 4 7.5018 8.7271 8.3153 35.6412 -6.9932 -1.7203
# 5 16.6119 -2.3285 -0.6503 -6.9932 42.8395 -7.7638
# 6 -0.8440 0.6740 -10.6654 -1.7203 -7.7638 22.9455
#
#
#
# Elastic Compliance Matrix: (Units=1/GPa)
#
#
# Indices 1 2 3 4 5 6 
#
# 1 0.009187 -0.003317 -0.002886 -0.001450 -0.004482 -0.002531
# 2 -0.003317 0.047867 -0.014730 -0.007847 0.000809 -0.008689
# 3 -0.002886 -0.014730 0.012863 0.001979 0.002138 0.007177
# 4 -0.001450 -0.007847 0.001979 0.031325 0.006289 0.005574
# 5 -0.004482 0.000809 0.002138 0.006289 0.028141 0.010798
# 6 -0.002531 -0.008689 0.007177 0.005574 0.010798 0.051151
#
#
# Mechanical properties :
#
#
# Convention : Reuss Voigt Hill
#
# Bulk Modulus (GPa) = 35.65044 72.26687 53.95865
# Shear Modulus (GPa) = 21.57484 33.48155 27.52820
#
# Velocity S-wave (km/s) = 3.19030 3.97430 3.60368
# Velocity P-wave (km/s) = 5.51261 7.42646 6.53992
#
# Compressibility (1/GPa) = 0.02805015
#
# Stress axis : x y z
#
# Youngs Moduli (GPa) = 108.84752 20.89125 77.74297
#
# Poissons Ratio (x) = 0.06930 0.22437
# Poissons Ratio (y) = 0.36109 1.14515
# Poissons Ratio (z) = 0.31414 0.30773
#
# Static dielectric constant tensor:
#      x y z
#    x 4.837870 -0.130500 0.014360 
#    y -0.130500 3.447120 -0.504170 
#    z 0.014360 -0.504170 4.021220 
# 
# 
# High freq. dielectric constant tensor:
#      x y z
#    x 1.864010 -0.005000 -0.001860 
#    y -0.005000 1.784190 -0.036180 
#    z -0.001860 -0.036180 1.840600 
# 
# From -- ./inp_files/10705.got.cif
#   From: 2010.06.25/outbox.cif.g09.slc.cpg/sg2_6_cif.got.tgz:10705.got - 2010.06.27 13:26:56.
