data_PCOD8044228
_publ_section_title
;
Structure prediction by ZEFSAII (Michael W. Deem and Ramdas Pophale) SiO2 
 PCOD8044228
Probable space group: P -1
;
_chemical_formula_sum "Si O2"
_cell_formula_units_Z 14
_cell_length_a 21.465175
_cell_length_b 9.165494
_cell_length_c 9.505866
_cell_angle_alpha 118.455841
_cell_angle_beta 132.056725
_cell_angle_gamma 30.540534
_cell_volume 680.129465
_symmetry_space_group_name_H-M "P -1"
_symmetry_group_IT_number 2
_symmetry_cell_setting 'triclinic'
loop_
_space_group_symop_operation_xyz
x,y,z
-x,-y,-z
loop_
_atom_site_type_symbol
_atom_site_label
_atom_site_fract_x
_atom_site_fract_y
_atom_site_fract_z
Si Si1 0.399907 0.869190 0.621935
Si Si2 0.430065 0.181290 0.334335
Si Si3 0.248250 0.166766 0.039066
Si Si4 0.987267 0.807096 0.028520
Si Si5 0.833120 0.835358 0.377978
Si Si6 0.327614 0.789471 0.206136
Si Si7 0.839342 0.161644 0.686192
O O1 0.441500 0.972646 0.652765
O O2 0.332161 0.848741 0.399591
O O3 0.545875 0.557931 0.780928
O O4 0.272325 0.105756 0.654739
O O5 0.333315 0.192050 0.124580
O O6 0.324517 0.515508 0.354280
O O7 0.500000 0.000000 0.500000
O O8 0.355532 0.890415 0.182479
O O9 0.212399 0.110147 0.827157
O O10 0.097160 0.467374 0.032968
O O11 0.837667 0.014396 0.986796
O O12 0.944859 0.916502 0.854460
O O13 0.075642 0.816303 0.238823
O O14 0.000000 0.500000 0.500000
O O15 0.815458 0.060274 0.486233
#
# Coordination Sequence:
#
# PCOD8044228 Si02
#       7
#     2   2   2   2   2   2   2
#     4  11  22  38  66  88 126 168 205 257 319 371
#     4  11  22  42  66  96 121 162 218 263 301 371
#     4  11  24  37  65  96 128 163 206 263 311 368
#     4  10  19  37  66  89 119 165 217 253 302 367
#     4  12  24  42  62  92 133 167 202 257 324 374
#     4  11  20  39  63  97 118 162 221 257 300 375
#     4  10  20  38  64  89 123 166 206 258 310 364
#
# _framework density 20.584316999999999
#
# number of rings (size 3 to 8) (size 9 to 14) (size 15 to 20)
#    0.000    1.143    5.714    1.286    0.000    1.143 
#    0.000    0.714    0.000    0.000    0.000    0.000 
#    0.000    0.000    0.000    0.000    0.000    0.000 
#
# Total GULP energy -173641.578316 kJ/mol
# GULP energy per Si atom -12402.969880 kJ/mol
# Density = 2.053747 g / cm^3
# Si number density = 20.584317 Si / 1000 Ang^3
#
#
#
# Elastic Constant Matrix: (Units=GPa)
#
#
# Indices 1 2 3 4 5 6 
#
# 1 116.9868 55.4899 26.1697 -4.2987 12.0369 -9.4760
# 2 55.4899 82.7247 38.7792 -4.5636 -2.3992 -2.8115
# 3 26.1697 38.7792 85.6362 9.4057 6.3930 4.1495
# 4 -4.2987 -4.5636 9.4057 35.1606 6.7841 4.5231
# 5 12.0369 -2.3992 6.3930 6.7841 33.7283 -10.0942
# 6 -9.4760 -2.8115 4.1495 4.5231 -10.0942 35.0762
#
#
#
# Elastic Compliance Matrix: (Units=1/GPa)
#
#
# Indices 1 2 3 4 5 6 
#
# 1 0.013604 -0.009297 0.000264 0.001295 -0.005481 0.001154
# 2 -0.009297 0.022573 -0.008231 0.002500 0.006528 0.001827
# 3 0.000264 -0.008231 0.016223 -0.004246 -0.003816 -0.003058
# 4 0.001295 0.002500 -0.004246 0.032190 -0.007530 -0.005265
# 5 -0.005481 0.006528 -0.003816 -0.007530 0.037693 0.011312
# 6 0.001154 0.001827 -0.003058 -0.005265 0.011312 0.033264
#
#
# Mechanical properties :
#
#
# Convention : Reuss Voigt Hill
#
# Bulk Modulus (GPa) = 55.95594 58.46947 57.21270
# Shear Modulus (GPa) = 25.50607 31.78694 28.64650
#
# Velocity S-wave (km/s) = 3.52391 3.93393 3.73455
# Velocity P-wave (km/s) = 6.61816 7.00721 6.81546
#
# Compressibility (1/GPa) = 0.01787120
#
# Stress axis : x y z
#
# Youngs Moduli (GPa) = 73.50824 44.30169 61.63941
#
# Poissons Ratio (x) = 0.41188 -0.01627
# Poissons Ratio (y) = 0.68342 0.50735
# Poissons Ratio (z) = -0.01940 0.36465
#
# Static dielectric constant tensor:
#      x y z
#    x 3.738720 0.043660 0.323350 
#    y 0.043660 3.681990 -0.142190 
#    z 0.323350 -0.142190 3.730060 
# 
# 
# High freq. dielectric constant tensor:
#      x y z
#    x 1.804970 0.007420 0.024030 
#    y 0.007420 1.796940 -0.023420 
#    z 0.024030 -0.023420 1.792530 
# 
# From -- ./inp_files/157463.got.cif
#   From: 2010.06.25/outbox.cif.g09.slc.cpg/sg2_79_cif.got.tgz:157463.got - 2010.06.27 13:26:56.
