data_PCOD8044612
_publ_section_title
;
Structure prediction by ZEFSAII (Michael W. Deem and Ramdas Pophale) SiO2 
 PCOD8044612
Probable space group: P -1
;
_chemical_formula_sum "Si O2"
_cell_formula_units_Z 16
_cell_length_a 9.005326
_cell_length_b 19.539417
_cell_length_c 8.438317
_cell_angle_alpha 137.425961
_cell_angle_beta 108.659805
_cell_angle_gamma 97.046975
_cell_volume 789.152761
_symmetry_space_group_name_H-M "P -1"
_symmetry_group_IT_number 2
_symmetry_cell_setting 'triclinic'
loop_
_space_group_symop_operation_xyz
x,y,z
-x,-y,-z
loop_
_atom_site_type_symbol
_atom_site_label
_atom_site_fract_x
_atom_site_fract_y
_atom_site_fract_z
Si Si1 0.074411 0.764339 0.685920
Si Si2 0.345686 0.708243 0.794559
Si Si3 0.350978 0.016169 0.064552
Si Si4 0.303288 0.468783 0.447296
Si Si5 0.404025 0.884298 0.383079
Si Si6 0.327754 0.400389 0.670746
Si Si7 0.702742 0.817293 0.893044
Si Si8 0.008521 0.796723 0.079164
O O1 0.208904 0.714970 0.633325
O O2 0.066773 0.785035 0.903649
O O3 0.857737 0.666004 0.391194
O O4 0.161773 0.886931 0.823838
O O5 0.261749 0.566123 0.539640
O O6 0.553286 0.785256 0.923685
O O7 0.356919 0.765217 0.067639
O O8 0.455245 0.094737 0.391597
O O9 0.276159 0.080393 0.041215
O O10 0.500000 0.000000 0.000000
O O11 0.500000 0.500000 0.500000
O O12 0.305932 0.472999 0.645837
O O13 0.133040 0.333220 0.103886
O O14 0.500000 0.000000 0.500000
O O15 0.210461 0.867432 0.360139
O O16 0.360870 0.302186 0.436880
O O17 0.500000 0.500000 0.000000
O O18 0.900382 0.865322 0.136264
#
# Coordination Sequence:
#
# PCOD8044612 Si02
#       8
#     2   2   2   2   2   2   2   2
#     4   9  20  39  62  82 123 155 198 241 304 348
#     4  11  19  39  65  88 115 160 201 246 300 353
#     4  12  22  41  63  88 123 163 194 249 308 351
#     4  10  19  38  64  84 119 159 193 247 300 346
#     4  11  22  40  62  88 123 153 208 252 284 365
#     4  10  23  41  59  89 126 154 197 247 295 364
#     4  10  21  39  64  87 125 160 194 248 308 348
#     4   9  20  39  62  88 122 156 204 243 298 353
#
# _framework density 20.274906999999999
#
# number of rings (size 3 to 8) (size 9 to 14) (size 15 to 20)
#    0.000    2.000    6.250    0.000    1.750    6.500 
#    2.250    3.125    0.000    0.000    0.000    0.000 
#    0.000    0.000    0.000    0.000    0.000    0.000 
#
# Total GULP energy -198283.724561 kJ/mol
# GULP energy per Si atom -12392.732785 kJ/mol
# Density = 2.022876 g / cm^3
# Si number density = 20.274907 Si / 1000 Ang^3
#
#
#
# Elastic Constant Matrix: (Units=GPa)
#
#
# Indices 1 2 3 4 5 6 
#
# 1 126.2692 43.1687 37.1171 12.8741 25.5714 -7.6052
# 2 43.1687 129.0746 34.6079 31.4202 11.4212 -17.7474
# 3 37.1171 34.6079 79.7813 10.4700 27.2384 -3.7275
# 4 12.8741 31.4202 10.4700 27.8944 3.5807 1.2421
# 5 25.5714 11.4212 27.2384 3.5807 40.0066 7.0664
# 6 -7.6052 -17.7474 -3.7275 1.2421 7.0664 40.1888
#
#
#
# Elastic Compliance Matrix: (Units=1/GPa)
#
#
# Indices 1 2 3 4 5 6 
#
# 1 0.010427 -0.001922 -0.002085 -0.001318 -0.004903 0.001834
# 2 -0.001922 0.013106 -0.002617 -0.013074 -0.000566 0.005685
# 3 -0.002085 -0.002617 0.018684 -0.001805 -0.010859 0.002148
# 4 -0.001318 -0.013074 -0.001805 0.051893 0.002617 -0.008254
# 5 -0.004903 -0.000566 -0.010859 0.002617 0.036999 -0.008771
# 6 0.001834 0.005685 0.002148 -0.008254 -0.008771 0.029737
#
#
# Mechanical properties :
#
#
# Convention : Reuss Voigt Hill
#
# Bulk Modulus (GPa) = 34.51790 62.76805 48.64298
# Shear Modulus (GPa) = 27.21090 36.30005 31.75548
#
# Velocity S-wave (km/s) = 3.66744 4.23589 3.96188
# Velocity P-wave (km/s) = 5.91569 7.41279 6.70615
#
# Compressibility (1/GPa) = 0.02897047
#
# Stress axis : x y z
#
# Youngs Moduli (GPa) = 95.90400 76.30114 53.52154
#
# Poissons Ratio (x) = 0.14661 0.11160
# Poissons Ratio (y) = 0.18428 0.14005
# Poissons Ratio (z) = 0.19997 0.19966
#
# Static dielectric constant tensor:
#      x y z
#    x 4.399190 -0.148370 0.315710 
#    y -0.148370 3.893710 0.229120 
#    z 0.315710 0.229120 3.976500 
# 
# 
# High freq. dielectric constant tensor:
#      x y z
#    x 1.805910 -0.000060 0.019220 
#    y -0.000060 1.790470 0.018230 
#    z 0.019220 0.018230 1.767460 
# 
# From -- ./inp_files/218720.got.cif
#   From: 2010.06.25/outbox.cif.g09.slc.cpg/sg2_110_cif.got.tgz:218720.got - 2010.06.27 13:26:56.
