data_PCOD8044133
_publ_section_title
;
Structure prediction by ZEFSAII (Michael W. Deem and Ramdas Pophale) SiO2 
 PCOD8044133
Probable space group: P -1
;
_chemical_formula_sum "Si O2"
_cell_formula_units_Z 16
_cell_length_a 14.514856
_cell_length_b 8.569497
_cell_length_c 15.691928
_cell_angle_alpha 92.334216
_cell_angle_beta 139.441242
_cell_angle_gamma 56.984488
_cell_volume 775.786349
_symmetry_space_group_name_H-M "P -1"
_symmetry_group_IT_number 2
_symmetry_cell_setting 'triclinic'
loop_
_space_group_symop_operation_xyz
x,y,z
-x,-y,-z
loop_
_atom_site_type_symbol
_atom_site_label
_atom_site_fract_x
_atom_site_fract_y
_atom_site_fract_z
Si Si1 0.770218 0.350618 0.451316
Si Si2 0.977775 0.696267 0.514309
Si Si3 0.457146 0.462298 0.103732
Si Si4 0.853144 0.774914 0.934473
Si Si5 0.460322 0.729237 0.381359
Si Si6 0.460642 0.191211 0.217440
Si Si7 0.845548 0.206904 0.249056
Si Si8 0.317333 0.499112 0.290950
O O1 0.543324 0.499995 0.240941
O O2 0.678249 0.543804 0.465254
O O3 0.970879 0.255907 0.535278
O O4 0.894699 0.088689 0.571771
O O5 0.000000 0.500000 0.500000
O O6 0.151439 0.617944 0.706304
O O7 0.728101 0.938050 0.382642
O O8 0.366446 0.378234 0.077402
O O9 0.667711 0.256190 0.180324
O O10 0.235700 0.725132 0.904559
O O11 0.662977 0.871381 0.869130
O O12 0.728224 0.977246 0.773738
O O13 0.000000 0.500000 0.000000
O O14 0.038463 0.724932 0.110120
O O15 0.353936 0.649565 0.304853
O O16 0.554521 0.684199 0.540536
O O17 0.420738 0.312484 0.281266
#
# Coordination Sequence:
#
# PCOD8044133 Si02
#       8
#     2   2   2   2   2   2   2   2
#     4  11  20  40  65  90 128 158 201 263 301 371
#     4  11  21  38  62  93 129 159 196 251 318 371
#     4  10  19  37  64  89 121 165 212 243 300 370
#     4  10  24  42  60  87 125 167 204 258 310 362
#     4  11  22  42  68  95 122 161 212 263 308 366
#     4  11  20  43  62  88 130 166 200 255 312 367
#     4  10  20  37  64  89 121 168 207 246 303 369
#     4  10  23  43  66  93 120 162 217 261 306 362
#
# _framework density 20.624234000000001
#
# number of rings (size 3 to 8) (size 9 to 14) (size 15 to 20)
#    0.000    1.500    3.750    1.875    0.000    3.000 
#   18.000    1.875    0.000    0.000    0.000    0.000 
#    0.000    0.000    0.000    0.000    0.000    0.000 
#
# Total GULP energy -198272.877041 kJ/mol
# GULP energy per Si atom -12392.054815 kJ/mol
# Density = 2.057729 g / cm^3
# Si number density = 20.624234 Si / 1000 Ang^3
#
#
#
# Elastic Constant Matrix: (Units=GPa)
#
#
# Indices 1 2 3 4 5 6 
#
# 1 139.0295 35.9318 78.5081 -0.8446 1.2622 2.7544
# 2 35.9318 81.6610 57.9693 -7.7421 -16.3178 3.1190
# 3 78.5081 57.9693 137.1647 -1.6029 -10.9372 0.5315
# 4 -0.8446 -7.7421 -1.6029 20.5599 3.5491 -2.5370
# 5 1.2622 -16.3178 -10.9372 3.5491 38.3580 0.6041
# 6 2.7544 3.1190 0.5315 -2.5370 0.6041 30.1215
#
#
#
# Elastic Compliance Matrix: (Units=1/GPa)
#
#
# Indices 1 2 3 4 5 6 
#
# 1 0.010874 -0.001000 -0.005996 -0.000061 -0.002476 -0.000740
# 2 -0.001000 0.019490 -0.007131 0.005562 0.005799 -0.001449
# 3 -0.005996 -0.007131 0.013812 -0.001969 0.001271 0.000852
# 4 -0.000061 0.005562 -0.001969 0.051577 -0.003026 0.003869
# 5 -0.002476 0.005799 0.001271 -0.003026 0.029280 -0.001239
# 6 -0.000740 -0.001449 0.000852 0.003869 -0.001239 0.033752
#
#
# Mechanical properties :
#
#
# Convention : Reuss Voigt Hill
#
# Bulk Modulus (GPa) = 62.81718 78.07483 70.44601
# Shear Modulus (GPa) = 25.99466 30.17094 28.08280
#
# Velocity S-wave (km/s) = 3.55405 3.82892 3.69405
# Velocity P-wave (km/s) = 6.88228 7.58192 7.24056
#
# Compressibility (1/GPa) = 0.01591921
#
# Stress axis : x y z
#
# Youngs Moduli (GPa) = 91.96129 51.30933 72.40310
#
# Poissons Ratio (x) = 0.05132 0.43417
# Poissons Ratio (y) = 0.09198 0.51633
# Poissons Ratio (z) = 0.55145 0.36590
#
# Static dielectric constant tensor:
#      x y z
#    x 4.286890 0.096510 0.244680 
#    y 0.096510 3.386510 0.129570 
#    z 0.244680 0.129570 3.919480 
# 
# 
# High freq. dielectric constant tensor:
#      x y z
#    x 1.821570 0.000530 0.008620 
#    y 0.000530 1.784140 -0.003540 
#    z 0.008620 -0.003540 1.803720 
# 
# From -- ./inp_files/308839.got.cif
#   From: 2010.06.25/outbox.cif.g09.slc.cpg/sg2_155_cif.got.tgz:308839.got - 2010.06.27 13:26:56.
