data_PCOD8044301
_publ_section_title
;
Structure prediction by ZEFSAII (Michael W. Deem and Ramdas Pophale) SiO2 
 PCOD8044301
Probable space group: P -1
;
_chemical_formula_sum "Si O2"
_cell_formula_units_Z 16
_cell_length_a 20.791232
_cell_length_b 9.484631
_cell_length_c 17.548079
_cell_angle_alpha 45.151353
_cell_angle_beta 161.034580
_cell_angle_gamma 136.084929
_cell_volume 775.610768
_symmetry_space_group_name_H-M "P -1"
_symmetry_group_IT_number 2
_symmetry_cell_setting 'triclinic'
loop_
_space_group_symop_operation_xyz
x,y,z
-x,-y,-z
loop_
_atom_site_type_symbol
_atom_site_label
_atom_site_fract_x
_atom_site_fract_y
_atom_site_fract_z
Si Si1 0.236771 0.162136 0.964311
Si Si2 0.965049 0.565688 0.020328
Si Si3 0.654830 0.110388 0.692408
Si Si4 0.374926 0.195313 0.479119
Si Si5 0.455836 0.071826 0.006779
Si Si6 0.202172 0.805548 0.526575
Si Si7 0.279081 0.805860 0.035746
Si Si8 0.590328 0.502388 0.182685
O O1 0.026817 0.226065 0.687607
O O2 0.283382 0.015914 0.005636
O O3 0.420128 0.362282 0.099218
O O4 0.224418 0.045740 0.075308
O O5 0.922292 0.370990 0.104294
O O6 0.174313 0.716231 0.224532
O O7 0.772799 0.665201 0.765052
O O8 0.000000 0.500000 0.000000
O O9 0.528164 0.197764 0.580179
O O10 0.500000 0.000000 0.500000
O O11 0.244976 0.975589 0.443462
O O12 0.525251 0.281752 0.685614
O O13 0.652675 0.135972 0.258653
O O14 0.351957 0.266536 0.807699
O O15 0.500000 0.000000 0.000000
O O16 0.298214 0.875297 0.942432
O O17 0.217563 0.598910 0.577192
O O18 0.500000 0.500000 0.000000
#
# Coordination Sequence:
#
# PCOD8044301 Si02
#       8
#     2   2   2   2   2   2   2   2
#     4  11  19  40  66  91 120 162 227 253 303 394
#     4  12  21  37  66  95 122 170 216 254 316 390
#     4  11  24  40  60  93 134 165 203 267 322 370
#     4  10  19  38  62  90 126 164 211 262 305 383
#     4  10  22  42  62  92 133 163 206 275 329 360
#     4  10  19  37  70  91 116 169 215 258 308 387
#     4  10  20  38  63  91 126 163 221 261 308 390
#     4  10  19  38  65  89 120 165 214 265 315 374
#
# _framework density 20.628903999999999
#
# number of rings (size 3 to 8) (size 9 to 14) (size 15 to 20)
#    0.000    1.500    8.750    0.375    0.000    2.500 
#    2.250    0.625    2.750    0.000    0.000    0.000 
#    0.000    0.000    0.000    0.000    0.000    0.000 
#
# Total GULP energy -198255.520323 kJ/mol
# GULP energy per Si atom -12390.970020 kJ/mol
# Density = 2.058195 g / cm^3
# Si number density = 20.628904 Si / 1000 Ang^3
#
#
#
# Elastic Constant Matrix: (Units=GPa)
#
#
# Indices 1 2 3 4 5 6 
#
# 1 116.5821 67.7143 31.8708 -2.0707 6.2481 19.3025
# 2 67.7143 120.6790 36.8530 -3.8522 0.3024 15.0588
# 3 31.8708 36.8530 90.7432 -3.8007 21.7132 -1.2316
# 4 -2.0707 -3.8522 -3.8007 29.4848 -0.4912 8.6185
# 5 6.2481 0.3024 21.7132 -0.4912 24.2886 1.3289
# 6 19.3025 15.0588 -1.2316 8.6185 1.3289 29.4322
#
#
#
# Elastic Compliance Matrix: (Units=1/GPa)
#
#
# Indices 1 2 3 4 5 6 
#
# 1 0.014007 -0.006374 -0.002029 0.001757 -0.001320 -0.006465
# 2 -0.006374 0.013877 -0.004809 0.002010 0.006024 -0.003982
# 3 -0.002029 -0.004809 0.017397 -0.000334 -0.015267 0.005306
# 4 0.001757 0.002010 -0.000334 0.038211 0.001329 -0.013444
# 5 -0.001320 0.006024 -0.015267 0.001329 0.055426 -0.005747
# 6 -0.006465 -0.003982 0.005306 -0.013444 -0.005747 0.044672
#
#
# Mechanical properties :
#
#
# Convention : Reuss Voigt Hill
#
# Bulk Modulus (GPa) = 53.02751 66.76452 59.89601
# Shear Modulus (GPa) = 23.11628 29.41220 26.26424
#
# Velocity S-wave (km/s) = 3.35113 3.78004 3.57203
# Velocity P-wave (km/s) = 6.38238 7.17540 6.79048
#
# Compressibility (1/GPa) = 0.01885814
#
# Stress axis : x y z
#
# Youngs Moduli (GPa) = 71.39457 72.06120 57.48136
#
# Poissons Ratio (x) = 0.45928 0.11664
# Poissons Ratio (y) = 0.45504 0.27640
# Poissons Ratio (z) = 0.14487 0.34651
#
# Static dielectric constant tensor:
#      x y z
#    x 3.688180 0.540710 0.191030 
#    y 0.540710 4.392160 -0.725060 
#    z 0.191030 -0.725060 3.905400 
# 
# 
# High freq. dielectric constant tensor:
#      x y z
#    x 1.796370 0.028140 0.020100 
#    y 0.028140 1.805330 -0.018980 
#    z 0.020100 -0.018980 1.791860 
# 
# From -- ./inp_files/577583.got.cif
#   From: 2010.06.25/outbox.cif.g09.slc.cpg/sg2_289_cif.got.tgz:577583.got - 2010.06.27 13:26:56.
