data_PCOD8044445
_publ_section_title
;
Structure prediction by ZEFSAII (Michael W. Deem and Ramdas Pophale) SiO2 
 PCOD8044445
Probable space group: P -1
;
_chemical_formula_sum "Si O2"
_cell_formula_units_Z 16
_cell_length_a 14.739365
_cell_length_b 15.819174
_cell_length_c 9.514851
_cell_angle_alpha 141.305752
_cell_angle_beta 142.312072
_cell_angle_gamma 49.711123
_cell_volume 845.478378
_symmetry_space_group_name_H-M "P -1"
_symmetry_group_IT_number 2
_symmetry_cell_setting 'triclinic'
loop_
_space_group_symop_operation_xyz
x,y,z
-x,-y,-z
loop_
_atom_site_type_symbol
_atom_site_label
_atom_site_fract_x
_atom_site_fract_y
_atom_site_fract_z
Si Si1 0.728733 0.356823 0.882510
Si Si2 0.855294 0.852061 0.553701
Si Si3 0.833307 0.374266 0.724974
Si Si4 0.309078 0.340375 0.712709
Si Si5 0.382570 0.365778 0.522327
Si Si6 0.839703 0.679491 0.044378
Si Si7 0.368131 0.669596 0.831790
Si Si8 0.815414 0.153783 0.956610
O O1 0.785399 0.326884 0.756639
O O2 0.554024 0.335929 0.652778
O O3 0.765579 0.507186 0.169149
O O4 0.823774 0.249523 0.955885
O O5 0.803895 0.764166 0.507247
O O6 0.807934 0.794526 0.271373
O O7 0.032667 0.849391 0.774019
O O8 0.780255 0.004026 0.670687
O O9 0.716381 0.314639 0.398328
O O10 0.998435 0.311090 0.812556
O O11 0.826127 0.536592 0.919300
O O12 0.352223 0.304896 0.558750
O O13 0.456136 0.325248 0.971674
O O14 0.336979 0.526853 0.681612
O O15 0.282765 0.294796 0.193866
O O16 0.315253 0.790270 0.027796
#
# Coordination Sequence:
#
# PCOD8044445 Si02
#       8
#     2   2   2   2   2   2   2   2
#     4  11  21  38  62  90 116 154 196 239 293 339
#     4  11  25  40  60  85 120 159 191 236 297 348
#     4  10  21  34  62  89 116 155 192 241 293 339
#     4  11  21  37  63  92 113 151 201 243 283 343
#     4  10  21  35  61  93 122 142 192 256 288 330
#     4  10  21  38  55  90 123 147 195 244 288 341
#     4  10  19  38  61  86 122 152 191 242 291 338
#     4  11  23  43  59  82 123 156 193 240 289 353
#
# _framework density 18.924196999999999
#
# number of rings (size 3 to 8) (size 9 to 14) (size 15 to 20)
#    0.000    1.500    5.000    0.750    3.500    2.500 
#    0.000    2.500    0.000    0.000    0.000    0.000 
#    0.000    0.000    0.000    0.000    0.000    0.000 
#
# Total GULP energy -198477.025936 kJ/mol
# GULP energy per Si atom -12404.814121 kJ/mol
# Density = 1.888113 g / cm^3
# Si number density = 18.924197 Si / 1000 Ang^3
#
#
#
# Elastic Constant Matrix: (Units=GPa)
#
#
# Indices 1 2 3 4 5 6 
#
# 1 87.0797 23.2856 26.1401 14.5068 -19.6637 9.3599
# 2 23.2856 81.2900 37.7034 11.2905 -10.9179 -0.1411
# 3 26.1401 37.7034 98.2470 7.3727 -17.1116 -2.6580
# 4 14.5068 11.2905 7.3727 27.8317 -0.9697 -1.4258
# 5 -19.6637 -10.9179 -17.1116 -0.9697 28.8686 -0.6418
# 6 9.3599 -0.1411 -2.6580 -1.4258 -0.6418 22.4397
#
#
#
# Elastic Compliance Matrix: (Units=1/GPa)
#
#
# Indices 1 2 3 4 5 6 
#
# 1 0.016593 -0.001639 -0.001818 -0.007560 0.009188 -0.007364
# 2 -0.001639 0.015940 -0.005057 -0.004212 0.001772 -0.000032
# 3 -0.001818 -0.005057 0.013549 -0.000293 0.004925 0.002453
# 4 -0.007560 -0.004212 -0.000293 0.041756 -0.005389 0.005591
# 5 0.009188 0.001772 0.004925 -0.005389 0.044255 -0.002314
# 6 -0.007364 -0.000032 0.002453 0.005591 -0.002314 0.048215
#
#
# Mechanical properties :
#
#
# Convention : Reuss Voigt Hill
#
# Bulk Modulus (GPa) = 34.41813 48.98611 41.70212
# Shear Modulus (GPa) = 24.15229 27.79383 25.97306
#
# Velocity S-wave (km/s) = 3.57636 3.83651 3.70872
# Velocity P-wave (km/s) = 5.93975 6.75031 6.35796
#
# Compressibility (1/GPa) = 0.02905446
#
# Stress axis : x y z
#
# Youngs Moduli (GPa) = 60.26548 62.73654 73.80665
#
# Poissons Ratio (x) = 0.10282 0.13416
# Poissons Ratio (y) = 0.09877 0.37325
# Poissons Ratio (z) = 0.10954 0.31726
#
# Static dielectric constant tensor:
#      x y z
#    x 3.366350 -0.037950 -0.038040 
#    y -0.037950 3.364880 -0.123240 
#    z -0.038040 -0.123240 3.486600 
# 
# 
# High freq. dielectric constant tensor:
#      x y z
#    x 1.739740 -0.006420 -0.006840 
#    y -0.006420 1.716350 -0.016520 
#    z -0.006840 -0.016520 1.733510 
# 
# From -- ./inp_files/175005.got.cif
#   From: 2010.06.25/outbox.cif.g09.slc.cpg/sg2_88_cif.got.tgz:175005.got - 2010.06.27 13:26:56.
