data_PCOD8044626
_publ_section_title
;
Structure prediction by ZEFSAII (Michael W. Deem and Ramdas Pophale) SiO2 
 PCOD8044626
Probable space group: P -1
;
_chemical_formula_sum "Si O2"
_cell_formula_units_Z 16
_cell_length_a 13.838308
_cell_length_b 8.321109
_cell_length_c 10.559183
_cell_angle_alpha 46.375063
_cell_angle_beta 95.932868
_cell_angle_gamma 117.602973
_cell_volume 734.286995
_symmetry_space_group_name_H-M "P -1"
_symmetry_group_IT_number 2
_symmetry_cell_setting 'triclinic'
loop_
_space_group_symop_operation_xyz
x,y,z
-x,-y,-z
loop_
_atom_site_type_symbol
_atom_site_label
_atom_site_fract_x
_atom_site_fract_y
_atom_site_fract_z
Si Si1 0.595662 0.316737 0.073067
Si Si2 0.091182 0.030976 0.721181
Si Si3 0.152518 0.334801 0.038427
Si Si4 0.967301 0.575900 0.583331
Si Si5 0.430592 0.382966 0.859285
Si Si6 0.820123 0.177974 0.353114
Si Si7 0.169737 0.990601 0.022623
Si Si8 0.560547 0.901100 0.471759
O O1 0.577073 0.451540 0.117876
O O2 0.568406 0.025972 0.266083
O O3 0.730546 0.505786 0.948411
O O4 0.514040 0.283411 0.964078
O O5 0.108597 0.300220 0.523743
O O6 0.173591 0.964310 0.694660
O O7 0.956879 0.790025 0.814509
O O8 0.119269 0.058931 0.858675
O O9 0.144346 0.096847 0.088076
O O10 0.149355 0.530005 0.831307
O O11 0.088028 0.796601 0.546086
O O12 0.000000 0.500000 0.500000
O O13 0.890156 0.323410 0.800579
O O14 0.485372 0.580461 0.637926
O O15 0.306921 0.127969 0.945419
O O16 0.689735 0.004497 0.484572
O O17 0.500000 0.000000 0.500000
#
# Coordination Sequence:
#
# PCOD8044626 Si02
#       8
#     2   2   2   2   2   2   2   2
#     4   8  17  31  55  89 113 150 207 257 301 351
#     4  12  24  41  62  93 134 171 203 264 320 377
#     4  10  19  38  64  89 125 166 209 258 310 377
#     4  12  25  40  64  95 128 168 213 261 310 381
#     4   9  18  33  58  84 117 156 202 260 300 357
#     4  11  24  41  64  97 127 164 213 263 324 372
#     4  11  23  41  62  95 130 168 213 255 319 374
#     4   9  19  37  60  88 117 158 210 262 303 366
#
# _framework density 21.789845
#
# number of rings (size 3 to 8) (size 9 to 14) (size 15 to 20)
#    0.000    1.750    2.500    2.625    1.750    3.000 
#    0.000    0.625    0.000    3.750    0.000    0.000 
#    0.000    0.000    0.000    0.000    0.000    0.000 
#
# Total GULP energy -198403.715882 kJ/mol
# GULP energy per Si atom -12400.232243 kJ/mol
# Density = 2.174025 g / cm^3
# Si number density = 21.789845 Si / 1000 Ang^3
#
#
#
# Elastic Constant Matrix: (Units=GPa)
#
#
# Indices 1 2 3 4 5 6 
#
# 1 130.0968 36.1364 59.5153 -6.3926 -8.1027 30.4560
# 2 36.1364 38.1873 25.2109 -5.2052 -2.8994 12.4933
# 3 59.5153 25.2109 118.7102 -12.5453 7.2919 25.5956
# 4 -6.3926 -5.2052 -12.5453 19.5163 9.1332 -1.3678
# 5 -8.1027 -2.8994 7.2919 9.1332 35.4501 4.9973
# 6 30.4560 12.4933 25.5956 -1.3678 4.9973 33.5574
#
#
#
# Elastic Compliance Matrix: (Units=1/GPa)
#
#
# Indices 1 2 3 4 5 6 
#
# 1 0.013662 -0.007799 -0.004336 -0.003342 0.005239 -0.007105
# 2 -0.007799 0.037655 -0.002578 0.004891 0.001267 -0.004964
# 3 -0.004336 -0.002578 0.013292 0.008788 -0.005630 -0.004047
# 4 -0.003342 0.004891 0.008788 0.066091 -0.019208 0.000064
# 5 0.005239 0.001267 -0.005630 -0.019208 0.036627 -0.007170
# 6 -0.007105 -0.004964 -0.004047 0.000064 -0.007170 0.042253
#
#
# Mechanical properties :
#
#
# Convention : Reuss Voigt Hill
#
# Bulk Modulus (GPa) = 28.42193 58.74660 43.58427
# Shear Modulus (GPa) = 19.94142 28.78022 24.36082
#
# Velocity S-wave (km/s) = 3.02846 3.63824 3.34726
# Velocity P-wave (km/s) = 5.02998 6.68342 5.91476
#
# Compressibility (1/GPa) = 0.03518409
#
# Stress axis : x y z
#
# Youngs Moduli (GPa) = 73.19649 26.55666 75.23127
#
# Poissons Ratio (x) = 0.20711 0.32622
# Poissons Ratio (y) = 0.57084 0.19393
# Poissons Ratio (z) = 0.31740 0.06846
#
# Static dielectric constant tensor:
#      x y z
#    x 4.130970 0.279470 0.044460 
#    y 0.279470 3.421490 -0.158160 
#    z 0.044460 -0.158160 4.282600 
# 
# 
# High freq. dielectric constant tensor:
#      x y z
#    x 1.865370 0.017320 0.005150 
#    y 0.017320 1.809920 -0.009200 
#    z 0.005150 -0.009200 1.866710 
# 
# From -- ./inp_files/446650.got.cif
#   From: 2010.06.25/outbox.cif.g09.slc.cpg/sg2_224_cif.got.tgz:446650.got - 2010.06.27 13:26:56.
