data_PCOD8044139
_publ_section_title
;
Structure prediction by ZEFSAII (Michael W. Deem and Ramdas Pophale) SiO2 
 PCOD8044139
Probable space group: P -1
;
_chemical_formula_sum "Si O2"
_cell_formula_units_Z 14
_cell_length_a 22.213243
_cell_length_b 18.477837
_cell_length_c 8.849143
_cell_angle_alpha 140.377699
_cell_angle_beta 48.104509
_cell_angle_gamma 162.649183
_cell_volume 645.882650
_symmetry_space_group_name_H-M "P -1"
_symmetry_group_IT_number 2
_symmetry_cell_setting 'triclinic'
loop_
_space_group_symop_operation_xyz
x,y,z
-x,-y,-z
loop_
_atom_site_type_symbol
_atom_site_label
_atom_site_fract_x
_atom_site_fract_y
_atom_site_fract_z
Si Si1 0.312187 0.777576 0.841273
Si Si2 0.633465 0.902811 0.835322
Si Si3 0.952147 0.109215 0.104090
Si Si4 0.403755 0.683177 0.377852
Si Si5 0.919592 0.123542 0.519907
Si Si6 0.754981 0.630234 0.556104
Si Si7 0.176200 0.829242 0.726028
O O1 0.372409 0.778983 0.596906
O O2 0.088533 0.446625 0.756103
O O3 0.500000 0.000000 0.000000
O O4 0.276785 0.860835 0.991764
O O5 0.375401 0.559790 0.687824
O O6 0.717035 0.904645 0.600654
O O7 0.702897 0.982567 0.019544
O O8 0.856794 0.004895 0.264468
O O9 0.950264 0.224253 0.201536
O O10 0.196503 0.375495 0.130148
O O11 0.800798 0.822456 0.812181
O O12 0.388454 0.605783 0.444300
O O13 0.635777 0.957659 0.363411
O O14 0.021556 0.147994 0.474372
O O15 0.000000 0.500000 0.500000
#
# Coordination Sequence:
#
# PCOD8044139 Si02
#       7
#     2   2   2   2   2   2   2
#     4  10  19  37  64  91 120 159 214 266 307 352
#     4  12  24  38  61  96 130 166 209 258 316 379
#     4  10  23  44  67  94 124 167 216 261 316 373
#     4  10  22  43  68  91 126 167 211 265 315 368
#     4  10  21  38  67  92 122 162 215 271 310 359
#     4  10  22  43  69  95 120 163 223 269 306 363
#     4  12  28  42  61  94 136 173 204 251 324 391
#
# _framework density 21.675764000000001
#
# number of rings (size 3 to 8) (size 9 to 14) (size 15 to 20)
#    0.000    1.714    2.857    4.714    2.000    7.429 
#    0.000    1.429    0.000    0.000    0.000    0.000 
#    0.000    0.000    0.000    0.000    0.000    0.000 
#
# Total GULP energy -173549.601102 kJ/mol
# GULP energy per Si atom -12396.400079 kJ/mol
# Density = 2.162643 g / cm^3
# Si number density = 21.675764 Si / 1000 Ang^3
#
#
#
# Elastic Constant Matrix: (Units=GPa)
#
#
# Indices 1 2 3 4 5 6 
#
# 1 92.8267 15.9419 35.4015 1.2432 4.5387 15.6372
# 2 15.9419 56.4060 8.3311 -2.0432 -9.2761 4.2169
# 3 35.4015 8.3311 116.8032 18.6974 -1.2334 3.9449
# 4 1.2432 -2.0432 18.6974 23.7681 9.2454 -0.1979
# 5 4.5387 -9.2761 -1.2334 9.2454 45.1982 2.9256
# 6 15.6372 4.2169 3.9449 -0.1979 2.9256 16.0837
#
#
#
# Elastic Compliance Matrix: (Units=1/GPa)
#
#
# Indices 1 2 3 4 5 6 
#
# 1 0.015142 -0.002914 -0.004497 0.003205 -0.002092 -0.012435
# 2 -0.002914 0.019580 -0.000437 0.000442 0.004402 -0.002989
# 3 -0.004497 -0.000437 0.011530 -0.009887 0.002630 0.001058
# 4 0.003205 0.000442 -0.009887 0.054304 -0.011738 0.001996
# 5 -0.002092 0.004402 0.002630 -0.011738 0.026012 -0.004641
# 6 -0.012435 -0.002989 0.001058 0.001996 -0.004641 0.075658
#
#
# Mechanical properties :
#
#
# Convention : Reuss Voigt Hill
#
# Bulk Modulus (GPa) = 32.72468 42.82054 37.77261
# Shear Modulus (GPa) = 21.91963 30.76743 26.34353
#
# Velocity S-wave (km/s) = 3.18347 3.77163 3.48996
# Velocity P-wave (km/s) = 5.35189 6.22614 5.80550
#
# Compressibility (1/GPa) = 0.03055797
#
# Stress axis : x y z
#
# Youngs Moduli (GPa) = 66.04044 51.07242 86.72879
#
# Poissons Ratio (x) = 0.14881 0.39000
# Poissons Ratio (y) = 0.19242 0.03788
# Poissons Ratio (z) = 0.29697 0.02231
#
# Static dielectric constant tensor:
#      x y z
#    x 3.962450 0.108910 -0.254040 
#    y 0.108910 3.734150 0.242760 
#    z -0.254040 0.242760 4.195660 
# 
# 
# High freq. dielectric constant tensor:
#      x y z
#    x 1.850600 0.026890 -0.002270 
#    y 0.026890 1.825630 0.010290 
#    z -0.002270 0.010290 1.865430 
# 
# From -- ./inp_files/255762.got.cif
#   From: 2010.06.25/outbox.cif.g09.slc.cpg/sg2_128_cif.got.tgz:255762.got - 2010.06.27 13:26:56.
