data_PCOD8044577
_publ_section_title
;
Structure prediction by ZEFSAII (Michael W. Deem and Ramdas Pophale) SiO2 
 PCOD8044577
Probable space group: P -1
;
_chemical_formula_sum "Si O2"
_cell_formula_units_Z 16
_cell_length_a 8.547994
_cell_length_b 9.869413
_cell_length_c 13.616990
_cell_angle_alpha 131.645569
_cell_angle_beta 91.971765
_cell_angle_gamma 69.979180
_cell_volume 775.466536
_symmetry_space_group_name_H-M "P -1"
_symmetry_group_IT_number 2
_symmetry_cell_setting 'triclinic'
loop_
_space_group_symop_operation_xyz
x,y,z
-x,-y,-z
loop_
_atom_site_type_symbol
_atom_site_label
_atom_site_fract_x
_atom_site_fract_y
_atom_site_fract_z
Si Si1 0.306416 0.761326 0.547050
Si Si2 0.782266 0.516834 0.087094
Si Si3 0.558440 0.342400 0.291381
Si Si4 0.187496 0.862711 0.980887
Si Si5 0.326764 0.124818 0.614622
Si Si6 0.848146 0.526566 0.881216
Si Si7 0.334530 0.152596 0.121938
Si Si8 0.972959 0.216909 0.578613
O O1 0.477705 0.583497 0.417140
O O2 0.318234 0.761499 0.664412
O O3 0.134122 0.728427 0.499835
O O4 0.290234 0.975969 0.614842
O O5 0.808993 0.296214 0.014367
O O6 0.647663 0.700275 0.238855
O O7 0.957971 0.541563 0.111805
O O8 0.727946 0.547746 0.985032
O O9 0.677142 0.268582 0.162658
O O10 0.393813 0.284162 0.259303
O O11 0.247167 0.022350 0.110996
O O12 0.000000 0.000000 0.000000
O O13 0.159640 0.227808 0.586323
O O14 0.500000 0.000000 0.500000
O O15 0.789847 0.725831 0.911287
O O16 0.844022 0.356557 0.727140
O O17 0.500000 0.000000 0.000000
O O18 0.000000 0.000000 0.500000
#
# Coordination Sequence:
#
# PCOD8044577 Si02
#       8
#     2   2   2   2   2   2   2   2
#     4  10  20  39  63  86 111 164 210 248 291 366
#     4  10  22  36  63  94 120 161 197 253 304 363
#     4  10  22  38  63  86 119 159 211 246 301 362
#     4  11  22  38  60  89 125 157 197 251 311 363
#     4  10  21  37  61  88 129 156 195 252 312 355
#     4  10  19  38  63  90 122 153 210 246 300 367
#     4  10  21  37  61  84 123 161 196 249 301 361
#     4   9  19  36  62  86 115 158 201 251 295 358
#
# _framework density 20.632739999999998
#
# number of rings (size 3 to 8) (size 9 to 14) (size 15 to 20)
#    0.000    2.000    2.500    0.750    3.500    2.000 
#    0.000    6.250    0.000    4.500    0.000    0.000 
#    0.000    0.000    0.000    0.000    0.000    0.000 
#
# Total GULP energy -198226.666143 kJ/mol
# GULP energy per Si atom -12389.166634 kJ/mol
# Density = 2.058578 g / cm^3
# Si number density = 20.632740 Si / 1000 Ang^3
#
#
#
# Elastic Constant Matrix: (Units=GPa)
#
#
# Indices 1 2 3 4 5 6 
#
# 1 59.6201 20.3608 19.0191 -7.3167 7.7886 -3.6981
# 2 20.3608 100.4448 36.7009 1.0120 16.0905 -0.6527
# 3 19.0191 36.7009 88.2547 6.2639 5.6124 4.2635
# 4 -7.3167 1.0120 6.2639 39.5226 -3.4268 7.0631
# 5 7.7886 16.0905 5.6124 -3.4268 33.0765 3.8175
# 6 -3.6981 -0.6527 4.2635 7.0631 3.8175 31.3272
#
#
#
# Elastic Compliance Matrix: (Units=1/GPa)
#
#
# Indices 1 2 3 4 5 6 
#
# 1 0.019604 -0.002280 -0.003462 0.003587 -0.002810 0.002272
# 2 -0.002280 0.012943 -0.004576 -0.000736 -0.005224 0.001426
# 3 -0.003462 -0.004576 0.014204 -0.002368 0.000614 -0.001978
# 4 0.003587 -0.000736 -0.002368 0.027723 0.003474 -0.005943
# 5 -0.002810 -0.005224 0.000614 0.003474 0.034325 -0.005490
# 6 0.002272 0.001426 -0.001978 -0.005943 -0.005490 0.034497
#
#
# Mechanical properties :
#
#
# Convention : Reuss Voigt Hill
#
# Bulk Modulus (GPa) = 38.29049 44.49794 41.39421
# Shear Modulus (GPa) = 28.96222 32.26785 30.61504
#
# Velocity S-wave (km/s) = 3.75067 3.95893 3.85620
# Velocity P-wave (km/s) = 6.11188 6.52004 6.31926
#
# Compressibility (1/GPa) = 0.02611614
#
# Stress axis : x y z
#
# Youngs Moduli (GPa) = 51.00954 77.26030 70.40120
#
# Poissons Ratio (x) = 0.17616 0.24374
# Poissons Ratio (y) = 0.11631 0.32212
# Poissons Ratio (z) = 0.17660 0.35351
#
# Static dielectric constant tensor:
#      x y z
#    x 3.803870 -0.618640 0.181690 
#    y -0.618640 3.601020 -0.060840 
#    z 0.181690 -0.060840 4.096270 
# 
# 
# High freq. dielectric constant tensor:
#      x y z
#    x 1.791400 -0.021760 0.010140 
#    y -0.021760 1.797480 0.023270 
#    z 0.010140 0.023270 1.816860 
# 
# From -- ./inp_files/277264.got.cif
#   From: 2010.06.25/outbox.cif.g09.slc.cpg/sg2_139_cif.got.tgz:277264.got - 2010.06.27 13:26:56.
