data_PCOD8044176
_publ_section_title
;
Structure prediction by ZEFSAII (Michael W. Deem and Ramdas Pophale) SiO2 
 PCOD8044176
Probable space group: P -1
;
_chemical_formula_sum "Si O2"
_cell_formula_units_Z 16
_cell_length_a 14.489953
_cell_length_b 8.601061
_cell_length_c 11.904613
_cell_angle_alpha 71.613807
_cell_angle_beta 41.074210
_cell_angle_gamma 53.377437
_cell_volume 756.577995
_symmetry_space_group_name_H-M "P -1"
_symmetry_group_IT_number 2
_symmetry_cell_setting 'triclinic'
loop_
_space_group_symop_operation_xyz
x,y,z
-x,-y,-z
loop_
_atom_site_type_symbol
_atom_site_label
_atom_site_fract_x
_atom_site_fract_y
_atom_site_fract_z
Si Si1 0.864442 0.037962 0.457517
Si Si2 0.421915 0.554333 0.438385
Si Si3 0.204267 0.945371 0.228223
Si Si4 0.546298 0.849281 0.852763
Si Si5 0.165380 0.330356 0.192430
Si Si6 0.828551 0.706197 0.467523
Si Si7 0.363573 0.235934 0.578801
Si Si8 0.638547 0.707020 0.171862
O O1 0.774030 0.245793 0.423877
O O2 0.784723 0.109365 0.639018
O O3 0.811937 0.902210 0.481211
O O4 0.072418 0.911706 0.293189
O O5 0.500000 0.500000 0.500000
O O6 0.430943 0.360430 0.430814
O O7 0.538095 0.608168 0.252919
O O8 0.108640 0.184174 0.251034
O O9 0.392654 0.821425 0.023982
O O10 0.650696 0.809409 0.881250
O O11 0.686315 0.692094 0.668172
O O12 0.471719 0.064634 0.819546
O O13 0.019844 0.511547 0.360999
O O14 0.189399 0.412501 0.034602
O O15 0.797434 0.715381 0.359700
O O16 0.311958 0.306621 0.739050
O O17 0.500000 0.000000 0.500000
#
# Coordination Sequence:
#
# PCOD8044176 Si02
#       8
#     2   2   2   2   2   2   2   2
#     4  11  21  40  61  94 127 163 207 256 308 366
#     4  10  19  37  65  87 122 161 206 252 309 365
#     4  10  22  38  66  88 125 171 206 248 310 376
#     4  11  20  39  66  89 124 165 207 249 312 370
#     4  11  22  38  64  93 123 165 207 258 309 362
#     4  12  23  38  61  92 131 158 210 260 304 363
#     4  11  22  39  64  92 118 164 208 255 309 370
#     4  10  20  40  64  90 123 166 212 248 307 376
#
# _framework density 21.147852
#
# number of rings (size 3 to 8) (size 9 to 14) (size 15 to 20)
#    0.000    1.250    3.750    4.125    0.000    0.500 
#    2.250    1.875    0.000    6.750    0.000    0.000 
#    0.000    0.000    0.000    0.000    0.000    0.000 
#
# Total GULP energy -198239.654501 kJ/mol
# GULP energy per Si atom -12389.978406 kJ/mol
# Density = 2.109972 g / cm^3
# Si number density = 21.147852 Si / 1000 Ang^3
#
#
#
# Elastic Constant Matrix: (Units=GPa)
#
#
# Indices 1 2 3 4 5 6 
#
# 1 125.7553 23.7644 46.7129 -6.7804 -6.9903 -5.1922
# 2 23.7644 61.0044 35.5533 3.6293 -9.7347 -2.1186
# 3 46.7129 35.5533 143.2880 2.3457 -11.2963 -8.0944
# 4 -6.7804 3.6293 2.3457 28.4850 -3.0596 2.1918
# 5 -6.9903 -9.7347 -11.2963 -3.0596 30.7830 0.0255
# 6 -5.1922 -2.1186 -8.0944 2.1918 0.0255 23.7319
#
#
#
# Elastic Compliance Matrix: (Units=1/GPa)
#
#
# Indices 1 2 3 4 5 6 
#
# 1 0.009531 -0.002277 -0.002480 0.002790 0.000811 0.000778
# 2 -0.002277 0.020399 -0.003934 -0.002375 0.004254 0.000196
# 3 -0.002480 -0.003934 0.009017 -0.000853 0.001415 0.002259
# 4 0.002790 -0.002375 -0.000853 0.036743 0.003224 -0.003290
# 5 0.000811 0.004254 0.001415 0.003224 0.034854 0.000705
# 6 0.000778 0.000196 0.002259 -0.003290 0.000705 0.043398
#
#
# Mechanical properties :
#
#
# Convention : Reuss Voigt Hill
#
# Bulk Modulus (GPa) = 46.37194 60.23433 53.30314
# Shear Modulus (GPa) = 28.00934 31.53447 29.77191
#
# Velocity S-wave (km/s) = 3.64325 3.86572 3.75613
# Velocity P-wave (km/s) = 6.29864 6.96200 6.63861
#
# Compressibility (1/GPa) = 0.02156476
#
# Stress axis : x y z
#
# Youngs Moduli (GPa) = 104.91947 49.02233 110.90588
#
# Poissons Ratio (x) = 0.11163 0.27505
# Poissons Ratio (y) = 0.23891 0.43628
# Poissons Ratio (z) = 0.26020 0.19284
#
# Static dielectric constant tensor:
#      x y z
#    x 4.146040 0.151880 -0.076540 
#    y 0.151880 4.197300 -0.366450 
#    z -0.076540 -0.366450 4.208550 
# 
# 
# High freq. dielectric constant tensor:
#      x y z
#    x 1.832740 -0.013290 -0.007870 
#    y -0.013290 1.821120 -0.011150 
#    z -0.007870 -0.011150 1.817970 
# 
# From -- ./inp_files/379885.got.cif
#   From: 2010.06.25/outbox.cif.g09.slc.cpg/sg2_190_cif.got.tgz:379885.got - 2010.06.27 13:26:56.
