data_PCOD8044102
_publ_section_title
;
Structure prediction by ZEFSAII (Michael W. Deem and Ramdas Pophale) SiO2 
 PCOD8044102
Probable space group: P -1
;
_chemical_formula_sum "Si O2"
_cell_formula_units_Z 16
_cell_length_a 12.460284
_cell_length_b 8.962652
_cell_length_c 11.392793
_cell_angle_alpha 127.370753
_cell_angle_beta 47.810690
_cell_angle_gamma 105.063071
_cell_volume 725.216611
_symmetry_space_group_name_H-M "P -1"
_symmetry_group_IT_number 2
_symmetry_cell_setting 'triclinic'
loop_
_space_group_symop_operation_xyz
x,y,z
-x,-y,-z
loop_
_atom_site_type_symbol
_atom_site_label
_atom_site_fract_x
_atom_site_fract_y
_atom_site_fract_z
Si Si1 0.393208 0.220443 0.382121
Si Si2 0.526691 0.512332 0.849729
Si Si3 0.765175 0.347529 0.329516
Si Si4 0.838006 0.375233 0.639581
Si Si5 0.263160 0.882615 0.962922
Si Si6 0.714445 0.127492 0.799895
Si Si7 0.500063 0.207525 0.549501
Si Si8 0.944131 0.734260 0.775430
O O1 0.319950 0.428179 0.475029
O O2 0.560252 0.132862 0.172397
O O3 0.389025 0.249863 0.539897
O O4 0.294845 0.073642 0.347389
O O5 0.706600 0.444406 0.670268
O O6 0.446621 0.372483 0.767439
O O7 0.500000 0.500000 0.000000
O O8 0.450576 0.735529 0.980602
O O9 0.770043 0.306849 0.165674
O O10 0.667590 0.209898 0.389863
O O11 0.932859 0.283127 0.222427
O O12 0.803873 0.229917 0.692715
O O13 0.862119 0.563800 0.777763
O O14 0.984946 0.275026 0.411178
O O15 0.200257 0.907528 0.154416
O O16 0.180503 0.064906 0.030692
O O17 0.500000 0.000000 0.500000
#
# Coordination Sequence:
#
# PCOD8044102 Si02
#       8
#     2   2   2   2   2   2   2   2
#     4  11  24  41  67  97 128 170 210 267 326 370
#     4  10  19  37  63  96 129 156 212 268 312 363
#     4  11  24  44  65  92 133 170 211 260 326 379
#     4  10  23  40  64  95 125 174 209 266 315 379
#     4  11  24  42  65  96 128 168 213 265 318 382
#     4  11  23  40  67  98 127 162 224 268 312 375
#     4  11  21  38  64  96 129 167 209 265 319 379
#     4  11  24  42  66  90 133 170 214 254 327 383
#
# _framework density 22.062373000000001
#
# number of rings (size 3 to 8) (size 9 to 14) (size 15 to 20)
#    0.000    1.250    1.250    6.000    3.500    3.500 
#    0.000    0.625    0.000    0.000    0.000    0.000 
#    0.000    0.000    0.000    0.000    0.000    0.000 
#
# Total GULP energy -198372.055651 kJ/mol
# GULP energy per Si atom -12398.253478 kJ/mol
# Density = 2.201216 g / cm^3
# Si number density = 22.062373 Si / 1000 Ang^3
#
#
#
# Elastic Constant Matrix: (Units=GPa)
#
#
# Indices 1 2 3 4 5 6 
#
# 1 124.5774 64.4724 42.6231 11.3038 15.2986 -1.2040
# 2 64.4724 147.7967 42.3195 16.4428 3.0886 9.1045
# 3 42.6231 42.3195 84.1924 15.9456 13.1085 4.6374
# 4 11.3038 16.4428 15.9456 32.2424 -0.6791 5.7472
# 5 15.2986 3.0886 13.1085 -0.6791 42.9119 8.0541
# 6 -1.2040 9.1045 4.6374 5.7472 8.0541 32.3396
#
#
#
# Elastic Compliance Matrix: (Units=1/GPa)
#
#
# Indices 1 2 3 4 5 6 
#
# 1 0.011928 -0.004260 -0.003331 -0.001004 -0.003541 0.003181
# 2 -0.004260 0.009667 -0.002568 -0.001633 0.002097 -0.002744
# 3 -0.003331 -0.002568 0.016539 -0.005820 -0.003811 0.000211
# 4 -0.001004 -0.001633 -0.005820 0.036263 0.003987 -0.006181
# 5 -0.003541 0.002097 -0.003811 0.003987 0.027074 -0.007627
# 6 0.003181 -0.002744 0.000211 -0.006181 -0.007627 0.034780
#
#
# Mechanical properties :
#
#
# Convention : Reuss Voigt Hill
#
# Bulk Modulus (GPa) = 56.13324 72.82184 64.47754
# Shear Modulus (GPa) = 30.76754 35.30888 33.03821
#
# Velocity S-wave (km/s) = 3.73845 4.00485 3.87394
# Velocity P-wave (km/s) = 6.64326 7.37998 7.02129
#
# Compressibility (1/GPa) = 0.01781476
#
# Stress axis : x y z
#
# Youngs Moduli (GPa) = 83.83497 103.44943 60.46273
#
# Poissons Ratio (x) = 0.44067 0.20142
# Poissons Ratio (y) = 0.35712 0.15529
# Poissons Ratio (z) = 0.27928 0.26570
#
# Static dielectric constant tensor:
#      x y z
#    x 4.468040 -0.166220 0.016850 
#    y -0.166220 3.881830 0.167340 
#    z 0.016850 0.167340 4.195550 
# 
# 
# High freq. dielectric constant tensor:
#      x y z
#    x 1.876910 -0.010010 0.020310 
#    y -0.010010 1.856940 0.013250 
#    z 0.020310 0.013250 1.868480 
# 
# From -- ./inp_files/419901.got.cif
#   From: 2010.06.25/outbox.cif.g09.slc.cpg/sg2_210_cif.got.tgz:419901.got - 2010.06.27 13:26:56.
