data_PCOD8044256
_publ_section_title
;
Structure prediction by ZEFSAII (Michael W. Deem and Ramdas Pophale) SiO2 
 PCOD8044256
Probable space group: P -1
;
_chemical_formula_sum "Si O2"
_cell_formula_units_Z 16
_cell_length_a 20.157121
_cell_length_b 7.932286
_cell_length_c 11.432048
_cell_angle_alpha 45.999811
_cell_angle_beta 146.152718
_cell_angle_gamma 121.022675
_cell_volume 723.664108
_symmetry_space_group_name_H-M "P -1"
_symmetry_group_IT_number 2
_symmetry_cell_setting 'triclinic'
loop_
_space_group_symop_operation_xyz
x,y,z
-x,-y,-z
loop_
_atom_site_type_symbol
_atom_site_label
_atom_site_fract_x
_atom_site_fract_y
_atom_site_fract_z
Si Si1 0.761694 0.835615 0.610086
Si Si2 0.492041 0.417230 0.157754
Si Si3 0.301099 0.753543 0.838561
Si Si4 0.261091 0.864100 0.338044
Si Si5 0.358632 0.592542 0.259543
Si Si6 0.978258 0.250475 0.907861
Si Si7 0.103324 0.484853 0.562969
Si Si8 0.301070 0.080444 0.068961
O O1 0.694597 0.624135 0.655639
O O2 0.714139 0.964998 0.354963
O O3 0.739359 0.045386 0.573265
O O4 0.903182 0.725557 0.854099
O O5 0.627895 0.336230 0.436293
O O6 0.418526 0.197897 0.160345
O O7 0.500000 0.500000 0.000000
O O8 0.433319 0.631497 0.050165
O O9 0.197678 0.650754 0.664754
O O10 0.295440 0.693583 0.996569
O O11 0.271324 0.085784 0.161771
O O12 0.142333 0.742582 0.193925
O O13 0.500000 0.500000 0.500000
O O14 0.329659 0.812562 0.197513
O O15 0.960223 0.445264 0.686346
O O16 0.000000 0.000000 0.000000
O O17 0.000000 0.500000 0.500000
O O18 0.178132 0.226544 0.766820
#
# Coordination Sequence:
#
# PCOD8044256 Si02
#       8
#     2   2   2   2   2   2   2   2
#     4  11  22  43  68  99 128 175 224 271 336 395
#     4  11  20  39  65  97 124 157 228 288 331 380
#     4  11  23  42  69  97 129 177 222 277 333 394
#     4  11  19  39  67  93 129 160 225 287 328 385
#     4  12  27  47  62  94 146 185 219 261 336 412
#     4  10  19  37  66  99 125 158 215 280 329 388
#     4  11  20  40  71  99 128 166 224 284 337 384
#     4  11  25  39  62 100 130 176 220 274 334 396
#
# _framework density 22.109705999999999
#
# number of rings (size 3 to 8) (size 9 to 14) (size 15 to 20)
#    0.000    1.000    3.750    6.375    0.000    0.500 
#    4.500    3.125    0.000    0.000    0.000    0.000 
#    0.000    0.000    0.000    0.000    0.000    0.000 
#
# Total GULP energy -198297.980008 kJ/mol
# GULP energy per Si atom -12393.623750 kJ/mol
# Density = 2.205938 g / cm^3
# Si number density = 22.109706 Si / 1000 Ang^3
#
#
#
# Elastic Constant Matrix: (Units=GPa)
#
#
# Indices 1 2 3 4 5 6 
#
# 1 101.1278 44.2389 49.1876 -8.3582 11.6691 34.9395
# 2 44.2389 89.1534 53.6753 -11.5681 7.5774 32.1449
# 3 49.1876 53.6753 160.0911 -19.8514 15.4087 22.1215
# 4 -8.3582 -11.5681 -19.8514 31.6124 11.5399 -0.9146
# 5 11.6691 7.5774 15.4087 11.5399 60.5102 -0.0112
# 6 34.9395 32.1449 22.1215 -0.9146 -0.0112 42.6406
#
#
#
# Elastic Compliance Matrix: (Units=1/GPa)
#
#
# Indices 1 2 3 4 5 6 
#
# 1 0.016030 -0.002440 -0.002096 0.002750 -0.002778 -0.010150
# 2 -0.002440 0.019018 -0.003434 0.004552 -0.001907 -0.010460
# 3 -0.002096 -0.003434 0.008858 0.004584 -0.002296 -0.000191
# 4 0.002750 0.004552 0.004584 0.040332 -0.009961 -0.007200
# 5 -0.002778 -0.001907 -0.002296 -0.009961 0.019786 0.004696
# 6 -0.010150 -0.010460 -0.000191 -0.007200 0.004696 0.039600
#
#
# Mechanical properties :
#
#
# Convention : Reuss Voigt Hill
#
# Bulk Modulus (GPa) = 35.75672 71.61957 53.68814
# Shear Modulus (GPa) = 29.60596 40.50401 35.05499
#
# Velocity S-wave (km/s) = 3.66327 4.28478 3.98616
# Velocity P-wave (km/s) = 5.83954 7.54601 6.74694
#
# Compressibility (1/GPa) = 0.02796677
#
# Stress axis : x y z
#
# Youngs Moduli (GPa) = 62.38314 52.58066 112.89798
#
# Poissons Ratio (x) = 0.12828 0.23667
# Poissons Ratio (y) = 0.15219 0.38765
# Poissons Ratio (z) = 0.13078 0.18054
#
# Static dielectric constant tensor:
#      x y z
#    x 3.999290 0.596020 -0.078750 
#    y 0.596020 3.792950 0.230790 
#    z -0.078750 0.230790 4.056850 
# 
# 
# High freq. dielectric constant tensor:
#      x y z
#    x 1.876230 0.031910 0.005450 
#    y 0.031910 1.840500 -0.016690 
#    z 0.005450 -0.016690 1.894980 
# 
# From -- ./inp_files/283293.got.cif
#   From: 2010.06.25/outbox.cif.g09.slc.cpg/sg2_142_cif.got.tgz:283293.got - 2010.06.27 13:26:56.
