data_PCOD8044061
_publ_section_title
;
Structure prediction by ZEFSAII (Michael W. Deem and Ramdas Pophale) SiO2 
 PCOD8044061
Probable space group: P -1
;
_chemical_formula_sum "Si O2"
_cell_formula_units_Z 16
_cell_length_a 22.077597
_cell_length_b 12.239402
_cell_length_c 9.238004
_cell_angle_alpha 143.227696
_cell_angle_beta 48.499947
_cell_angle_gamma 149.471359
_cell_volume 756.006730
_symmetry_space_group_name_H-M "P -1"
_symmetry_group_IT_number 2
_symmetry_cell_setting 'triclinic'
loop_
_space_group_symop_operation_xyz
x,y,z
-x,-y,-z
loop_
_atom_site_type_symbol
_atom_site_label
_atom_site_fract_x
_atom_site_fract_y
_atom_site_fract_z
Si Si1 0.091715 0.888147 0.860042
Si Si2 0.457849 0.891681 0.793029
Si Si3 0.075495 0.139043 0.383055
Si Si4 0.320002 0.355456 0.309385
Si Si5 0.085267 0.463998 0.490193
Si Si6 0.608634 0.906289 0.051398
Si Si7 0.346075 0.908156 0.503446
Si Si8 0.363864 0.348657 0.917385
O O1 0.090976 0.693838 0.741842
O O2 0.023898 0.769806 0.689531
O O3 0.227211 0.185444 0.929119
O O4 0.025584 0.923246 0.106607
O O5 0.393818 0.589571 0.560771
O O6 0.365519 0.900351 0.907511
O O7 0.567136 0.086511 0.711474
O O8 0.500000 0.000000 0.000000
O O9 0.204329 0.277242 0.369950
O O10 0.073136 0.341530 0.535609
O O11 0.000000 0.000000 0.500000
O O12 0.301432 0.116229 0.142295
O O13 0.397104 0.447673 0.138449
O O14 0.210700 0.611976 0.376059
O O15 0.632473 0.052428 0.317429
O O16 0.468792 0.616151 0.943433
O O17 0.366988 0.141799 0.651674
#
# Coordination Sequence:
#
# PCOD8044061 Si02
#       8
#     2   2   2   2   2   2   2   2
#     4   9  21  39  62  91 121 156 207 243 298 357
#     4  12  25  36  54  92 126 157 188 238 315 361
#     4  11  24  40  62  90 121 160 203 248 303 353
#     4  10  21  41  58  87 120 150 205 246 282 360
#     4  10  21  40  63  90 122 156 203 256 292 349
#     4  11  20  38  66  84 114 160 201 246 288 346
#     4  10  19  37  63  88 116 156 202 243 289 349
#     4   9  17  36  66  89 110 154 206 248 279 338
#
# _framework density 21.163830999999998
#
# number of rings (size 3 to 8) (size 9 to 14) (size 15 to 20)
#    0.000    1.750    2.500    3.000    3.500    2.000 
#    2.250    2.500    0.000    0.000    0.000    0.000 
#    0.000    0.000    0.000    0.000    0.000    0.000 
#
# Total GULP energy -198262.275604 kJ/mol
# GULP energy per Si atom -12391.392225 kJ/mol
# Density = 2.111566 g / cm^3
# Si number density = 21.163831 Si / 1000 Ang^3
#
#
#
# Elastic Constant Matrix: (Units=GPa)
#
#
# Indices 1 2 3 4 5 6 
#
# 1 124.9257 23.2806 47.1301 -5.1400 -8.7582 -2.8982
# 2 23.2806 38.8856 14.5959 2.2319 -1.4162 4.0524
# 3 47.1301 14.5959 82.1512 4.9505 5.6680 0.1687
# 4 -5.1400 2.2319 4.9505 19.6826 5.1431 5.4434
# 5 -8.7582 -1.4162 5.6680 5.1431 33.1765 9.3506
# 6 -2.8982 4.0524 0.1687 5.4434 9.3506 25.3487
#
#
#
# Elastic Compliance Matrix: (Units=1/GPa)
#
#
# Indices 1 2 3 4 5 6 
#
# 1 0.011696 -0.004744 -0.006356 0.004331 0.003303 -0.000010
# 2 -0.004744 0.030420 -0.002661 -0.003126 0.002583 -0.005669
# 3 -0.006356 -0.002661 0.016907 -0.005071 -0.004558 0.002357
# 4 0.004331 -0.003126 -0.005071 0.057372 -0.004280 -0.009712
# 5 0.003303 0.002583 -0.004558 -0.004280 0.036057 -0.012387
# 6 -0.000010 -0.005669 0.002357 -0.009712 -0.012387 0.046994
#
#
# Mechanical properties :
#
#
# Convention : Reuss Voigt Hill
#
# Bulk Modulus (GPa) = 31.74540 46.21953 38.98247
# Shear Modulus (GPa) = 21.05534 26.37196 23.71365
#
# Velocity S-wave (km/s) = 3.15758 3.53382 3.35099
# Velocity P-wave (km/s) = 5.32223 6.20781 5.78200
#
# Compressibility (1/GPa) = 0.03150062
#
# Stress axis : x y z
#
# Youngs Moduli (GPa) = 85.49764 32.87321 59.14626
#
# Poissons Ratio (x) = 0.15595 0.37594
# Poissons Ratio (y) = 0.40559 0.15741
# Poissons Ratio (z) = 0.54343 0.08749
#
# Static dielectric constant tensor:
#      x y z
#    x 3.967850 0.185880 -0.311980 
#    y 0.185880 3.661420 0.165430 
#    z -0.311980 0.165430 3.985680 
# 
# 
# High freq. dielectric constant tensor:
#      x y z
#    x 1.834210 0.020440 -0.020810 
#    y 0.020440 1.795210 0.025510 
#    z -0.020810 0.025510 1.826580 
# 
# From -- ./inp_files/346455.got.cif
#   From: 2010.06.25/outbox.cif.g09.slc.cpg/sg2_174_cif.got.tgz:346455.got - 2010.06.27 13:26:56.
