data_PCOD8044020
_publ_section_title
;
Structure prediction by ZEFSAII (Michael W. Deem and Ramdas Pophale) SiO2 
 PCOD8044020
Probable space group: P -1
;
_chemical_formula_sum "Si O2"
_cell_formula_units_Z 16
_cell_length_a 12.687054
_cell_length_b 20.173369
_cell_length_c 17.070400
_cell_angle_alpha 30.160781
_cell_angle_beta 142.057279
_cell_angle_gamma 159.390323
_cell_volume 767.390216
_symmetry_space_group_name_H-M "P -1"
_symmetry_group_IT_number 2
_symmetry_cell_setting 'triclinic'
loop_
_space_group_symop_operation_xyz
x,y,z
-x,-y,-z
loop_
_atom_site_type_symbol
_atom_site_label
_atom_site_fract_x
_atom_site_fract_y
_atom_site_fract_z
Si Si1 0.396258 0.965054 0.612140
Si Si2 0.770199 0.939655 0.285485
Si Si3 0.579600 0.569084 0.886488
Si Si4 0.750426 0.402146 0.144971
Si Si5 0.256113 0.365354 0.428297
Si Si6 0.491041 0.952941 0.227379
Si Si7 0.836800 0.468054 0.310586
Si Si8 0.379368 0.725026 0.123133
O O1 0.457210 0.858779 0.719646
O O2 0.077506 0.819611 0.541658
O O3 0.366830 0.937381 0.716660
O O4 0.676816 0.229915 0.480330
O O5 0.747933 0.776500 0.475674
O O6 0.725658 0.013166 0.254621
O O7 0.521606 0.810025 0.205947
O O8 0.091570 0.159906 0.207919
O O9 0.337775 0.520793 0.760546
O O10 0.500000 0.500000 0.000000
O O11 0.567962 0.417209 0.993533
O O12 0.850337 0.491254 0.201531
O O13 0.045169 0.572810 0.090046
O O14 0.500000 0.500000 0.500000
O O15 0.357684 0.562531 0.239346
O O16 0.172458 0.676329 0.328926
O O17 0.437518 0.062642 0.044054
#
# Coordination Sequence:
#
# PCOD8044020 Si02
#       8
#     2   2   2   2   2   2   2   2
#     4  11  24  41  60  94 129 164 205 252 316 369
#     4  11  19  39  62  92 122 160 213 255 302 368
#     4  10  20  35  62  91 117 156 210 261 300 353
#     4  10  20  38  64  90 118 160 209 260 305 360
#     4   9  21  38  62  88 123 156 201 262 304 362
#     4  12  24  38  65  91 129 167 202 255 308 372
#     4  11  22  42  61  89 124 168 209 251 302 374
#     4  10  19  37  62  93 120 154 211 252 309 361
#
# _framework density 20.849889000000001
#
# number of rings (size 3 to 8) (size 9 to 14) (size 15 to 20)
#    0.000    1.500    3.750    2.625    0.000    2.500 
#    0.000    0.625    0.000    0.000    0.000    0.000 
#    0.000    0.000    0.000    0.000    0.000    0.000 
#
# Total GULP energy -198313.931608 kJ/mol
# GULP energy per Si atom -12394.620726 kJ/mol
# Density = 2.080243 g / cm^3
# Si number density = 20.849889 Si / 1000 Ang^3
#
#
#
# Elastic Constant Matrix: (Units=GPa)
#
#
# Indices 1 2 3 4 5 6 
#
# 1 73.5556 35.6715 43.0555 6.3714 24.8668 4.8825
# 2 35.6715 83.5822 33.7211 -13.3757 7.2258 9.4891
# 3 43.0555 33.7211 112.9215 -14.8704 37.5824 6.2734
# 4 6.3714 -13.3757 -14.8704 24.9639 2.2147 -1.2207
# 5 24.8668 7.2258 37.5824 2.2147 38.2451 1.9364
# 6 4.8825 9.4891 6.2734 -1.2207 1.9364 20.5916
#
#
#
# Elastic Compliance Matrix: (Units=1/GPa)
#
#
# Indices 1 2 3 4 5 6 
#
# 1 0.026458 -0.010565 -0.006256 -0.015396 -0.008185 0.000358
# 2 -0.010565 0.019093 -0.001176 0.011593 0.004030 -0.005627
# 3 -0.006256 -0.001176 0.018084 0.012927 -0.014159 -0.001386
# 4 -0.015396 0.011593 0.012927 0.058560 -0.008204 -0.001388
# 5 -0.008185 0.004030 -0.014159 -0.008204 0.045113 -0.000331
# 6 0.000358 -0.005627 -0.001386 -0.001388 -0.000331 0.051443
#
#
# Mechanical properties :
#
#
# Convention : Reuss Voigt Hill
#
# Bulk Modulus (GPa) = 36.17685 54.99505 45.58595
# Shear Modulus (GPa) = 18.94241 27.26753 23.10497
#
# Velocity S-wave (km/s) = 3.01743 3.62028 3.33251
# Velocity P-wave (km/s) = 5.43402 6.62640 6.05961
#
# Compressibility (1/GPa) = 0.02764198
#
# Stress axis : x y z
#
# Youngs Moduli (GPa) = 37.79622 52.37508 55.29724
#
# Poissons Ratio (x) = 0.55332 0.34596
# Poissons Ratio (y) = 0.39930 0.06501
# Poissons Ratio (z) = 0.23646 0.06157
#
# Static dielectric constant tensor:
#      x y z
#    x 3.830350 0.222830 0.617530 
#    y 0.222830 3.728310 0.016790 
#    z 0.617530 0.016790 4.237220 
# 
# 
# High freq. dielectric constant tensor:
#      x y z
#    x 1.792610 0.013680 0.032230 
#    y 0.013680 1.806370 -0.011100 
#    z 0.032230 -0.011100 1.829180 
# 
# From -- ./inp_files/243391.got.cif
#   From: 2010.06.25/outbox.cif.g09.slc.cpg/sg2_122_cif.got.tgz:243391.got - 2010.06.27 13:26:56.
