data_PCOD8044518
_publ_section_title
;
Structure prediction by ZEFSAII (Michael W. Deem and Ramdas Pophale) SiO2 
 PCOD8044518
Probable space group: P -1
;
_chemical_formula_sum "Si O2"
_cell_formula_units_Z 16
_cell_length_a 17.886312
_cell_length_b 7.774185
_cell_length_c 9.813498
_cell_angle_alpha 54.212146
_cell_angle_beta 47.726695
_cell_angle_gamma 51.700539
_cell_volume 758.566985
_symmetry_space_group_name_H-M "P -1"
_symmetry_group_IT_number 2
_symmetry_cell_setting 'triclinic'
loop_
_space_group_symop_operation_xyz
x,y,z
-x,-y,-z
loop_
_atom_site_type_symbol
_atom_site_label
_atom_site_fract_x
_atom_site_fract_y
_atom_site_fract_z
Si Si1 0.536869 0.817028 0.760938
Si Si2 0.500819 0.557610 0.175694
Si Si3 0.921175 0.992760 0.482902
Si Si4 0.761497 0.811520 0.517262
Si Si5 0.712205 0.287759 0.497915
Si Si6 0.383897 0.327233 0.777566
Si Si7 0.183806 0.350826 0.187467
Si Si8 0.985207 0.805191 0.198357
O O1 0.478907 0.699556 0.782071
O O2 0.660575 0.779739 0.576265
O O3 0.466697 0.085092 0.733018
O O4 0.547118 0.696382 0.951499
O O5 0.370923 0.692812 0.285751
O O6 0.554782 0.545654 0.263623
O O7 0.832540 0.243695 0.433061
O O8 0.852491 0.859326 0.695844
O O9 0.986172 0.863730 0.329834
O O10 0.000000 0.000000 0.500000
O O11 0.792281 0.634551 0.688291
O O12 0.872800 0.766941 0.314578
O O13 0.719653 0.073500 0.495553
O O14 0.670190 0.519712 0.356410
O O15 0.291903 0.292018 0.995901
O O16 0.089671 0.580266 0.143635
O O17 0.000000 0.000000 0.000000
#
# Coordination Sequence:
#
# PCOD8044518 Si02
#       8
#     2   2   2   2   2   2   2   2
#     4  11  23  39  64  94 126 170 219 260 312 381
#     4  11  23  39  62  94 130 170 218 255 313 389
#     4  10  22  42  67  92 125 164 217 272 315 386
#     4  10  19  38  62  89 123 169 214 258 311 385
#     4  10  22  39  63  90 128 171 203 264 334 369
#     4  12  22  42  64  92 137 169 208 267 320 380
#     4  10  20  38  66  87 120 175 209 251 323 383
#     4  10  21  40  64  94 125 164 216 264 326 383
#
# _framework density 21.092403000000001
#
# number of rings (size 3 to 8) (size 9 to 14) (size 15 to 20)
#    0.000    1.750    2.500    5.250    0.000    2.500 
#    2.250    3.750    0.000    0.000    0.000    0.000 
#    0.000    0.000    0.000    0.000    0.000    0.000 
#
# Total GULP energy -198331.483694 kJ/mol
# GULP energy per Si atom -12395.717731 kJ/mol
# Density = 2.104440 g / cm^3
# Si number density = 21.092403 Si / 1000 Ang^3
#
#
#
# Elastic Constant Matrix: (Units=GPa)
#
#
# Indices 1 2 3 4 5 6 
#
# 1 126.5170 51.7505 29.3735 -12.5912 -9.7569 -11.7426
# 2 51.7505 98.6681 17.5005 -14.5412 -5.3155 -20.9236
# 3 29.3735 17.5005 79.2291 -9.0754 -9.5002 -16.3460
# 4 -12.5912 -14.5412 -9.0754 35.0739 -6.2534 1.4182
# 5 -9.7569 -5.3155 -9.5002 -6.2534 21.0214 1.7284
# 6 -11.7426 -20.9236 -16.3460 1.4182 1.7284 29.1832
#
#
#
# Elastic Compliance Matrix: (Units=1/GPa)
#
#
# Indices 1 2 3 4 5 6 
#
# 1 0.010886 -0.005015 -0.002519 0.001793 0.003254 -0.000907
# 2 -0.005015 0.015420 0.001312 0.005072 0.002904 0.009355
# 3 -0.002519 0.001312 0.016452 0.004864 0.007348 0.008470
# 4 0.001793 0.005072 0.004864 0.034885 0.014317 0.004539
# 5 0.003254 0.002904 0.007348 0.014317 0.057113 0.003429
# 6 -0.000907 0.009355 0.008470 0.004539 0.003429 0.044929
#
#
# Mechanical properties :
#
#
# Convention : Reuss Voigt Hill
#
# Bulk Modulus (GPa) = 32.98920 55.74035 44.36478
# Shear Modulus (GPa) = 24.72381 30.77502 27.74942
#
# Velocity S-wave (km/s) = 3.42741 3.82390 3.63107
# Velocity P-wave (km/s) = 5.59795 6.78089 6.21762
#
# Compressibility (1/GPa) = 0.03031295
#
# Stress axis : x y z
#
# Youngs Moduli (GPa) = 91.86342 64.84956 60.78435
#
# Poissons Ratio (x) = 0.32524 0.15315
# Poissons Ratio (y) = 0.46072 -0.07977
# Poissons Ratio (z) = 0.23145 -0.08511
#
# Static dielectric constant tensor:
#      x y z
#    x 3.976520 -0.451660 -0.292060 
#    y -0.451660 4.064830 0.215720 
#    z -0.292060 0.215720 3.982920 
# 
# 
# High freq. dielectric constant tensor:
#      x y z
#    x 1.806660 -0.018350 -0.012930 
#    y -0.018350 1.829490 0.002130 
#    z -0.012930 0.002130 1.833040 
# 
# From -- ./inp_files/347583.got.cif
#   From: 2010.06.25/outbox.cif.g09.slc.cpg/sg2_174_cif.got.tgz:347583.got - 2010.06.27 13:26:56.
