data_PCOD8044262
_publ_section_title
;
Structure prediction by ZEFSAII (Michael W. Deem and Ramdas Pophale) SiO2 
 PCOD8044262
Probable space group: P -1
;
_chemical_formula_sum "Si O2"
_cell_formula_units_Z 16
_cell_length_a 9.906277
_cell_length_b 10.502058
_cell_length_c 11.632792
_cell_angle_alpha 117.905914
_cell_angle_beta 97.424361
_cell_angle_gamma 119.951170
_cell_volume 815.996428
_symmetry_space_group_name_H-M "P -1"
_symmetry_group_IT_number 2
_symmetry_cell_setting 'triclinic'
loop_
_space_group_symop_operation_xyz
x,y,z
-x,-y,-z
loop_
_atom_site_type_symbol
_atom_site_label
_atom_site_fract_x
_atom_site_fract_y
_atom_site_fract_z
Si Si1 0.701128 0.003523 0.911970
Si Si2 0.998279 0.668544 0.076307
Si Si3 0.782358 0.194557 0.623150
Si Si4 0.188852 0.664038 0.549322
Si Si5 0.504274 0.331108 0.414617
Si Si6 0.414256 0.578971 0.077357
Si Si7 0.479361 0.199268 0.609907
Si Si8 0.600425 0.966850 0.135040
O O1 0.886301 0.184429 0.953227
O O2 0.550194 0.019857 0.899870
O O3 0.643178 0.820312 0.758026
O O4 0.710947 0.981587 0.041803
O O5 0.074234 0.758683 0.248214
O O6 0.000000 0.500000 0.000000
O O7 0.796824 0.584915 0.013578
O O8 0.847193 0.345693 0.595167
O O9 0.621995 0.174470 0.657294
O O10 0.711512 0.000861 0.472777
O O11 0.306087 0.604466 0.574977
O O12 0.000000 0.500000 0.500000
O O13 0.259296 0.861963 0.693019
O O14 0.500000 0.500000 0.500000
O O15 0.473927 0.232389 0.489915
O O16 0.484471 0.635448 0.240341
O O17 0.490452 0.765496 0.096108
O O18 0.500000 0.500000 0.000000
#
# Coordination Sequence:
#
# PCOD8044262 Si02
#       8
#     2   2   2   2   2   2   2   2
#     4  10  21  38  64  94 119 162 211 255 297 365
#     4  12  22  39  67  95 120 161 223 251 296 379
#     4  10  19  37  67  90 111 159 215 259 284 357
#     4  10  22  38  62  89 121 160 206 251 302 365
#     4  10  22  39  61  89 123 162 201 249 313 364
#     4  12  26  42  61  94 131 165 199 260 325 366
#     4  10  19  39  64  86 122 158 208 251 305 358
#     4  10  21  40  62  89 130 161 201 255 311 362
#
# _framework density 19.607928000000001
#
# number of rings (size 3 to 8) (size 9 to 14) (size 15 to 20)
#    0.000    1.500    5.000    0.000    3.500    1.000 
#    2.250    1.250    0.000    0.000    0.000    0.000 
#    0.000    0.000    0.000    0.000    0.000    0.000 
#
# Total GULP energy -198215.916866 kJ/mol
# GULP energy per Si atom -12388.494804 kJ/mol
# Density = 1.956330 g / cm^3
# Si number density = 19.607928 Si / 1000 Ang^3
#
#
#
# Elastic Constant Matrix: (Units=GPa)
#
#
# Indices 1 2 3 4 5 6 
#
# 1 76.3698 33.7625 47.1961 13.4578 -10.6048 16.4101
# 2 33.7625 97.6373 36.8574 11.0563 3.4736 25.9503
# 3 47.1961 36.8574 132.4014 3.4164 -10.4617 17.1187
# 4 13.4578 11.0563 3.4164 35.8909 -1.9961 1.7778
# 5 -10.6048 3.4736 -10.4617 -1.9961 27.2402 7.7302
# 6 16.4101 25.9503 17.1187 1.7778 7.7302 30.3388
#
#
#
# Elastic Compliance Matrix: (Units=1/GPa)
#
#
# Indices 1 2 3 4 5 6 
#
# 1 0.021448 -0.003075 -0.004905 -0.005742 0.008734 -0.008093
# 2 -0.003075 0.014912 -0.001850 -0.002865 -0.001310 -0.009546
# 3 -0.004905 -0.001850 0.010343 0.001723 0.003134 -0.002500
# 4 -0.005742 -0.002865 0.001723 0.030613 0.000262 0.002723
# 5 0.008734 -0.001310 0.003134 0.000262 0.046383 -0.017206
# 6 -0.008093 -0.009546 -0.002500 0.002723 -0.017206 0.051138
#
#
# Mechanical properties :
#
#
# Convention : Reuss Voigt Hill
#
# Bulk Modulus (GPa) = 36.97891 60.22672 48.60281
# Shear Modulus (GPa) = 24.56855 31.26680 27.91768
#
# Velocity S-wave (km/s) = 3.54360 3.99758 3.77741
# Velocity P-wave (km/s) = 5.97017 7.21732 6.62316
#
# Compressibility (1/GPa) = 0.02704244
#
# Stress axis : x y z
#
# Youngs Moduli (GPa) = 46.62380 67.06042 96.68643
#
# Poissons Ratio (x) = 0.20620 0.47424
# Poissons Ratio (y) = 0.14336 0.17891
# Poissons Ratio (z) = 0.22869 0.12409
#
# Static dielectric constant tensor:
#      x y z
#    x 3.206060 -0.067010 0.095580 
#    y -0.067010 3.704840 -0.181680 
#    z 0.095580 -0.181680 3.645040 
# 
# 
# High freq. dielectric constant tensor:
#      x y z
#    x 1.725000 0.010640 -0.003240 
#    y 0.010640 1.770250 -0.001960 
#    z -0.003240 -0.001960 1.782410 
# 
# From -- ./inp_files/393122.got.cif
#   From: 2010.06.25/outbox.cif.g09.slc.cpg/sg2_197_cif.got.tgz:393122.got - 2010.06.27 13:26:56.
