data_PCOD8044003
_publ_section_title
;
Structure prediction by ZEFSAII (Michael W. Deem and Ramdas Pophale) SiO2 
 PCOD8044003
Probable space group: P -1
;
_chemical_formula_sum "Si O2"
_cell_formula_units_Z 16
_cell_length_a 14.546895
_cell_length_b 9.660069
_cell_length_c 14.526200
_cell_angle_alpha 54.666084
_cell_angle_beta 137.277537
_cell_angle_gamma 91.279718
_cell_volume 775.397844
_symmetry_space_group_name_H-M "P -1"
_symmetry_group_IT_number 2
_symmetry_cell_setting 'triclinic'
loop_
_space_group_symop_operation_xyz
x,y,z
-x,-y,-z
loop_
_atom_site_type_symbol
_atom_site_label
_atom_site_fract_x
_atom_site_fract_y
_atom_site_fract_z
Si Si1 0.439331 0.180858 0.640570
Si Si2 0.233003 0.667408 0.382396
Si Si3 0.730648 0.087056 0.543093
Si Si4 0.230733 0.313034 0.249212
Si Si5 0.193611 0.687422 0.997252
Si Si6 0.222469 0.758261 0.782771
Si Si7 0.218635 0.891752 0.102883
Si Si8 0.481096 0.759240 0.862097
O O1 0.345615 0.384860 0.572890
O O2 0.281573 0.311937 0.392324
O O3 0.644855 0.068905 0.797374
O O4 0.488945 0.952870 0.807629
O O5 0.332445 0.702712 0.516728
O O6 0.251718 0.730783 0.271282
O O7 0.005211 0.840235 0.172090
O O8 0.620799 0.208042 0.319881
O O9 0.673237 0.958433 0.599416
O O10 0.962563 0.881884 0.772838
O O11 0.295144 0.408162 0.192170
O O12 0.000000 0.500000 0.000000
O O13 0.241115 0.709722 0.923134
O O14 0.286663 0.733653 0.120977
O O15 0.358719 0.795084 0.843679
O O16 0.299174 0.523006 0.872466
O O17 0.000000 0.000000 0.500000
#
# Coordination Sequence:
#
# PCOD8044003 Si02
#       8
#     2   2   2   2   2   2   2   2
#     4  11  22  40  63  90 131 161 198 252 302 374
#     4  10  21  37  63  87 135 166 190 245 306 369
#     4   9  19  37  61  96 124 155 200 246 302 371
#     4   9  19  34  59  94 131 155 198 249 300 364
#     4  10  19  37  62  89 122 164 201 252 302 359
#     4  11  23  42  67  85 117 162 205 263 310 346
#     4  10  22  36  57  96 127 166 205 233 303 383
#     4  10  24  42  62  96 115 151 218 255 300 365
#
# _framework density 20.634568999999999
#
# number of rings (size 3 to 8) (size 9 to 14) (size 15 to 20)
#    0.000    2.000    2.500    0.375    3.500    2.000 
#    0.000    3.125    0.000    2.250    0.000    0.000 
#    0.000    0.000    0.000    0.000    0.000    0.000 
#
# Total GULP energy -198382.423715 kJ/mol
# GULP energy per Si atom -12398.901482 kJ/mol
# Density = 2.058760 g / cm^3
# Si number density = 20.634569 Si / 1000 Ang^3
#
#
#
# Elastic Constant Matrix: (Units=GPa)
#
#
# Indices 1 2 3 4 5 6 
#
# 1 124.8762 67.0043 40.8202 -9.9410 -15.8078 7.5040
# 2 67.0043 152.8518 51.6332 -20.0013 2.6388 15.4852
# 3 40.8202 51.6332 58.1082 -14.2549 -3.7918 11.3971
# 4 -9.9410 -20.0013 -14.2549 35.3165 2.8336 -2.7886
# 5 -15.8078 2.6388 -3.7918 2.8336 22.5444 -2.3740
# 6 7.5040 15.4852 11.3971 -2.7886 -2.3740 33.8074
#
#
#
# Elastic Compliance Matrix: (Units=1/GPa)
#
#
# Indices 1 2 3 4 5 6 
#
# 1 0.013076 -0.004453 -0.005308 -0.001604 0.009150 0.001437
# 2 -0.004453 0.011289 -0.006119 0.002977 -0.006089 -0.002302
# 3 -0.005308 -0.006119 0.028976 0.006281 0.000528 -0.005233
# 4 -0.001604 0.002977 0.006281 0.032391 -0.004570 -0.000774
# 5 0.009150 -0.006089 0.000528 -0.004570 0.052559 0.003894
# 6 0.001437 -0.002302 -0.005233 -0.000774 0.003894 0.032288
#
#
# Mechanical properties :
#
#
# Convention : Reuss Voigt Hill
#
# Bulk Modulus (GPa) = 46.33124 72.75017 59.54071
# Shear Modulus (GPa) = 23.86275 30.09223 26.97749
#
# Velocity S-wave (km/s) = 3.40434 3.82297 3.61971
# Velocity P-wave (km/s) = 6.16074 7.40404 6.81082
#
# Compressibility (1/GPa) = 0.02158371
#
# Stress axis : x y z
#
# Youngs Moduli (GPa) = 76.47386 88.58260 34.51114
#
# Poissons Ratio (x) = 0.39443 0.18317
# Poissons Ratio (y) = 0.34051 0.21116
# Poissons Ratio (z) = 0.40589 0.54200
#
# Static dielectric constant tensor:
#      x y z
#    x 3.699680 0.190990 0.020330 
#    y 0.190990 3.877920 -0.112130 
#    z 0.020330 -0.112130 3.919030 
# 
# 
# High freq. dielectric constant tensor:
#      x y z
#    x 1.796110 0.006430 0.012290 
#    y 0.006430 1.803760 -0.008210 
#    z 0.012290 -0.008210 1.817140 
# 
# From -- ./inp_files/528292.got.cif
#   From: 2010.06.25/outbox.cif.g09.slc.cpg/sg2_265_cif.got.tgz:528292.got - 2010.06.27 13:26:56.
