data_PCOD8044254
_publ_section_title
;
Structure prediction by ZEFSAII (Michael W. Deem and Ramdas Pophale) SiO2 
 PCOD8044254
Probable space group: P -1
;
_chemical_formula_sum "Si O2"
_cell_formula_units_Z 16
_cell_length_a 12.973962
_cell_length_b 10.962800
_cell_length_c 14.897066
_cell_angle_alpha 51.366544
_cell_angle_beta 42.888446
_cell_angle_gamma 30.698579
_cell_volume 736.081549
_symmetry_space_group_name_H-M "P -1"
_symmetry_group_IT_number 2
_symmetry_cell_setting 'triclinic'
loop_
_space_group_symop_operation_xyz
x,y,z
-x,-y,-z
loop_
_atom_site_type_symbol
_atom_site_label
_atom_site_fract_x
_atom_site_fract_y
_atom_site_fract_z
Si Si1 0.640368 0.634224 0.396974
Si Si2 0.087989 0.495879 0.180263
Si Si3 0.003820 0.890026 0.135283
Si Si4 0.422643 0.667313 0.697005
Si Si5 0.750849 0.218434 0.797383
Si Si6 0.017848 0.879953 0.630419
Si Si7 0.334296 0.394425 0.903749
Si Si8 0.403753 0.978844 0.231161
O O1 0.504596 0.693807 0.545055
O O2 0.448075 0.863765 0.351276
O O3 0.851152 0.586594 0.305757
O O4 0.738100 0.401113 0.394308
O O5 0.078322 0.657631 0.171497
O O6 0.322913 0.220224 0.187126
O O7 0.111623 0.521992 0.047231
O O8 0.190782 0.812435 0.121374
O O9 0.752457 0.083931 0.252493
O O10 0.000000 0.000000 0.000000
O O11 0.645565 0.462581 0.712768
O O12 0.302017 0.591158 0.787554
O O13 0.557477 0.233346 0.902425
O O14 0.983517 0.000890 0.689928
O O15 0.807251 0.925632 0.734755
O O16 0.000000 0.000000 0.500000
O O17 0.372227 0.229334 0.880083
#
# Coordination Sequence:
#
# PCOD8044254 Si02
#       8
#     2   2   2   2   2   2   2   2
#     4  11  24  39  65  99 135 169 209 267 331 388
#     4  11  25  43  60  94 134 172 218 264 322 389
#     4  12  25  43  68  92 124 173 230 266 312 385
#     4  10  23  42  65  98 125 166 221 264 319 381
#     4   9  22  39  65  97 126 162 212 280 313 365
#     4  10  19  37  66  97 131 163 211 266 326 383
#     4   9  20  44  66  94 126 167 219 269 323 379
#     4  10  23  39  64  97 135 171 208 266 333 387
#
# _framework density 21.736720999999999
#
# number of rings (size 3 to 8) (size 9 to 14) (size 15 to 20)
#    0.750    1.000    2.500    0.375    3.500    6.000 
#    0.000    1.250    0.000    0.000    0.000    0.000 
#    0.000    0.000    0.000    0.000    0.000    0.000 
#
# Total GULP energy -198282.362493 kJ/mol
# GULP energy per Si atom -12392.647656 kJ/mol
# Density = 2.168725 g / cm^3
# Si number density = 21.736721 Si / 1000 Ang^3
#
#
#
# Elastic Constant Matrix: (Units=GPa)
#
#
# Indices 1 2 3 4 5 6 
#
# 1 62.6850 47.0885 33.7994 -9.9923 23.3060 11.7486
# 2 47.0885 150.6659 60.7772 -5.6451 11.9682 32.6063
# 3 33.7994 60.7772 145.0392 3.7707 16.0316 8.9078
# 4 -9.9923 -5.6451 3.7707 39.8960 -1.1012 2.1768
# 5 23.3060 11.9682 16.0316 -1.1012 31.7871 -1.3275
# 6 11.7486 32.6063 8.9078 2.1768 -1.3275 32.5832
#
#
#
# Elastic Compliance Matrix: (Units=1/GPa)
#
#
# Indices 1 2 3 4 5 6 
#
# 1 0.030933 -0.005485 -0.002574 0.007020 -0.019333 -0.006218
# 2 -0.005485 0.011445 -0.003119 0.001039 0.000960 -0.008653
# 3 -0.002574 -0.003119 0.008910 -0.002060 -0.001433 0.001693
# 4 0.007020 0.001039 -0.002060 0.027334 -0.003761 -0.004987
# 5 -0.019333 0.000960 -0.001433 -0.003761 0.046221 0.008536
# 6 -0.006218 -0.008653 0.001693 -0.004987 0.008536 0.041810
#
#
# Mechanical properties :
#
#
# Convention : Reuss Voigt Hill
#
# Bulk Modulus (GPa) = 34.56468 71.30225 52.93347
# Shear Modulus (GPa) = 25.16951 35.30161 30.23556
#
# Velocity S-wave (km/s) = 3.40652 4.03433 3.73364
# Velocity P-wave (km/s) = 5.60433 7.38749 6.55681
#
# Compressibility (1/GPa) = 0.02893126
#
# Stress axis : x y z
#
# Youngs Moduli (GPa) = 32.32756 87.37333 112.23907
#
# Poissons Ratio (x) = 0.47926 0.28888
# Poissons Ratio (y) = 0.17732 0.35012
# Poissons Ratio (z) = 0.08320 0.27256
#
# Static dielectric constant tensor:
#      x y z
#    x 3.723200 0.200490 0.031560 
#    y 0.200490 4.332330 0.028130 
#    z 0.031560 0.028130 3.822610 
# 
# 
# High freq. dielectric constant tensor:
#      x y z
#    x 1.818710 0.000000 0.012110 
#    y 0.000000 1.868500 0.003460 
#    z 0.012110 0.003460 1.854760 
# 
# From -- ./inp_files/530965.got.cif
#   From: 2010.06.25/outbox.cif.g09.slc.cpg/sg2_266_cif.got.tgz:530965.got - 2010.06.27 13:26:56.
