data_PCOD8044561
_publ_section_title
;
Structure prediction by ZEFSAII (Michael W. Deem and Ramdas Pophale) SiO2 
 PCOD8044561
Probable space group: P -1
;
_chemical_formula_sum "Si O2"
_cell_formula_units_Z 14
_cell_length_a 12.283921
_cell_length_b 9.199770
_cell_length_c 8.998527
_cell_angle_alpha 83.552395
_cell_angle_beta 76.027919
_cell_angle_gamma 47.741143
_cell_volume 728.589329
_symmetry_space_group_name_H-M "P -1"
_symmetry_group_IT_number 2
_symmetry_cell_setting 'triclinic'
loop_
_space_group_symop_operation_xyz
x,y,z
-x,-y,-z
loop_
_atom_site_type_symbol
_atom_site_label
_atom_site_fract_x
_atom_site_fract_y
_atom_site_fract_z
Si Si1 0.835593 0.640752 0.110557
Si Si2 0.426992 0.549739 0.786620
Si Si3 0.802217 0.396071 0.341588
Si Si4 0.940519 0.006914 0.857053
Si Si5 0.308076 0.942098 0.918294
Si Si6 0.750884 0.386918 0.693967
Si Si7 0.624112 0.664752 0.954634
O O1 0.827891 0.540293 0.264974
O O2 0.780661 0.848728 0.159851
O O3 0.718606 0.693041 0.017441
O O4 0.000000 0.500000 0.000000
O O5 0.359185 0.526532 0.668073
O O6 0.349674 0.776631 0.807666
O O7 0.606077 0.406986 0.720286
O O8 0.389973 0.485479 0.951851
O O9 0.811978 0.386218 0.515881
O O10 0.929079 0.184745 0.253733
O O11 0.888559 0.190420 0.757039
O O12 0.800364 0.020072 0.919715
O O13 0.000000 0.000000 0.000000
O O14 0.457751 0.874214 0.956498
O O15 0.706473 0.569994 0.780377
#
# Coordination Sequence:
#
# PCOD8044561 Si02
#       7
#     2   2   2   2   2   2   2
#     4  11  23  37  59  83 116 154 197 232 282 350
#     4  10  19  38  63  87 110 152 195 236 282 347
#     4  11  23  37  57  90 120 150 183 243 295 335
#     4  12  20  36  62  88 114 148 197 241 281 340
#     4  11  19  36  62  84 110 149 203 233 273 335
#     4  11  21  37  61  89 118 143 192 245 292 334
#     4  10  20  38  61  84 111 154 197 237 276 344
#
# _framework density 19.215215000000001
#
# number of rings (size 3 to 8) (size 9 to 14) (size 15 to 20)
#    0.000    1.143    5.714    3.000    0.000    0.000 
#    0.000    3.571    3.143    0.000    0.000    0.000 
#    0.000    0.000    0.000    0.000    0.000    0.000 
#
# Total GULP energy -173610.132127 kJ/mol
# GULP energy per Si atom -12400.723723 kJ/mol
# Density = 1.917148 g / cm^3
# Si number density = 19.215215 Si / 1000 Ang^3
#
#
#
# Elastic Constant Matrix: (Units=GPa)
#
#
# Indices 1 2 3 4 5 6 
#
# 1 51.7562 28.3201 27.3141 -11.8404 -7.4093 -2.5090
# 2 28.3201 129.8626 47.8105 -11.0649 -3.8492 -3.9483
# 3 27.3141 47.8105 136.6242 -9.6403 5.6214 -2.7752
# 4 -11.8404 -11.0649 -9.6403 24.4990 -1.3926 1.9509
# 5 -7.4093 -3.8492 5.6214 -1.3926 17.0974 -2.6746
# 6 -2.5090 -3.9483 -2.7752 1.9509 -2.6746 26.1730
#
#
#
# Elastic Compliance Matrix: (Units=1/GPa)
#
#
# Indices 1 2 3 4 5 6 
#
# 1 0.027908 -0.003093 -0.004249 0.011030 0.014065 0.002373
# 2 -0.003093 0.009604 -0.002677 0.001828 0.001997 0.000936
# 3 -0.004249 -0.002677 0.009335 0.000126 -0.005566 -0.000399
# 4 0.011030 0.001828 0.000126 0.047630 0.008826 -0.001302
# 5 0.014065 0.001997 -0.005566 0.008826 0.068744 0.007426
# 6 0.002373 0.000936 -0.000399 -0.001302 0.007426 0.039390
#
#
# Mechanical properties :
#
#
# Convention : Reuss Voigt Hill
#
# Bulk Modulus (GPa) = 37.29999 58.34802 47.82400
# Shear Modulus (GPa) = 21.59041 27.87376 24.73209
#
# Velocity S-wave (km/s) = 3.35567 3.81282 3.59152
# Velocity P-wave (km/s) = 5.87093 7.05797 6.49164
#
# Compressibility (1/GPa) = 0.02680966
#
# Stress axis : x y z
#
# Youngs Moduli (GPa) = 35.83196 104.12535 107.12002
#
# Poissons Ratio (x) = 0.32204 0.45519
# Poissons Ratio (y) = 0.11082 0.28672
# Poissons Ratio (z) = 0.15226 0.27870
#
# Static dielectric constant tensor:
#      x y z
#    x 3.667990 -0.217650 -0.040320 
#    y -0.217650 3.634750 -0.038290 
#    z -0.040320 -0.038290 3.365840 
# 
# 
# High freq. dielectric constant tensor:
#      x y z
#    x 1.750420 -0.016410 -0.004790 
#    y -0.016410 1.756770 0.001230 
#    z -0.004790 0.001230 1.722850 
# 
# From -- ./inp_files/153817.got.cif
#   From: 2010.06.25/outbox.cif.g09.slc.cpg/sg2_77_cif.got.tgz:153817.got - 2010.06.27 13:26:56.
