data_PCOD8044581
_publ_section_title
;
Structure prediction by ZEFSAII (Michael W. Deem and Ramdas Pophale) SiO2 
 PCOD8044581
Probable space group: P -1
;
_chemical_formula_sum "Si O2"
_cell_formula_units_Z 16
_cell_length_a 17.174446
_cell_length_b 5.163105
_cell_length_c 18.601639
_cell_angle_alpha 73.754441
_cell_angle_beta 152.697519
_cell_angle_gamma 107.454291
_cell_volume 721.427136
_symmetry_space_group_name_H-M "P -1"
_symmetry_group_IT_number 2
_symmetry_cell_setting 'triclinic'
loop_
_space_group_symop_operation_xyz
x,y,z
-x,-y,-z
loop_
_atom_site_type_symbol
_atom_site_label
_atom_site_fract_x
_atom_site_fract_y
_atom_site_fract_z
Si Si1 0.273481 0.333425 0.425335
Si Si2 0.558753 0.173072 0.143390
Si Si3 0.020130 0.265470 0.353503
Si Si4 0.146788 0.087453 0.055610
Si Si5 0.902750 0.308779 0.494559
Si Si6 0.008862 0.589418 0.917463
Si Si7 0.514766 0.107173 0.423668
Si Si8 0.357616 0.652275 0.961668
O O1 0.132555 0.263256 0.375216
O O2 0.413468 0.577673 0.543845
O O3 0.362986 0.063901 0.508180
O O4 0.181185 0.415040 0.270013
O O5 0.711301 0.194176 0.323989
O O6 0.634586 0.276043 0.121488
O O7 0.415570 0.353432 0.041383
O O8 0.479133 0.861377 0.094218
O O9 0.106489 0.500776 0.458451
O O10 0.836040 0.342962 0.172729
O O11 0.999580 0.958815 0.393144
O O12 0.119589 0.386551 0.981345
O O13 0.330497 0.072619 0.239992
O O14 0.114500 0.888028 0.976118
O O15 0.000000 0.000000 0.000000
O O16 0.000000 0.500000 0.500000
O O17 0.000000 0.500000 0.000000
O O18 0.500000 0.000000 0.500000
#
# Coordination Sequence:
#
# PCOD8044581 Si02
#       8
#     2   2   2   2   2   2   2   2
#     4  12  26  44  65  98 138 179 213 282 344 399
#     4  10  21  37  64  97 125 163 229 274 317 379
#     4  12  26  44  64  96 142 176 222 272 352 391
#     4  10  20  36  61  93 122 156 210 273 313 375
#     4  12  24  42  70  99 127 180 227 277 321 397
#     4  10  19  38  63  91 122 162 217 261 316 393
#     4  12  23  42  70  98 129 171 226 274 328 398
#     4  10  21  38  63  94 131 168 213 280 325 388
#
# _framework density 22.178262
#
# number of rings (size 3 to 8) (size 9 to 14) (size 15 to 20)
#    0.000    1.000    1.250    7.500    3.500    0.000 
#    0.000    7.500    0.000    0.000    0.000    0.000 
#    0.000    0.000    0.000    0.000    0.000    0.000 
#
# Total GULP energy -198410.207337 kJ/mol
# GULP energy per Si atom -12400.637959 kJ/mol
# Density = 2.212778 g / cm^3
# Si number density = 22.178262 Si / 1000 Ang^3
#
#
#
# Elastic Constant Matrix: (Units=GPa)
#
#
# Indices 1 2 3 4 5 6 
#
# 1 64.5170 27.6402 34.3580 7.9902 13.4260 -14.2611
# 2 27.6402 132.4365 28.8269 -0.1693 -4.1295 -40.5925
# 3 34.3580 28.8269 149.2114 4.6754 3.8148 -18.8287
# 4 7.9902 -0.1693 4.6754 39.7024 -7.4228 0.7243
# 5 13.4260 -4.1295 3.8148 -7.4228 28.4297 2.3882
# 6 -14.2611 -40.5925 -18.8287 0.7243 2.3882 38.0129
#
#
#
# Elastic Compliance Matrix: (Units=1/GPa)
#
#
# Indices 1 2 3 4 5 6 
#
# 1 0.023376 -0.003086 -0.003652 -0.006834 -0.013170 0.004623
# 2 -0.003086 0.011717 -0.000253 0.000970 0.002518 0.011053
# 3 -0.003652 -0.000253 0.007868 -0.000158 0.000403 0.002235
# 4 -0.006834 0.000970 -0.000158 0.028718 0.011127 -0.002853
# 5 -0.013170 0.002518 0.000403 0.011127 0.045039 -0.005094
# 6 0.004623 0.011053 0.002235 -0.002853 -0.005094 0.041325
#
#
# Mechanical properties :
#
#
# Convention : Reuss Voigt Hill
#
# Bulk Modulus (GPa) = 34.50821 58.64612 46.57717
# Shear Modulus (GPa) = 27.51994 38.25165 32.88580
#
# Velocity S-wave (km/s) = 3.52639 4.15750 3.85488
# Velocity P-wave (km/s) = 5.67220 7.03895 6.39221
#
# Compressibility (1/GPa) = 0.02897861
#
# Stress axis : x y z
#
# Youngs Moduli (GPa) = 42.77916 85.34256 127.09068
#
# Poissons Ratio (x) = 0.26338 0.46416
# Poissons Ratio (y) = 0.13203 0.03218
# Poissons Ratio (z) = 0.15624 0.02161
#
# Static dielectric constant tensor:
#      x y z
#    x 3.554160 0.058810 -0.091330 
#    y 0.058810 3.327960 0.057170 
#    z -0.091330 0.057170 4.093250 
# 
# 
# High freq. dielectric constant tensor:
#      x y z
#    x 1.846900 -0.030690 -0.000260 
#    y -0.030690 1.894840 0.000410 
#    z -0.000260 0.000410 1.885120 
# 
# From -- ./inp_files/598994.got.cif
#   From: 2010.06.25/outbox.cif.g09.slc.cpg/sg2_300_cif.got.tgz:598994.got - 2010.06.27 13:26:56.
