data_PCOD8044716
_publ_section_title
;
Structure prediction by ZEFSAII (Michael W. Deem and Ramdas Pophale) SiO2 
 PCOD8044716
Probable space group: P -1
;
_chemical_formula_sum "Si O2"
_cell_formula_units_Z 14
_cell_length_a 9.061619
_cell_length_b 12.762262
_cell_length_c 9.370809
_cell_angle_alpha 128.518026
_cell_angle_beta 136.215552
_cell_angle_gamma 48.713322
_cell_volume 540.664965
_symmetry_space_group_name_H-M "P -1"
_symmetry_group_IT_number 2
_symmetry_cell_setting 'triclinic'
loop_
_space_group_symop_operation_xyz
x,y,z
-x,-y,-z
loop_
_atom_site_type_symbol
_atom_site_label
_atom_site_fract_x
_atom_site_fract_y
_atom_site_fract_z
Si Si1 0.038706 0.319450 0.272307
Si Si2 0.086080 0.600582 0.449539
Si Si3 0.686759 0.462159 0.730080
Si Si4 0.451879 0.778569 0.465832
Si Si5 0.199872 0.283471 0.900036
Si Si6 0.237605 0.977589 0.725474
Si Si7 0.976005 0.066015 0.882995
O O1 0.003272 0.468665 0.298047
O O2 0.302865 0.239690 0.442298
O O3 0.878870 0.340334 0.321006
O O4 0.980960 0.224536 0.034107
O O5 0.318541 0.554472 0.467992
O O6 0.867128 0.720286 0.317294
O O7 0.548934 0.383740 0.659222
O O8 0.955269 0.368590 0.881803
O O9 0.631402 0.629921 0.879456
O O10 0.268100 0.897243 0.335506
O O11 0.429514 0.838796 0.665550
O O12 0.315287 0.115570 0.888512
O O13 0.187854 0.958309 0.841996
O O14 0.000000 0.000000 0.500000
O O15 0.000000 0.000000 0.000000
#
# Coordination Sequence:
#
# PCOD8044716 Si02
#       7
#     2   2   2   2   2   2   2
#     4  11  24  40  64  95 134 160 213 268 322 372
#     4   9  19  38  63  90 124 172 198 263 326 371
#     4   9  17  35  67  90 119 166 218 251 314 379
#     4  11  24  42  68  95 126 170 219 260 312 386
#     4   9  16  34  68  87 118 170 212 247 319 378
#     4  10  19  38  65  94 124 171 211 257 319 376
#     4  11  24  40  64  91 135 170 207 259 324 375
#
# _framework density 25.89404
#
# number of rings (size 3 to 8) (size 9 to 14) (size 15 to 20)
#    0.857    1.143    2.857    1.714    6.000    1.714 
#    0.000    6.429    6.286    0.000    0.000    0.000 
#    0.000    0.000    0.000    0.000    0.000    0.000 
#
# Total GULP energy -173458.472461 kJ/mol
# GULP energy per Si atom -12389.890890 kJ/mol
# Density = 2.583510 g / cm^3
# Si number density = 25.894040 Si / 1000 Ang^3
#
#
#
# Elastic Constant Matrix: (Units=GPa)
#
#
# Indices 1 2 3 4 5 6 
#
# 1 109.1845 17.8708 25.4912 -2.6005 -26.5547 9.6637
# 2 17.8708 88.2930 4.6026 0.9458 -7.7816 19.8170
# 3 25.4912 4.6026 83.7115 17.2230 -13.8953 7.9237
# 4 -2.6005 0.9458 17.2230 41.4781 10.8494 -5.2914
# 5 -26.5547 -7.7816 -13.8953 10.8494 36.8636 -5.2669
# 6 9.6637 19.8170 7.9237 -5.2914 -5.2669 32.1919
#
#
#
# Elastic Compliance Matrix: (Units=1/GPa)
#
#
# Indices 1 2 3 4 5 6 
#
# 1 0.011744 -0.001386 -0.002098 -0.000415 0.007353 -0.001021
# 2 -0.001386 0.013615 0.001298 -0.002504 0.001904 -0.008385
# 3 -0.002098 0.001298 0.015951 -0.009142 0.006826 -0.004482
# 4 -0.000415 -0.002504 -0.009142 0.032173 -0.012724 0.007123
# 5 0.007353 0.001904 0.006826 -0.012724 0.039034 -0.000765
# 6 -0.001021 -0.008385 -0.004482 0.007123 -0.000765 0.038681
#
#
# Mechanical properties :
#
#
# Convention : Reuss Voigt Hill
#
# Bulk Modulus (GPa) = 27.07056 41.90204 34.48630
# Shear Modulus (GPa) = 29.78264 37.65500 33.71882
#
# Velocity S-wave (km/s) = 3.39510 3.81753 3.61249
# Velocity P-wave (km/s) = 5.08390 5.97065 5.54503
#
# Compressibility (1/GPa) = 0.03694050
#
# Stress axis : x y z
#
# Youngs Moduli (GPa) = 85.14859 73.44605 62.69102
#
# Poissons Ratio (x) = 0.10180 0.13150
# Poissons Ratio (y) = 0.11802 -0.08140
# Poissons Ratio (z) = 0.17861 -0.09537
#
# Static dielectric constant tensor:
#      x y z
#    x 4.605910 -0.072240 -0.182940 
#    y -0.072240 4.533430 0.240600 
#    z -0.182940 0.240600 5.100540 
# 
# 
# High freq. dielectric constant tensor:
#      x y z
#    x 2.017810 0.006530 -0.002130 
#    y 0.006530 2.033900 -0.003610 
#    z -0.002130 -0.003610 2.041280 
# 
# From -- ./inp_files/190964.got.cif
#   From: 2010.06.25/outbox.cif.g09.slc.cpg/sg2_96_cif.got.tgz:190964.got - 2010.06.27 13:26:56.
