data_PCOD8044952
_publ_section_title
;
Structure prediction by ZEFSAII (Michael W. Deem and Ramdas Pophale) SiO2 
 PCOD8044952
Probable space group: P 2
;
_chemical_formula_sum "Si O2"
_cell_formula_units_Z 16
_cell_length_a 10.030301
_cell_length_b 17.483920
_cell_length_c 8.668476
_cell_angle_alpha 90.000000
_cell_angle_beta 30.330100
_cell_angle_gamma 90.000000
_cell_volume 767.663127
_symmetry_space_group_name_H-M "P 2"
_symmetry_group_IT_number 3
_symmetry_cell_setting 'monoclinic'
loop_
_space_group_symop_operation_xyz
x,y,z
-x,y,-z
loop_
_atom_site_type_symbol
_atom_site_label
_atom_site_fract_x
_atom_site_fract_y
_atom_site_fract_z
Si Si1 0.533640 0.633600 0.143399
Si Si2 0.966697 0.210960 0.210871
Si Si3 0.537429 0.455950 0.138553
Si Si4 0.962078 0.388575 0.214149
Si Si5 0.532990 0.137739 0.149373
Si Si6 0.966565 0.705821 0.214084
Si Si7 0.995122 0.871317 0.321499
Si Si8 0.505100 0.965655 0.177209
O O1 0.473685 0.544689 0.227417
O O2 0.330903 0.682934 0.446374
O O3 0.500000 0.658258 0.000000
O O4 0.830963 0.650856 0.898838
O O5 0.023425 0.299972 0.180552
O O6 0.670455 0.192842 0.560440
O O7 0.000000 0.188210 0.000000
O O8 0.169806 0.162729 0.110175
O O9 0.338440 0.406876 0.441110
O O10 0.500000 0.431447 0.000000
O O11 0.838172 0.438252 0.883013
O O12 0.000000 0.412196 0.000000
O O13 0.487153 0.051864 0.258836
O O14 0.500000 0.143774 0.000000
O O15 0.023545 0.792196 0.205044
O O16 0.000000 0.695218 0.000000
O O17 0.734110 0.914060 0.524148
O O18 0.000000 0.856564 0.500000
O O19 0.229462 0.925717 0.030860
O O20 0.500000 0.970422 0.000000
#
# Coordination Sequence:
#
# PCOD8044952 Si02
#       8
#     2   2   2   2   2   2   2   2
#     4  11  24  43  64  88 120 161 200 239 296 364
#     4  11  24  41  59  87 125 163 198 239 298 364
#     4  11  24  41  64  92 120 151 200 255 296 344
#     4  11  24  41  62  87 122 163 200 239 296 364
#     4  11  22  39  64  92 118 153 204 255 294 344
#     4  12  25  40  61  93 125 154 197 252 296 344
#     4  10  19  36  60  83 114 158 197 236 292 358
#     4   9  19  35  58  86 114 149 198 245 290 348
#
# _framework density 20.842476999999999
#
# number of rings (size 3 to 8) (size 9 to 14) (size 15 to 20)
#    0.000    1.250    0.000    6.000    0.000   13.000 
#    0.000    3.750    0.000    0.000    0.000    0.000 
#    0.000    0.000    0.000    0.000    0.000    0.000 
#
# Total GULP energy -198526.003137 kJ/mol
# GULP energy per Si atom -12407.875196 kJ/mol
# Density = 2.079504 g / cm^3
# Si number density = 20.842477 Si / 1000 Ang^3
#
#
#
# Elastic Constant Matrix: (Units=GPa)
#
#
# Indices 1 2 3 4 5 6 
#
# 1 79.7444 42.4243 19.6318 0.0000 -0.6503 0.0000
# 2 42.4243 74.6328 19.1130 0.0000 13.6229 0.0000
# 3 19.6318 19.1130 101.3362 0.0000 -2.3541 0.0000
# 4 0.0000 0.0000 0.0000 31.3690 0.0000 -9.7097
# 5 -0.6503 13.6229 -2.3541 0.0000 33.2367 0.0000
# 6 0.0000 0.0000 0.0000 -9.7097 0.0000 -4.9349
#
#
#
# Elastic Compliance Matrix: (Units=1/GPa)
#
#
# Indices 1 2 3 4 5 6 
#
# 1 0.018940 -0.011296 -0.001425 0.000000 0.004899 0.000000
# 2 -0.011296 0.022106 -0.002200 0.000000 -0.009438 0.000000
# 3 -0.001425 -0.002200 0.010597 0.000000 0.001625 0.000000
# 4 0.000000 0.000000 0.000000 0.019812 0.000000 -0.038982
# 5 0.004899 -0.009438 0.001625 0.000000 0.034166 0.000000
# 6 0.000000 0.000000 0.000000 -0.038982 0.000000 -0.125939
#
#
# Mechanical properties :
#
#
# Convention : Reuss Voigt Hill
#
# Bulk Modulus (GPa) = 45.86930 46.45016 46.15973
# Shear Modulus (GPa) = 297.75420 23.57044 160.66232
#
# Velocity S-wave (km/s) = 11.96534 3.36651 8.78928
# Velocity P-wave (km/s) = 14.59274 6.11930 11.18914
#
# Compressibility (1/GPa) = 0.02180108
#
# Stress axis : x y z
#
# Youngs Moduli (GPa) = 52.79770 45.23645 94.36680
#
# Poissons Ratio (x) = 0.51098 0.13447
# Poissons Ratio (y) = 0.59639 0.20764
# Poissons Ratio (z) = 0.07523 0.09954
#
# Static dielectric constant tensor:
#      x y z
#    x 4.328670 0.000000 -0.062780 
#    y 0.000000 3.822170 0.000000 
#    z -0.062780 0.000000 3.798220 
# 
# 
# High freq. dielectric constant tensor:
#      x y z
#    x 1.811780 0.000000 -0.009150 
#    y 0.000000 1.828490 0.000000 
#    z -0.009150 0.000000 1.827770 
# 
# From -- ./inp_files/6205.got.cif
#   From: 2010.03.12/outbox.cif.g09.slc.cpg/sg3_4_cif.got.tgz:6205.got - 2010.03.31 09:20:49.
