data_PCOD8044620
_publ_section_title
;
Structure prediction by ZEFSAII (Michael W. Deem and Ramdas Pophale) SiO2 
 PCOD8044620
Probable space group: P -1
;
_chemical_formula_sum "Si O2"
_cell_formula_units_Z 16
_cell_length_a 14.864358
_cell_length_b 11.912887
_cell_length_c 9.043753
_cell_angle_alpha 112.770514
_cell_angle_beta 53.137752
_cell_angle_gamma 70.754501
_cell_volume 765.713886
_symmetry_space_group_name_H-M "P -1"
_symmetry_group_IT_number 2
_symmetry_cell_setting 'triclinic'
loop_
_space_group_symop_operation_xyz
x,y,z
-x,-y,-z
loop_
_atom_site_type_symbol
_atom_site_label
_atom_site_fract_x
_atom_site_fract_y
_atom_site_fract_z
Si Si1 0.465527 0.150980 0.308376
Si Si2 0.831517 0.441386 0.518249
Si Si3 0.535044 0.505731 0.799252
Si Si4 0.589560 0.626652 0.269463
Si Si5 0.909109 0.565992 0.282206
Si Si6 0.034283 0.702127 0.376069
Si Si7 0.531620 0.837351 0.165940
Si Si8 0.308337 0.916000 0.187909
O O1 0.423215 0.308693 0.521400
O O2 0.295038 0.246776 0.440376
O O3 0.534706 0.980823 0.249974
O O4 0.611138 0.061402 0.001630
O O5 0.721448 0.417106 0.554743
O O6 0.939393 0.411838 0.259969
O O7 0.958782 0.293798 0.449621
O O8 0.698306 0.653076 0.817198
O O9 0.539261 0.381624 0.630152
O O10 0.500000 0.500000 0.000000
O O11 0.380138 0.720133 0.003957
O O12 0.535530 0.782533 0.298222
O O13 0.780328 0.418800 0.938745
O O14 0.985193 0.605551 0.333444
O O15 0.000000 0.500000 0.000000
O O16 0.898364 0.910933 0.548058
O O17 0.356662 0.931622 0.308328
#
# Coordination Sequence:
#
# PCOD8044620 Si02
#       8
#     2   2   2   2   2   2   2   2
#     4  12  22  39  60  97 129 159 207 258 320 371
#     4  10  22  41  64  91 122 172 209 252 310 374
#     4  11  20  43  69  86 122 171 220 248 294 383
#     4  11  24  40  63  96 124 170 206 254 316 368
#     4  12  22  37  60  95 133 160 197 263 327 368
#     4  11  22  38  63  97 124 157 211 261 316 365
#     4  10  19  38  64  87 124 162 207 251 304 376
#     4  11  22  38  66  92 121 168 210 258 302 371
#
# _framework density 20.895534000000001
#
# number of rings (size 3 to 8) (size 9 to 14) (size 15 to 20)
#    0.000    1.000    8.750    1.875    0.000    2.000 
#    2.250    0.000    0.000    0.750    0.000    0.000 
#    0.000    0.000    0.000    0.000    0.000    0.000 
#
# Total GULP energy -198398.725236 kJ/mol
# GULP energy per Si atom -12399.920327 kJ/mol
# Density = 2.084798 g / cm^3
# Si number density = 20.895534 Si / 1000 Ang^3
#
#
#
# Elastic Constant Matrix: (Units=GPa)
#
#
# Indices 1 2 3 4 5 6 
#
# 1 104.1143 22.3428 19.3988 0.2487 -8.9960 5.4895
# 2 22.3428 78.3809 17.0119 11.9622 -13.4381 -1.4029
# 3 19.3988 17.0119 42.2878 -3.0424 -6.6714 -9.7491
# 4 0.2487 11.9622 -3.0424 32.6810 -1.7474 -6.8243
# 5 -8.9960 -13.4381 -6.6714 -1.7474 19.5857 5.3574
# 6 5.4895 -1.4029 -9.7491 -6.8243 5.3574 42.3184
#
#
#
# Elastic Compliance Matrix: (Units=1/GPa)
#
#
# Indices 1 2 3 4 5 6 
#
# 1 0.011283 -0.001619 -0.004752 -0.000407 0.003262 -0.003091
# 2 -0.001619 0.017047 -0.005821 -0.006872 0.009130 -0.002830
# 3 -0.004752 -0.005821 0.031023 0.006943 0.002727 0.008345
# 4 -0.000407 -0.006872 0.006943 0.035209 -0.001386 0.007278
# 5 0.003262 0.009130 0.002727 -0.001386 0.061684 -0.007525
# 6 -0.003091 -0.002830 0.008345 0.007278 -0.007525 0.027986
#
#
# Mechanical properties :
#
#
# Convention : Reuss Voigt Hill
#
# Bulk Modulus (GPa) = 28.59726 38.03223 33.31474
# Shear Modulus (GPa) = 22.69906 29.98565 26.34235
#
# Velocity S-wave (km/s) = 3.29950 3.79228 3.55444
# Velocity P-wave (km/s) = 5.31330 6.11685 5.72918
#
# Compressibility (1/GPa) = 0.03496839
#
# Stress axis : x y z
#
# Youngs Moduli (GPa) = 88.62538 58.66234 32.23428
#
# Poissons Ratio (x) = 0.09497 0.15317
# Poissons Ratio (y) = 0.14348 0.18765
# Poissons Ratio (z) = 0.42114 0.34150
#
# Static dielectric constant tensor:
#      x y z
#    x 4.047160 -0.097180 -0.258250 
#    y -0.097180 3.983460 -0.043830 
#    z -0.258250 -0.043830 3.532020 
# 
# 
# High freq. dielectric constant tensor:
#      x y z
#    x 1.823600 -0.007520 -0.008920 
#    y -0.007520 1.825620 -0.003420 
#    z -0.008920 -0.003420 1.780990 
# 
# From -- ./inp_files/207934.got.cif
#   From: 2010.06.25/outbox.cif.g09.slc.cpg/sg2_104_cif.got.tgz:207934.got - 2010.06.27 13:26:56.
