data_PCOD8044209
_publ_section_title
;
Structure prediction by ZEFSAII (Michael W. Deem and Ramdas Pophale) SiO2 
 PCOD8044209
Probable space group: P -1
;
_chemical_formula_sum "Si O2"
_cell_formula_units_Z 16
_cell_length_a 11.431041
_cell_length_b 15.126505
_cell_length_c 20.280083
_cell_angle_alpha 28.683949
_cell_angle_beta 29.215983
_cell_angle_gamma 29.928840
_cell_volume 741.326045
_symmetry_space_group_name_H-M "P -1"
_symmetry_group_IT_number 2
_symmetry_cell_setting 'triclinic'
loop_
_space_group_symop_operation_xyz
x,y,z
-x,-y,-z
loop_
_atom_site_type_symbol
_atom_site_label
_atom_site_fract_x
_atom_site_fract_y
_atom_site_fract_z
Si Si1 0.427870 0.348529 0.092420
Si Si2 0.408949 0.108586 0.663050
Si Si3 0.357878 0.630108 0.691914
Si Si4 0.169914 0.540562 0.706415
Si Si5 0.615087 0.188099 0.647056
Si Si6 0.854605 0.890886 0.834590
Si Si7 0.651384 0.181833 0.859587
Si Si8 0.135080 0.837292 0.097500
O O1 0.117037 0.453995 0.161706
O O2 0.507812 0.131974 0.232269
O O3 0.500000 0.500000 0.000000
O O4 0.586398 0.328353 0.959192
O O5 0.543237 0.196446 0.486092
O O6 0.490918 0.132510 0.681206
O O7 0.089855 0.241234 0.724484
O O8 0.212607 0.590981 0.726272
O O9 0.608928 0.417503 0.726224
O O10 0.151402 0.708370 0.803683
O O11 0.385202 0.315049 0.729085
O O12 0.204042 0.698033 0.535824
O O13 0.806643 0.984094 0.723556
O O14 0.840601 0.055098 0.789516
O O15 0.642100 0.805532 0.012902
O O16 0.793789 0.075192 0.927647
O O17 0.000000 0.000000 0.000000
#
# Coordination Sequence:
#
# PCOD8044209 Si02
#       8
#     2   2   2   2   2   2   2   2
#     4  11  22  38  61  97 124 165 215 269 312 372
#     4  10  22  40  64  90 125 171 215 262 315 374
#     4  11  22  42  64  96 129 166 214 261 320 381
#     4  10  20  35  64  98 128 163 212 262 313 373
#     4  10  19  37  65  95 128 166 207 264 317 365
#     4  11  22  39  64  95 130 167 206 262 321 373
#     4  11  24  41  62  94 127 169 209 261 322 383
#     4  10  22  44  64  85 122 165 209 262 319 372
#
# _framework density 21.582944999999999
#
# number of rings (size 3 to 8) (size 9 to 14) (size 15 to 20)
#    0.000    1.500    1.250    4.875    0.000    3.500 
#    6.750    0.625    0.000    0.000    0.000    0.000 
#    0.000    0.000    0.000    0.000    0.000    0.000 
#
# Total GULP energy -198388.185122 kJ/mol
# GULP energy per Si atom -12399.261570 kJ/mol
# Density = 2.153382 g / cm^3
# Si number density = 21.582945 Si / 1000 Ang^3
#
#
#
# Elastic Constant Matrix: (Units=GPa)
#
#
# Indices 1 2 3 4 5 6 
#
# 1 85.3580 42.7943 37.0466 11.8330 -8.7114 8.9373
# 2 42.7943 116.2619 41.2118 11.3271 -5.0060 18.2693
# 3 37.0466 41.2118 83.9656 5.0820 -14.4069 7.0789
# 4 11.8330 11.3271 5.0820 45.7362 -2.8423 -1.1483
# 5 -8.7114 -5.0060 -14.4069 -2.8423 35.3314 2.4735
# 6 8.9373 18.2693 7.0789 -1.1483 2.4735 29.8727
#
#
#
# Elastic Compliance Matrix: (Units=1/GPa)
#
#
# Indices 1 2 3 4 5 6 
#
# 1 0.016388 -0.003717 -0.004851 -0.002734 0.001435 -0.001704
# 2 -0.003717 0.012403 -0.003959 -0.001843 -0.000532 -0.005562
# 3 -0.004851 -0.003959 0.016894 0.000669 0.005223 -0.000538
# 4 -0.002734 -0.001843 0.000669 0.023082 0.001013 0.002590
# 5 0.001435 -0.000532 0.005223 0.001013 0.031065 -0.003875
# 6 -0.001704 -0.005562 -0.000538 0.002590 -0.003875 0.037935
#
#
# Mechanical properties :
#
#
# Convention : Reuss Voigt Hill
#
# Bulk Modulus (GPa) = 48.46681 58.63229 53.54955
# Shear Modulus (GPa) = 29.46431 33.15693 31.31062
#
# Velocity S-wave (km/s) = 3.69882 3.92376 3.81295
# Velocity P-wave (km/s) = 6.38330 6.91035 6.65205
#
# Compressibility (1/GPa) = 0.02063268
#
# Stress axis : x y z
#
# Youngs Moduli (GPa) = 61.02002 80.62380 59.19273
#
# Poissons Ratio (x) = 0.29965 0.28714
# Poissons Ratio (y) = 0.22679 0.23433
# Poissons Ratio (z) = 0.29600 0.31917
#
# Static dielectric constant tensor:
#      x y z
#    x 3.756620 -0.016210 -0.111360 
#    y -0.016210 4.101940 0.204730 
#    z -0.111360 0.204730 4.188620 
# 
# 
# High freq. dielectric constant tensor:
#      x y z
#    x 1.831360 0.004760 0.000030 
#    y 0.004760 1.852370 0.009920 
#    z 0.000030 0.009920 1.849130 
# 
# From -- ./inp_files/451298.got.cif
#   From: 2010.06.25/outbox.cif.g09.slc.cpg/sg2_226_cif.got.tgz:451298.got - 2010.06.27 13:26:56.
