data_PCOD8044016
_publ_section_title
;
Structure prediction by ZEFSAII (Michael W. Deem and Ramdas Pophale) SiO2 
 PCOD8044016
Probable space group: P -1
;
_chemical_formula_sum "Si O2"
_cell_formula_units_Z 16
_cell_length_a 9.836106
_cell_length_b 17.309134
_cell_length_c 12.904144
_cell_angle_alpha 150.695739
_cell_angle_beta 50.634586
_cell_angle_gamma 132.227630
_cell_volume 789.176077
_symmetry_space_group_name_H-M "P -1"
_symmetry_group_IT_number 2
_symmetry_cell_setting 'triclinic'
loop_
_space_group_symop_operation_xyz
x,y,z
-x,-y,-z
loop_
_atom_site_type_symbol
_atom_site_label
_atom_site_fract_x
_atom_site_fract_y
_atom_site_fract_z
Si Si1 0.399379 0.104030 0.233454
Si Si2 0.321973 0.636157 0.249056
Si Si3 0.146280 0.323934 0.252572
Si Si4 0.298387 0.374424 0.466931
Si Si5 0.032315 0.887561 0.260657
Si Si6 0.978327 0.480558 0.108712
Si Si7 0.706147 0.729598 0.088923
Si Si8 0.250170 0.702693 0.581955
O O1 0.313206 0.216569 0.336954
O O2 0.553018 0.208374 0.359568
O O3 0.233193 0.976762 0.224420
O O4 0.500000 0.000000 0.000000
O O5 0.509558 0.751302 0.238368
O O6 0.281320 0.732528 0.479906
O O7 0.161038 0.615922 0.221191
O O8 0.317674 0.456055 0.079976
O O9 0.201585 0.306194 0.324016
O O10 0.192782 0.516352 0.431553
O O11 0.925210 0.232486 0.232295
O O12 0.256702 0.247567 0.026381
O O13 0.500000 0.500000 0.500000
O O14 0.192530 0.474423 0.704680
O O15 0.871145 0.866016 0.228216
O O16 0.033306 0.707012 0.082365
O O17 0.000000 0.000000 0.500000
O O18 0.000000 0.500000 0.000000
#
# Coordination Sequence:
#
# PCOD8044016 Si02
#       8
#     2   2   2   2   2   2   2   2
#     4  12  25  41  65  93 133 173 209 256 333 393
#     4   9  18  35  60  90 119 156 218 263 307 362
#     4  10  20  36  65  93 125 158 219 271 307 363
#     4  12  24  41  65  99 130 164 220 272 313 369
#     4  11  23  42  64  94 132 170 209 256 329 394
#     4  11  24  41  67  95 125 166 217 274 314 370
#     4   9  19  34  60  91 121 163 209 259 310 375
#     4  10  19  37  62  91 124 167 207 262 314 376
#
# _framework density 20.274308000000001
#
# number of rings (size 3 to 8) (size 9 to 14) (size 15 to 20)
#    0.000    1.500    2.500    3.000    3.500    2.000 
#    0.000    2.500    0.000    2.250    0.000    0.000 
#    0.000    0.000    0.000    0.000    0.000    0.000 
#
# Total GULP energy -198305.007245 kJ/mol
# GULP energy per Si atom -12394.062953 kJ/mol
# Density = 2.022816 g / cm^3
# Si number density = 20.274308 Si / 1000 Ang^3
#
#
#
# Elastic Constant Matrix: (Units=GPa)
#
#
# Indices 1 2 3 4 5 6 
#
# 1 143.0047 67.8406 56.2275 -18.8491 18.9122 9.7383
# 2 67.8406 116.8564 54.8852 -31.8585 7.1120 24.4361
# 3 56.2275 54.8852 119.6156 -21.2740 10.0966 0.8576
# 4 -18.8491 -31.8585 -21.2740 27.1671 -7.6885 -4.7601
# 5 18.9122 7.1120 10.0966 -7.6885 35.6032 -7.4955
# 6 9.7383 24.4361 0.8576 -4.7601 -7.4955 40.7753
#
#
#
# Elastic Compliance Matrix: (Units=1/GPa)
#
#
# Indices 1 2 3 4 5 6 
#
# 1 0.010903 -0.005253 -0.002698 -0.002071 -0.004524 -0.000472
# 2 -0.005253 0.018919 -0.003670 0.014701 0.001541 -0.008007
# 3 -0.002698 -0.003670 0.011943 0.003786 0.000245 0.003079
# 4 -0.002071 0.014701 0.003786 0.058369 0.009739 0.000209
# 5 -0.004524 0.001541 0.000245 0.009739 0.033795 0.007501
# 6 -0.000472 -0.008007 0.003079 0.000209 0.007501 0.030774
#
#
# Mechanical properties :
#
#
# Convention : Reuss Voigt Hill
#
# Bulk Modulus (GPa) = 53.98559 81.93147 67.95853
# Shear Modulus (GPa) = 25.75719 34.07733 29.91726
#
# Velocity S-wave (km/s) = 3.56818 4.10422 3.84555
# Velocity P-wave (km/s) = 6.60767 7.93465 7.30137
#
# Compressibility (1/GPa) = 0.01852346
#
# Stress axis : x y z
#
# Youngs Moduli (GPa) = 91.71716 52.85586 83.73311
#
# Poissons Ratio (x) = 0.27766 0.22591
# Poissons Ratio (y) = 0.48180 0.30728
# Poissons Ratio (z) = 0.24745 0.19397
#
# Static dielectric constant tensor:
#      x y z
#    x -0.013200 -0.644160 -0.464580 
#    y -0.644160 3.561280 -0.431440 
#    z -0.464580 -0.431440 3.617150 
# 
# 
# High freq. dielectric constant tensor:
#      x y z
#    x 1.798770 0.018020 0.012980 
#    y 0.018020 1.796660 -0.024400 
#    z 0.012980 -0.024400 1.788050 
# 
# From -- ./inp_files/346005.got.cif
#   From: 2010.06.25/outbox.cif.g09.slc.cpg/sg2_174_cif.got.tgz:346005.got - 2010.06.27 13:26:56.
