data_PCOD8044447
_publ_section_title
;
Structure prediction by ZEFSAII (Michael W. Deem and Ramdas Pophale) SiO2 
 PCOD8044447
Probable space group: P -1
;
_chemical_formula_sum "Si O2"
_cell_formula_units_Z 16
_cell_length_a 15.462868
_cell_length_b 10.345762
_cell_length_c 12.556755
_cell_angle_alpha 114.357374
_cell_angle_beta 64.886576
_cell_angle_gamma 155.705572
_cell_volume 746.564500
_symmetry_space_group_name_H-M "P -1"
_symmetry_group_IT_number 2
_symmetry_cell_setting 'triclinic'
loop_
_space_group_symop_operation_xyz
x,y,z
-x,-y,-z
loop_
_atom_site_type_symbol
_atom_site_label
_atom_site_fract_x
_atom_site_fract_y
_atom_site_fract_z
Si Si1 0.231920 0.389552 0.817638
Si Si2 0.936641 0.119822 0.569160
Si Si3 0.225718 0.066477 0.765946
Si Si4 0.488811 0.753216 0.203073
Si Si5 0.128152 0.171465 0.325938
Si Si6 0.220886 0.869779 0.495331
Si Si7 0.841278 0.663578 0.939426
Si Si8 0.619627 0.242088 0.332735
O O1 0.318334 0.346941 0.789905
O O2 0.368175 0.644978 0.741139
O O3 0.233500 0.492226 0.957653
O O4 0.987731 0.045748 0.790972
O O5 0.800347 0.071517 0.584072
O O6 0.956080 0.039912 0.431614
O O7 0.170845 0.468496 0.607058
O O8 0.800459 0.862351 0.645224
O O9 0.344105 0.151741 0.833622
O O10 0.262130 0.021682 0.627149
O O11 0.975679 0.733766 0.818457
O O12 0.326020 0.528942 0.310956
O O13 0.369565 0.568245 0.091327
O O14 0.599777 0.052752 0.245304
O O15 0.000000 0.500000 0.500000
O O16 0.416338 0.020847 0.432491
O O17 0.000000 0.000000 0.000000
#
# Coordination Sequence:
#
# PCOD8044447 Si02
#       8
#     2   2   2   2   2   2   2   2
#     4  10  22  44  63  91 125 164 209 263 302 366
#     4  10  21  38  58  88 126 166 201 249 303 367
#     4  11  23  38  67  94 120 166 214 249 308 375
#     4  12  23  40  63  93 124 163 208 259 311 368
#     4  10  19  38  61  86 124 162 205 252 303 359
#     4  12  23  38  64  93 130 167 206 248 315 375
#     4  10  21  43  66  90 124 161 211 263 308 359
#     4  11  26  40  61  96 133 159 204 259 316 363
#
# _framework density 21.431502999999999
#
# number of rings (size 3 to 8) (size 9 to 14) (size 15 to 20)
#    0.000    1.250    3.750    3.000    1.750    4.500 
#    0.000    0.625    0.000    0.000    0.000    0.000 
#    0.000    0.000    0.000    0.000    0.000    0.000 
#
# Total GULP energy -198330.544528 kJ/mol
# GULP energy per Si atom -12395.659033 kJ/mol
# Density = 2.138272 g / cm^3
# Si number density = 21.431503 Si / 1000 Ang^3
#
#
#
# Elastic Constant Matrix: (Units=GPa)
#
#
# Indices 1 2 3 4 5 6 
#
# 1 112.1047 20.5684 27.7112 7.2963 16.0362 0.0788
# 2 20.5684 68.0415 19.8149 1.0413 9.9854 -9.4611
# 3 27.7112 19.8149 82.8962 0.3854 20.9639 0.8712
# 4 7.2963 1.0413 0.3854 24.4186 6.4650 -0.0628
# 5 16.0362 9.9854 20.9639 6.4650 29.0238 6.0452
# 6 0.0788 -9.4611 0.8712 -0.0628 6.0452 37.4066
#
#
#
# Elastic Compliance Matrix: (Units=1/GPa)
#
#
# Indices 1 2 3 4 5 6 
#
# 1 0.010411 -0.002031 -0.002241 -0.002211 -0.002940 -0.000012
# 2 -0.002031 0.017365 -0.002411 0.001091 -0.004431 0.005170
# 3 -0.002241 -0.002411 0.015984 0.003262 -0.010350 0.000701
# 4 -0.002211 0.001091 0.003262 0.044677 -0.011921 0.002206
# 5 -0.002940 -0.004431 -0.010350 -0.011921 0.049590 -0.008908
# 6 -0.000012 0.005170 0.000701 0.002206 -0.008908 0.029468
#
#
# Mechanical properties :
#
#
# Convention : Reuss Voigt Hill
#
# Bulk Modulus (GPa) = 32.90045 44.35904 38.62975
# Shear Modulus (GPa) = 26.17909 31.16634 28.67271
#
# Velocity S-wave (km/s) = 3.49882 3.81757 3.66167
# Velocity P-wave (km/s) = 5.63091 6.33836 5.99508
#
# Compressibility (1/GPa) = 0.03039472
#
# Stress axis : x y z
#
# Youngs Moduli (GPa) = 96.04981 57.58563 62.56417
#
# Poissons Ratio (x) = 0.11696 0.14020
# Poissons Ratio (y) = 0.19508 0.15083
# Poissons Ratio (z) = 0.21524 0.13883
#
# Static dielectric constant tensor:
#      x y z
#    x 4.118380 -0.054040 0.325110 
#    y -0.054040 3.787310 -0.150760 
#    z 0.325110 -0.150760 4.276460 
# 
# 
# High freq. dielectric constant tensor:
#      x y z
#    x 1.843120 0.001140 0.025760 
#    y 0.001140 1.828560 0.003130 
#    z 0.025760 0.003130 1.838230 
# 
# From -- ./inp_files/353808.got.cif
#   From: 2010.06.25/outbox.cif.g09.slc.cpg/sg2_177_cif.got.tgz:353808.got - 2010.06.27 13:26:56.
