data_PCOD8044985
_publ_section_title
;
Structure prediction by ZEFSAII (Michael W. Deem and Ramdas Pophale) SiO2 
 PCOD8044985
Probable space group: P 2
;
_chemical_formula_sum "Si O2"
_cell_formula_units_Z 15
_cell_length_a 11.198645
_cell_length_b 9.311625
_cell_length_c 12.538628
_cell_angle_alpha 90.000000
_cell_angle_beta 36.227567
_cell_angle_gamma 90.000000
_cell_volume 772.723178
_symmetry_space_group_name_H-M "P 2"
_symmetry_group_IT_number 3
_symmetry_cell_setting 'monoclinic'
loop_
_space_group_symop_operation_xyz
x,y,z
-x,y,-z
loop_
_atom_site_type_symbol
_atom_site_label
_atom_site_fract_x
_atom_site_fract_y
_atom_site_fract_z
Si Si1 0.628077 0.660580 0.607223
Si Si2 0.197669 0.098619 0.422795
Si Si3 0.615578 0.339866 0.568162
Si Si4 0.500000 0.812169 0.500000
Si Si5 0.179865 0.283957 0.796073
Si Si6 0.636363 0.849960 0.803365
Si Si7 0.990835 0.841631 0.325267
Si Si8 0.919539 0.959993 0.169258
O O1 0.596678 0.491240 0.641809
O O2 0.482818 0.712849 0.616733
O O3 0.570266 0.741027 0.758285
O O4 0.859368 0.696879 0.408643
O O5 0.284939 0.235793 0.417919
O O6 0.000000 0.148134 0.500000
O O7 0.365050 0.019832 0.226635
O O8 0.153913 0.973700 0.538885
O O9 0.391910 0.276055 0.706697
O O10 0.759648 0.361524 0.359565
O O11 0.695049 0.912206 0.361358
O O12 0.085107 0.131470 0.831644
O O13 0.000000 0.357444 0.000000
O O14 0.857770 0.812063 0.687962
O O15 0.500000 0.817742 0.000000
O O16 0.072598 0.894661 0.149996
O O17 0.000000 0.896555 0.000000
#
# Coordination Sequence:
#
# PCOD8044985 Si02
#       8
#     2   2   2   1   2   2   2   2
#     4  10  22  38  59  84 120 160 202 238 304 365
#     4   9  19  37  60  84 114 157 206 244 305 358
#     4  11  21  40  62  86 123 170 195 248 306 364
#     4  10  20  36  54  88 120 152 196 250 290 366
#     4  10  22  37  60  92 124 158 199 253 307 362
#     4  10  22  38  62  88 120 156 198 262 303 352
#     4   9  19  39  57  85 115 154 201 248 298 361
#     4  10  20  32  60  92 117 148 199 249 301 351
#
# _framework density 19.411867000000001
#
# number of rings (size 3 to 8) (size 9 to 14) (size 15 to 20)
#    0.000    2.133    1.333    2.800    5.600    2.133 
#    2.400    4.000    0.000    0.000    0.000    0.000 
#    0.000    0.000    0.000    0.000    0.000    0.000 
#
# Total GULP energy -185826.284314 kJ/mol
# GULP energy per Si atom -12388.418954 kJ/mol
# Density = 1.936769 g / cm^3
# Si number density = 19.411867 Si / 1000 Ang^3
#
#
#
# Elastic Constant Matrix: (Units=GPa)
#
#
# Indices 1 2 3 4 5 6 
#
# 1 104.0316 37.6535 28.1323 0.0000 22.1843 0.0000
# 2 37.6535 77.6852 17.4796 0.0000 8.8139 0.0000
# 3 28.1323 17.4796 110.3829 0.0000 17.4080 0.0000
# 4 0.0000 0.0000 0.0000 16.6352 0.0000 5.0387
# 5 22.1843 8.8139 17.4080 0.0000 28.8336 0.0000
# 6 0.0000 0.0000 0.0000 5.0387 0.0000 18.8658
#
#
#
# Elastic Compliance Matrix: (Units=1/GPa)
#
#
# Indices 1 2 3 4 5 6 
#
# 1 0.013645 -0.005397 -0.001357 0.000000 -0.008030 0.000000
# 2 -0.005397 0.015738 -0.001119 0.000000 0.000018 0.000000
# 3 -0.001357 -0.001119 0.010349 0.000000 -0.004862 0.000000
# 4 0.000000 0.000000 0.000000 0.065405 0.000000 -0.017468
# 5 -0.008030 0.000018 -0.004862 0.000000 0.043790 0.000000
# 6 0.000000 0.000000 0.000000 -0.017468 0.000000 0.057671
#
#
# Mechanical properties :
#
#
# Convention : Reuss Voigt Hill
#
# Bulk Modulus (GPa) = 41.69133 50.95894 46.32514
# Shear Modulus (GPa) = 21.70695 26.78920 24.24808
#
# Velocity S-wave (km/s) = 3.34762 3.71892 3.53815
# Velocity P-wave (km/s) = 6.03871 6.68946 6.37240
#
# Compressibility (1/GPa) = 0.02398580
#
# Stress axis : x y z
#
# Youngs Moduli (GPa) = 73.28598 63.53862 96.62592
#
# Poissons Ratio (x) = 0.34295 0.13108
# Poissons Ratio (y) = 0.39556 0.10817
# Poissons Ratio (z) = 0.09942 0.07113
#
# Static dielectric constant tensor:
#      x y z
#    x 3.706550 0.000000 0.325690 
#    y 0.000000 3.292120 0.000000 
#    z 0.325690 0.000000 3.707670 
# 
# 
# High freq. dielectric constant tensor:
#      x y z
#    x 1.768880 0.000000 0.016800 
#    y 0.000000 1.729600 0.000000 
#    z 0.016800 0.000000 1.749760 
# 
# From -- ./inp_files/11699.got.cif
#   From: 2010.03.12/outbox.cif.g09.slc.cpg/sg3_6_cif.got.tgz:11699.got - 2010.03.31 09:20:49.
