data_PCOD8044904
_publ_section_title
;
Structure prediction by ZEFSAII (Michael W. Deem and Ramdas Pophale) SiO2 
 PCOD8044904
Probable space group: P 2
;
_chemical_formula_sum "Si O2"
_cell_formula_units_Z 12
_cell_length_a 14.007018
_cell_length_b 8.231369
_cell_length_c 13.747408
_cell_angle_alpha 90.000000
_cell_angle_beta 158.936618
_cell_angle_gamma 90.000000
_cell_volume 569.661976
_symmetry_space_group_name_H-M "P 2"
_symmetry_group_IT_number 3
_symmetry_cell_setting 'monoclinic'
loop_
_space_group_symop_operation_xyz
x,y,z
-x,y,-z
loop_
_atom_site_type_symbol
_atom_site_label
_atom_site_fract_x
_atom_site_fract_y
_atom_site_fract_z
Si Si1 0.261020 0.482420 0.199555
Si Si2 0.462147 0.164783 0.350576
Si Si3 0.707228 0.581700 0.970469
Si Si4 0.426608 0.942611 0.139866
Si Si5 0.963090 0.070338 0.576991
Si Si6 0.779908 0.372487 0.503327
O O1 0.500000 0.474082 0.500000
O O2 0.221201 0.297257 0.120130
O O3 0.337251 0.605459 0.187140
O O4 0.000000 0.551576 0.000000
O O5 0.500000 0.110199 0.500000
O O6 0.393541 0.006193 0.220402
O O7 0.707154 0.265631 0.531345
O O8 0.475865 0.461692 0.787191
O O9 0.677877 0.762354 0.983002
O O10 0.998850 0.508559 0.265174
O O11 0.735273 0.952340 0.403620
O O12 0.243622 0.054525 0.898477
O O13 0.876432 0.256263 0.508832
O O14 0.000000 0.028418 0.500000
#
# Coordination Sequence:
#
# PCOD8044904 Si02
#       6
#     2   2   2   2   2   2
#     4  10  19  32  53  79 112 160 205 237 276 334
#     4   9  19  36  60  87 120 161 205 239 281 347
#     4  11  21  38  57  86 124 152 188 248 299 345
#     4  11  24  39  62  92 125 156 190 245 307 354
#     4  11  23  44  66  87 114 155 202 247 296 358
#     4  10  21  39  64  85 114 158 203 242 287 346
#
# _framework density 21.065123
#
# number of rings (size 3 to 8) (size 9 to 14) (size 15 to 20)
#    0.000    1.667    0.000    7.500    0.000    3.333 
#    0.000    7.500    0.000    0.000    0.000    0.000 
#    0.000    0.000    0.000    0.000    0.000    0.000 
#
# Total GULP energy -148683.822129 kJ/mol
# GULP energy per Si atom -12390.318511 kJ/mol
# Density = 2.101718 g / cm^3
# Si number density = 21.065123 Si / 1000 Ang^3
#
#
#
# Elastic Constant Matrix: (Units=GPa)
#
#
# Indices 1 2 3 4 5 6 
#
# 1 88.4605 14.5746 13.9397 0.0000 -8.9208 0.0000
# 2 14.5746 85.7984 17.1535 0.0000 2.2645 0.0000
# 3 13.9397 17.1535 86.0101 0.0000 7.1564 0.0000
# 4 0.0000 0.0000 0.0000 31.9036 0.0000 3.7136
# 5 -8.9208 2.2645 7.1564 0.0000 26.0807 0.0000
# 6 0.0000 0.0000 0.0000 3.7136 0.0000 14.2864
#
#
#
# Elastic Compliance Matrix: (Units=1/GPa)
#
#
# Indices 1 2 3 4 5 6 
#
# 1 0.012433 -0.001831 -0.002064 0.000000 0.004978 0.000000
# 2 -0.001831 0.012413 -0.002085 0.000000 -0.001132 0.000000
# 3 -0.002064 -0.002085 0.012711 0.000000 -0.004013 0.000000
# 4 0.000000 0.000000 0.000000 0.032322 0.000000 -0.008402
# 5 0.004978 -0.001132 -0.004013 0.000000 0.041245 0.000000
# 6 0.000000 0.000000 0.000000 -0.008402 0.000000 0.072181
#
#
# Mechanical properties :
#
#
# Convention : Reuss Voigt Hill
#
# Bulk Modulus (GPa) = 39.06590 39.06719 39.06654
# Shear Modulus (GPa) = 24.53425 28.76087 26.64756
#
# Velocity S-wave (km/s) = 3.41645 3.69905 3.56055
# Velocity P-wave (km/s) = 5.84366 6.06878 5.95729
#
# Compressibility (1/GPa) = 0.02559777
#
# Stress axis : x y z
#
# Youngs Moduli (GPa) = 80.42846 80.56152 78.67373
#
# Poissons Ratio (x) = 0.14749 0.16240
# Poissons Ratio (y) = 0.14725 0.16401
# Poissons Ratio (z) = 0.16602 0.16794
#
# Static dielectric constant tensor:
#      x y z
#    x 3.775850 0.000000 0.151280 
#    y 0.000000 3.729870 0.000000 
#    z 0.151280 0.000000 3.785600 
# 
# 
# High freq. dielectric constant tensor:
#      x y z
#    x 1.814690 0.000000 0.011490 
#    y 0.000000 1.807330 0.000000 
#    z 0.011490 0.000000 1.829720 
# 
# From -- ./inp_files/3918.got.cif
#   From: 2010.03.12/outbox.cif.g09.slc.cpg/sg3_2_cif.got.tgz:3918.got - 2010.03.31 09:20:49.
