data_PCOD8044954
_publ_section_title
;
Structure prediction by ZEFSAII (Michael W. Deem and Ramdas Pophale) SiO2 
 PCOD8044954
Probable space group: P 2
;
_chemical_formula_sum "Si O2"
_cell_formula_units_Z 16
_cell_length_a 11.965356
_cell_length_b 9.210943
_cell_length_c 9.603673
_cell_angle_alpha 90.000000
_cell_angle_beta 54.297395
_cell_angle_gamma 90.000000
_cell_volume 859.515267
_symmetry_space_group_name_H-M "P 2"
_symmetry_group_IT_number 3
_symmetry_cell_setting 'monoclinic'
loop_
_space_group_symop_operation_xyz
x,y,z
-x,y,-z
loop_
_atom_site_type_symbol
_atom_site_label
_atom_site_fract_x
_atom_site_fract_y
_atom_site_fract_z
Si Si1 0.658049 0.481640 0.037294
Si Si2 0.109151 0.291685 0.540829
Si Si3 0.357325 0.473473 0.268215
Si Si4 0.078481 0.793874 0.084998
Si Si5 0.088460 0.957634 0.572189
Si Si6 0.646720 0.763260 0.228772
Si Si7 0.948901 0.463652 0.881083
Si Si8 0.341142 0.763154 0.454361
O O1 0.510877 0.401778 0.165531
O O2 0.650333 0.607263 0.156415
O O3 0.668898 0.534377 0.868670
O O4 0.796496 0.389106 0.972957
O O5 0.256490 0.343338 0.379743
O O6 0.000000 0.316830 0.500000
O O7 0.062938 0.383990 0.707091
O O8 0.125763 0.124437 0.568945
O O9 0.332358 0.605488 0.391974
O O10 0.071127 0.631059 0.155784
O O11 0.008912 0.911693 0.231766
O O12 0.234133 0.851656 0.939501
O O13 0.000000 0.784437 0.000000
O O14 0.229962 0.867496 0.463606
O O15 0.000000 0.928706 0.500000
O O16 0.494427 0.831705 0.321075
O O17 0.688789 0.746568 0.359945
O O18 0.000000 0.450943 0.000000
#
# Coordination Sequence:
#
# PCOD8044954 Si02
#       8
#     2   2   2   2   2   2   2   2
#     4   9  19  35  57  91 113 138 185 233 285 329
#     4  11  23  40  55  80 114 155 190 231 278 330
#     4  10  20  35  63  83 113 147 186 234 282 331
#     4  10  19  36  60  87 109 142 187 232 281 333
#     4  11  25  38  55  80 117 150 193 232 276 332
#     4   9  19  35  60  87 118 138 182 234 286 328
#     4  10  21  36  60  86 112 140 188 237 284 336
#     4  10  20  37  60  86 114 148 183 233 280 333
#
# _framework density 18.615143
#
# number of rings (size 3 to 8) (size 9 to 14) (size 15 to 20)
#    0.000    2.000    2.500    0.750    7.000    1.500 
#    0.000    1.250    2.750    0.000    0.000    0.000 
#    0.000    0.000    0.000    0.000    0.000    0.000 
#
# Total GULP energy -198263.064411 kJ/mol
# GULP energy per Si atom -12391.441526 kJ/mol
# Density = 1.857277 g / cm^3
# Si number density = 18.615143 Si / 1000 Ang^3
#
#
#
# Elastic Constant Matrix: (Units=GPa)
#
#
# Indices 1 2 3 4 5 6 
#
# 1 116.7267 42.5358 43.9249 0.0000 -24.1524 0.0000
# 2 42.5358 79.0359 51.9245 0.0000 -7.1973 0.0000
# 3 43.9249 51.9245 90.4167 0.0000 -23.3998 0.0000
# 4 0.0000 0.0000 0.0000 16.4067 0.0000 2.5452
# 5 -24.1524 -7.1973 -23.3998 0.0000 37.3403 0.0000
# 6 0.0000 0.0000 0.0000 2.5452 0.0000 6.7644
#
#
#
# Elastic Compliance Matrix: (Units=1/GPa)
#
#
# Indices 1 2 3 4 5 6 
#
# 1 0.012204 -0.005053 -0.001476 0.000000 0.005995 0.000000
# 2 -0.005053 0.022937 -0.012436 0.000000 -0.006640 0.000000
# 3 -0.001476 -0.012436 0.021546 0.000000 0.010150 0.000000
# 4 0.000000 0.000000 0.000000 0.064729 0.000000 -0.024356
# 5 0.005995 -0.006640 0.010150 0.000000 0.035739 0.000000
# 6 0.000000 0.000000 0.000000 -0.024356 0.000000 0.156998
#
#
# Mechanical properties :
#
#
# Convention : Reuss Voigt Hill
#
# Bulk Modulus (GPa) = 53.31131 62.54999 57.93065
# Shear Modulus (GPa) = 13.95340 21.95519 17.95430
#
# Velocity S-wave (km/s) = 2.74080 3.43800 3.10901
# Velocity P-wave (km/s) = 6.22229 7.03096 6.63895
#
# Compressibility (1/GPa) = 0.01875775
#
# Stress axis : x y z
#
# Youngs Moduli (GPa) = 81.94051 43.59686 46.41297
#
# Poissons Ratio (x) = 0.22028 0.06849
# Poissons Ratio (y) = 0.41401 0.57721
# Poissons Ratio (z) = 0.12091 0.54219
#
# Static dielectric constant tensor:
#      x y z
#    x 4.008880 0.000000 -0.342080 
#    y 0.000000 3.036820 0.000000 
#    z -0.342080 0.000000 3.740470 
# 
# 
# High freq. dielectric constant tensor:
#      x y z
#    x 1.748750 0.000000 -0.009640 
#    y 0.000000 1.666650 0.000000 
#    z -0.009640 0.000000 1.742340 
# 
# From -- ./inp_files/7444.got.cif
#   From: 2010.03.12/outbox.cif.g09.slc.cpg/sg3_4_cif.got.tgz:7444.got - 2010.03.31 09:20:49.
