data_PCOD8044110
_publ_section_title
;
Structure prediction by ZEFSAII (Michael W. Deem and Ramdas Pophale) SiO2 
 PCOD8044110
Probable space group: P -1
;
_chemical_formula_sum "Si O2"
_cell_formula_units_Z 14
_cell_length_a 12.547165
_cell_length_b 17.447363
_cell_length_c 11.204109
_cell_angle_alpha 27.742070
_cell_angle_beta 32.828289
_cell_angle_gamma 37.399983
_cell_volume 606.336731
_symmetry_space_group_name_H-M "P -1"
_symmetry_group_IT_number 2
_symmetry_cell_setting 'triclinic'
loop_
_space_group_symop_operation_xyz
x,y,z
-x,-y,-z
loop_
_atom_site_type_symbol
_atom_site_label
_atom_site_fract_x
_atom_site_fract_y
_atom_site_fract_z
Si Si1 0.468224 0.788739 0.635936
Si Si2 0.133682 0.820088 0.093060
Si Si3 0.710015 0.647173 0.136757
Si Si4 0.212656 0.359104 0.294604
Si Si5 0.845615 0.361214 0.229805
Si Si6 0.510203 0.148098 0.135335
Si Si7 0.456755 0.819532 0.324194
O O1 0.633336 0.632222 0.750897
O O2 0.450173 0.781725 0.521662
O O3 0.563916 0.947439 0.365771
O O4 0.246981 0.809102 0.873760
O O5 0.999542 0.678509 0.411288
O O6 0.300902 0.777490 0.098676
O O7 0.000000 0.000000 0.000000
O O8 0.718793 0.468506 0.309381
O O9 0.626770 0.663477 0.328111
O O10 0.548040 0.792654 0.025107
O O11 0.927681 0.696452 0.859714
O O12 0.315205 0.211762 0.312174
O O13 0.168595 0.533250 0.024674
O O14 0.755933 0.196662 0.512983
O O15 0.500000 0.000000 0.000000
#
# Coordination Sequence:
#
# PCOD8044110 Si02
#       7
#     2   2   2   2   2   2   2
#     4  11  22  39  61 103 134 166 221 275 330 394
#     4  11  19  35  66  96 132 173 217 270 328 385
#     4  10  23  46  68  96 133 177 225 267 328 395
#     4  10  21  40  65  97 131 172 219 275 327 388
#     4  10  25  46  70  98 130 178 230 268 325 409
#     4  10  19  37  64 100 132 163 225 272 320 390
#     4  12  26  45  67  98 137 179 216 278 341 388
#
# _framework density 23.089478
#
# number of rings (size 3 to 8) (size 9 to 14) (size 15 to 20)
#    0.000    1.429    4.286    1.286    0.000    9.143 
#    2.571    1.429    0.000    0.000    0.000    0.000 
#    0.000    0.000    0.000    0.000    0.000    0.000 
#
# Total GULP energy -173560.884043 kJ/mol
# GULP energy per Si atom -12397.206003 kJ/mol
# Density = 2.303693 g / cm^3
# Si number density = 23.089478 Si / 1000 Ang^3
#
#
#
# Elastic Constant Matrix: (Units=GPa)
#
#
# Indices 1 2 3 4 5 6 
#
# 1 136.8745 54.0377 59.9798 12.8795 0.4081 6.1585
# 2 54.0377 66.3325 43.7235 20.3797 10.3485 2.6439
# 3 59.9798 43.7235 121.8909 12.9532 -13.1240 11.5488
# 4 12.8795 20.3797 12.9532 33.8646 4.0956 2.3162
# 5 0.4081 10.3485 -13.1240 4.0956 33.7891 3.1665
# 6 6.1585 2.6439 11.5488 2.3162 3.1665 38.9742
#
#
#
# Elastic Compliance Matrix: (Units=1/GPa)
#
#
# Indices 1 2 3 4 5 6 
#
# 1 0.011679 -0.008362 -0.002712 0.001523 0.001244 -0.000666
# 2 -0.008362 0.032459 -0.007786 -0.012175 -0.011679 0.003099
# 3 -0.002712 -0.007786 0.013571 -0.000195 0.008060 -0.003708
# 4 0.001523 -0.012175 -0.000195 0.036532 -0.000655 -0.001475
# 5 0.001244 -0.011679 0.008060 -0.000655 0.036812 -0.004744
# 6 -0.000666 0.003099 -0.003708 -0.001475 -0.004744 0.027125
#
#
# Mechanical properties :
#
#
# Convention : Reuss Voigt Hill
#
# Bulk Modulus (GPa) = 50.02715 71.17556 60.60136
# Shear Modulus (GPa) = 24.68414 32.48269 28.58342
#
# Velocity S-wave (km/s) = 3.27320 3.75483 3.52226
# Velocity P-wave (km/s) = 5.99990 7.04920 6.54561
#
# Compressibility (1/GPa) = 0.01998914
#
# Stress axis : x y z
#
# Youngs Moduli (GPa) = 85.62686 30.80848 73.68468
#
# Poissons Ratio (x) = 0.25761 0.19984
# Poissons Ratio (y) = 0.71599 0.57370
# Poissons Ratio (z) = 0.23223 0.23987
#
# Static dielectric constant tensor:
#      x y z
#    x 4.372180 -0.027190 0.027440 
#    y -0.027190 4.021180 0.207340 
#    z 0.027440 0.207340 4.126550 
# 
# 
# High freq. dielectric constant tensor:
#      x y z
#    x 1.920470 -0.000240 -0.001270 
#    y -0.000240 1.892420 0.015530 
#    z -0.001270 0.015530 1.912580 
# 
# From -- ./inp_files/410967.got.cif
#   From: 2010.06.25/outbox.cif.g09.slc.cpg/sg2_206_cif.got.tgz:410967.got - 2010.06.27 13:26:56.
