data_PCOD8044066
_publ_section_title
;
Structure prediction by ZEFSAII (Michael W. Deem and Ramdas Pophale) SiO2 
 PCOD8044066
Probable space group: P -1
;
_chemical_formula_sum "Si O2"
_cell_formula_units_Z 16
_cell_length_a 14.457740
_cell_length_b 12.406261
_cell_length_c 8.684285
_cell_angle_alpha 71.237088
_cell_angle_beta 149.089759
_cell_angle_gamma 116.459090
_cell_volume 710.099710
_symmetry_space_group_name_H-M "P -1"
_symmetry_group_IT_number 2
_symmetry_cell_setting 'triclinic'
loop_
_space_group_symop_operation_xyz
x,y,z
-x,-y,-z
loop_
_atom_site_type_symbol
_atom_site_label
_atom_site_fract_x
_atom_site_fract_y
_atom_site_fract_z
Si Si1 0.047118 0.260048 0.125318
Si Si2 0.917500 0.875932 0.234311
Si Si3 0.405958 0.721445 0.111118
Si Si4 0.684543 0.667210 0.774482
Si Si5 0.975052 0.680669 0.602335
Si Si6 0.719585 0.032363 0.762526
Si Si7 0.634155 0.493212 0.053272
Si Si8 0.744865 0.935744 0.510176
O O1 0.147831 0.352429 0.087058
O O2 0.078136 0.342410 0.283944
O O3 0.153999 0.162912 0.324438
O O4 0.820059 0.179344 0.825382
O O5 0.914632 0.796704 0.417358
O O6 0.795047 0.789549 0.966245
O O7 0.142640 0.943088 0.480639
O O8 0.815880 0.977434 0.063542
O O9 0.509851 0.678857 0.419558
O O10 0.523338 0.864410 0.174541
O O11 0.398331 0.644772 0.978477
O O12 0.195927 0.707863 0.872328
O O13 0.591886 0.555782 0.809202
O O14 0.853837 0.561611 0.387722
O O15 0.500000 0.000000 0.500000
O O16 0.754443 0.972613 0.683787
O O17 0.500000 0.500000 0.000000
#
# Coordination Sequence:
#
# PCOD8044066 Si02
#       8
#     2   2   2   2   2   2   2   2
#     4  10  19  37  63  88 124 172 200 246 314 371
#     4  10  20  40  61  89 130 171 199 254 323 361
#     4  11  22  40  65  94 126 165 213 260 303 372
#     4  10  20  41  70  87 121 170 213 247 312 383
#     4  11  25  40  62  93 131 160 208 267 310 367
#     4  11  19  33  62  94 128 158 213 258 293 372
#     4  11  24  45  67  90 123 166 208 264 323 365
#     4  10  19  37  64  88 127 164 210 250 307 374
#
# _framework density 22.532046000000001
#
# number of rings (size 3 to 8) (size 9 to 14) (size 15 to 20)
#    0.000    1.500    3.750    3.750    0.000    2.500 
#    0.000   10.000    0.000    0.000    0.000    0.000 
#    0.000    0.000    0.000    0.000    0.000    0.000 
#
# Total GULP energy -198250.915239 kJ/mol
# GULP energy per Si atom -12390.682202 kJ/mol
# Density = 2.248076 g / cm^3
# Si number density = 22.532046 Si / 1000 Ang^3
#
#
#
# Elastic Constant Matrix: (Units=GPa)
#
#
# Indices 1 2 3 4 5 6 
#
# 1 111.9513 19.6059 33.8775 -8.5327 -0.7980 11.1729
# 2 19.6059 66.8738 26.4396 15.8944 -9.1533 12.8242
# 3 33.8775 26.4396 111.2958 19.9589 14.5385 8.8308
# 4 -8.5327 15.8944 19.9589 23.4682 -3.0902 0.6659
# 5 -0.7980 -9.1533 14.5385 -3.0902 33.8036 11.4833
# 6 11.1729 12.8242 8.8308 0.6659 11.4833 36.0824
#
#
#
# Elastic Compliance Matrix: (Units=1/GPa)
#
#
# Indices 1 2 3 4 5 6 
#
# 1 0.012332 -0.003267 -0.005369 0.011832 0.003731 -0.002749
# 2 -0.003267 0.023109 -0.002613 -0.013136 0.009250 -0.009264
# 3 -0.005369 -0.002613 0.014788 -0.014034 -0.009212 0.002163
# 4 0.011832 -0.013136 -0.014034 0.068914 0.008949 0.000320
# 5 0.003731 0.009250 -0.009212 0.008949 0.042332 -0.015826
# 6 -0.002749 -0.009264 0.002163 0.000320 -0.015826 0.036359
#
#
# Mechanical properties :
#
#
# Convention : Reuss Voigt Hill
#
# Bulk Modulus (GPa) = 36.05918 49.99630 43.02774
# Shear Modulus (GPa) = 21.77926 32.68402 27.23164
#
# Velocity S-wave (km/s) = 3.11238 3.81275 3.48023
# Velocity P-wave (km/s) = 5.38090 6.45135 5.94029
#
# Compressibility (1/GPa) = 0.02773219
#
# Stress axis : x y z
#
# Youngs Moduli (GPa) = 81.09002 43.27282 67.62033
#
# Poissons Ratio (x) = 0.14138 0.36303
# Poissons Ratio (y) = 0.26493 0.17669
# Poissons Ratio (z) = 0.43534 0.11307
#
# Static dielectric constant tensor:
#      x y z
#    x 4.244280 0.241380 0.080150 
#    y 0.241380 4.386270 0.573680 
#    z 0.080150 0.573680 4.227860 
# 
# 
# High freq. dielectric constant tensor:
#      x y z
#    x 1.887920 0.007480 -0.000340 
#    y 0.007480 1.876730 0.040220 
#    z -0.000340 0.040220 1.882430 
# 
# From -- ./inp_files/313054.got.cif
#   From: 2010.06.25/outbox.cif.g09.slc.cpg/sg2_157_cif.got.tgz:313054.got - 2010.06.27 13:26:56.
