data_PCOD8044535
_publ_section_title
;
Structure prediction by ZEFSAII (Michael W. Deem and Ramdas Pophale) SiO2 
 PCOD8044535
Probable space group: P -1
;
_chemical_formula_sum "Si O2"
_cell_formula_units_Z 14
_cell_length_a 14.204903
_cell_length_b 8.561603
_cell_length_c 14.622888
_cell_angle_alpha 57.406171
_cell_angle_beta 40.180490
_cell_angle_gamma 35.208626
_cell_volume 643.807669
_symmetry_space_group_name_H-M "P -1"
_symmetry_group_IT_number 2
_symmetry_cell_setting 'triclinic'
loop_
_space_group_symop_operation_xyz
x,y,z
-x,-y,-z
loop_
_atom_site_type_symbol
_atom_site_label
_atom_site_fract_x
_atom_site_fract_y
_atom_site_fract_z
Si Si1 0.808585 0.038594 0.146141
Si Si2 0.282366 0.805541 0.643652
Si Si3 0.356820 0.488301 0.268087
Si Si4 0.438500 0.798027 0.351345
Si Si5 0.677549 0.932896 0.119034
Si Si6 0.983361 0.797679 0.576948
Si Si7 0.086469 0.086332 0.208631
O O1 0.817387 0.980201 0.265971
O O2 0.571858 0.359355 0.202630
O O3 0.829025 0.842876 0.124022
O O4 0.000000 0.000000 0.000000
O O5 0.350268 0.893969 0.490880
O O6 0.485670 0.487027 0.629435
O O7 0.117791 0.811487 0.721852
O O8 0.440946 0.260410 0.201202
O O9 0.252193 0.763080 0.210033
O O10 0.190518 0.534262 0.445321
O O11 0.640958 0.747305 0.203946
O O12 0.247351 0.040580 0.347555
O O13 0.797188 0.876177 0.955086
O O14 0.987750 0.732565 0.701107
O O15 0.000000 0.000000 0.500000
#
# Coordination Sequence:
#
# PCOD8044535 Si02
#       7
#     2   2   2   2   2   2   2
#     4  10  21  40  62  90 122 163 203 249 303 367
#     4  11  21  38  68  83 119 172 204 237 311 370
#     4   9  20  38  65  86 123 158 202 251 297 366
#     4  11  24  39  63  92 123 160 206 254 300 361
#     4  10  24  39  62  94 127 151 208 260 301 351
#     4  10  19  38  62  92 119 161 204 246 296 374
#     4  11  20  39  66  90 119 165 204 244 310 364
#
# _framework density 21.745623999999999
#
# number of rings (size 3 to 8) (size 9 to 14) (size 15 to 20)
#    0.857    0.857    4.286    2.143    2.000    2.286 
#    0.000    0.000    0.000    0.000    0.000    0.000 
#    0.000    0.000    0.000    0.000    0.000    0.000 
#
# Total GULP energy -173449.208380 kJ/mol
# GULP energy per Si atom -12389.229170 kJ/mol
# Density = 2.169613 g / cm^3
# Si number density = 21.745624 Si / 1000 Ang^3
#
#
#
# Elastic Constant Matrix: (Units=GPa)
#
#
# Indices 1 2 3 4 5 6 
#
# 1 105.4141 4.9465 61.6888 -2.6829 6.6374 -10.5306
# 2 4.9465 24.3407 15.8495 3.0846 -3.6924 -9.3324
# 3 61.6888 15.8495 181.2994 -7.2117 22.1359 2.7296
# 4 -2.6829 3.0846 -7.2117 28.7524 -3.1883 -8.8370
# 5 6.6374 -3.6924 22.1359 -3.1883 46.4556 2.4029
# 6 -10.5306 -9.3324 2.7296 -8.8370 2.4029 23.9416
#
#
#
# Elastic Compliance Matrix: (Units=1/GPa)
#
#
# Indices 1 2 3 4 5 6 
#
# 1 0.013020 0.003512 -0.004828 0.002270 0.000438 0.008440
# 2 0.003512 0.054729 -0.007047 0.000508 0.006037 0.023263
# 3 -0.004828 -0.007047 0.008299 0.000358 -0.003525 -0.005330
# 4 0.002270 0.000508 0.000358 0.040043 0.001477 0.015787
# 5 0.000438 0.006037 -0.003525 0.001477 0.023666 0.001118
# 6 0.008440 0.023263 -0.005330 0.015787 0.001118 0.060871
#
#
# Mechanical properties :
#
#
# Convention : Reuss Voigt Hill
#
# Bulk Modulus (GPa) = 16.85652 52.89153 34.87402
# Shear Modulus (GPa) = 21.08575 35.06788 28.07681
#
# Velocity S-wave (km/s) = 3.11731 4.02013 3.59715
# Velocity P-wave (km/s) = 4.55251 6.77674 5.77276
#
# Compressibility (1/GPa) = 0.05932424
#
# Stress axis : x y z
#
# Youngs Moduli (GPa) = 76.80502 18.27188 120.49322
#
# Poissons Ratio (x) = -0.06418 0.58169
# Poissons Ratio (y) = -0.26977 0.84909
# Poissons Ratio (z) = 0.37078 0.12876
#
# Static dielectric constant tensor:
#      x y z
#    x 4.233870 -0.242550 0.517610 
#    y -0.242550 3.543720 0.324050 
#    z 0.517610 0.324050 4.785270 
# 
# 
# High freq. dielectric constant tensor:
#      x y z
#    x 1.854170 -0.014220 0.010080 
#    y -0.014220 1.811940 0.021380 
#    z 0.010080 0.021380 1.867760 
# 
# From -- ./inp_files/296287.got.cif
#   From: 2010.06.25/outbox.cif.g09.slc.cpg/sg2_149_cif.got.tgz:296287.got - 2010.06.27 13:26:56.
