data_PCOD8044744
_publ_section_title
;
Structure prediction by ZEFSAII (Michael W. Deem and Ramdas Pophale) SiO2 
 PCOD8044744
Probable space group: P -1
;
_chemical_formula_sum "Si O2"
_cell_formula_units_Z 14
_cell_length_a 19.977106
_cell_length_b 14.481856
_cell_length_c 9.233682
_cell_angle_alpha 144.289805
_cell_angle_beta 56.866618
_cell_angle_gamma 149.242633
_cell_volume 687.567087
_symmetry_space_group_name_H-M "P -1"
_symmetry_group_IT_number 2
_symmetry_cell_setting 'triclinic'
loop_
_space_group_symop_operation_xyz
x,y,z
-x,-y,-z
loop_
_atom_site_type_symbol
_atom_site_label
_atom_site_fract_x
_atom_site_fract_y
_atom_site_fract_z
Si Si1 0.454821 0.107679 0.698928
Si Si2 0.823497 0.930904 0.855765
Si Si3 0.344231 0.798076 0.859851
Si Si4 0.288583 0.460865 0.254219
Si Si5 0.827115 0.668586 0.311539
Si Si6 0.600529 0.799309 0.841913
Si Si7 0.828068 0.533036 0.845189
O O1 0.560195 0.362078 0.772780
O O2 0.500000 0.000000 0.500000
O O3 0.273101 0.794269 0.484702
O O4 0.490661 0.259130 0.999440
O O5 0.782605 0.796857 0.892611
O O6 0.755026 0.700515 0.517334
O O7 0.746710 0.969572 0.965985
O O8 0.004843 0.249937 0.040193
O O9 0.327422 0.682980 0.580695
O O10 0.202133 0.524317 0.786337
O O11 0.500000 0.000000 0.000000
O O12 0.344711 0.986645 0.073169
O O13 0.170812 0.329645 0.105642
O O14 0.753848 0.497753 0.027666
O O15 0.000000 0.000000 0.500000
O O16 0.500000 0.500000 0.500000
#
# Coordination Sequence:
#
# PCOD8044744 Si02
#       7
#     2   2   2   2   2   2   2
#     4  10  21  38  65  90 123 165 218 254 313 369
#     4  10  23  38  61  98 130 162 207 266 326 368
#     4  11  21  39  65  89 119 173 218 251 312 387
#     4  10  20  38  66  91 120 170 219 253 307 382
#     4   9  20  38  64  91 122 170 212 249 306 390
#     4  12  25  40  62  97 135 164 209 275 322 370
#     4  10  19  38  66  89 127 164 214 255 313 382
#
# _framework density 20.361649
#
# number of rings (size 3 to 8) (size 9 to 14) (size 15 to 20)
#    0.000    1.714    2.857    3.000    6.000    1.143 
#    0.000    2.857    0.000    0.000    0.000    0.000 
#    0.000    0.000    0.000    0.000    0.000    0.000 
#
# Total GULP energy -173471.313215 kJ/mol
# GULP energy per Si atom -12390.808087 kJ/mol
# Density = 2.031530 g / cm^3
# Si number density = 20.361649 Si / 1000 Ang^3
#
#
#
# Elastic Constant Matrix: (Units=GPa)
#
#
# Indices 1 2 3 4 5 6 
#
# 1 123.6765 44.5342 33.9414 -1.2180 -5.8527 -1.9601
# 2 44.5342 127.6977 49.4185 -1.3792 -2.8627 -14.6161
# 3 33.9414 49.4185 115.0873 -11.5437 6.0782 -8.8480
# 4 -1.2180 -1.3792 -11.5437 36.7224 -7.5135 6.6571
# 5 -5.8527 -2.8627 6.0782 -7.5135 29.5136 0.9225
# 6 -1.9601 -14.6161 -8.8480 6.6571 0.9225 31.0903
#
#
#
# Elastic Compliance Matrix: (Units=1/GPa)
#
#
# Indices 1 2 3 4 5 6 
#
# 1 0.009671 -0.002758 -0.001853 0.000320 0.002155 -0.001347
# 2 -0.002758 0.010669 -0.003636 -0.001422 0.000747 0.004090
# 3 -0.001853 -0.003636 0.011260 0.002697 -0.002380 0.000872
# 4 0.000320 -0.001422 0.002697 0.030765 0.007411 -0.006688
# 5 0.002155 0.000747 -0.002380 0.007411 0.036849 -0.002871
# 6 -0.001347 0.004090 0.000872 -0.006688 -0.002871 0.035767
#
#
# Mechanical properties :
#
#
# Convention : Reuss Voigt Hill
#
# Bulk Modulus (GPa) = 66.19619 69.13884 67.66751
# Shear Modulus (GPa) = 31.94657 35.36976 33.65817
#
# Velocity S-wave (km/s) = 3.96530 4.17235 4.07014
# Velocity P-wave (km/s) = 7.31749 7.56574 7.44265
#
# Compressibility (1/GPa) = 0.01510661
#
# Stress axis : x y z
#
# Youngs Moduli (GPa) = 103.40076 93.72683 88.81027
#
# Poissons Ratio (x) = 0.25849 0.16459
# Poissons Ratio (y) = 0.28517 0.32289
# Poissons Ratio (z) = 0.19163 0.34076
#
# Static dielectric constant tensor:
#      x y z
#    x 3.561480 -0.192790 0.243630 
#    y -0.192790 4.344350 0.059690 
#    z 0.243630 0.059690 4.112620 
# 
# 
# High freq. dielectric constant tensor:
#      x y z
#    x 1.771290 -0.013120 0.018990 
#    y -0.013120 1.806720 -0.002860 
#    z 0.018990 -0.002860 1.799000 
# 
# From -- ./inp_files/235140.got.cif
#   From: 2010.06.25/outbox.cif.g09.slc.cpg/sg2_118_cif.got.tgz:235140.got - 2010.06.27 13:26:56.
