data_PCOD8044585
_publ_section_title
;
Structure prediction by ZEFSAII (Michael W. Deem and Ramdas Pophale) SiO2 
 PCOD8044585
Probable space group: P -1
;
_chemical_formula_sum "Si O2"
_cell_formula_units_Z 14
_cell_length_a 17.072629
_cell_length_b 8.325053
_cell_length_c 9.385125
_cell_angle_alpha 57.795303
_cell_angle_beta 53.282890
_cell_angle_gamma 34.729343
_cell_volume 606.626993
_symmetry_space_group_name_H-M "P -1"
_symmetry_group_IT_number 2
_symmetry_cell_setting 'triclinic'
loop_
_space_group_symop_operation_xyz
x,y,z
-x,-y,-z
loop_
_atom_site_type_symbol
_atom_site_label
_atom_site_fract_x
_atom_site_fract_y
_atom_site_fract_z
Si Si1 0.833279 0.930663 0.399424
Si Si2 0.136983 0.390184 0.722553
Si Si3 0.095695 0.789368 0.125165
Si Si4 0.645434 0.536766 0.180271
Si Si5 0.637230 0.245275 0.721963
Si Si6 0.164270 0.061052 0.091814
Si Si7 0.616369 0.699571 0.441195
O O1 0.731457 0.227385 0.287219
O O2 0.767630 0.988890 0.598562
O O3 0.834250 0.730857 0.409058
O O4 0.001528 0.757990 0.315458
O O5 0.221627 0.466320 0.613713
O O6 0.966757 0.667022 0.800410
O O7 0.199272 0.146178 0.881311
O O8 0.122886 0.911800 0.154143
O O9 0.249803 0.497918 0.026950
O O10 0.000000 0.000000 0.000000
O O11 0.502024 0.687749 0.177806
O O12 0.601494 0.730315 0.271061
O O13 0.589464 0.527378 0.605773
O O14 0.690670 0.155159 0.868649
O O15 0.500000 0.000000 0.500000
#
# Coordination Sequence:
#
# PCOD8044585 Si02
#       7
#     2   2   2   2   2   2   2
#     4  10  20  39  68  90 125 172 211 255 314 383
#     4  11  22  40  67  94 126 163 217 258 317 377
#     4  10  19  38  63  92 119 171 213 247 311 385
#     4  10  20  39  65  90 126 172 209 249 320 389
#     4  11  24  42  64  94 131 167 212 262 317 372
#     4  11  24  39  66  95 128 163 213 266 311 373
#     4  11  23  40  68  93 126 169 212 261 314 381
#
# _framework density 23.078431999999999
#
# number of rings (size 3 to 8) (size 9 to 14) (size 15 to 20)
#    0.000    1.429    2.857    6.000    2.000    3.429 
#    0.000    2.143    0.000    0.000    0.000    0.000 
#    0.000    0.000    0.000    0.000    0.000    0.000 
#
# Total GULP energy -173630.114428 kJ/mol
# GULP energy per Si atom -12402.151031 kJ/mol
# Density = 2.302590 g / cm^3
# Si number density = 23.078432 Si / 1000 Ang^3
#
#
#
# Elastic Constant Matrix: (Units=GPa)
#
#
# Indices 1 2 3 4 5 6 
#
# 1 170.9421 43.5954 40.0945 18.5614 11.7269 -18.6885
# 2 43.5954 67.2569 41.3361 26.0534 15.6360 -6.1625
# 3 40.0945 41.3361 75.3153 29.2950 3.2810 -11.0115
# 4 18.5614 26.0534 29.2950 29.6516 -3.5591 5.8717
# 5 11.7269 15.6360 3.2810 -3.5591 44.3057 15.7469
# 6 -18.6885 -6.1625 -11.0115 5.8717 15.7469 38.9065
#
#
#
# Elastic Compliance Matrix: (Units=1/GPa)
#
#
# Indices 1 2 3 4 5 6 
#
# 1 0.007721 -0.001556 -0.000550 -0.004465 -0.003769 0.005506
# 2 -0.001556 0.039363 -0.001563 -0.038999 -0.023806 0.020566
# 3 -0.000550 -0.001563 0.030008 -0.032521 -0.010183 0.017011
# 4 -0.004465 -0.038999 -0.032521 0.119196 0.046196 -0.054212
# 5 -0.003769 -0.023806 -0.010183 0.046196 0.048964 -0.035253
# 6 0.005506 0.020566 0.017011 -0.054212 -0.035253 0.058869
#
#
# Mechanical properties :
#
#
# Convention : Reuss Voigt Hill
#
# Bulk Modulus (GPa) = 14.33601 62.61847 38.47724
# Shear Modulus (GPa) = 14.93819 35.13864 25.03841
#
# Velocity S-wave (km/s) = 2.54693 3.90625 3.29740
# Velocity P-wave (km/s) = 3.85674 6.89470 5.58620
#
# Compressibility (1/GPa) = 0.06975440
#
# Stress axis : x y z
#
# Youngs Moduli (GPa) = 129.51244 25.40435 33.32407
#
# Poissons Ratio (x) = 0.03953 0.01834
# Poissons Ratio (y) = 0.20154 0.05208
# Poissons Ratio (z) = 0.07128 0.03970
#
# Static dielectric constant tensor:
#      x y z
#    x 4.444890 -0.066620 -0.230970 
#    y -0.066620 3.930410 0.475950 
#    z -0.230970 0.475950 4.644750 
# 
# 
# High freq. dielectric constant tensor:
#      x y z
#    x 1.927810 -0.003680 0.006410 
#    y -0.003680 1.891070 0.029520 
#    z 0.006410 0.029520 1.905160 
# 
# From -- ./inp_files/295178.got.cif
#   From: 2010.06.25/outbox.cif.g09.slc.cpg/sg2_148_cif.got.tgz:295178.got - 2010.06.27 13:26:56.
