data_PCOD8044643
_publ_section_title
;
Structure prediction by ZEFSAII (Michael W. Deem and Ramdas Pophale) SiO2 
 PCOD8044643
Probable space group: P -1
;
_chemical_formula_sum "Si O2"
_cell_formula_units_Z 14
_cell_length_a 9.848328
_cell_length_b 8.439510
_cell_length_c 22.534950
_cell_angle_alpha 118.014063
_cell_angle_beta 27.228815
_cell_angle_gamma 127.843144
_cell_volume 661.679464
_symmetry_space_group_name_H-M "P -1"
_symmetry_group_IT_number 2
_symmetry_cell_setting 'triclinic'
loop_
_space_group_symop_operation_xyz
x,y,z
-x,-y,-z
loop_
_atom_site_type_symbol
_atom_site_label
_atom_site_fract_x
_atom_site_fract_y
_atom_site_fract_z
Si Si1 0.379788 0.877071 0.085874
Si Si2 0.995290 0.089803 0.300905
Si Si3 0.830678 0.420392 0.240793
Si Si4 0.664616 0.179871 0.547846
Si Si5 0.164678 0.185405 0.013423
Si Si6 0.152561 0.500048 0.254358
Si Si7 0.892353 0.621819 0.484530
O O1 0.699782 0.874700 0.991108
O O2 0.066431 0.645936 0.160702
O O3 0.263562 0.010634 0.194997
O O4 0.500000 0.000000 0.000000
O O5 0.804966 0.057479 0.431700
O O6 0.174623 0.324674 0.252569
O O7 0.742351 0.950834 0.321674
O O8 0.432637 0.345498 0.378157
O O9 0.899192 0.411886 0.282186
O O10 0.897482 0.257783 0.149930
O O11 0.792987 0.402811 0.511086
O O12 0.798939 0.198640 0.566232
O O13 0.471518 0.366666 0.891782
O O14 0.000000 0.000000 0.000000
O O15 0.026090 0.629734 0.366985
#
# Coordination Sequence:
#
# PCOD8044643 Si02
#       7
#     2   2   2   2   2   2   2
#     4  11  22  40  67  90 120 172 214 251 312 384
#     4  10  19  38  64  91 123 166 209 244 318 374
#     4  11  22  42  64  90 129 168 204 259 317 375
#     4   9  20  36  60  93 130 158 200 266 303 373
#     4  11  26  45  62  91 131 164 217 264 313 370
#     4  10  22  41  65  92 128 166 206 258 313 384
#     4  10  20  38  63  96 128 160 208 258 317 360
#
# _framework density 21.158279
#
# number of rings (size 3 to 8) (size 9 to 14) (size 15 to 20)
#    0.000    1.714    1.429    3.857    2.000    2.286 
#    2.571    2.857    0.000    0.000    0.000    0.000 
#    0.000    0.000    0.000    0.000    0.000    0.000 
#
# Total GULP energy -173585.544657 kJ/mol
# GULP energy per Si atom -12398.967475 kJ/mol
# Density = 2.111012 g / cm^3
# Si number density = 21.158279 Si / 1000 Ang^3
#
#
#
# Elastic Constant Matrix: (Units=GPa)
#
#
# Indices 1 2 3 4 5 6 
#
# 1 64.5518 36.9215 33.0647 12.6973 9.3144 14.2833
# 2 36.9215 76.5668 25.9850 28.8158 -0.4319 10.0059
# 3 33.0647 25.9850 103.5989 42.3464 -2.9149 6.0332
# 4 12.6973 28.8158 42.3464 38.4143 -3.0224 1.5815
# 5 9.3144 -0.4319 -2.9149 -3.0224 33.1986 0.2576
# 6 14.2833 10.0059 6.0332 1.5815 0.2576 40.4358
#
#
#
# Elastic Compliance Matrix: (Units=1/GPa)
#
#
# Indices 1 2 3 4 5 6 
#
# 1 0.029244 -0.014551 -0.010795 0.012738 -0.008139 -0.005565
# 2 -0.014551 0.026424 0.007661 -0.023152 0.003004 -0.001655
# 3 -0.010795 0.007661 0.021971 -0.026173 0.002678 -0.000354
# 4 0.012738 -0.023152 -0.026173 0.067938 -0.000007 0.002478
# 5 -0.008139 0.003004 0.002678 -0.000007 0.032667 0.001524
# 6 -0.005565 -0.001655 -0.000354 0.002478 0.001524 0.027052
#
#
# Mechanical properties :
#
#
# Convention : Reuss Voigt Hill
#
# Bulk Modulus (GPa) = 23.65883 48.51776 36.08829
# Shear Modulus (GPa) = 19.62674 32.32618 25.97646
#
# Velocity S-wave (km/s) = 3.04898 3.91298 3.50769
# Velocity P-wave (km/s) = 4.85810 6.58756 5.78779
#
# Compressibility (1/GPa) = 0.04226752
#
# Stress axis : x y z
#
# Youngs Moduli (GPa) = 34.19535 37.84499 45.51523
#
# Poissons Ratio (x) = 0.55066 0.49135
# Poissons Ratio (y) = 0.49756 -0.34868
# Poissons Ratio (z) = 0.36915 -0.28992
#
# Static dielectric constant tensor:
#      x y z
#    x 3.783730 0.083570 0.054740 
#    y 0.083570 3.912950 0.225500 
#    z 0.054740 0.225500 3.911810 
# 
# 
# High freq. dielectric constant tensor:
#      x y z
#    x 1.817290 -0.001160 0.002040 
#    y -0.001160 1.831680 0.011490 
#    z 0.002040 0.011490 1.838510 
# 
# From -- ./inp_files/172223.got.cif
#   From: 2010.06.25/outbox.cif.g09.slc.cpg/sg2_87_cif.got.tgz:172223.got - 2010.06.27 13:26:56.
