data_PCOD8044279
_publ_section_title
;
Structure prediction by ZEFSAII (Michael W. Deem and Ramdas Pophale) SiO2 
 PCOD8044279
Probable space group: P -1
;
_chemical_formula_sum "Si O2"
_cell_formula_units_Z 16
_cell_length_a 21.630490
_cell_length_b 18.020484
_cell_length_c 12.153812
_cell_angle_alpha 151.671027
_cell_angle_beta 29.330719
_cell_angle_gamma 161.792516
_cell_volume 681.837251
_symmetry_space_group_name_H-M "P -1"
_symmetry_group_IT_number 2
_symmetry_cell_setting 'triclinic'
loop_
_space_group_symop_operation_xyz
x,y,z
-x,-y,-z
loop_
_atom_site_type_symbol
_atom_site_label
_atom_site_fract_x
_atom_site_fract_y
_atom_site_fract_z
Si Si1 0.537638 0.245869 0.842866
Si Si2 0.022538 0.815672 0.309771
Si Si3 0.991642 0.537503 0.808285
Si Si4 0.267762 0.977725 0.543970
Si Si5 0.607253 0.204785 0.448700
Si Si6 0.342094 0.339144 0.372151
Si Si7 0.771592 0.869871 0.408018
Si Si8 0.972746 0.737777 0.892421
O O1 0.494971 0.161439 0.673477
O O2 0.775408 0.467420 0.791754
O O3 0.428336 0.017270 0.795418
O O4 0.436800 0.316407 0.104775
O O5 0.796658 0.666348 0.478137
O O6 0.192531 0.104816 0.381538
O O7 0.116204 0.880834 0.372087
O O8 0.990697 0.629424 0.044770
O O9 0.149839 0.546271 0.590750
O O10 0.786504 0.244814 0.714854
O O11 0.045916 0.711474 0.852322
O O12 0.144611 0.898893 0.742752
O O13 0.508068 0.196383 0.487734
O O14 0.244700 0.096125 0.649351
O O15 0.542070 0.613377 0.476592
O O16 0.916502 0.857810 0.175690
#
# Coordination Sequence:
#
# PCOD8044279 Si02
#       8
#     2   2   2   2   2   2   2   2
#     4  10  19  37  68 102 130 163 222 285 322 386
#     4  11  24  43  72  95 127 181 229 277 318 392
#     4  12  24  43  72 102 131 174 233 276 321 392
#     4  12  26  43  64 101 145 178 209 274 345 403
#     4  11  22  37  65 100 134 172 214 274 336 384
#     4  10  22  43  69 101 125 171 231 283 323 381
#     4  11  27  44  66  99 141 177 218 272 339 401
#     4  11  21  43  69 102 133 170 227 280 328 388
#
# _framework density 23.466010000000001
#
# number of rings (size 3 to 8) (size 9 to 14) (size 15 to 20)
#    0.000    1.000    3.750    4.125    1.750    3.500 
#    0.000    2.500    0.000    0.000    0.000    0.000 
#    0.000    0.000    0.000    0.000    0.000    0.000 
#
# Total GULP energy -198294.087188 kJ/mol
# GULP energy per Si atom -12393.380449 kJ/mol
# Density = 2.341260 g / cm^3
# Si number density = 23.466010 Si / 1000 Ang^3
#
#
#
# Elastic Constant Matrix: (Units=GPa)
#
#
# Indices 1 2 3 4 5 6 
#
# 1 105.7003 21.6195 39.5894 -14.2704 -4.2509 24.0332
# 2 21.6195 52.7991 32.9845 -10.8366 0.4422 20.6857
# 3 39.5894 32.9845 88.8290 -7.3281 2.1137 22.2938
# 4 -14.2704 -10.8366 -7.3281 30.0530 10.8196 -6.0117
# 5 -4.2509 0.4422 2.1137 10.8196 28.1426 0.6185
# 6 24.0332 20.6857 22.2938 -6.0117 0.6185 34.8591
#
#
#
# Elastic Compliance Matrix: (Units=1/GPa)
#
#
# Indices 1 2 3 4 5 6 
#
# 1 0.012771 0.000334 -0.004085 0.003698 0.000936 -0.005770
# 2 0.000334 0.029664 -0.007555 0.007586 -0.002509 -0.011649
# 3 -0.004085 -0.007555 0.016733 -0.000792 -0.001373 -0.003514
# 4 0.003698 0.007586 -0.000792 0.043710 -0.016334 0.001284
# 5 0.000936 -0.002509 -0.001373 -0.016334 0.042137 -0.001843
# 6 -0.005770 -0.011649 -0.003514 0.001284 -0.001843 0.042079
#
#
# Mechanical properties :
#
#
# Convention : Reuss Voigt Hill
#
# Bulk Modulus (GPa) = 27.35492 48.41281 37.88386
# Shear Modulus (GPa) = 22.53350 28.81992 25.67671
#
# Velocity S-wave (km/s) = 3.10217 3.50831 3.31147
# Velocity P-wave (km/s) = 4.95114 6.08989 5.54980
#
# Compressibility (1/GPa) = 0.03655649
#
# Stress axis : x y z
#
# Youngs Moduli (GPa) = 78.30175 33.71035 59.76277
#
# Poissons Ratio (x) = -0.01127 0.24414
# Poissons Ratio (y) = -0.02617 0.45151
# Poissons Ratio (z) = 0.31988 0.25468
#
# Static dielectric constant tensor:
#      x y z
#    x 4.129010 0.421760 -0.005060 
#    y 0.421760 4.311530 -0.025490 
#    z -0.005060 -0.025490 4.082510 
# 
# 
# High freq. dielectric constant tensor:
#      x y z
#    x 1.921920 0.033840 0.004360 
#    y 0.033840 1.926920 -0.001990 
#    z 0.004360 -0.001990 1.923330 
# 
# From -- ./inp_files/472462.got.cif
#   From: 2010.06.25/outbox.cif.g09.slc.cpg/sg2_237_cif.got.tgz:472462.got - 2010.06.27 13:26:56.
