data_PCOD8044769
_publ_section_title
;
Structure prediction by ZEFSAII (Michael W. Deem and Ramdas Pophale) SiO2 
 PCOD8044769
Probable space group: P -1
;
_chemical_formula_sum "Si O2"
_cell_formula_units_Z 14
_cell_length_a 16.155023
_cell_length_b 12.327169
_cell_length_c 7.861169
_cell_angle_alpha 81.987204
_cell_angle_beta 81.730793
_cell_angle_gamma 152.273231
_cell_volume 587.547208
_symmetry_space_group_name_H-M "P -1"
_symmetry_group_IT_number 2
_symmetry_cell_setting 'triclinic'
loop_
_space_group_symop_operation_xyz
x,y,z
-x,-y,-z
loop_
_atom_site_type_symbol
_atom_site_label
_atom_site_fract_x
_atom_site_fract_y
_atom_site_fract_z
Si Si1 0.386921 0.505355 0.421049
Si Si2 0.820488 0.094617 0.032022
Si Si3 0.932003 0.639317 0.752218
Si Si4 0.402493 0.643419 0.905291
Si Si5 0.359668 0.244375 0.362493
Si Si6 0.190592 0.732415 0.259868
Si Si7 0.067105 0.192358 0.837674
O O1 0.332741 0.342141 0.339812
O O2 0.507763 0.614300 0.533842
O O3 0.154887 0.277112 0.600211
O O4 0.558130 0.789817 0.207631
O O5 0.886797 0.278912 0.862272
O O6 0.864225 0.031724 0.932668
O O7 0.955997 0.261021 0.127497
O O8 0.781986 0.357789 0.796468
O O9 0.769447 0.547797 0.846275
O O10 0.121094 0.899576 0.507819
O O11 0.512400 0.654828 0.859212
O O12 0.266111 0.495653 0.805480
O O13 0.585251 0.958631 0.786077
O O14 0.000000 0.500000 0.500000
O O15 0.000000 0.000000 0.000000
#
# Coordination Sequence:
#
# PCOD8044769 Si02
#       7
#     2   2   2   2   2   2   2
#     4   9  17  32  58  90 118 148 194 251 295 353
#     4  10  22  39  61  91 121 158 207 251 294 361
#     4  10  20  39  62  85 115 161 208 245 293 362
#     4  10  20  36  60  88 115 160 200 242 303 357
#     4   9  16  32  59  88 115 149 193 242 300 352
#     4  12  24  42  59  84 129 165 200 255 305 348
#     4  10  19  38  66  95 121 155 202 249 300 367
#
# _framework density 23.827873
#
# number of rings (size 3 to 8) (size 9 to 14) (size 15 to 20)
#    0.000    2.000    1.429    5.143    0.000    0.000 
#    5.143    4.286    0.000    2.571    0.000    0.000 
#    0.000    0.000    0.000    0.000    0.000    0.000 
#
# Total GULP energy -173470.026345 kJ/mol
# GULP energy per Si atom -12390.716168 kJ/mol
# Density = 2.377364 g / cm^3
# Si number density = 23.827873 Si / 1000 Ang^3
#
#
#
# Elastic Constant Matrix: (Units=GPa)
#
#
# Indices 1 2 3 4 5 6 
#
# 1 52.2522 33.6854 29.7239 11.3490 -28.6699 -13.8059
# 2 33.6854 111.1205 22.5222 -16.3412 -11.3235 -24.3715
# 3 29.7239 22.5222 135.8526 -3.9112 -38.9819 -11.6810
# 4 11.3490 -16.3412 -3.9112 23.8318 -11.7694 -11.4560
# 5 -28.6699 -11.3235 -38.9819 -11.7694 37.5567 9.5081
# 6 -13.8059 -24.3715 -11.6810 -11.4560 9.5081 38.0694
#
#
#
# Elastic Compliance Matrix: (Units=1/GPa)
#
#
# Indices 1 2 3 4 5 6 
#
# 1 0.048564 -0.018613 -0.003280 -0.030830 0.020876 -0.009802
# 2 -0.018613 0.024345 0.004082 0.038132 0.004119 0.020534
# 3 -0.003280 0.004082 0.013158 0.017793 0.016249 0.006757
# 4 -0.030830 0.038132 0.017793 0.125373 0.033558 0.048037
# 5 0.020876 0.004119 0.016249 0.033558 0.069157 0.008020
# 6 -0.009802 0.020534 0.006757 0.048037 0.008020 0.050384
#
#
# Mechanical properties :
#
#
# Convention : Reuss Voigt Hill
#
# Bulk Modulus (GPa) = 19.82388 52.34314 36.08351
# Shear Modulus (GPa) = 13.04060 34.11117 23.57588
#
# Velocity S-wave (km/s) = 2.34195 3.78771 3.14892
# Velocity P-wave (km/s) = 3.95609 6.41435 5.32891
#
# Compressibility (1/GPa) = 0.05044422
#
# Stress axis : x y z
#
# Youngs Moduli (GPa) = 20.59144 41.07556 76.00161
#
# Poissons Ratio (x) = 0.76455 0.24927
# Poissons Ratio (y) = 0.38327 -0.31022
# Poissons Ratio (z) = 0.06754 -0.16766
#
# Static dielectric constant tensor:
#      x y z
#    x 4.228380 -0.215820 -0.653290 
#    y -0.215820 4.622090 0.025680 
#    z -0.653290 0.025680 4.510020 
# 
# 
# High freq. dielectric constant tensor:
#      x y z
#    x 1.917960 -0.007230 -0.033940 
#    y -0.007230 1.952070 -0.001790 
#    z -0.033940 -0.001790 1.948260 
# 
# From -- ./inp_files/221620.got.cif
#   From: 2010.06.25/outbox.cif.g09.slc.cpg/sg2_111_cif.got.tgz:221620.got - 2010.06.27 13:26:56.
