data_PCOD8044631
_publ_section_title
;
Structure prediction by ZEFSAII (Michael W. Deem and Ramdas Pophale) SiO2 
 PCOD8044631
Probable space group: P -1
;
_chemical_formula_sum "Si O2"
_cell_formula_units_Z 16
_cell_length_a 9.532495
_cell_length_b 16.640059
_cell_length_c 9.420290
_cell_angle_alpha 88.390971
_cell_angle_beta 42.524627
_cell_angle_gamma 115.272662
_cell_volume 756.227793
_symmetry_space_group_name_H-M "P -1"
_symmetry_group_IT_number 2
_symmetry_cell_setting 'triclinic'
loop_
_space_group_symop_operation_xyz
x,y,z
-x,-y,-z
loop_
_atom_site_type_symbol
_atom_site_label
_atom_site_fract_x
_atom_site_fract_y
_atom_site_fract_z
Si Si1 0.369358 0.063949 0.585895
Si Si2 0.629278 0.750775 0.045767
Si Si3 0.798508 0.522413 0.155290
Si Si4 0.895272 0.854180 0.123697
Si Si5 0.716288 0.598630 0.930819
Si Si6 0.761277 0.099663 0.500920
Si Si7 0.831884 0.673432 0.325711
Si Si8 0.164186 0.752927 0.361504
O O1 0.245071 0.121198 0.657814
O O2 0.669387 0.136166 0.436566
O O3 0.380623 0.023662 0.423698
O O4 0.175005 0.962773 0.845163
O O5 0.557162 0.637944 0.100534
O O6 0.912507 0.835046 0.744324
O O7 0.661189 0.786227 0.181798
O O8 0.391102 0.744121 0.152998
O O9 0.915619 0.614240 0.181845
O O10 0.499429 0.409167 0.420478
O O11 0.796309 0.565262 0.004919
O O12 0.000000 0.500000 0.000000
O O13 0.956173 0.783940 0.151650
O O14 0.996556 0.686769 0.631296
O O15 0.500000 0.500000 0.000000
O O16 0.690913 0.123891 0.704983
O O17 0.956384 0.706125 0.388443
#
# Coordination Sequence:
#
# PCOD8044631 Si02
#       8
#     2   2   2   2   2   2   2   2
#     4   9  18  36  66  91 118 161 205 257 297 369
#     4  10  21  36  64  89 118 163 208 246 299 366
#     4  11  26  43  63  89 129 164 203 252 309 360
#     4  10  19  38  64  90 119 163 209 245 309 364
#     4  11  23  41  61  91 122 162 209 250 299 374
#     4   9  19  36  61  90 121 149 206 251 295 361
#     4  11  25  43  60  93 129 161 200 259 307 364
#     4  11  23  38  64  90 127 161 202 255 306 359
#
# _framework density 21.157646
#
# number of rings (size 3 to 8) (size 9 to 14) (size 15 to 20)
#    0.000    1.750    3.750    0.000    3.500    0.500 
#    2.250    1.250    0.000    0.000    0.000    0.000 
#    0.000    0.000    0.000    0.000    0.000    0.000 
#
# Total GULP energy -198266.365579 kJ/mol
# GULP energy per Si atom -12391.647849 kJ/mol
# Density = 2.110949 g / cm^3
# Si number density = 21.157646 Si / 1000 Ang^3
#
#
#
# Elastic Constant Matrix: (Units=GPa)
#
#
# Indices 1 2 3 4 5 6 
#
# 1 76.7701 62.3111 19.4606 16.3305 -5.5356 4.4108
# 2 62.3111 158.0999 20.6149 26.5379 -8.4325 -2.1427
# 3 19.4606 20.6149 48.3282 5.4037 -5.1655 -11.0981
# 4 16.3305 26.5379 5.4037 31.3847 -6.5401 -4.3690
# 5 -5.5356 -8.4325 -5.1655 -6.5401 32.9828 9.2883
# 6 4.4108 -2.1427 -11.0981 -4.3690 9.2883 42.1807
#
#
#
# Elastic Compliance Matrix: (Units=1/GPa)
#
#
# Indices 1 2 3 4 5 6 
#
# 1 0.021607 -0.006900 -0.006238 -0.004752 0.001363 -0.005044
# 2 -0.006900 0.009934 -0.000813 -0.004556 0.000212 0.000494
# 3 -0.006238 -0.000813 0.025193 0.000763 0.000833 0.007135
# 4 -0.004752 -0.004556 0.000763 0.039587 0.005033 0.003458
# 5 0.001363 0.000212 0.000833 0.005033 0.033645 -0.006800
# 6 -0.005044 0.000494 0.007135 0.003458 -0.006800 0.027993
#
#
# Mechanical properties :
#
#
# Convention : Reuss Voigt Hill
#
# Bulk Modulus (GPa) = 34.68664 54.21906 44.45285
# Shear Modulus (GPa) = 25.57910 33.36374 29.47142
#
# Velocity S-wave (km/s) = 3.48081 3.97534 3.73627
# Velocity P-wave (km/s) = 5.70830 6.83762 6.29832
#
# Compressibility (1/GPa) = 0.02882954
#
# Stress axis : x y z
#
# Youngs Moduli (GPa) = 46.28129 100.66920 39.69359
#
# Poissons Ratio (x) = 0.69466 0.24762
# Poissons Ratio (y) = 0.31936 0.03228
# Poissons Ratio (z) = 0.28872 0.08186
#
# Static dielectric constant tensor:
#      x y z
#    x 3.613040 0.134280 -0.145330 
#    y 0.134280 4.460630 0.083600 
#    z -0.145330 0.083600 3.667060 
# 
# 
# High freq. dielectric constant tensor:
#      x y z
#    x 1.814110 0.010650 -0.027010 
#    y 0.010650 1.857890 0.016760 
#    z -0.027010 0.016760 1.800040 
# 
# From -- ./inp_files/206734.got.cif
#   From: 2010.06.25/outbox.cif.g09.slc.cpg/sg2_104_cif.got.tgz:206734.got - 2010.06.27 13:26:56.
