data_PCOD8044306
_publ_section_title
;
Structure prediction by ZEFSAII (Michael W. Deem and Ramdas Pophale) SiO2 
 PCOD8044306
Probable space group: P -1
;
_chemical_formula_sum "Si O2"
_cell_formula_units_Z 16
_cell_length_a 9.040652
_cell_length_b 10.946280
_cell_length_c 8.854471
_cell_angle_alpha 84.231087
_cell_angle_beta 107.615885
_cell_angle_gamma 121.866332
_cell_volume 707.384663
_symmetry_space_group_name_H-M "P -1"
_symmetry_group_IT_number 2
_symmetry_cell_setting 'triclinic'
loop_
_space_group_symop_operation_xyz
x,y,z
-x,-y,-z
loop_
_atom_site_type_symbol
_atom_site_label
_atom_site_fract_x
_atom_site_fract_y
_atom_site_fract_z
Si Si1 0.979699 0.645807 0.065392
Si Si2 0.716956 0.810935 0.326296
Si Si3 0.982109 0.072619 0.833699
Si Si4 0.182948 0.385032 0.455291
Si Si5 0.388626 0.507382 0.200084
Si Si6 0.602746 0.362917 0.299165
Si Si7 0.878762 0.364138 0.187469
Si Si8 0.388232 0.080302 0.450467
O O1 0.010222 0.540372 0.194539
O O2 0.978860 0.769254 0.141744
O O3 0.779788 0.531501 0.952349
O O4 0.127735 0.709272 0.967079
O O5 0.809872 0.752766 0.475231
O O6 0.538330 0.677030 0.209911
O O7 0.669468 0.912434 0.396427
O O8 0.862738 0.912641 0.232618
O O9 0.782712 0.988219 0.708407
O O10 0.000000 0.000000 0.000000
O O11 0.331962 0.470808 0.361361
O O12 0.227032 0.492503 0.595107
O O13 0.976412 0.318184 0.345601
O O14 0.463056 0.404849 0.183541
O O15 0.676329 0.311119 0.189190
O O16 0.519882 0.242348 0.415911
O O17 0.500000 0.000000 0.500000
#
# Coordination Sequence:
#
# PCOD8044306 Si02
#       8
#     2   2   2   2   2   2   2   2
#     4  10  23  43  61  99 141 172 221 266 358 400
#     4  11  23  46  73  98 128 176 238 276 340 395
#     4  12  29  47  68  93 141 196 228 266 324 422
#     4  10  19  37  71  98 128 161 216 292 336 385
#     4  10  19  39  73  98 129 168 215 297 333 402
#     4  11  20  38  62  97 126 161 224 272 342 374
#     4  10  23  35  67  98 131 168 207 294 338 396
#     4  12  28  44  68  99 138 182 228 280 322 404
#
# _framework density 22.618528999999999
#
# number of rings (size 3 to 8) (size 9 to 14) (size 15 to 20)
#    0.000    1.250    2.500    3.750    5.250    5.000 
#    0.000    1.250    0.000    0.000    0.000    0.000 
#    0.000    0.000    0.000    0.000    0.000    0.000 
#
# Total GULP energy -198401.162348 kJ/mol
# GULP energy per Si atom -12400.072647 kJ/mol
# Density = 2.256705 g / cm^3
# Si number density = 22.618529 Si / 1000 Ang^3
#
#
#
# Elastic Constant Matrix: (Units=GPa)
#
#
# Indices 1 2 3 4 5 6 
#
# 1 148.0887 29.4875 49.7323 4.1003 -21.5283 -5.3972
# 2 29.4875 67.8836 25.0257 -1.6261 -0.3674 -13.5965
# 3 49.7323 25.0257 69.1740 0.1146 -8.9610 2.0160
# 4 4.1003 -1.6261 0.1146 26.0771 0.0061 -9.6630
# 5 -21.5283 -0.3674 -8.9610 0.0061 36.3082 -2.8654
# 6 -5.3972 -13.5965 2.0160 -9.6630 -2.8654 33.0333
#
#
#
# Elastic Compliance Matrix: (Units=1/GPa)
#
#
# Indices 1 2 3 4 5 6 
#
# 1 0.009809 -0.001868 -0.005833 -0.001178 0.004455 0.001232
# 2 -0.001868 0.019942 -0.006384 0.005140 -0.001721 0.009647
# 3 -0.005833 -0.006384 0.021285 -0.001504 0.001319 -0.005205
# 4 -0.001178 0.005140 -0.001504 0.044428 0.000161 0.015025
# 5 0.004455 -0.001721 0.001319 0.000161 0.030701 0.002649
# 6 0.001232 0.009647 -0.005205 0.015025 0.002649 0.039387
#
#
# Mechanical properties :
#
#
# Convention : Reuss Voigt Hill
#
# Bulk Modulus (GPa) = 43.73469 54.84859 49.29164
# Shear Modulus (GPa) = 24.83323 31.14377 27.98850
#
# Velocity S-wave (km/s) = 3.31708 3.71470 3.52151
# Velocity P-wave (km/s) = 5.83510 6.53458 6.19472
#
# Compressibility (1/GPa) = 0.02286514
#
# Stress axis : x y z
#
# Youngs Moduli (GPa) = 101.95126 50.14517 46.98189
#
# Poissons Ratio (x) = 0.09366 0.27405
# Poissons Ratio (y) = 0.19042 0.29995
# Poissons Ratio (z) = 0.59468 0.32015
#
# Static dielectric constant tensor:
#      x y z
#    x 4.355770 -0.095590 -0.116290 
#    y -0.095590 3.798290 -0.072230 
#    z -0.116290 -0.072230 4.082590 
# 
# 
# High freq. dielectric constant tensor:
#      x y z
#    x 1.909980 -0.009330 -0.008120 
#    y -0.009330 1.868440 -0.009280 
#    z -0.008120 -0.009280 1.891230 
# 
# From -- ./inp_files/179284.got.cif
#   From: 2010.06.25/outbox.cif.g09.slc.cpg/sg2_90_cif.got.tgz:179284.got - 2010.06.27 13:26:56.
