data_PCOD8044165
_publ_section_title
;
Structure prediction by ZEFSAII (Michael W. Deem and Ramdas Pophale) SiO2 
 PCOD8044165
Probable space group: P -1
;
_chemical_formula_sum "Si O2"
_cell_formula_units_Z 14
_cell_length_a 10.804560
_cell_length_b 7.470998
_cell_length_c 14.023153
_cell_angle_alpha 109.056264
_cell_angle_beta 142.169999
_cell_angle_gamma 79.647793
_cell_volume 650.214065
_symmetry_space_group_name_H-M "P -1"
_symmetry_group_IT_number 2
_symmetry_cell_setting 'triclinic'
loop_
_space_group_symop_operation_xyz
x,y,z
-x,-y,-z
loop_
_atom_site_type_symbol
_atom_site_label
_atom_site_fract_x
_atom_site_fract_y
_atom_site_fract_z
Si Si1 0.702824 0.441295 0.561976
Si Si2 0.952934 0.306111 0.074024
Si Si3 0.795550 0.890563 0.925140
Si Si4 0.458871 0.953151 0.858915
Si Si5 0.490829 0.286421 0.790370
Si Si6 0.528481 0.036143 0.413122
Si Si7 0.225800 0.571311 0.616751
O O1 0.500000 0.500000 0.500000
O O2 0.704536 0.215118 0.537785
O O3 0.716074 0.484564 0.464893
O O4 0.910412 0.545384 0.750884
O O5 0.068386 0.282195 0.037931
O O6 0.729967 0.367356 0.936859
O O7 0.933866 0.091055 0.069246
O O8 0.638549 0.841032 0.906924
O O9 0.673749 0.916387 0.756259
O O10 0.257853 0.800054 0.694721
O O11 0.449707 0.153527 0.835542
O O12 0.500000 0.000000 0.000000
O O13 0.370190 0.466844 0.756639
O O14 0.406014 0.155613 0.626057
O O15 0.500000 0.000000 0.500000
O O16 0.000000 0.500000 0.500000
#
# Coordination Sequence:
#
# PCOD8044165 Si02
#       7
#     2   2   2   2   2   2   2
#     4  12  21  41  69 102 137 174 223 280 344 393
#     4   9  19  37  66  94 129 176 215 272 335 401
#     4   9  18  38  63  95 138 169 221 270 334 403
#     4  10  22  45  67  95 138 183 219 278 337 402
#     4  10  24  46  66  94 140 175 231 271 337 419
#     4  10  19  37  64  98 136 174 214 279 340 395
#     4  12  27  45  71 100 136 178 229 291 338 400
#
# _framework density 21.531369000000002
#
# number of rings (size 3 to 8) (size 9 to 14) (size 15 to 20)
#    0.000    2.000    4.286    0.857    4.000    1.143 
#    0.000   14.286    0.000    0.000    0.000    0.000 
#    0.000    0.000    0.000    0.000    0.000    0.000 
#
# Total GULP energy -173477.597815 kJ/mol
# GULP energy per Si atom -12391.256987 kJ/mol
# Density = 2.148236 g / cm^3
# Si number density = 21.531369 Si / 1000 Ang^3
#
#
#
# Elastic Constant Matrix: (Units=GPa)
#
#
# Indices 1 2 3 4 5 6 
#
# 1 145.0148 32.1167 64.0677 -13.3509 -7.3865 16.2110
# 2 32.1167 72.2213 49.0395 0.0623 11.0127 7.8608
# 3 64.0677 49.0395 134.6560 26.6360 3.6234 7.0706
# 4 -13.3509 0.0623 26.6360 39.3163 3.5676 8.7633
# 5 -7.3865 11.0127 3.6234 3.5676 45.7022 -4.1999
# 6 16.2110 7.8608 7.0706 8.7633 -4.1999 28.6702
#
#
#
# Elastic Compliance Matrix: (Units=1/GPa)
#
#
# Indices 1 2 3 4 5 6 
#
# 1 0.012281 0.000729 -0.007931 0.011380 0.000764 -0.008555
# 2 0.000729 0.021585 -0.009394 0.008775 -0.005716 -0.007533
# 3 -0.007931 -0.009394 0.017401 -0.016401 0.001620 0.008019
# 4 0.011380 0.008775 -0.016401 0.045061 -0.004256 -0.019193
# 5 0.000764 -0.005716 0.001620 -0.004256 0.024097 0.005567
# 6 -0.008555 -0.007533 0.008019 -0.019193 0.005567 0.046486
#
#
# Mechanical properties :
#
#
# Convention : Reuss Voigt Hill
#
# Bulk Modulus (GPa) = 55.32784 71.37108 63.34946
# Shear Modulus (GPa) = 24.25669 36.51561 30.38615
#
# Velocity S-wave (km/s) = 3.36009 4.12263 3.76074
# Velocity P-wave (km/s) = 6.38794 7.47535 6.95294
#
# Compressibility (1/GPa) = 0.01807408
#
# Stress axis : x y z
#
# Youngs Moduli (GPa) = 81.42428 46.32854 57.46902
#
# Poissons Ratio (x) = -0.03376 0.45579
# Poissons Ratio (y) = -0.05934 0.53987
# Poissons Ratio (z) = 0.64578 0.43521
#
# Static dielectric constant tensor:
#      x y z
#    x 4.095590 0.249750 -0.011220 
#    y 0.249750 4.126180 0.197780 
#    z -0.011220 0.197780 4.082540 
# 
# 
# High freq. dielectric constant tensor:
#      x y z
#    x 1.843430 0.007840 0.004890 
#    y 0.007840 1.835950 0.028670 
#    z 0.004890 0.028670 1.838610 
# 
# From -- ./inp_files/513484.got.cif
#   From: 2010.06.25/outbox.cif.g09.slc.cpg/sg2_257_cif.got.tgz:513484.got - 2010.06.27 13:26:56.
