data_PCOD8044866
_publ_section_title
;
Structure prediction by ZEFSAII (Michael W. Deem and Ramdas Pophale) SiO2 
 PCOD8044866
Probable space group: P 2
;
_chemical_formula_sum "Si O2"
_cell_formula_units_Z 16
_cell_length_a 8.869289
_cell_length_b 9.541238
_cell_length_c 13.266299
_cell_angle_alpha 90.000000
_cell_angle_beta 134.182332
_cell_angle_gamma 90.000000
_cell_volume 805.079032
_symmetry_space_group_name_H-M "P 2"
_symmetry_group_IT_number 3
_symmetry_cell_setting 'monoclinic'
loop_
_space_group_symop_operation_xyz
x,y,z
-x,y,-z
loop_
_atom_site_type_symbol
_atom_site_label
_atom_site_fract_x
_atom_site_fract_y
_atom_site_fract_z
Si Si1 0.826558 0.928410 0.843563
Si Si2 0.492773 0.130763 0.607810
Si Si3 0.369162 0.552152 0.524029
Si Si4 0.664557 0.538828 0.157668
Si Si5 0.229882 0.340656 0.609288
Si Si6 0.858127 0.918020 0.514793
Si Si7 0.527337 0.734373 0.260923
Si Si8 0.033047 0.734564 0.267944
O O1 0.647882 0.853779 0.827397
O O2 0.939645 0.811905 0.826235
O O3 0.719384 0.061459 0.738087
O O4 0.000000 0.990638 0.000000
O O5 0.500000 0.202175 0.500000
O O6 0.419096 0.237034 0.662528
O O7 0.319532 0.010040 0.515907
O O8 0.500000 0.465507 0.500000
O O9 0.207064 0.456829 0.510515
O O10 0.531641 0.618609 0.681452
O O11 0.255814 0.672918 0.407018
O O12 0.724695 0.410862 0.260787
O O13 0.546438 0.663193 0.161278
O O14 0.861509 0.609216 0.190069
O O15 0.500000 0.476770 0.000000
O O16 0.000000 0.266804 0.500000
O O17 0.753924 0.793098 0.400731
O O18 0.015000 0.856930 0.673192
O O19 0.000000 0.004274 0.500000
#
# Coordination Sequence:
#
# PCOD8044866 Si02
#       8
#     2   2   2   2   2   2   2   2
#     4  11  22  38  60  90 125 161 196 244 308 367
#     4  11  23  41  63  88 115 161 211 251 290 350
#     4  10  18  32  59  90 117 151 195 255 301 344
#     4  11  22  38  60  90 125 161 196 244 308 367
#     4  11  23  41  63  88 115 161 211 251 290 350
#     4  10  18  32  59  90 117 151 195 255 301 344
#     4   9  19  30  54  88 122 150 190 244 308 358
#     4  11  19  34  62  92 126 152 200 244 310 370
#
# _framework density 19.873825
#
# number of rings (size 3 to 8) (size 9 to 14) (size 15 to 20)
#    0.000    1.500    5.000    1.500    0.000    0.000 
#    0.000    1.250    0.000    0.000    0.000    0.000 
#    0.000    0.000    0.000    0.000    0.000    0.000 
#
# Total GULP energy -198234.790156 kJ/mol
# GULP energy per Si atom -12389.674385 kJ/mol
# Density = 1.982859 g / cm^3
# Si number density = 19.873825 Si / 1000 Ang^3
#
#
#
# Elastic Constant Matrix: (Units=GPa)
#
#
# Indices 1 2 3 4 5 6 
#
# 1 85.8499 16.9057 41.2624 0.0000 -6.9501 0.0000
# 2 16.9057 66.9511 29.1241 0.0000 -1.4801 0.0000
# 3 41.2624 29.1241 111.7760 0.0000 1.8110 0.0000
# 4 0.0000 0.0000 0.0000 12.1994 0.0000 -4.8227
# 5 -6.9501 -1.4801 1.8110 0.0000 23.5388 0.0000
# 6 0.0000 0.0000 0.0000 -4.8227 0.0000 36.4988
#
#
#
# Elastic Compliance Matrix: (Units=1/GPa)
#
#
# Indices 1 2 3 4 5 6 
#
# 1 0.014785 -0.001379 -0.005175 0.000000 0.004677 0.000000
# 2 -0.001379 0.017020 -0.003941 0.000000 0.000966 0.000000
# 3 -0.005175 -0.003941 0.011927 0.000000 -0.002693 0.000000
# 4 0.000000 0.000000 0.000000 0.086489 0.000000 0.011428
# 5 0.004677 0.000966 -0.002693 0.000000 0.044132 0.000000
# 6 0.000000 0.000000 0.000000 0.011428 0.000000 0.028908
#
#
# Mechanical properties :
#
#
# Convention : Reuss Voigt Hill
#
# Bulk Modulus (GPa) = 43.96931 48.79570 46.38250
# Shear Modulus (GPa) = 21.56723 26.26640 23.91681
#
# Velocity S-wave (km/s) = 3.29782 3.63941 3.47282
# Velocity P-wave (km/s) = 6.05583 6.50126 6.28250
#
# Compressibility (1/GPa) = 0.02274314
#
# Stress axis : x y z
#
# Youngs Moduli (GPa) = 67.63385 58.75306 83.84169
#
# Poissons Ratio (x) = 0.08103 0.43384
# Poissons Ratio (y) = 0.09327 0.33045
# Poissons Ratio (z) = 0.34997 0.23157
#
# Static dielectric constant tensor:
#      x y z
#    x 3.713050 0.000000 -0.131820 
#    y 0.000000 3.363720 0.000000 
#    z -0.131820 0.000000 3.364370 
# 
# 
# High freq. dielectric constant tensor:
#      x y z
#    x 1.788340 0.000000 -0.012070 
#    y 0.000000 1.751240 0.000000 
#    z -0.012070 0.000000 1.749640 
# 
# From -- ./inp_files/5824.got.cif
#   From: 2010.03.12/outbox.cif.g09.slc.cpg/sg3_3_cif.got.tgz:5824.got - 2010.03.31 09:20:49.
