data_PCOD8044740
_publ_section_title
;
Structure prediction by ZEFSAII (Michael W. Deem and Ramdas Pophale) SiO2 
 PCOD8044740
Probable space group: P -1
;
_chemical_formula_sum "Si O2"
_cell_formula_units_Z 16
_cell_length_a 13.317512
_cell_length_b 11.753108
_cell_length_c 9.359228
_cell_angle_alpha 64.308858
_cell_angle_beta 47.918890
_cell_angle_gamma 94.748261
_cell_volume 812.954278
_symmetry_space_group_name_H-M "P -1"
_symmetry_group_IT_number 2
_symmetry_cell_setting 'triclinic'
loop_
_space_group_symop_operation_xyz
x,y,z
-x,-y,-z
loop_
_atom_site_type_symbol
_atom_site_label
_atom_site_fract_x
_atom_site_fract_y
_atom_site_fract_z
Si Si1 0.797173 0.910760 0.888447
Si Si2 0.660763 0.597717 0.698581
Si Si3 0.807347 0.410970 0.717478
Si Si4 0.555688 0.640786 0.469627
Si Si5 0.175217 0.099077 0.451793
Si Si6 0.626570 0.255324 0.260141
Si Si7 0.369110 0.992665 0.478502
Si Si8 0.370065 0.917705 0.042437
O O1 0.760320 0.838479 0.803722
O O2 0.763159 0.042025 0.848924
O O3 0.693703 0.788132 0.173623
O O4 0.983481 0.983326 0.707654
O O5 0.760666 0.520495 0.635377
O O6 0.622626 0.618561 0.563847
O O7 0.774192 0.761840 0.570752
O O8 0.500000 0.500000 0.000000
O O9 0.730760 0.266355 0.761960
O O10 0.000000 0.500000 0.500000
O O11 0.734775 0.366231 0.969781
O O12 0.500000 0.500000 0.500000
O O13 0.400545 0.651130 0.644874
O O14 0.247036 0.001882 0.486427
O O15 0.441456 0.125590 0.455709
O O16 0.715888 0.176067 0.280532
O O17 0.528389 0.020978 0.232546
O O18 0.500000 0.000000 0.000000
#
# Coordination Sequence:
#
# PCOD8044740 Si02
#       8
#     2   2   2   2   2   2   2   2
#     4  11  25  40  64  98 130 160 216 272 323 372
#     4  12  23  42  68  91 128 177 215 253 322 395
#     4  11  25  41  63  96 129 167 211 267 325 381
#     4  12  25  40  64  96 126 167 215 269 311 381
#     4  11  23  42  64  95 131 169 205 271 327 379
#     4  10  21  39  64  92 120 166 217 264 305 384
#     4  10  19  38  66  88 121 159 217 256 311 374
#     4  11  21  38  66  90 117 168 214 256 303 384
#
# _framework density 19.681304000000001
#
# number of rings (size 3 to 8) (size 9 to 14) (size 15 to 20)
#    0.000    1.000    5.000    2.250    1.750    1.500 
#    0.000    0.000    0.000    2.250    0.000    0.000 
#    0.000    0.000    0.000    0.000    0.000    0.000 
#
# Total GULP energy -198399.359344 kJ/mol
# GULP energy per Si atom -12399.959959 kJ/mol
# Density = 1.963651 g / cm^3
# Si number density = 19.681304 Si / 1000 Ang^3
#
#
#
# Elastic Constant Matrix: (Units=GPa)
#
#
# Indices 1 2 3 4 5 6 
#
# 1 137.5212 61.2384 57.8551 -4.4534 6.4702 -8.6044
# 2 61.2384 140.9910 50.7723 1.9341 3.0818 4.0967
# 3 57.8551 50.7723 99.9395 3.1997 13.5569 -6.0570
# 4 -4.4534 1.9341 3.1997 24.8047 -4.7223 1.7418
# 5 6.4702 3.0818 13.5569 -4.7223 34.5695 3.7876
# 6 -8.6044 4.0967 -6.0570 1.7418 3.7876 39.6386
#
#
#
# Elastic Compliance Matrix: (Units=1/GPa)
#
#
# Indices 1 2 3 4 5 6 
#
# 1 0.010819 -0.003102 -0.004701 0.002715 0.000268 0.001806
# 2 -0.003102 0.009724 -0.003439 -0.000472 0.001250 -0.002302
# 3 -0.004701 -0.003439 0.015515 -0.003829 -0.005686 0.002417
# 4 0.002715 -0.000472 -0.003829 0.042874 0.007168 -0.002516
# 5 0.000268 0.001250 -0.005686 0.007168 0.032452 -0.004356
# 6 0.001806 -0.002302 0.002417 -0.002516 -0.004356 0.026754
#
#
# Mechanical properties :
#
#
# Convention : Reuss Voigt Hill
#
# Bulk Modulus (GPa) = 73.66488 79.79816 76.73152
# Shear Modulus (GPa) = 30.27624 33.70829 31.99226
#
# Velocity S-wave (km/s) = 3.92640 4.14298 4.03614
# Velocity P-wave (km/s) = 7.62008 7.96987 7.79694
#
# Compressibility (1/GPa) = 0.01357499
#
# Stress axis : x y z
#
# Youngs Moduli (GPa) = 92.43110 102.83641 64.45439
#
# Poissons Ratio (x) = 0.31897 0.30301
# Poissons Ratio (y) = 0.28670 0.22163
# Poissons Ratio (z) = 0.43453 0.35361
#
# Static dielectric constant tensor:
#      x y z
#    x 3.585590 -0.266920 0.307470 
#    y -0.266920 3.684330 0.252260 
#    z 0.307470 0.252260 3.521060 
# 
# 
# High freq. dielectric constant tensor:
#      x y z
#    x 1.769550 -0.009290 0.014280 
#    y -0.009290 1.784070 0.007860 
#    z 0.014280 0.007860 1.758370 
# 
# From -- ./inp_files/262000.got.cif
#   From: 2010.06.25/outbox.cif.g09.slc.cpg/sg2_131_cif.got.tgz:262000.got - 2010.06.27 13:26:56.
