data_PCOD8044396
_publ_section_title
;
Structure prediction by ZEFSAII (Michael W. Deem and Ramdas Pophale) SiO2 
 PCOD8044396
Probable space group: P -1
;
_chemical_formula_sum "Si O2"
_cell_formula_units_Z 16
_cell_length_a 11.770195
_cell_length_b 25.061523
_cell_length_c 11.632193
_cell_angle_alpha 145.768966
_cell_angle_beta 35.335702
_cell_angle_gamma 155.858583
_cell_volume 760.879208
_symmetry_space_group_name_H-M "P -1"
_symmetry_group_IT_number 2
_symmetry_cell_setting 'triclinic'
loop_
_space_group_symop_operation_xyz
x,y,z
-x,-y,-z
loop_
_atom_site_type_symbol
_atom_site_label
_atom_site_fract_x
_atom_site_fract_y
_atom_site_fract_z
Si Si1 0.197187 0.016416 0.456708
Si Si2 0.152062 0.289491 0.201381
Si Si3 0.799607 0.202885 0.909082
Si Si4 0.985570 0.391209 0.694153
Si Si5 0.723070 0.019298 0.202982
Si Si6 0.603565 0.902890 0.327922
Si Si7 0.294853 0.841069 0.848248
Si Si8 0.816297 0.534786 0.091235
O O1 0.118748 0.877927 0.280055
O O2 0.183213 0.052336 0.663339
O O3 0.523161 0.152379 0.385341
O O4 0.000000 0.000000 0.500000
O O5 0.485783 0.396778 0.088811
O O6 0.093387 0.367172 0.455563
O O7 0.032050 0.156518 0.137075
O O8 0.998112 0.231580 0.101716
O O9 0.062153 0.337938 0.860501
O O10 0.489801 0.111336 0.940788
O O11 0.780847 0.244511 0.125852
O O12 0.648762 0.261659 0.774046
O O13 0.168352 0.428168 0.722099
O O14 0.017113 0.514308 0.861510
O O15 0.548936 0.052782 0.434301
O O16 0.783455 0.979366 0.197453
O O17 0.500000 0.000000 0.000000
#
# Coordination Sequence:
#
# PCOD8044396 Si02
#       8
#     2   2   2   2   2   2   2   2
#     4  10  20  36  61  92 118 158 205 259 310 365
#     4  11  21  40  64  91 124 165 205 257 312 366
#     4  10  20  39  60  86 121 163 203 253 307 366
#     4  10  21  41  61  90 128 165 203 250 315 372
#     4   9  16  33  64  87 112 155 205 258 314 353
#     4   9  16  33  62  85 113 156 203 258 303 360
#     4  10  19  38  60  86 120 162 201 253 316 360
#     4  11  24  39  63  90 128 169 202 252 310 371
#
# _framework density 21.028306000000001
#
# number of rings (size 3 to 8) (size 9 to 14) (size 15 to 20)
#    0.000    2.000    6.250    0.375    1.750    2.500 
#    2.250    2.500    0.000    0.000    0.000    0.000 
#    0.000    0.000    0.000    0.000    0.000    0.000 
#
# Total GULP energy -198305.737314 kJ/mol
# GULP energy per Si atom -12394.108582 kJ/mol
# Density = 2.098044 g / cm^3
# Si number density = 21.028306 Si / 1000 Ang^3
#
#
#
# Elastic Constant Matrix: (Units=GPa)
#
#
# Indices 1 2 3 4 5 6 
#
# 1 173.3104 63.3692 31.3594 0.2893 32.6366 7.3211
# 2 63.3692 124.7247 14.6935 -9.1412 10.4771 1.8264
# 3 31.3594 14.6935 40.1300 2.3539 17.1942 -3.7185
# 4 0.2893 -9.1412 2.3539 23.4266 1.7939 7.4390
# 5 32.6366 10.4771 17.1942 1.7939 30.1690 6.1527
# 6 7.3211 1.8264 -3.7185 7.4390 6.1527 31.3973
#
#
#
# Elastic Compliance Matrix: (Units=1/GPa)
#
#
# Indices 1 2 3 4 5 6 
#
# 1 0.008886 -0.003655 -0.002856 -0.000495 -0.006523 -0.000802
# 2 -0.003655 0.010338 -0.001961 0.004594 0.001486 -0.001361
# 3 -0.002856 -0.001961 0.037523 -0.006360 -0.019383 0.010529
# 4 -0.000495 0.004594 -0.006360 0.049071 0.002293 -0.012981
# 5 -0.006523 0.001486 -0.019383 0.002293 0.053002 -0.011791
# 6 -0.000802 -0.001361 0.010529 -0.012981 -0.011791 0.038749
#
#
# Mechanical properties :
#
#
# Convention : Reuss Voigt Hill
#
# Bulk Modulus (GPa) = 25.12467 61.88992 43.50730
# Shear Modulus (GPa) = 21.95084 32.24810 27.09947
#
# Velocity S-wave (km/s) = 3.23440 3.92031 3.59376
# Velocity P-wave (km/s) = 5.09141 7.07018 6.16076
#
# Compressibility (1/GPa) = 0.03980151
#
# Stress axis : x y z
#
# Youngs Moduli (GPa) = 112.53287 96.73514 26.65030
#
# Poissons Ratio (x) = 0.35356 0.07613
# Poissons Ratio (y) = 0.41130 0.05227
# Poissons Ratio (z) = 0.32145 0.18972
#
# Static dielectric constant tensor:
#      x y z
#    x 4.152310 -0.111670 0.489520 
#    y -0.111670 3.729780 0.011140 
#    z 0.489520 0.011140 3.799620 
# 
# 
# High freq. dielectric constant tensor:
#      x y z
#    x 1.829920 0.003480 0.022870 
#    y 0.003480 1.808530 0.003060 
#    z 0.022870 0.003060 1.806580 
# 
# From -- ./inp_files/243426.got.cif
#   From: 2010.06.25/outbox.cif.g09.slc.cpg/sg2_122_cif.got.tgz:243426.got - 2010.06.27 13:26:56.
