data_PCOD8044443
_publ_section_title
;
Structure prediction by ZEFSAII (Michael W. Deem and Ramdas Pophale) SiO2 
 PCOD8044443
Probable space group: P -1
;
_chemical_formula_sum "Si O2"
_cell_formula_units_Z 16
_cell_length_a 11.173786
_cell_length_b 24.147096
_cell_length_c 9.697338
_cell_angle_alpha 132.476591
_cell_angle_beta 70.577526
_cell_angle_gamma 147.236469
_cell_volume 843.535140
_symmetry_space_group_name_H-M "P -1"
_symmetry_group_IT_number 2
_symmetry_cell_setting 'triclinic'
loop_
_space_group_symop_operation_xyz
x,y,z
-x,-y,-z
loop_
_atom_site_type_symbol
_atom_site_label
_atom_site_fract_x
_atom_site_fract_y
_atom_site_fract_z
Si Si1 0.201815 0.825194 0.558673
Si Si2 0.924971 0.761182 0.796570
Si Si3 0.596737 0.304245 0.722476
Si Si4 0.935643 0.739128 0.254964
Si Si5 0.438371 0.576240 0.251481
Si Si6 0.607989 0.446393 0.458022
Si Si7 0.120620 0.489675 0.779136
Si Si8 0.747955 0.022505 0.705059
O O1 0.132678 0.849693 0.743143
O O2 0.174999 0.847984 0.456372
O O3 0.984407 0.643732 0.343002
O O4 0.509777 0.959707 0.689879
O O5 0.787774 0.615875 0.670427
O O6 0.696336 0.698081 0.722928
O O7 0.095429 0.893309 0.069294
O O8 0.487401 0.315721 0.693696
O O9 0.872196 0.417570 0.735501
O O10 0.364169 0.119786 0.509586
O O11 0.653506 0.359524 0.949928
O O12 0.684681 0.645716 0.274800
O O13 0.045139 0.852907 0.288797
O O14 0.837725 0.609721 0.006335
O O15 0.398028 0.585914 0.437652
O O16 0.742681 0.451432 0.322983
#
# Coordination Sequence:
#
# PCOD8044443 Si02
#       8
#     2   2   2   2   2   2   2   2
#     4  10  19  38  61  86 120 148 193 247 283 339
#     4  10  20  36  59  91 115 146 195 241 294 337
#     4  10  22  40  59  84 121 154 190 236 289 351
#     4  11  22  37  60  92 114 148 201 241 284 337
#     4  11  22  38  62  86 117 153 194 243 281 343
#     4  10  20  36  62  86 114 151 197 244 276 342
#     4   9  20  38  62  85 113 159 196 228 288 350
#     4  11  23  37  59  88 119 154 189 237 299 340
#
# _framework density 18.967793
#
# number of rings (size 3 to 8) (size 9 to 14) (size 15 to 20)
#    0.000    1.750    3.750    0.750    1.750    1.000 
#    0.000    1.875    0.000    0.000    0.000    0.000 
#    0.000    0.000    0.000    0.000    0.000    0.000 
#
# Total GULP energy -198492.655767 kJ/mol
# GULP energy per Si atom -12405.790985 kJ/mol
# Density = 1.892462 g / cm^3
# Si number density = 18.967793 Si / 1000 Ang^3
#
#
#
# Elastic Constant Matrix: (Units=GPa)
#
#
# Indices 1 2 3 4 5 6 
#
# 1 55.6676 16.3928 21.5427 -7.1770 2.8268 -8.7501
# 2 16.3928 87.8026 46.9010 -15.7595 -0.9317 -2.3032
# 3 21.5427 46.9010 117.8942 -15.5261 6.9116 -10.5937
# 4 -7.1770 -15.7595 -15.5261 29.3845 -0.1979 -2.5940
# 5 2.8268 -0.9317 6.9116 -0.1979 26.8766 -3.5709
# 6 -8.7501 -2.3032 -10.5937 -2.5940 -3.5709 28.3164
#
#
#
# Elastic Compliance Matrix: (Units=1/GPa)
#
#
# Indices 1 2 3 4 5 6 
#
# 1 0.020711 -0.002079 -0.001939 0.003415 -0.000970 0.005696
# 2 -0.002079 0.015513 -0.005319 0.004958 0.002074 -0.000655
# 3 -0.001939 -0.005319 0.011826 0.003202 -0.002551 0.003364
# 4 0.003415 0.004958 0.003202 0.039775 0.000121 0.006316
# 5 -0.000970 0.002074 -0.002551 0.000121 0.038541 0.003786
# 6 0.005696 -0.000655 0.003364 0.006316 0.003786 0.039337
#
#
# Mechanical properties :
#
#
# Convention : Reuss Voigt Hill
#
# Bulk Modulus (GPa) = 34.04073 47.89303 40.96688
# Shear Modulus (GPa) = 25.75065 28.68403 27.21734
#
# Velocity S-wave (km/s) = 3.68856 3.89298 3.79215
# Velocity P-wave (km/s) = 6.01051 6.74623 6.38896
#
# Compressibility (1/GPa) = 0.02937657
#
# Stress axis : x y z
#
# Youngs Moduli (GPa) = 48.28292 64.46058 84.55835
#
# Poissons Ratio (x) = 0.13401 0.16396
# Poissons Ratio (y) = 0.10038 0.44978
# Poissons Ratio (z) = 0.09362 0.34288
#
# Static dielectric constant tensor:
#      x y z
#    x 3.314720 0.146470 0.026540 
#    y 0.146470 3.383240 -0.121660 
#    z 0.026540 -0.121660 3.451980 
# 
# 
# High freq. dielectric constant tensor:
#      x y z
#    x 1.729310 0.009200 0.010230 
#    y 0.009200 1.732840 -0.012970 
#    z 0.010230 -0.012970 1.738860 
# 
# From -- ./inp_files/180480.got.cif
#   From: 2010.06.25/outbox.cif.g09.slc.cpg/sg2_91_cif.got.tgz:180480.got - 2010.06.27 13:26:56.
