data_PCOD8044485
_publ_section_title
;
Structure prediction by ZEFSAII (Michael W. Deem and Ramdas Pophale) SiO2 
 PCOD8044485
Probable space group: P -1
;
_chemical_formula_sum "Si O2"
_cell_formula_units_Z 14
_cell_length_a 13.421803
_cell_length_b 11.788746
_cell_length_c 16.091357
_cell_angle_alpha 143.986645
_cell_angle_beta 26.272173
_cell_angle_gamma 134.669363
_cell_volume 660.197877
_symmetry_space_group_name_H-M "P -1"
_symmetry_group_IT_number 2
_symmetry_cell_setting 'triclinic'
loop_
_space_group_symop_operation_xyz
x,y,z
-x,-y,-z
loop_
_atom_site_type_symbol
_atom_site_label
_atom_site_fract_x
_atom_site_fract_y
_atom_site_fract_z
Si Si1 0.073307 0.256871 0.140069
Si Si2 0.018380 0.960979 0.243129
Si Si3 0.780006 0.003902 0.609868
Si Si4 0.203548 0.376461 0.381684
Si Si5 0.443844 0.348694 0.023274
Si Si6 0.765266 0.959949 0.261045
Si Si7 0.512794 0.180885 0.157541
O O1 0.278902 0.199581 0.016523
O O2 0.001272 0.482068 0.345826
O O3 0.173360 0.227675 0.954610
O O4 0.856088 0.139012 0.248826
O O5 0.839195 0.927468 0.428709
O O6 0.105160 0.173834 0.313138
O O7 0.896995 0.926524 0.227839
O O8 0.227215 0.796502 0.000327
O O9 0.615408 0.855524 0.682629
O O10 0.661843 0.222941 0.822181
O O11 0.000000 0.000000 0.500000
O O12 0.314131 0.457973 0.263290
O O13 0.393636 0.362373 0.303927
O O14 0.500000 0.500000 0.000000
O O15 0.500000 0.000000 0.500000
O O16 0.500000 0.000000 0.000000
#
# Coordination Sequence:
#
# PCOD8044485 Si02
#       7
#     2   2   2   2   2   2   2
#     4  11  25  42  61  91 131 167 212 265 318 376
#     4  11  21  40  65  91 127 163 212 260 316 376
#     4  12  20  34  61  95 125 166 204 254 318 387
#     4  11  21  40  66  97 128 160 207 274 321 372
#     4  12  24  36  65 102 131 163 211 268 329 371
#     4  11  25  44  62  86 128 177 213 254 318 389
#     4  10  19  38  61  93 129 163 205 258 324 380
#
# _framework density 21.205763000000001
#
# number of rings (size 3 to 8) (size 9 to 14) (size 15 to 20)
#    0.000    0.857    7.143    2.143    4.000    1.143 
#    0.000    0.714    0.000    1.714    0.000    0.000 
#    0.000    0.000    0.000    0.000    0.000    0.000 
#
# Total GULP energy -173557.238152 kJ/mol
# GULP energy per Si atom -12396.945582 kJ/mol
# Density = 2.115750 g / cm^3
# Si number density = 21.205763 Si / 1000 Ang^3
#
#
#
# Elastic Constant Matrix: (Units=GPa)
#
#
# Indices 1 2 3 4 5 6 
#
# 1 164.1442 29.0558 89.0326 -3.4814 2.0646 -9.3483
# 2 29.0558 56.2847 34.7729 -17.9155 6.6591 -14.1687
# 3 89.0326 34.7729 153.8756 -20.7126 11.0558 -2.9179
# 4 -3.4814 -17.9155 -20.7126 35.1457 -8.7797 4.2532
# 5 2.0646 6.6591 11.0558 -8.7797 45.4310 -13.7832
# 6 -9.3483 -14.1687 -2.9179 4.2532 -13.7832 32.6992
#
#
#
# Elastic Compliance Matrix: (Units=1/GPa)
#
#
# Indices 1 2 3 4 5 6 
#
# 1 0.009506 -0.002150 -0.005514 -0.003363 0.001262 0.002263
# 2 -0.002150 0.026622 -0.003290 0.010728 0.002144 0.010135
# 3 -0.005514 -0.003290 0.011089 0.004180 -0.002217 -0.003491
# 4 -0.003363 0.010728 0.004180 0.037174 0.005174 0.001405
# 5 0.001262 0.002144 -0.002217 0.005174 0.026724 0.011684
# 6 0.002263 0.010135 -0.003491 0.001405 0.011684 0.040051
#
#
# Mechanical properties :
#
#
# Convention : Reuss Voigt Hill
#
# Bulk Modulus (GPa) = 39.51473 75.55857 57.53665
# Shear Modulus (GPa) = 27.54681 37.41807 32.48244
#
# Velocity S-wave (km/s) = 3.60811 4.20518 3.91803
# Velocity P-wave (km/s) = 6.00269 7.69978 6.90358
#
# Compressibility (1/GPa) = 0.02530702
#
# Stress axis : x y z
#
# Youngs Moduli (GPa) = 105.20139 37.56349 90.18262
#
# Poissons Ratio (x) = 0.08077 0.49731
# Poissons Ratio (y) = 0.22621 0.29667
# Poissons Ratio (z) = 0.58013 0.12357
#
# Static dielectric constant tensor:
#      x y z
#    x 4.403910 -0.201590 -0.223790 
#    y -0.201590 5.161800 -2.246200 
#    z -0.223790 -2.246200 6.511210 
# 
# 
# High freq. dielectric constant tensor:
#      x y z
#    x 1.845080 -0.020100 -0.007250 
#    y -0.020100 1.785610 -0.032810 
#    z -0.007250 -0.032810 1.848100 
# 
# From -- ./inp_files/519196.got.cif
#   From: 2010.06.25/outbox.cif.g09.slc.cpg/sg2_260_cif.got.tgz:519196.got - 2010.06.27 13:26:56.
