data_PCOD8044980
_publ_section_title
;
Structure prediction by ZEFSAII (Michael W. Deem and Ramdas Pophale) SiO2 
 PCOD8044980
Probable space group: P 2
;
_chemical_formula_sum "Si O2"
_cell_formula_units_Z 14
_cell_length_a 22.782458
_cell_length_b 5.327700
_cell_length_c 16.662975
_cell_angle_alpha 90.000000
_cell_angle_beta 160.623071
_cell_angle_gamma 90.000000
_cell_volume 671.034409
_symmetry_space_group_name_H-M "P 2"
_symmetry_group_IT_number 3
_symmetry_cell_setting 'monoclinic'
loop_
_space_group_symop_operation_xyz
x,y,z
-x,y,-z
loop_
_atom_site_type_symbol
_atom_site_label
_atom_site_fract_x
_atom_site_fract_y
_atom_site_fract_z
Si Si1 0.163908 0.424990 0.078451
Si Si2 0.570070 0.111098 0.962993
Si Si3 0.000000 0.110545 0.000000
Si Si4 0.784243 0.110188 0.391332
Si Si5 0.536417 0.613611 0.250175
Si Si6 0.891091 0.607639 0.604859
Si Si7 0.500000 0.110617 0.500000
Si Si8 0.334851 0.796184 0.420317
O O1 0.024576 0.258124 0.948268
O O2 0.326466 0.267897 0.252513
O O3 0.241059 0.610598 0.241060
O O4 0.068048 0.584204 0.885796
O O5 0.395762 0.110601 0.791526
O O6 0.570817 0.357236 0.906738
O O7 0.578871 0.855835 0.923288
O O8 0.741579 0.110615 0.241587
O O9 0.177278 0.963158 0.253602
O O10 0.890042 0.365488 0.545613
O O11 0.898970 0.864036 0.563079
O O12 0.721573 0.610621 0.443154
O O13 0.567440 0.636970 0.385179
O O14 0.474439 0.953190 0.548391
#
# Coordination Sequence:
#
# PCOD8044980 Si02
#       8
#     2   2   1   2   2   2   1   2
#     4  11  23  39  58  87 123 163 208 257 306 374
#     4   9  18  32  50  82 124 160 195 241 304 368
#     4  10  22  34  60  84 126 162 202 262 310 354
#     4   9  18  32  50  82 124 160 195 241 304 368
#     4  10  20  31  57  85 120 163 199 243 305 367
#     4  10  20  31  57  85 120 163 199 243 305 367
#     4  10  26  42  60  76 130 162 218 254 314 362
#     4  11  23  39  58  87 123 163 208 257 306 374
#
# _framework density 20.863313999999999
#
# number of rings (size 3 to 8) (size 9 to 14) (size 15 to 20)
#    0.000    2.000    0.000    3.429   14.000    3.429 
#    0.000    0.000    0.000    0.000    0.000    1.000 
#    0.000    0.000    0.000    0.000    0.000    0.000 
#
# Total GULP energy -173570.217037 kJ/mol
# GULP energy per Si atom -12397.872646 kJ/mol
# Density = 2.081583 g / cm^3
# Si number density = 20.863314 Si / 1000 Ang^3
#
#
#
# Elastic Constant Matrix: (Units=GPa)
#
#
# Indices 1 2 3 4 5 6 
#
# 1 114.5897 58.1323 32.6769 0.0000 -30.3664 0.0000
# 2 58.1323 183.4196 77.5744 0.0000 -29.4791 0.0000
# 3 32.6769 77.5744 155.7029 0.0000 -32.0066 0.0000
# 4 0.0000 0.0000 0.0000 29.4535 0.0000 -28.0682
# 5 -30.3664 -29.4791 -32.0066 0.0000 53.4525 0.0000
# 6 0.0000 0.0000 0.0000 -28.0682 0.0000 10.9411
#
#
#
# Elastic Compliance Matrix: (Units=1/GPa)
#
#
# Indices 1 2 3 4 5 6 
#
# 1 0.011482 -0.002855 0.000034 0.000000 0.004969 0.000000
# 2 -0.002855 0.007809 -0.003124 0.000000 0.000814 0.000000
# 3 0.000034 -0.003124 0.008691 0.000000 0.003501 0.000000
# 4 0.000000 0.000000 0.000000 -0.023500 0.000000 -0.060288
# 5 0.004969 0.000814 0.003501 0.000000 0.024076 0.000000
# 6 0.000000 0.000000 0.000000 -0.060288 0.000000 -0.063263
#
#
# Mechanical properties :
#
#
# Convention : Reuss Voigt Hill
#
# Bulk Modulus (GPa) = 62.13997 87.83105 74.98551
# Shear Modulus (GPa) = -286.51478 37.79132 -124.36173
#
# Velocity S-wave (km/s) = -11.73148 4.26064 -7.72899
# Velocity P-wave (km/s) = 12.39574 8.14824 6.60533
#
# Compressibility (1/GPa) = 0.01609270
#
# Stress axis : x y z
#
# Youngs Moduli (GPa) = 87.09157 128.05863 115.05589
#
# Poissons Ratio (x) = 0.36560 -0.00392
# Poissons Ratio (y) = 0.24864 0.35944
# Poissons Ratio (z) = -0.00297 0.40006
#
# Static dielectric constant tensor:
#      x y z
#    x 3.457160 0.000000 -0.198080 
#    y 0.000000 3.860960 0.000000 
#    z -0.198080 0.000000 3.586860 
# 
# 
# High freq. dielectric constant tensor:
#      x y z
#    x 1.785040 0.000000 -0.027150 
#    y 0.000000 1.837930 0.000000 
#    z -0.027150 0.000000 1.802940 
# 
# From -- ./inp_files/1249.got.cif
#   From: 2010.03.12/outbox.cif.g09.slc.cpg/sg3_1_cif.got.tgz:1249.got - 2010.03.31 09:20:49.
