data_PCOD8044787
_publ_section_title
;
Structure prediction by ZEFSAII (Michael W. Deem and Ramdas Pophale) SiO2 
 PCOD8044787
Probable space group: P -1
;
_chemical_formula_sum "Si O2"
_cell_formula_units_Z 14
_cell_length_a 17.233680
_cell_length_b 8.671110
_cell_length_c 20.725090
_cell_angle_alpha 131.849286
_cell_angle_beta 161.235251
_cell_angle_gamma 40.720150
_cell_volume 630.874179
_symmetry_space_group_name_H-M "P -1"
_symmetry_group_IT_number 2
_symmetry_cell_setting 'triclinic'
loop_
_space_group_symop_operation_xyz
x,y,z
-x,-y,-z
loop_
_atom_site_type_symbol
_atom_site_label
_atom_site_fract_x
_atom_site_fract_y
_atom_site_fract_z
Si Si1 0.888689 0.672492 0.860698
Si Si2 0.194588 0.689975 0.224831
Si Si3 0.742485 0.532266 0.169009
Si Si4 0.760805 0.250277 0.515134
Si Si5 0.231754 0.028809 0.439521
Si Si6 0.298278 0.970186 0.713035
Si Si7 0.203460 0.386144 0.906034
O O1 0.920104 0.431582 0.849945
O O2 0.028237 0.602613 0.880099
O O3 0.570525 0.906622 0.671473
O O4 0.057198 0.750436 0.062589
O O5 0.534273 0.510685 0.439910
O O6 0.129887 0.942532 0.273621
O O7 0.711027 0.781263 0.238063
O O8 0.718174 0.516989 0.068156
O O9 0.059025 0.320819 0.381510
O O10 0.500000 0.500000 0.000000
O O11 0.025690 0.269128 0.705891
O O12 0.871793 0.041023 0.597442
O O13 0.598268 0.192504 0.315928
O O14 0.000000 0.000000 0.500000
O O15 0.508684 0.829065 0.897366
#
# Coordination Sequence:
#
# PCOD8044787 Si02
#       7
#     2   2   2   2   2   2   2
#     4  10  20  37  73 103 134 181 231 290 340 415
#     4  10  19  38  67 110 135 172 233 284 350 412
#     4  12  30  47  68 102 150 190 223 291 355 410
#     4  11  21  42  77 102 134 185 239 288 337 417
#     4  11  23  42  66 106 146 175 220 291 362 407
#     4  12  27  47  74 101 132 191 248 280 331 427
#     4  12  23  47  72 100 136 183 243 287 339 409
#
# _framework density 22.19143
#
# number of rings (size 3 to 8) (size 9 to 14) (size 15 to 20)
#    0.000    0.857    5.714    2.143    2.000    1.143 
#    2.571    0.714    0.000    0.000    0.000    0.000 
#    0.000    0.000    0.000    0.000    0.000    0.000 
#
# Total GULP energy -173634.601442 kJ/mol
# GULP energy per Si atom -12402.471532 kJ/mol
# Density = 2.214092 g / cm^3
# Si number density = 22.191430 Si / 1000 Ang^3
#
#
#
# Elastic Constant Matrix: (Units=GPa)
#
#
# Indices 1 2 3 4 5 6 
#
# 1 136.8081 38.3472 43.0144 5.3485 -3.0026 4.3422
# 2 38.3472 65.2691 36.7512 -14.2921 -3.3566 11.9121
# 3 43.0144 36.7512 118.4929 -3.6804 -8.5024 12.2962
# 4 5.3485 -14.2921 -3.6804 39.3867 -2.9727 -3.7217
# 5 -3.0026 -3.3566 -8.5024 -2.9727 39.7505 4.5942
# 6 4.3422 11.9121 12.2962 -3.7217 4.5942 23.4950
#
#
#
# Elastic Compliance Matrix: (Units=1/GPa)
#
#
# Indices 1 2 3 4 5 6 
#
# 1 0.009585 -0.005545 -0.002090 -0.003395 -0.000644 0.001722
# 2 -0.005545 0.024518 -0.004300 0.008645 0.002331 -0.008242
# 3 -0.002090 -0.004300 0.011067 -0.000426 0.002246 -0.003732
# 4 -0.003395 0.008645 -0.000426 0.029193 0.002496 0.000603
# 5 -0.000644 0.002331 0.002246 0.002496 0.026790 -0.007081
# 6 0.001722 -0.008242 -0.003732 0.000603 -0.007081 0.049856
#
#
# Mechanical properties :
#
#
# Convention : Reuss Voigt Hill
#
# Bulk Modulus (GPa) = 46.95198 61.86618 54.40908
# Shear Modulus (GPa) = 27.47567 34.02360 30.74964
#
# Velocity S-wave (km/s) = 3.52251 3.91984 3.72648
# Velocity P-wave (km/s) = 6.14392 6.95886 6.56405
#
# Compressibility (1/GPa) = 0.02129836
#
# Stress axis : x y z
#
# Youngs Moduli (GPa) = 104.33063 40.78693 90.35965
#
# Poissons Ratio (x) = 0.22618 0.18884
# Poissons Ratio (y) = 0.57856 0.38857
# Poissons Ratio (z) = 0.21804 0.17539
#
# Static dielectric constant tensor:
#      x y z
#    x 4.150810 -0.317780 -0.186180 
#    y -0.317780 3.856220 0.089360 
#    z -0.186180 0.089360 4.075070 
# 
# 
# High freq. dielectric constant tensor:
#      x y z
#    x 1.879570 -0.022900 -0.005100 
#    y -0.022900 1.853750 -0.003750 
#    z -0.005100 -0.003750 1.885390 
# 
# From -- ./inp_files/282362.got.cif
#   From: 2010.06.25/outbox.cif.g09.slc.cpg/sg2_142_cif.got.tgz:282362.got - 2010.06.27 13:26:56.
