data_PCOD8044997
_publ_section_title
;
Structure prediction by ZEFSAII (Michael W. Deem and Ramdas Pophale) SiO2 
 PCOD8044997
Probable space group: P 2
;
_chemical_formula_sum "Si O2"
_cell_formula_units_Z 12
_cell_length_a 9.651621
_cell_length_b 11.797986
_cell_length_c 5.179109
_cell_angle_alpha 90.000000
_cell_angle_beta 115.214500
_cell_angle_gamma 90.000000
_cell_volume 533.552339
_symmetry_space_group_name_H-M "P 2"
_symmetry_group_IT_number 3
_symmetry_cell_setting 'monoclinic'
loop_
_space_group_symop_operation_xyz
x,y,z
-x,y,-z
loop_
_atom_site_type_symbol
_atom_site_label
_atom_site_fract_x
_atom_site_fract_y
_atom_site_fract_z
Si Si1 0.820581 0.985210 0.833702
Si Si2 0.097346 0.211424 0.325429
Si Si3 0.214907 0.448121 0.512217
Si Si4 0.716196 0.635189 0.048544
Si Si5 0.000000 0.573516 0.000000
Si Si6 0.183689 0.860181 0.660932
Si Si7 0.500000 0.552503 0.500000
O O1 0.751053 0.905586 0.557379
O O2 0.792594 0.114228 0.710779
O O3 0.757542 0.945661 0.063551
O O4 0.000000 0.970302 0.000000
O O5 0.199112 0.312815 0.526263
O O6 0.000000 0.164647 0.500000
O O7 0.000000 0.255656 0.000000
O O8 0.257837 0.510403 0.810792
O O9 0.352930 0.473805 0.425244
O O10 0.052351 0.494950 0.280480
O O11 0.856629 0.654063 0.958071
O O12 0.731202 0.739149 0.255525
O O13 0.547994 0.633139 0.779494
O O14 0.000000 0.845925 0.500000
#
# Coordination Sequence:
#
# PCOD8044997 Si02
#       7
#     2   2   2   2   1   2   1
#     4   9  19  34  54  91 130 161 200 248 321 377
#     4  11  21  37  62  97 132 166 203 265 323 386
#     4  11  22  39  60  91 125 165 213 259 326 379
#     4  11  23  38  60  90 125 166 211 262 322 380
#     4  10  20  34  56  94 120 150 204 250 318 376
#     4  10  20  34  59  90 128 162 200 258 316 378
#     4  10  26  42  58  86 120 178 214 262 320 384
#
# _framework density 22.490767000000002
#
# number of rings (size 3 to 8) (size 9 to 14) (size 15 to 20)
#    0.000    1.667    0.833    5.500   10.500    0.000 
#    0.000    0.000    0.000    1.000    0.000    0.000 
#    0.000    0.000    0.000    0.000    0.000    0.000 
#
# Total GULP energy -148676.265724 kJ/mol
# GULP energy per Si atom -12389.688810 kJ/mol
# Density = 2.243958 g / cm^3
# Si number density = 22.490767 Si / 1000 Ang^3
#
#
#
# Elastic Constant Matrix: (Units=GPa)
#
#
# Indices 1 2 3 4 5 6 
#
# 1 20.3144 5.7460 14.0072 0.0000 2.7744 0.0000
# 2 5.7460 143.3881 58.9621 0.0000 7.0871 0.0000
# 3 14.0072 58.9621 143.9458 0.0000 -4.1805 0.0000
# 4 0.0000 0.0000 0.0000 37.8576 0.0000 -9.5640
# 5 2.7744 7.0871 -4.1805 0.0000 31.5635 0.0000
# 6 0.0000 0.0000 0.0000 -9.5640 0.0000 14.1884
#
#
#
# Elastic Compliance Matrix: (Units=1/GPa)
#
#
# Indices 1 2 3 4 5 6 
#
# 1 0.053697 0.000406 -0.005552 0.000000 -0.005546 0.000000
# 2 0.000406 0.008567 -0.003619 0.000000 -0.002439 0.000000
# 3 -0.005552 -0.003619 0.009042 0.000000 0.002498 0.000000
# 4 0.000000 0.000000 0.000000 0.031836 0.000000 0.021460
# 5 -0.005546 -0.002439 0.002498 0.000000 0.033048 0.000000
# 6 0.000000 0.000000 0.000000 0.021460 0.000000 0.084946
#
#
# Mechanical properties :
#
#
# Convention : Reuss Voigt Hill
#
# Bulk Modulus (GPa) = 18.59631 51.67542 35.13587
# Shear Modulus (GPa) = 19.48605 31.98410 25.73508
#
# Velocity S-wave (km/s) = 2.94666 3.77516 3.38635
# Velocity P-wave (km/s) = 4.45685 6.48295 5.56292
#
# Compressibility (1/GPa) = 0.05377410
#
# Stress axis : x y z
#
# Youngs Moduli (GPa) = 18.62287 116.73207 110.58995
#
# Poissons Ratio (x) = -0.04734 0.61404
# Poissons Ratio (y) = -0.00755 0.40026
# Poissons Ratio (z) = 0.10340 0.42249
#
# Static dielectric constant tensor:
#      x y z
#    x 3.751610 0.000000 -0.314380 
#    y 0.000000 4.060390 0.000000 
#    z -0.314380 0.000000 4.386860 
# 
# 
# High freq. dielectric constant tensor:
#      x y z
#    x 1.845790 0.000000 -0.028970 
#    y 0.000000 1.875400 0.000000 
#    z -0.028970 0.000000 1.898640 
# 
# From -- ./inp_files/2375.got.cif
#   From: 2010.03.12/outbox.cif.g09.slc.cpg/sg3_2_cif.got.tgz:2375.got - 2010.03.31 09:20:49.
