data_PCOD8044634
_publ_section_title
;
Structure prediction by ZEFSAII (Michael W. Deem and Ramdas Pophale) SiO2 
 PCOD8044634
Probable space group: P -1
;
_chemical_formula_sum "Si O2"
_cell_formula_units_Z 14
_cell_length_a 16.597250
_cell_length_b 8.327111
_cell_length_c 5.385442
_cell_angle_alpha 101.347294
_cell_angle_beta 66.266305
_cell_angle_gamma 73.621115
_cell_volume 611.561384
_symmetry_space_group_name_H-M "P -1"
_symmetry_group_IT_number 2
_symmetry_cell_setting 'triclinic'
loop_
_space_group_symop_operation_xyz
x,y,z
-x,-y,-z
loop_
_atom_site_type_symbol
_atom_site_label
_atom_site_fract_x
_atom_site_fract_y
_atom_site_fract_z
Si Si1 0.207639 0.828146 0.196313
Si Si2 0.478601 0.414804 0.247213
Si Si3 0.724041 0.489624 0.303570
Si Si4 0.640204 0.046144 0.852223
Si Si5 0.105126 0.734600 0.674883
Si Si6 0.292183 0.158199 0.775824
Si Si7 0.890945 0.911803 0.994200
O O1 0.150462 0.712842 0.338184
O O2 0.276322 0.693038 0.864588
O O3 0.281925 0.871010 0.289478
O O4 0.131323 0.014123 0.235801
O O5 0.500000 0.500000 0.500000
O O6 0.367673 0.441457 0.380144
O O7 0.538258 0.201569 0.092714
O O8 0.500000 0.500000 0.000000
O O9 0.826038 0.434909 0.303615
O O10 0.715738 0.639427 0.155684
O O11 0.364244 0.056765 0.427004
O O12 0.671618 0.921697 0.021505
O O13 0.110587 0.925373 0.785922
O O14 0.996632 0.748784 0.821888
O O15 0.187220 0.161886 0.844940
#
# Coordination Sequence:
#
# PCOD8044634 Si02
#       7
#     2   2   2   2   2   2   2
#     4  10  19  38  64  91 122 170 217 264 309 376
#     4  12  25  42  71  99 123 165 217 268 312 374
#     4  11  26  39  63  96 129 164 213 267 319 376
#     4  11  23  43  67  89 132 169 214 258 318 382
#     4  10  19  38  64  90 125 166 222 258 310 374
#     4  11  25  43  63  97 133 171 205 263 325 377
#     4   9  20  36  62  93 123 169 214 262 313 379
#
# _framework density 22.892220999999999
#
# number of rings (size 3 to 8) (size 9 to 14) (size 15 to 20)
#    0.000    1.429    2.857    2.143    4.000    1.714 
#    0.000    0.714    0.000    0.000    0.000    0.000 
#    0.000    0.000    0.000    0.000    0.000    0.000 
#
# Total GULP energy -173476.022782 kJ/mol
# GULP energy per Si atom -12391.144484 kJ/mol
# Density = 2.284012 g / cm^3
# Si number density = 22.892221 Si / 1000 Ang^3
#
#
#
# Elastic Constant Matrix: (Units=GPa)
#
#
# Indices 1 2 3 4 5 6 
#
# 1 42.6392 25.7329 19.8221 6.5383 -7.5750 -17.3000
# 2 25.7329 106.1723 39.0539 -8.7109 -15.0189 -25.9574
# 3 19.8221 39.0539 101.5890 -9.1477 -3.2332 -17.9876
# 4 6.5383 -8.7109 -9.1477 35.3315 -6.9794 -5.6488
# 5 -7.5750 -15.0189 -3.2332 -6.9794 40.9860 5.0369
# 6 -17.3000 -25.9574 -17.9876 -5.6488 5.0369 30.5066
#
#
#
# Elastic Compliance Matrix: (Units=1/GPa)
#
#
# Indices 1 2 3 4 5 6 
#
# 1 0.033680 -0.004167 -0.003258 -0.005760 0.001955 0.012243
# 2 -0.004167 0.014680 -0.002552 0.006027 0.004325 0.009025
# 3 -0.003258 -0.002552 0.012521 0.003795 -0.000411 0.004134
# 4 -0.005760 0.006027 0.003795 0.034572 0.006165 0.009483
# 5 0.001955 0.004325 -0.000411 0.006165 0.027215 0.001194
# 6 0.012243 0.009025 0.004134 0.009483 0.001194 0.051398
#
#
# Mechanical properties :
#
#
# Convention : Reuss Voigt Hill
#
# Bulk Modulus (GPa) = 24.43414 46.62426 35.52920
# Shear Modulus (GPa) = 24.07727 32.41761 28.24744
#
# Velocity S-wave (km/s) = 3.24661 3.76719 3.51655
# Velocity P-wave (km/s) = 4.97501 6.27163 5.66057
#
# Compressibility (1/GPa) = 0.04092635
#
# Stress axis : x y z
#
# Youngs Moduli (GPa) = 29.69090 68.11906 79.86509
#
# Poissons Ratio (x) = 0.28387 0.26023
# Poissons Ratio (y) = 0.12373 0.20382
# Poissons Ratio (z) = 0.09674 0.17384
#
# Static dielectric constant tensor:
#      x y z
#    x 4.043420 -0.195000 -0.079310 
#    y -0.195000 3.954710 0.144710 
#    z -0.079310 0.144710 4.171920 
# 
# 
# High freq. dielectric constant tensor:
#      x y z
#    x 1.886750 -0.016590 -0.006660 
#    y -0.016590 1.893770 0.003460 
#    z -0.006660 0.003460 1.914690 
# 
# From -- ./inp_files/104856.got.cif
#   From: 2010.06.25/outbox.cif.g09.slc.cpg/sg2_53_cif.got.tgz:104856.got - 2010.06.27 13:26:56.
