data_PCOD8044172
_publ_section_title
;
Structure prediction by ZEFSAII (Michael W. Deem and Ramdas Pophale) SiO2 
 PCOD8044172
Probable space group: P -1
;
_chemical_formula_sum "Si O2"
_cell_formula_units_Z 16
_cell_length_a 10.824702
_cell_length_b 13.781396
_cell_length_c 10.941672
_cell_angle_alpha 109.698223
_cell_angle_beta 35.133943
_cell_angle_gamma 122.013059
_cell_volume 780.787676
_symmetry_space_group_name_H-M "P -1"
_symmetry_group_IT_number 2
_symmetry_cell_setting 'triclinic'
loop_
_space_group_symop_operation_xyz
x,y,z
-x,-y,-z
loop_
_atom_site_type_symbol
_atom_site_label
_atom_site_fract_x
_atom_site_fract_y
_atom_site_fract_z
Si Si1 0.783876 0.015645 0.618957
Si Si2 0.186521 0.580030 0.207674
Si Si3 0.910099 0.919091 0.822075
Si Si4 0.753690 0.116022 0.041443
Si Si5 0.259650 0.880451 0.670848
Si Si6 0.108455 0.658579 0.547592
Si Si7 0.305033 0.310275 0.238665
Si Si8 0.976500 0.248154 0.687309
O O1 0.837690 0.020706 0.433756
O O2 0.791055 0.134535 0.711892
O O3 0.000000 0.000000 0.500000
O O4 0.508151 0.914990 0.821015
O O5 0.981672 0.445456 0.324489
O O6 0.261359 0.637459 0.307474
O O7 0.093158 0.648642 0.223180
O O8 0.424314 0.586051 0.953608
O O9 0.715257 0.806873 0.857313
O O10 0.009235 0.888627 0.853185
O O11 0.787633 0.000997 0.978282
O O12 0.963528 0.211755 0.825315
O O13 0.761778 0.163544 0.191010
O O14 0.270256 0.781374 0.534593
O O15 0.500000 0.000000 0.500000
O O16 0.875260 0.651922 0.664959
O O17 0.241282 0.289565 0.427122
#
# Coordination Sequence:
#
# PCOD8044172 Si02
#       8
#     2   2   2   2   2   2   2   2
#     4  11  21  35  55  87 122 153 197 251 293 351
#     4  10  19  37  65  83 116 152 194 259 299 334
#     4  10  21  36  56  86 117 159 201 238 297 357
#     4  12  23  36  58  82 127 165 190 242 303 354
#     4  11  23  41  59  86 125 161 200 241 292 369
#     4   9  21  39  58  91 112 151 206 243 295 352
#     4   9  19  33  59  85 117 145 196 256 296 340
#     4  10  22  32  53  91 113 149 202 234 297 354
#
# _framework density 20.492127
#
# number of rings (size 3 to 8) (size 9 to 14) (size 15 to 20)
#    0.000    1.750    2.500    2.625    5.250    0.000 
#    0.000    0.625    0.000    0.750    0.000    0.000 
#    0.000    0.000    0.000    0.000    0.000    0.000 
#
# Total GULP energy -198304.504655 kJ/mol
# GULP energy per Si atom -12394.031541 kJ/mol
# Density = 2.044549 g / cm^3
# Si number density = 20.492127 Si / 1000 Ang^3
#
#
#
# Elastic Constant Matrix: (Units=GPa)
#
#
# Indices 1 2 3 4 5 6 
#
# 1 85.8768 28.4305 37.9682 -5.5155 11.6074 -6.9980
# 2 28.4305 87.1066 23.8414 -3.6577 4.3411 -8.0467
# 3 37.9682 23.8414 102.4825 -15.8314 15.2689 2.0324
# 4 -5.5155 -3.6577 -15.8314 24.3443 -5.6012 4.8362
# 5 11.6074 4.3411 15.2689 -5.6012 33.6557 1.7570
# 6 -6.9980 -8.0467 2.0324 4.8362 1.7570 24.9200
#
#
#
# Elastic Compliance Matrix: (Units=1/GPa)
#
#
# Indices 1 2 3 4 5 6 
#
# 1 0.015554 -0.003259 -0.004873 -0.001731 -0.003245 0.004278
# 2 -0.003259 0.013437 -0.002126 -0.000845 0.000019 0.003760
# 3 -0.004873 -0.002126 0.013760 0.007783 -0.002758 -0.004493
# 4 -0.001731 -0.000845 0.007783 0.049251 0.005965 -0.011372
# 5 -0.003245 0.000019 -0.002758 0.005965 0.033292 -0.004185
# 6 0.004278 0.003760 -0.004493 -0.011372 -0.004185 0.045412
#
#
# Mechanical properties :
#
#
# Convention : Reuss Voigt Hill
#
# Bulk Modulus (GPa) = 44.97584 50.66067 47.81826
# Shear Modulus (GPa) = 25.17187 28.93238 27.05212
#
# Velocity S-wave (km/s) = 3.50861 3.76157 3.63729
# Velocity P-wave (km/s) = 6.19752 6.60618 6.40511
#
# Compressibility (1/GPa) = 0.02223416
#
# Stress axis : x y z
#
# Youngs Moduli (GPa) = 64.29247 74.42314 72.67305
#
# Poissons Ratio (x) = 0.24251 0.35416
# Poissons Ratio (y) = 0.20950 0.15454
# Poissons Ratio (z) = 0.31331 0.15826
#
# Static dielectric constant tensor:
#      x y z
#    x 3.621600 -0.222300 0.285210 
#    y -0.222300 3.557420 0.019120 
#    z 0.285210 0.019120 3.854150 
# 
# 
# High freq. dielectric constant tensor:
#      x y z
#    x 1.776720 -0.029150 0.013000 
#    y -0.029150 1.774400 0.005190 
#    z 0.013000 0.005190 1.810450 
# 
# From -- ./inp_files/433048.got.cif
#   From: 2010.06.25/outbox.cif.g09.slc.cpg/sg2_217_cif.got.tgz:433048.got - 2010.06.27 13:26:56.
