data_PCOD8044731
_publ_section_title
;
Structure prediction by ZEFSAII (Michael W. Deem and Ramdas Pophale) SiO2 
 PCOD8044731
Probable space group: P -1
;
_chemical_formula_sum "Si O2"
_cell_formula_units_Z 14
_cell_length_a 12.005786
_cell_length_b 22.140699
_cell_length_c 15.661881
_cell_angle_alpha 162.386723
_cell_angle_beta 42.701451
_cell_angle_gamma 146.678732
_cell_volume 642.855154
_symmetry_space_group_name_H-M "P -1"
_symmetry_group_IT_number 2
_symmetry_cell_setting 'triclinic'
loop_
_space_group_symop_operation_xyz
x,y,z
-x,-y,-z
loop_
_atom_site_type_symbol
_atom_site_label
_atom_site_fract_x
_atom_site_fract_y
_atom_site_fract_z
Si Si1 0.722127 0.199730 0.592620
Si Si2 0.765527 0.409947 0.407465
Si Si3 0.248287 0.815729 0.633334
Si Si4 0.832614 0.727272 0.277317
Si Si5 0.011396 0.897305 0.590437
Si Si6 0.351050 0.494572 0.225992
Si Si7 0.332437 0.083750 0.117927
O O1 0.674951 0.066127 0.345897
O O2 0.917919 0.240798 0.583606
O O3 0.500000 0.000000 0.500000
O O4 0.799455 0.490071 0.929025
O O5 0.766564 0.549685 0.678237
O O6 0.577133 0.326920 0.337199
O O7 0.987751 0.616921 0.511017
O O8 0.753498 0.171224 0.122029
O O9 0.335769 0.664824 0.399160
O O10 0.342011 0.045224 0.959548
O O11 0.604023 0.657641 0.319414
O O12 0.919650 0.753983 0.358612
O O13 0.000000 0.000000 0.500000
O O14 0.824147 0.856347 0.695146
O O15 0.224964 0.204850 0.867737
#
# Coordination Sequence:
#
# PCOD8044731 Si02
#       7
#     2   2   2   2   2   2   2
#     4  12  29  48  66  98 149 189 222 282 348 416
#     4  10  19  38  66 109 135 165 232 290 345 394
#     4  11  23  41  68 103 135 177 233 279 340 416
#     4  12  28  46  74 102 132 189 244 280 330 412
#     4  12  23  46  70  97 143 182 223 285 355 400
#     4  11  21  42  75 103 135 178 232 294 339 400
#     4  10  20  37  71 103 135 175 222 296 344 399
#
# _framework density 21.777847000000001
#
# number of rings (size 3 to 8) (size 9 to 14) (size 15 to 20)
#    0.000    0.857    5.714    2.143    2.000    1.714 
#    2.571    0.714    0.000    0.000    0.000    0.000 
#    0.000    0.000    0.000    0.000    0.000    0.000 
#
# Total GULP energy -173682.504223 kJ/mol
# GULP energy per Si atom -12405.893159 kJ/mol
# Density = 2.172828 g / cm^3
# Si number density = 21.777847 Si / 1000 Ang^3
#
#
#
# Elastic Constant Matrix: (Units=GPa)
#
#
# Indices 1 2 3 4 5 6 
#
# 1 146.6858 70.7444 28.2484 -7.9341 11.7125 5.7973
# 2 70.7444 104.9229 16.5464 -8.9589 -2.1047 -4.8150
# 3 28.2484 16.5464 62.8207 -5.8297 0.8806 2.8300
# 4 -7.9341 -8.9589 -5.8297 23.8032 5.7880 7.2811
# 5 11.7125 -2.1047 0.8806 5.7880 39.0265 -9.5848
# 6 5.7973 -4.8150 2.8300 7.2811 -9.5848 39.2933
#
#
#
# Elastic Compliance Matrix: (Units=1/GPa)
#
#
# Indices 1 2 3 4 5 6 
#
# 1 0.011745 -0.007534 -0.002744 0.003043 -0.005386 -0.004336
# 2 -0.007534 0.015051 -0.000722 0.000869 0.003892 0.003796
# 3 -0.002744 -0.000722 0.017796 0.003894 -0.000648 -0.001845
# 4 0.003043 0.000869 0.003894 0.051118 -0.011717 -0.012953
# 5 -0.005386 0.003892 -0.000648 -0.011717 0.031975 0.011289
# 6 -0.004336 0.003796 -0.001845 -0.012953 0.011289 0.031841
#
#
# Mechanical properties :
#
#
# Convention : Reuss Voigt Hill
#
# Bulk Modulus (GPa) = 44.26044 60.61197 52.43621
# Shear Modulus (GPa) = 26.44746 33.68394 30.06570
#
# Velocity S-wave (km/s) = 3.48863 3.93709 3.71962
# Velocity P-wave (km/s) = 6.04939 6.96849 6.52515
#
# Compressibility (1/GPa) = 0.02259354
#
# Stress axis : x y z
#
# Youngs Moduli (GPa) = 85.14256 66.44255 56.19331
#
# Poissons Ratio (x) = 0.50055 0.15418
# Poissons Ratio (y) = 0.64143 0.04054
# Poissons Ratio (z) = 0.23362 0.04794
#
# Static dielectric constant tensor:
#      x y z
#    x 4.081730 0.195400 0.170760 
#    y 0.195400 3.798700 -0.189550 
#    z 0.170760 -0.189550 3.898600 
# 
# 
# High freq. dielectric constant tensor:
#      x y z
#    x 1.870880 0.016230 0.013800 
#    y 0.016230 1.853140 -0.013710 
#    z 0.013800 -0.013710 1.848590 
# 
# From -- ./inp_files/186859.got.cif
#   From: 2010.06.25/outbox.cif.g09.slc.cpg/sg2_94_cif.got.tgz:186859.got - 2010.06.27 13:26:56.
