data_PCOD8044246
_publ_section_title
;
Structure prediction by ZEFSAII (Michael W. Deem and Ramdas Pophale) SiO2 
 PCOD8044246
Probable space group: P -1
;
_chemical_formula_sum "Si O2"
_cell_formula_units_Z 16
_cell_length_a 11.618329
_cell_length_b 11.787046
_cell_length_c 17.970979
_cell_angle_alpha 148.634229
_cell_angle_beta 50.101258
_cell_angle_gamma 107.890021
_cell_volume 784.497669
_symmetry_space_group_name_H-M "P -1"
_symmetry_group_IT_number 2
_symmetry_cell_setting 'triclinic'
loop_
_space_group_symop_operation_xyz
x,y,z
-x,-y,-z
loop_
_atom_site_type_symbol
_atom_site_label
_atom_site_fract_x
_atom_site_fract_y
_atom_site_fract_z
Si Si1 0.336759 0.829001 0.000171
Si Si2 0.377697 0.044015 0.848693
Si Si3 0.683093 0.063705 0.661858
Si Si4 0.910660 0.182495 0.021630
Si Si5 0.641471 0.450622 0.019021
Si Si6 0.582106 0.805615 0.765647
Si Si7 0.246855 0.687496 0.688614
Si Si8 0.937113 0.496872 0.859405
O O1 0.167809 0.887464 0.053402
O O2 0.521971 0.706198 0.803881
O O3 0.380189 0.613281 0.923907
O O4 0.286964 0.109063 0.213130
O O5 0.557298 0.973787 0.690449
O O6 0.400382 0.060565 0.938149
O O7 0.376144 0.788788 0.685296
O O8 0.186202 0.338333 0.070938
O O9 0.716596 0.197576 0.791328
O O10 0.885482 0.809148 0.405818
O O11 0.567284 0.287473 0.770064
O O12 0.761455 0.373745 0.255140
O O13 0.997039 0.330728 0.035973
O O14 0.049911 0.904184 0.852262
O O15 0.799902 0.501277 0.978393
O O16 0.681378 0.583434 0.536363
#
# Coordination Sequence:
#
# PCOD8044246 Si02
#       8
#     2   2   2   2   2   2   2   2
#     4  11  24  40  58  92 132 162 193 262 316 365
#     4  10  19  37  66  95 119 148 212 264 289 368
#     4  10  20  39  67  90 117 165 211 254 308 360
#     4  10  22  39  62  92 127 156 209 259 302 369
#     4  10  22  41  59  90 129 158 208 260 299 369
#     4  11  22  39  63  91 126 165 201 248 321 369
#     4  10  21  39  64  92 120 167 208 249 301 376
#     4  10  22  38  65  93 115 162 215 255 300 360
#
# _framework density 20.395215
#
# number of rings (size 3 to 8) (size 9 to 14) (size 15 to 20)
#    0.000    1.750    2.500    1.500    1.750    1.000 
#    2.250    1.875    0.000    0.000    0.000    0.000 
#    0.000    0.000    0.000    0.000    0.000    0.000 
#
# Total GULP energy -198304.127577 kJ/mol
# GULP energy per Si atom -12394.007974 kJ/mol
# Density = 2.034879 g / cm^3
# Si number density = 20.395215 Si / 1000 Ang^3
#
#
#
# Elastic Constant Matrix: (Units=GPa)
#
#
# Indices 1 2 3 4 5 6 
#
# 1 150.9670 68.5243 48.6074 3.3190 20.4927 4.9383
# 2 68.5243 137.8359 21.5763 -2.3004 7.8948 -1.8203
# 3 48.6074 21.5763 81.2525 4.8377 2.5347 -1.1709
# 4 3.3190 -2.3004 4.8377 20.9259 2.0239 2.9429
# 5 20.4927 7.8948 2.5347 2.0239 25.5555 -0.3719
# 6 4.9383 -1.8203 -1.1709 2.9429 -0.3719 37.4729
#
#
#
# Elastic Compliance Matrix: (Units=1/GPa)
#
#
# Indices 1 2 3 4 5 6 
#
# 1 0.011462 -0.004451 -0.005472 -0.000060 -0.007298 -0.001965
# 2 -0.004451 0.009467 0.000053 0.001552 0.000530 0.000931
# 3 -0.005472 0.000053 0.015686 -0.003263 0.003096 0.001501
# 4 -0.000060 0.001552 -0.003263 0.049676 -0.004100 -0.003961
# 5 -0.007298 0.000530 0.003096 -0.004100 0.044863 0.001851
# 6 -0.001965 0.000931 0.001501 -0.003961 0.001851 0.027367
#
#
# Mechanical properties :
#
#
# Convention : Reuss Voigt Hill
#
# Bulk Modulus (GPa) = 59.25652 71.94128 65.59890
# Shear Modulus (GPa) = 27.19066 32.21401 29.70234
#
# Velocity S-wave (km/s) = 3.65525 3.97859 3.82034
# Velocity P-wave (km/s) = 6.85067 7.51370 7.18983
#
# Compressibility (1/GPa) = 0.01687578
#
# Stress axis : x y z
#
# Youngs Moduli (GPa) = 87.24228 105.62734 63.75028
#
# Poissons Ratio (x) = 0.47013 0.34886
# Poissons Ratio (y) = 0.38830 -0.00338
# Poissons Ratio (z) = 0.47741 -0.00561
#
# Static dielectric constant tensor:
#      x y z
#    x 3.971310 0.087530 -0.147410 
#    y 0.087530 3.923520 0.188290 
#    z -0.147410 0.188290 3.522720 
# 
# 
# High freq. dielectric constant tensor:
#      x y z
#    x 1.805040 0.013100 -0.004020 
#    y 0.013100 1.808980 0.014050 
#    z -0.004020 0.014050 1.769910 
# 
# From -- ./inp_files/568968.got.cif
#   From: 2010.06.25/outbox.cif.g09.slc.cpg/sg2_285_cif.got.tgz:568968.got - 2010.06.27 13:26:56.
