data_PCOD8044365
_publ_section_title
;
Structure prediction by ZEFSAII (Michael W. Deem and Ramdas Pophale) SiO2 
 PCOD8044365
Probable space group: P -1
;
_chemical_formula_sum "Si O2"
_cell_formula_units_Z 16
_cell_length_a 14.418861
_cell_length_b 15.778304
_cell_length_c 12.169927
_cell_angle_alpha 120.853090
_cell_angle_beta 150.461758
_cell_angle_gamma 78.291812
_cell_volume 958.937149
_symmetry_space_group_name_H-M "P -1"
_symmetry_group_IT_number 2
_symmetry_cell_setting 'triclinic'
loop_
_space_group_symop_operation_xyz
x,y,z
-x,-y,-z
loop_
_atom_site_type_symbol
_atom_site_label
_atom_site_fract_x
_atom_site_fract_y
_atom_site_fract_z
Si Si1 0.086385 0.274290 0.444082
Si Si2 0.658622 0.314507 0.216122
Si Si3 0.567539 0.091843 0.727693
Si Si4 0.130913 0.937265 0.585578
Si Si5 0.515456 0.048134 0.887230
Si Si6 0.497599 0.291692 0.793192
Si Si7 0.760778 0.707848 0.154675
Si Si8 0.837903 0.532243 0.198640
O O1 0.266083 0.287677 0.547912
O O2 0.117744 0.223016 0.557381
O O3 0.121358 0.401105 0.595720
O O4 0.840232 0.186580 0.077790
O O5 0.921155 0.427163 0.581875
O O6 0.642004 0.191562 0.128138
O O7 0.599245 0.333738 0.046788
O O8 0.486923 0.313444 0.126012
O O9 0.478468 0.016420 0.699169
O O10 0.449421 0.162593 0.630309
O O11 0.500000 0.000000 0.500000
O O12 0.933878 0.793623 0.293885
O O13 0.261491 0.969406 0.625556
O O14 0.322018 0.984799 0.910627
O O15 0.000000 0.000000 0.500000
O O16 0.674600 0.389095 0.950667
O O17 0.721992 0.577780 0.026795
#
# Coordination Sequence:
#
# PCOD8044365 Si02
#       8
#     2   2   2   2   2   2   2   2
#     4   9  18  30  46  68 102 124 162 197 245 292
#     4  10  16  26  44  67 101 126 154 186 249 300
#     4  11  22  36  50  68 103 141 172 201 231 284
#     4  11  18  28  49  69 101 131 158 201 256 297
#     4  10  19  31  45  72  98 131 165 202 239 296
#     4  10  19  29  48  70  94 139 162 197 249 293
#     4   9  17  27  42  71 101 127 149 195 245 297
#     4  10  17  28  46  71 104 126 157 202 249 307
#
# _framework density 16.685138999999999
#
# number of rings (size 3 to 8) (size 9 to 14) (size 15 to 20)
#    0.750    1.250    6.250    0.750    0.000    0.500 
#    0.000    0.000    0.000    0.000    0.000    0.875 
#    0.000    3.000    0.000    0.000    0.000    0.000 
#
# Total GULP energy -198273.346247 kJ/mol
# GULP energy per Si atom -12392.084140 kJ/mol
# Density = 1.664716 g / cm^3
# Si number density = 16.685139 Si / 1000 Ang^3
#
#
#
# Elastic Constant Matrix: (Units=GPa)
#
#
# Indices 1 2 3 4 5 6 
#
# 1 88.2006 32.7444 38.2377 2.0989 22.1716 4.2185
# 2 32.7444 72.9003 20.0562 -2.1713 6.5436 4.0626
# 3 38.2377 20.0562 37.7899 -2.0759 13.2196 -5.2445
# 4 2.0989 -2.1713 -2.0759 21.1785 -2.4566 12.9407
# 5 22.1716 6.5436 13.2196 -2.4566 30.0628 -0.3137
# 6 4.2185 4.0626 -5.2445 12.9407 -0.3137 26.9032
#
#
#
# Elastic Compliance Matrix: (Units=1/GPa)
#
#
# Indices 1 2 3 4 5 6 
#
# 1 0.024076 -0.004223 -0.020238 -0.001931 -0.008160 -0.006249
# 2 -0.004223 0.017667 -0.006497 0.005475 0.002512 -0.005876
# 3 -0.020238 -0.006497 0.055376 -0.004618 -0.008210 0.017075
# 4 -0.001931 0.005475 -0.004618 0.069701 0.007595 -0.034862
# 5 -0.008160 0.002512 -0.008210 0.007595 0.042926 -0.003853
# 6 -0.006249 -0.005876 0.017075 -0.034862 -0.003853 0.059090
#
#
# Mechanical properties :
#
#
# Convention : Reuss Voigt Hill
#
# Bulk Modulus (GPa) = 28.40709 42.32972 35.36840
# Shear Modulus (GPa) = 14.59917 22.81906 18.70911
#
# Velocity S-wave (km/s) = 2.96122 3.70216 3.35222
# Velocity P-wave (km/s) = 5.36228 6.61055 6.01887
#
# Compressibility (1/GPa) = 0.03520248
#
# Stress axis : x y z
#
# Youngs Moduli (GPa) = 41.53570 56.60408 18.05828
#
# Poissons Ratio (x) = 0.23903 0.36547
# Poissons Ratio (y) = 0.17540 0.11732
# Poissons Ratio (z) = 0.84062 0.36774
#
# Static dielectric constant tensor:
#      x y z
#    x 3.088890 -0.005700 0.491880 
#    y -0.005700 3.282610 -0.121930 
#    z 0.491880 -0.121930 2.760610 
# 
# 
# High freq. dielectric constant tensor:
#      x y z
#    x 1.616620 -0.001000 0.061880 
#    y -0.001000 1.652670 -0.010270 
#    z 0.061880 -0.010270 1.595510 
# 
# From -- ./inp_files/454016.got.cif
#   From: 2010.06.25/outbox.cif.g09.slc.cpg/sg2_228_cif.got.tgz:454016.got - 2010.06.27 13:26:56.
