data_PCOD8044015
_publ_section_title
;
Structure prediction by ZEFSAII (Michael W. Deem and Ramdas Pophale) SiO2 
 PCOD8044015
Probable space group: P -1
;
_chemical_formula_sum "Si O2"
_cell_formula_units_Z 16
_cell_length_a 11.791246
_cell_length_b 9.364829
_cell_length_c 12.538897
_cell_angle_alpha 138.538992
_cell_angle_beta 45.427477
_cell_angle_gamma 121.660215
_cell_volume 653.054208
_symmetry_space_group_name_H-M "P -1"
_symmetry_group_IT_number 2
_symmetry_cell_setting 'triclinic'
loop_
_space_group_symop_operation_xyz
x,y,z
-x,-y,-z
loop_
_atom_site_type_symbol
_atom_site_label
_atom_site_fract_x
_atom_site_fract_y
_atom_site_fract_z
Si Si1 0.604633 0.638928 0.926222
Si Si2 0.088124 0.979427 0.317598
Si Si3 0.765737 0.909100 0.377650
Si Si4 0.596002 0.785249 0.792634
Si Si5 0.508113 0.123104 0.304116
Si Si6 0.771301 0.129696 0.290822
Si Si7 0.867293 0.486755 0.992119
Si Si8 0.912805 0.689131 0.859621
O O1 0.572529 0.601598 0.798542
O O2 0.787656 0.580903 0.799959
O O3 0.500000 0.500000 0.000000
O O4 0.580359 0.893578 0.095845
O O5 0.950568 0.966382 0.310906
O O6 0.213167 0.169662 0.318735
O O7 0.195316 0.758723 0.113620
O O8 0.000000 0.000000 0.500000
O O9 0.662705 0.932567 0.564166
O O10 0.738222 0.666914 0.212244
O O11 0.702719 0.076690 0.423681
O O12 0.523622 0.716183 0.685653
O O13 0.500000 0.000000 0.000000
O O14 0.629964 0.231550 0.368627
O O15 0.914954 0.298394 0.302430
O O16 0.843352 0.917282 0.070368
O O17 0.941553 0.537592 0.856882
O O18 0.000000 0.500000 0.000000
#
# Coordination Sequence:
#
# PCOD8044015 Si02
#       8
#     2   2   2   2   2   2   2   2
#     4  10  22  38  60  92 127 167 210 260 322 379
#     4  11  21  38  65  91 127 165 212 263 315 379
#     4  10  19  37  62  91 124 166 211 259 316 376
#     4  10  22  38  61  93 123 169 208 255 322 378
#     4  10  20  36  62  93 124 166 210 260 316 374
#     4   9  18  34  59  86 121 161 210 253 310 375
#     4   9  21  35  60  91 118 161 208 258 314 368
#     4   9  18  35  57  85 118 162 210 256 307 374
#
# _framework density 24.500260000000001
#
# number of rings (size 3 to 8) (size 9 to 14) (size 15 to 20)
#    0.000    2.250    1.250    1.125    3.500    6.000 
#    0.000    1.250    2.750    7.500    0.000    0.000 
#    0.000    0.000    0.000    0.000    0.000    0.000 
#
# Total GULP energy -198221.058182 kJ/mol
# GULP energy per Si atom -12388.816136 kJ/mol
# Density = 2.444450 g / cm^3
# Si number density = 24.500260 Si / 1000 Ang^3
#
#
#
# Elastic Constant Matrix: (Units=GPa)
#
#
# Indices 1 2 3 4 5 6 
#
# 1 189.0801 81.0581 26.2539 -30.9811 9.7877 -26.9107
# 2 81.0581 109.7258 10.8400 -33.6404 6.7703 -27.4088
# 3 26.2539 10.8400 30.8036 -20.1439 7.9245 -10.8756
# 4 -30.9811 -33.6404 -20.1439 38.8619 -4.4000 8.7920
# 5 9.7877 6.7703 7.9245 -4.4000 29.5378 -17.7919
# 6 -26.9107 -27.4088 -10.8756 8.7920 -17.7919 45.9162
#
#
#
# Elastic Compliance Matrix: (Units=1/GPa)
#
#
# Indices 1 2 3 4 5 6 
#
# 1 0.008543 -0.006211 -0.006257 -0.001845 0.000130 0.000221
# 2 -0.006211 0.019513 0.011488 0.016221 0.001971 0.008387
# 3 -0.006257 0.011488 0.060445 0.033613 -0.006654 0.008493
# 4 -0.001845 0.016221 0.033613 0.054321 -0.000419 0.005999
# 5 0.000130 0.001971 -0.006654 -0.000419 0.045573 0.017416
# 6 0.000221 0.008387 0.008493 0.005999 0.017416 0.034526
#
#
# Mechanical properties :
#
#
# Convention : Reuss Voigt Hill
#
# Bulk Modulus (GPa) = 11.55515 62.87930 37.21723
# Shear Modulus (GPa) = 19.70608 36.96035 28.33321
#
# Velocity S-wave (km/s) = 2.83913 3.88824 3.40434
# Velocity P-wave (km/s) = 3.93372 6.77336 5.53862
#
# Compressibility (1/GPa) = 0.08654151
#
# Stress axis : x y z
#
# Youngs Moduli (GPa) = 117.05985 51.24667 16.54388
#
# Poissons Ratio (x) = 0.31830 0.10352
# Poissons Ratio (y) = 0.72707 -0.19006
# Poissons Ratio (z) = 0.73245 -0.58873
#
# Static dielectric constant tensor:
#      x y z
#    x 5.015320 -0.298880 0.158840 
#    y -0.298880 4.355930 -0.134750 
#    z 0.158840 -0.134750 4.110130 
# 
# 
# High freq. dielectric constant tensor:
#      x y z
#    x 1.990410 -0.016210 0.003490 
#    y -0.016210 1.955190 -0.016780 
#    z 0.003490 -0.016780 1.950200 
# 
# From -- ./inp_files/419238.got.cif
#   From: 2010.06.25/outbox.cif.g09.slc.cpg/sg2_210_cif.got.tgz:419238.got - 2010.06.27 13:26:56.
