data_PCOD8044886
_publ_section_title
;
Structure prediction by ZEFSAII (Michael W. Deem and Ramdas Pophale) SiO2 
 PCOD8044886
Probable space group: P 2
;
_chemical_formula_sum "Si O2"
_cell_formula_units_Z 13
_cell_length_a 10.495561
_cell_length_b 8.745444
_cell_length_c 13.816997
_cell_angle_alpha 90.000000
_cell_angle_beta 32.245971
_cell_angle_gamma 90.000000
_cell_volume 676.675439
_symmetry_space_group_name_H-M "P 2"
_symmetry_group_IT_number 3
_symmetry_cell_setting 'monoclinic'
loop_
_space_group_symop_operation_xyz
x,y,z
-x,y,-z
loop_
_atom_site_type_symbol
_atom_site_label
_atom_site_fract_x
_atom_site_fract_y
_atom_site_fract_z
Si Si1 0.000000 0.027400 0.500000
Si Si2 0.720005 0.242010 0.922591
Si Si3 0.581953 0.237864 0.707986
Si Si4 0.950664 0.454014 0.418980
Si Si5 0.622295 0.959251 0.255554
Si Si6 0.126391 0.801876 0.582643
Si Si7 0.959998 0.956549 0.865286
O O1 0.231061 0.135552 0.349781
O O2 0.994072 0.919642 0.597035
O O3 0.853824 0.376362 0.777177
O O4 0.899071 0.106534 0.839898
O O5 0.500000 0.177697 0.000000
O O6 0.608544 0.309742 0.094096
O O7 0.697948 0.369735 0.567369
O O8 0.462643 0.131676 0.704514
O O9 0.920937 0.631186 0.419736
O O10 0.000000 0.425201 0.500000
O O11 0.408255 0.839463 0.409735
O O12 0.790498 0.975240 0.239765
O O13 0.755340 0.907617 0.071580
O O14 0.998118 0.816005 0.768316
#
# Coordination Sequence:
#
# PCOD8044886 Si02
#       7
#     1   2   2   2   2   2   2
#     4  10  18  36  60  82 114 152 196 246 278 342
#     4  11  20  36  62  87 115 151 189 240 293 338
#     4  10  19  36  61  83 114 150 194 242 289 330
#     4  12  23  37  53  86 127 153 188 231 288 358
#     4   9  21  40  63  85 112 151 198 251 281 332
#     4  11  22  36  57  85 120 158 190 233 292 344
#     4  10  21  40  63  88 112 146 205 243 286 339
#
# _framework density 19.211575
#
# number of rings (size 3 to 8) (size 9 to 14) (size 15 to 20)
#    0.000    1.538    3.077    3.231    0.000    1.231 
#    0.000    3.077    0.000    3.692    0.000    0.000 
#    0.000    0.000    0.000    0.000    0.000    0.000 
#
# Total GULP energy -161110.371865 kJ/mol
# GULP energy per Si atom -12393.105528 kJ/mol
# Density = 1.916785 g / cm^3
# Si number density = 19.211575 Si / 1000 Ang^3
#
#
#
# Elastic Constant Matrix: (Units=GPa)
#
#
# Indices 1 2 3 4 5 6 
#
# 1 75.0143 23.3094 19.8164 0.0000 3.5536 0.0000
# 2 23.3094 93.4841 50.3105 0.0000 14.2355 0.0000
# 3 19.8164 50.3105 103.2824 0.0000 14.6398 0.0000
# 4 0.0000 0.0000 0.0000 26.5597 0.0000 3.5813
# 5 3.5536 14.2355 14.6398 0.0000 22.1680 0.0000
# 6 0.0000 0.0000 0.0000 3.5813 0.0000 15.0700
#
#
#
# Elastic Compliance Matrix: (Units=1/GPa)
#
#
# Indices 1 2 3 4 5 6 
#
# 1 0.014602 -0.002942 -0.001439 0.000000 0.000499 0.000000
# 2 -0.002942 0.015638 -0.006285 0.000000 -0.005420 0.000000
# 3 -0.001439 -0.006285 0.013697 0.000000 -0.004779 0.000000
# 4 0.000000 0.000000 0.000000 0.038897 0.000000 -0.009244
# 5 0.000499 -0.005420 -0.004779 0.000000 0.051667 0.000000
# 6 0.000000 0.000000 0.000000 -0.009244 0.000000 0.068554
#
#
# Mechanical properties :
#
#
# Convention : Reuss Voigt Hill
#
# Bulk Modulus (GPa) = 44.23876 50.96149 47.60013
# Shear Modulus (GPa) = 21.55895 24.64919 23.10407
#
# Velocity S-wave (km/s) = 3.35354 3.58584 3.47163
# Velocity P-wave (km/s) = 6.17026 6.61274 6.39533
#
# Compressibility (1/GPa) = 0.02260461
#
# Stress axis : x y z
#
# Youngs Moduli (GPa) = 68.48580 63.94533 73.00777
#
# Poissons Ratio (x) = 0.18815 0.10506
# Poissons Ratio (y) = 0.20151 0.45885
# Poissons Ratio (z) = 0.09855 0.40189
#
# Static dielectric constant tensor:
#      x y z
#    x 3.695390 0.000000 -0.062200 
#    y 0.000000 3.248310 0.000000 
#    z -0.062200 0.000000 3.797610 
# 
# 
# High freq. dielectric constant tensor:
#      x y z
#    x 1.746930 0.000000 0.006570 
#    y 0.000000 1.720940 0.000000 
#    z 0.006570 0.000000 1.768210 
# 
# From -- ./inp_files/10651.got.cif
#   From: 2010.03.12/outbox.cif.g09.slc.cpg/sg3_6_cif.got.tgz:10651.got - 2010.03.31 09:20:49.
