data_PCOD8044111
_publ_section_title
;
Structure prediction by ZEFSAII (Michael W. Deem and Ramdas Pophale) SiO2 
 PCOD8044111
Probable space group: P -1
;
_chemical_formula_sum "Si O2"
_cell_formula_units_Z 16
_cell_length_a 8.943996
_cell_length_b 11.662886
_cell_length_c 10.304016
_cell_angle_alpha 105.623852
_cell_angle_beta 57.287699
_cell_angle_gamma 128.005122
_cell_volume 709.330661
_symmetry_space_group_name_H-M "P -1"
_symmetry_group_IT_number 2
_symmetry_cell_setting 'triclinic'
loop_
_space_group_symop_operation_xyz
x,y,z
-x,-y,-z
loop_
_atom_site_type_symbol
_atom_site_label
_atom_site_fract_x
_atom_site_fract_y
_atom_site_fract_z
Si Si1 0.433664 0.130130 0.684287
Si Si2 0.676599 0.511513 0.015499
Si Si3 0.377125 0.062902 0.013239
Si Si4 0.031187 0.209613 0.603693
Si Si5 0.597394 0.743280 0.734350
Si Si6 0.766615 0.332237 0.757082
Si Si7 0.085931 0.183573 0.870075
Si Si8 0.417737 0.060589 0.375309
O O1 0.667371 0.293522 0.644041
O O2 0.234828 0.131724 0.831455
O O3 0.392865 0.088220 0.542441
O O4 0.442574 0.006550 0.721624
O O5 0.572259 0.407833 0.158888
O O6 0.841163 0.671154 0.043138
O O7 0.500000 0.500000 0.000000
O O8 0.818233 0.476711 0.847090
O O9 0.286123 0.124599 0.177048
O O10 0.546334 0.195236 0.883771
O O11 0.160981 0.932509 0.003192
O O12 0.500000 0.000000 0.000000
O O13 0.228297 0.268157 0.428631
O O14 0.105150 0.204386 0.711691
O O15 0.975675 0.329054 0.668174
O O16 0.824085 0.052849 0.605723
O O17 0.472798 0.786524 0.707155
#
# Coordination Sequence:
#
# PCOD8044111 Si02
#       8
#     2   2   2   2   2   2   2   2
#     4  10  20  35  65  98 139 170 213 278 343 384
#     4  11  26  47  67  95 142 183 225 280 334 408
#     4  11  21  40  66 101 129 173 227 282 334 397
#     4  11  21  40  70 101 134 172 230 283 334 397
#     4  11  22  41  72  97 133 180 225 274 342 398
#     4  10  22  43  66  93 142 175 223 286 333 396
#     4  12  22  40  72  95 137 182 228 273 343 395
#     4  10  19  37  64 104 137 168 217 288 340 390
#
# _framework density 22.556477000000001
#
# number of rings (size 3 to 8) (size 9 to 14) (size 15 to 20)
#    0.000    1.250    5.000    1.875    0.000    1.500 
#    2.250    0.625    0.000    0.000    0.000    0.000 
#    0.000    0.000    0.000    0.000    0.000    0.000 
#
# Total GULP energy -198250.737797 kJ/mol
# GULP energy per Si atom -12390.671112 kJ/mol
# Density = 2.250514 g / cm^3
# Si number density = 22.556477 Si / 1000 Ang^3
#
#
#
# Elastic Constant Matrix: (Units=GPa)
#
#
# Indices 1 2 3 4 5 6 
#
# 1 120.7934 51.9955 30.0370 18.3342 -9.2909 -9.8771
# 2 51.9955 115.4448 43.9058 27.2571 -9.8701 0.0815
# 3 30.0370 43.9058 98.7762 37.9588 -17.9802 -7.7996
# 4 18.3342 27.2571 37.9588 32.3386 -7.1044 0.5211
# 5 -9.2909 -9.8701 -17.9802 -7.1044 41.3703 8.5819
# 6 -9.8771 0.0815 -7.7996 0.5211 8.5819 34.1633
#
#
#
# Elastic Compliance Matrix: (Units=1/GPa)
#
#
# Indices 1 2 3 4 5 6 
#
# 1 0.010759 -0.004196 -0.000247 -0.002258 0.000293 0.003025
# 2 -0.004196 0.012789 -0.002340 -0.005509 0.000524 -0.001826
# 3 -0.000247 -0.002340 0.020280 -0.020922 0.003792 0.003931
# 4 -0.002258 -0.005509 -0.020922 0.061745 0.001063 -0.006625
# 5 0.000293 0.000524 0.003792 0.001063 0.027429 -0.005957
# 6 0.003025 -0.001826 0.003931 -0.006625 -0.005957 0.032645
#
#
# Mechanical properties :
#
#
# Convention : Reuss Voigt Hill
#
# Bulk Modulus (GPa) = 33.04534 65.21011 49.12773
# Shear Modulus (GPa) = 26.41315 35.51285 30.96300
#
# Velocity S-wave (km/s) = 3.42567 3.97217 3.70900
# Velocity P-wave (km/s) = 5.50716 7.07177 6.33793
#
# Compressibility (1/GPa) = 0.03026145
#
# Stress axis : x y z
#
# Youngs Moduli (GPa) = 92.94897 78.19384 49.30918
#
# Poissons Ratio (x) = 0.32808 0.01217
# Poissons Ratio (y) = 0.38999 0.11541
# Poissons Ratio (z) = 0.02294 0.18301
#
# Static dielectric constant tensor:
#      x y z
#    x 4.337750 -0.115900 0.280760 
#    y -0.115900 4.046380 0.579680 
#    z 0.280760 0.579680 4.403950 
# 
# 
# High freq. dielectric constant tensor:
#      x y z
#    x 1.903920 -0.006300 0.007680 
#    y -0.006300 1.869630 0.039040 
#    z 0.007680 0.039040 1.896900 
# 
# From -- ./inp_files/392722.got.cif
#   From: 2010.06.25/outbox.cif.g09.slc.cpg/sg2_197_cif.got.tgz:392722.got - 2010.06.27 13:26:56.
