data_PCOD8044843
_publ_section_title
;
Structure prediction by ZEFSAII (Michael W. Deem and Ramdas Pophale) SiO2 
 PCOD8044843
Probable space group: P 2
;
_chemical_formula_sum "Si O2"
_cell_formula_units_Z 15
_cell_length_a 12.215173
_cell_length_b 13.558495
_cell_length_c 5.376372
_cell_angle_alpha 90.000000
_cell_angle_beta 90.527575
_cell_angle_gamma 90.000000
_cell_volume 890.393553
_symmetry_space_group_name_H-M "P 2"
_symmetry_group_IT_number 3
_symmetry_cell_setting 'monoclinic'
loop_
_space_group_symop_operation_xyz
x,y,z
-x,y,-z
loop_
_atom_site_type_symbol
_atom_site_label
_atom_site_fract_x
_atom_site_fract_y
_atom_site_fract_z
Si Si1 0.794066 0.481670 0.507438
Si Si2 0.394943 0.603204 0.662787
Si Si3 0.569492 0.127192 0.747454
Si Si4 0.377932 0.903627 0.259836
Si Si5 0.878314 0.421777 0.003315
Si Si6 0.376181 0.822342 0.762680
Si Si7 0.312166 0.322028 0.224945
Si Si8 0.500000 0.444819 0.000000
O O1 0.708037 0.571823 0.507529
O O2 0.865546 0.483498 0.258007
O O3 0.730836 0.375121 0.523448
O O4 0.866347 0.494159 0.761140
O O5 0.500000 0.623660 0.500000
O O6 0.369382 0.705032 0.802081
O O7 0.414891 0.514378 0.853804
O O8 0.500000 0.149641 0.500000
O O9 0.668177 0.205948 0.749061
O O10 0.624630 0.021113 0.723770
O O11 0.500000 0.135297 0.000000
O O12 0.318518 0.857766 0.503552
O O13 0.500517 0.862189 0.248487
O O14 0.317075 0.869805 0.004002
O O15 0.782927 0.338352 0.986548
O O16 0.000000 0.374462 0.000000
O O17 0.427751 0.374698 0.170561
#
# Coordination Sequence:
#
# PCOD8044843 Si02
#       8
#     2   2   2   2   2   2   2   1
#     4  10  22  35  50  79 102 132 182 209 264 310
#     4  12  20  29  48  73 109 148 168 208 248 308
#     4  12  22  31  50  69 105 147 170 209 246 306
#     4  10  17  34  41  66  91 142 184 200 239 288
#     4  10  21  40  56  70 101 138 179 225 259 301
#     4  10  19  29  46  63  95 139 181 201 239 285
#     4  10  24  30  53  76 106 142 172 204 260 309
#     4  12  20  34  44  76 118 142 168 202 244 334
#
# _framework density 16.846482000000002
#
# number of rings (size 3 to 8) (size 9 to 14) (size 15 to 20)
#    0.800    0.533    7.333    1.200    3.733    0.000 
#    0.000    0.000    0.000    0.000    0.000    0.000 
#    0.000    6.400    0.000    0.000    0.000    0.000 
#
# Total GULP energy -185843.313535 kJ/mol
# GULP energy per Si atom -12389.554236 kJ/mol
# Density = 1.680814 g / cm^3
# Si number density = 16.846482 Si / 1000 Ang^3
#
#
#
# Elastic Constant Matrix: (Units=GPa)
#
#
# Indices 1 2 3 4 5 6 
#
# 1 58.1107 26.3354 22.5230 0.0000 1.2885 0.0000
# 2 26.3354 101.8447 21.1645 0.0000 4.3578 0.0000
# 3 22.5230 21.1645 136.2873 0.0000 0.6204 0.0000
# 4 0.0000 0.0000 0.0000 23.1190 0.0000 9.3516
# 5 1.2885 4.3578 0.6204 0.0000 13.3825 0.0000
# 6 0.0000 0.0000 0.0000 9.3516 0.0000 15.9931
#
#
#
# Elastic Compliance Matrix: (Units=1/GPa)
#
#
# Indices 1 2 3 4 5 6 
#
# 1 0.020369 -0.004707 -0.002634 0.000000 -0.000306 0.000000
# 2 -0.004707 0.011376 -0.000974 0.000000 -0.003206 0.000000
# 3 -0.002634 -0.000974 0.007923 0.000000 0.000203 0.000000
# 4 0.000000 0.000000 0.000000 0.056655 0.000000 -0.033127
# 5 -0.000306 -0.003206 0.000203 0.000000 0.075788 0.000000
# 6 0.000000 0.000000 0.000000 -0.033127 0.000000 0.081897
#
#
# Mechanical properties :
#
#
# Convention : Reuss Voigt Hill
#
# Bulk Modulus (GPa) = 43.40578 48.47650 45.94114
# Shear Modulus (GPa) = 17.96511 25.58023 21.77267
#
# Velocity S-wave (km/s) = 3.26912 3.90093 3.59892
# Velocity P-wave (km/s) = 6.33016 7.00911 6.67827
#
# Compressibility (1/GPa) = 0.02303841
#
# Stress axis : x y z
#
# Youngs Moduli (GPa) = 49.09360 87.90777 126.21363
#
# Poissons Ratio (x) = 0.41375 0.33244
# Poissons Ratio (y) = 0.23107 0.12295
# Poissons Ratio (z) = 0.12931 0.08563
#
# Static dielectric constant tensor:
#      x y z
#    x 2.551650 0.000000 0.300570 
#    y 0.000000 3.093000 0.000000 
#    z 0.300570 0.000000 3.901360 
# 
# 
# High freq. dielectric constant tensor:
#      x y z
#    x 1.585420 0.000000 0.003050 
#    y 0.000000 1.636320 0.000000 
#    z 0.003050 0.000000 1.674270 
# 
# From -- ./inp_files/2418.got.cif
#   From: 2010.03.12/outbox.cif.g09.slc.cpg/sg3_2_cif.got.tgz:2418.got - 2010.03.31 09:20:49.
