data_PCOD8044200
_publ_section_title
;
Structure prediction by ZEFSAII (Michael W. Deem and Ramdas Pophale) SiO2 
 PCOD8044200
Probable space group: P -1
;
_chemical_formula_sum "Si O2"
_cell_formula_units_Z 16
_cell_length_a 9.033952
_cell_length_b 11.377268
_cell_length_c 12.155625
_cell_angle_alpha 90.684892
_cell_angle_beta 37.516159
_cell_angle_gamma 83.845535
_cell_volume 746.697502
_symmetry_space_group_name_H-M "P -1"
_symmetry_group_IT_number 2
_symmetry_cell_setting 'triclinic'
loop_
_space_group_symop_operation_xyz
x,y,z
-x,-y,-z
loop_
_atom_site_type_symbol
_atom_site_label
_atom_site_fract_x
_atom_site_fract_y
_atom_site_fract_z
Si Si1 0.522073 0.128102 0.605459
Si Si2 0.268588 0.087780 0.085736
Si Si3 0.620801 0.672779 0.053982
Si Si4 0.918669 0.284689 0.707742
Si Si5 0.892843 0.491478 0.317559
Si Si6 0.458423 0.385356 0.651144
Si Si7 0.048715 0.868468 0.514837
Si Si8 0.908583 0.937040 0.243087
O O1 0.484053 0.257712 0.568411
O O2 0.649824 0.159768 0.645332
O O3 0.250632 0.090786 0.770227
O O4 0.713758 0.018757 0.439381
O O5 0.093463 0.146156 0.289226
O O6 0.344261 0.189511 0.967369
O O7 0.122982 0.010575 0.089463
O O8 0.500000 0.000000 0.000000
O O9 0.372976 0.662439 0.132933
O O10 0.628520 0.623929 0.172674
O O11 0.844626 0.592828 0.855784
O O12 0.025459 0.223070 0.529961
O O13 0.068735 0.388201 0.643933
O O14 0.963196 0.186223 0.776655
O O15 0.723137 0.426604 0.495820
O O16 0.750479 0.518914 0.285702
O O17 0.000000 0.000000 0.500000
#
# Coordination Sequence:
#
# PCOD8044200 Si02
#       8
#     2   2   2   2   2   2   2   2
#     4  10  19  37  65  92 129 166 214 273 331 389
#     4  11  22  40  66  99 139 171 214 276 339 394
#     4  12  25  44  69  95 134 176 221 278 333 392
#     4  12  22  41  68  96 136 172 219 279 323 400
#     4  11  26  46  68  97 130 176 230 275 331 390
#     4  11  24  46  73  92 130 177 224 277 335 393
#     4  11  20  38  67  97 131 177 217 264 334 404
#     4  10  20  36  64  97 130 170 211 268 338 396
#
# _framework density 21.427688
#
# number of rings (size 3 to 8) (size 9 to 14) (size 15 to 20)
#    0.000    1.000    6.250    2.250    0.000    0.500 
#    2.250    0.625    5.500    0.000    0.000    0.000 
#    0.000    0.000    0.000    0.000    0.000    0.000 
#
# Total GULP energy -198274.759349 kJ/mol
# GULP energy per Si atom -12392.172459 kJ/mol
# Density = 2.137892 g / cm^3
# Si number density = 21.427688 Si / 1000 Ang^3
#
#
#
# Elastic Constant Matrix: (Units=GPa)
#
#
# Indices 1 2 3 4 5 6 
#
# 1 106.2868 26.3662 39.7716 -10.4577 -22.2349 15.1376
# 2 26.3662 104.1089 38.4651 -9.2994 -8.8485 14.8330
# 3 39.7716 38.4651 94.8751 -14.1264 -9.2085 6.9205
# 4 -10.4577 -9.2994 -14.1264 37.3127 -2.6090 -9.5384
# 5 -22.2349 -8.8485 -9.2085 -2.6090 34.3771 -4.6893
# 6 15.1376 14.8330 6.9205 -9.5384 -4.6893 42.0886
#
#
#
# Elastic Compliance Matrix: (Units=1/GPa)
#
#
# Indices 1 2 3 4 5 6 
#
# 1 0.013119 -0.000686 -0.004087 0.001777 0.006991 -0.002623
# 2 -0.000686 0.011873 -0.004119 0.000516 0.001137 -0.003017
# 3 -0.004087 -0.004119 0.014432 0.003710 0.000643 0.001461
# 4 0.001777 0.000516 0.003710 0.030786 0.005452 0.006153
# 5 0.006991 0.001137 0.000643 0.005452 0.034774 0.002089
# 6 -0.002623 -0.003017 0.001461 0.006153 0.002089 0.027153
#
#
# Mechanical properties :
#
#
# Convention : Reuss Voigt Hill
#
# Bulk Modulus (GPa) = 46.21028 57.16409 51.68719
# Shear Modulus (GPa) = 31.81983 36.13352 33.97668
#
# Velocity S-wave (km/s) = 3.85773 4.11091 3.98633
# Velocity P-wave (km/s) = 6.43858 7.01915 6.73512
#
# Compressibility (1/GPa) = 0.02164020
#
# Stress axis : x y z
#
# Youngs Moduli (GPa) = 76.22633 84.22152 69.29196
#
# Poissons Ratio (x) = 0.05776 0.28319
# Poissons Ratio (y) = 0.05228 0.28542
# Poissons Ratio (z) = 0.31153 0.34692
#
# Static dielectric constant tensor:
#      x y z
#    x 4.236070 -0.003260 -0.589350 
#    y -0.003260 3.629540 -0.495130 
#    z -0.589350 -0.495130 3.028690 
# 
# 
# High freq. dielectric constant tensor:
#      x y z
#    x 1.850480 -0.005880 -0.026680 
#    y -0.005880 1.858060 0.003520 
#    z -0.026680 0.003520 1.818870 
# 
# From -- ./inp_files/389903.got.cif
#   From: 2010.06.25/outbox.cif.g09.slc.cpg/sg2_195_cif.got.tgz:389903.got - 2010.06.27 13:26:56.
