data_PCOD8044751
_publ_section_title
;
Structure prediction by ZEFSAII (Michael W. Deem and Ramdas Pophale) SiO2 
 PCOD8044751
Probable space group: P -1
;
_chemical_formula_sum "Si O2"
_cell_formula_units_Z 16
_cell_length_a 9.384616
_cell_length_b 19.683733
_cell_length_c 15.591541
_cell_angle_alpha 25.574412
_cell_angle_beta 141.114642
_cell_angle_gamma 140.137171
_cell_volume 757.403355
_symmetry_space_group_name_H-M "P -1"
_symmetry_group_IT_number 2
_symmetry_cell_setting 'triclinic'
loop_
_space_group_symop_operation_xyz
x,y,z
-x,-y,-z
loop_
_atom_site_type_symbol
_atom_site_label
_atom_site_fract_x
_atom_site_fract_y
_atom_site_fract_z
Si Si1 0.058422 0.168673 0.382497
Si Si2 0.984694 0.812344 0.191850
Si Si3 0.367876 0.324905 0.673102
Si Si4 0.946861 0.703637 0.591163
Si Si5 0.724822 0.349368 0.943407
Si Si6 0.432533 0.704783 0.564670
Si Si7 0.360467 0.328120 0.943409
Si Si8 0.565621 0.331064 0.207400
O O1 0.333857 0.235663 0.447495
O O2 0.964944 0.164435 0.442066
O O3 0.000000 0.000000 0.500000
O O4 0.955758 0.285774 0.138662
O O5 0.244139 0.788343 0.340165
O O6 0.824506 0.686633 0.327617
O O7 0.884859 0.771406 0.095974
O O8 0.000000 0.000000 0.000000
O O9 0.500000 0.500000 0.500000
O O10 0.577858 0.261639 0.890166
O O11 0.218992 0.229943 0.631280
O O12 0.161075 0.653100 0.702065
O O13 0.793265 0.541968 0.747007
O O14 0.568794 0.309257 0.000576
O O15 0.343014 0.511863 0.738921
O O16 0.488235 0.769484 0.615151
O O17 0.407529 0.248110 0.147483
O O18 0.500000 0.500000 0.000000
#
# Coordination Sequence:
#
# PCOD8044751 Si02
#       8
#     2   2   2   2   2   2   2   2
#     4  12  26  40  62  95 133 175 216 269 330 397
#     4  11  24  41  66  97 136 173 214 272 340 387
#     4   9  21  39  68  94 121 169 226 269 316 396
#     4  11  19  41  65  92 123 170 219 264 325 386
#     4  10  19  38  66  91 121 165 222 262 321 382
#     4  11  23  42  62  96 132 165 225 271 323 399
#     4  10  20  39  66  94 122 171 216 266 324 389
#     4  10  20  35  64  97 123 155 218 278 320 370
#
# _framework density 21.124807000000001
#
# number of rings (size 3 to 8) (size 9 to 14) (size 15 to 20)
#    0.000    1.500    3.750    2.250    3.500    0.000 
#    2.250    1.875    0.000    0.000    0.000    0.000 
#    0.000    0.000    0.000    0.000    0.000    0.000 
#
# Total GULP energy -198211.687828 kJ/mol
# GULP energy per Si atom -12388.230489 kJ/mol
# Density = 2.107673 g / cm^3
# Si number density = 21.124807 Si / 1000 Ang^3
#
#
#
# Elastic Constant Matrix: (Units=GPa)
#
#
# Indices 1 2 3 4 5 6 
#
# 1 81.8146 34.9685 31.3277 12.7195 6.3702 -5.1348
# 2 34.9685 120.9393 62.9608 31.6934 8.9324 -27.9684
# 3 31.3277 62.9608 68.8072 25.7269 12.1199 -0.5762
# 4 12.7195 31.6934 25.7269 41.5150 -1.1881 -0.0137
# 5 6.3702 8.9324 12.1199 -1.1881 28.9229 11.9647
# 6 -5.1348 -27.9684 -0.5762 -0.0137 11.9647 35.8674
#
#
#
# Elastic Compliance Matrix: (Units=1/GPa)
#
#
# Indices 1 2 3 4 5 6 
#
# 1 0.015042 -0.000509 -0.005827 -0.000656 -0.001657 0.002215
# 2 -0.000509 0.027214 -0.019208 -0.009015 -0.010711 0.024408
# 3 -0.005827 -0.019208 0.037833 -0.007088 -0.003061 -0.014186
# 4 -0.000656 -0.009015 -0.007088 0.035903 0.012020 -0.011233
# 5 -0.001657 -0.010711 -0.003061 0.012020 0.050574 -0.025505
# 6 0.002215 0.024408 -0.014186 -0.011233 -0.025505 0.055506
#
#
# Mechanical properties :
#
#
# Convention : Reuss Voigt Hill
#
# Bulk Modulus (GPa) = 34.48262 58.89724 46.68993
# Shear Modulus (GPa) = 17.67866 30.74800 24.21333
#
# Velocity S-wave (km/s) = 2.89600 3.81929 3.38924
# Velocity P-wave (km/s) = 5.24797 6.88407 6.12093
#
# Compressibility (1/GPa) = 0.02900011
#
# Stress axis : x y z
#
# Youngs Moduli (GPa) = 66.48249 36.74634 26.43208
#
# Poissons Ratio (x) = 0.01871 0.15402
# Poissons Ratio (y) = 0.03385 0.50770
# Poissons Ratio (z) = 0.38739 0.70582
#
# Static dielectric constant tensor:
#      x y z
#    x 3.921670 -0.270860 -0.141730 
#    y -0.270860 4.032040 0.596700 
#    z -0.141730 0.596700 3.833620 
# 
# 
# High freq. dielectric constant tensor:
#      x y z
#    x 1.824300 -0.006620 -0.003110 
#    y -0.006620 1.828600 0.042220 
#    z -0.003110 0.042220 1.811240 
# 
# From -- ./inp_files/218257.got.cif
#   From: 2010.06.25/outbox.cif.g09.slc.cpg/sg2_110_cif.got.tgz:218257.got - 2010.06.27 13:26:56.
