data_PCOD8044017
_publ_section_title
;
Structure prediction by ZEFSAII (Michael W. Deem and Ramdas Pophale) SiO2 
 PCOD8044017
Probable space group: P -1
;
_chemical_formula_sum "Si O2"
_cell_formula_units_Z 14
_cell_length_a 9.095488
_cell_length_b 11.209674
_cell_length_c 8.712389
_cell_angle_alpha 122.733709
_cell_angle_beta 112.570679
_cell_angle_gamma 45.336732
_cell_volume 531.454201
_symmetry_space_group_name_H-M "P -1"
_symmetry_group_IT_number 2
_symmetry_cell_setting 'triclinic'
loop_
_space_group_symop_operation_xyz
x,y,z
-x,-y,-z
loop_
_atom_site_type_symbol
_atom_site_label
_atom_site_fract_x
_atom_site_fract_y
_atom_site_fract_z
Si Si1 0.386520 0.332011 0.018021
Si Si2 0.776750 0.593701 0.654081
Si Si3 0.363205 0.766101 0.513186
Si Si4 0.107787 0.222360 0.368483
Si Si5 0.894523 0.258157 0.830224
Si Si6 0.167963 0.876115 0.818377
Si Si7 0.254987 0.128156 0.673860
O O1 0.275218 0.365983 0.159133
O O2 0.262424 0.531424 0.022086
O O3 0.631881 0.221859 0.060021
O O4 0.373166 0.205329 0.814102
O O5 0.605347 0.590860 0.498071
O O6 0.789347 0.749918 0.709689
O O7 0.988135 0.398692 0.559036
O O8 0.255604 0.778050 0.323614
O O9 0.234494 0.775343 0.610108
O O10 0.370777 0.930638 0.660714
O O11 0.271987 0.081270 0.465460
O O12 0.985162 0.158353 0.200696
O O13 0.024580 0.257936 0.745656
O O14 0.039238 0.097978 0.903162
#
# Coordination Sequence:
#
# PCOD8044017 Si02
#       7
#     2   2   2   2   2   2   2
#     4  11  23  39  64  97 125 156 210 264 312 357
#     4  10  23  35  62  93 128 161 206 254 317 372
#     4  10  19  37  62  92 115 162 215 253 294 369
#     4  11  20  40  62  92 125 165 207 255 308 378
#     4  11  19  36  65  93 119 163 211 255 302 364
#     4  10  20  37  64  88 123 161 213 252 299 370
#     4  11  21  37  64  94 123 155 209 269 301 357
#
# _framework density 26.342817
#
# number of rings (size 3 to 8) (size 9 to 14) (size 15 to 20)
#    0.000    1.429    4.286    2.143    0.000    8.000 
#    0.000    0.000    3.143    6.857    3.714    0.000 
#    0.000    0.000    0.000    0.000    0.000    0.000 
#
# Total GULP energy -173491.469007 kJ/mol
# GULP energy per Si atom -12392.247786 kJ/mol
# Density = 2.628286 g / cm^3
# Si number density = 26.342817 Si / 1000 Ang^3
#
#
#
# Elastic Constant Matrix: (Units=GPa)
#
#
# Indices 1 2 3 4 5 6 
#
# 1 98.9475 23.4965 29.0360 -5.5893 15.0577 9.7722
# 2 23.4965 78.7842 19.2772 2.8042 6.9905 2.1747
# 3 29.0360 19.2772 82.1864 4.1496 33.1195 1.7660
# 4 -5.5893 2.8042 4.1496 18.0471 3.8012 8.5915
# 5 15.0577 6.9905 33.1195 3.8012 36.2337 4.8843
# 6 9.7722 2.1747 1.7660 8.5915 4.8843 27.9281
#
#
#
# Elastic Compliance Matrix: (Units=1/GPa)
#
#
# Indices 1 2 3 4 5 6 
#
# 1 0.013315 -0.003072 -0.003617 0.008953 -0.001677 -0.006652
# 2 -0.003072 0.014225 -0.002536 -0.003251 0.001065 0.000942
# 3 -0.003617 -0.002536 0.021239 -0.004013 -0.017598 0.004432
# 4 0.008953 -0.003251 -0.004013 0.071858 -0.003718 -0.024081
# 5 -0.001677 0.001065 -0.017598 -0.003718 0.045260 -0.005155
# 6 -0.006652 0.000942 0.004432 -0.024081 -0.005155 0.046090
#
#
# Mechanical properties :
#
#
# Convention : Reuss Voigt Hill
#
# Bulk Modulus (GPa) = 32.97220 44.83751 38.90485
# Shear Modulus (GPa) = 20.78587 28.98235 24.88411
#
# Velocity S-wave (km/s) = 2.81206 3.32052 3.07681
# Velocity P-wave (km/s) = 4.80492 5.63550 5.23671
#
# Compressibility (1/GPa) = 0.03032858
#
# Stress axis : x y z
#
# Youngs Moduli (GPa) = 75.10217 70.29854 47.08320
#
# Poissons Ratio (x) = 0.21598 0.17029
# Poissons Ratio (y) = 0.23074 0.11941
# Poissons Ratio (z) = 0.27162 0.17829
#
# Static dielectric constant tensor:
#      x y z
#    x 4.782430 -0.032120 0.081380 
#    y -0.032120 4.942470 -0.054300 
#    z 0.081380 -0.054300 4.112750 
# 
# 
# High freq. dielectric constant tensor:
#      x y z
#    x 2.054150 0.001270 0.013090 
#    y 0.001270 2.070640 -0.002040 
#    z 0.013090 -0.002040 2.031050 
# 
# From -- ./inp_files/157963.got.cif
#   From: 2010.06.25/outbox.cif.g09.slc.cpg/sg2_79_cif.got.tgz:157963.got - 2010.06.27 13:26:56.
