data_PCOD8044780
_publ_section_title
;
Structure prediction by ZEFSAII (Michael W. Deem and Ramdas Pophale) SiO2 
 PCOD8044780
Probable space group: P -1
;
_chemical_formula_sum "Si O2"
_cell_formula_units_Z 16
_cell_length_a 11.545802
_cell_length_b 12.262843
_cell_length_c 14.574218
_cell_angle_alpha 84.035343
_cell_angle_beta 32.296271
_cell_angle_gamma 61.300107
_cell_volume 739.482938
_symmetry_space_group_name_H-M "P -1"
_symmetry_group_IT_number 2
_symmetry_cell_setting 'triclinic'
loop_
_space_group_symop_operation_xyz
x,y,z
-x,-y,-z
loop_
_atom_site_type_symbol
_atom_site_label
_atom_site_fract_x
_atom_site_fract_y
_atom_site_fract_z
Si Si1 0.701206 0.121039 0.992869
Si Si2 0.361192 0.430883 0.089687
Si Si3 0.678948 0.698044 0.597841
Si Si4 0.413095 0.393976 0.708633
Si Si5 0.697202 0.000844 0.299768
Si Si6 0.193326 0.706093 0.866518
Si Si7 0.831199 0.612335 0.957519
Si Si8 0.985102 0.795464 0.795646
O O1 0.627607 0.242571 0.957378
O O2 0.408187 0.220002 0.251913
O O3 0.035894 0.025283 0.826713
O O4 0.733532 0.989558 0.935109
O O5 0.264907 0.441713 0.048696
O O6 0.057355 0.535992 0.351780
O O7 0.500000 0.500000 0.000000
O O8 0.497902 0.650551 0.712757
O O9 0.564871 0.822647 0.584577
O O10 0.247298 0.557738 0.857717
O O11 0.770856 0.287452 0.445932
O O12 0.194143 0.447471 0.761866
O O13 0.404162 0.304105 0.802216
O O14 0.500000 0.000000 0.500000
O O15 0.862911 0.865192 0.122409
O O16 0.177176 0.738653 0.766725
O O17 0.810554 0.742202 0.916034
#
# Coordination Sequence:
#
# PCOD8044780 Si02
#       8
#     2   2   2   2   2   2   2   2
#     4  11  24  42  64  98 134 176 220 271 338 400
#     4  12  27  45  64  96 138 174 221 274 337 409
#     4  11  21  42  66  96 128 180 220 269 339 391
#     4  10  22  39  70 100 129 173 217 288 328 388
#     4  11  22  36  66 105 134 171 218 288 329 385
#     4  10  19  38  66  99 133 161 226 279 329 395
#     4  10  24  42  64 100 130 176 223 270 336 396
#     4  11  20  43  66  96 131 168 227 272 335 388
#
# _framework density 21.63674
#
# number of rings (size 3 to 8) (size 9 to 14) (size 15 to 20)
#    0.000    1.250    2.500    4.875    5.250    2.500 
#    4.500    0.625    0.000    0.000    0.000    0.000 
#    0.000    0.000    0.000    0.000    0.000    0.000 
#
# Total GULP energy -198416.915038 kJ/mol
# GULP energy per Si atom -12401.057190 kJ/mol
# Density = 2.158749 g / cm^3
# Si number density = 21.636740 Si / 1000 Ang^3
#
#
#
# Elastic Constant Matrix: (Units=GPa)
#
#
# Indices 1 2 3 4 5 6 
#
# 1 84.0924 41.7594 24.2656 -3.0079 5.1918 21.5877
# 2 41.7594 126.0775 40.6163 -6.8830 0.0719 7.1577
# 3 24.2656 40.6163 106.4665 -16.6643 14.7680 10.1949
# 4 -3.0079 -6.8830 -16.6643 36.2981 -3.2193 2.9686
# 5 5.1918 0.0719 14.7680 -3.2193 23.3419 -2.5763
# 6 21.5877 7.1577 10.1949 2.9686 -2.5763 29.5331
#
#
#
# Elastic Compliance Matrix: (Units=1/GPa)
#
#
# Indices 1 2 3 4 5 6 
#
# 1 0.018045 -0.005192 -0.000054 0.001045 -0.005196 -0.012472
# 2 -0.005192 0.010675 -0.003678 0.000010 0.003760 0.002804
# 3 -0.000054 -0.003678 0.013190 0.005026 -0.008163 -0.004840
# 4 0.001045 0.000010 0.005026 0.030414 0.000171 -0.005544
# 5 -0.005196 0.003760 -0.008163 0.000171 0.050286 0.010074
# 6 -0.012472 0.002804 -0.004840 -0.005544 0.010074 0.045404
#
#
# Mechanical properties :
#
#
# Convention : Reuss Voigt Hill
#
# Bulk Modulus (GPa) = 41.55447 58.87992 50.21720
# Shear Modulus (GPa) = 25.78893 31.83430 28.81161
#
# Velocity S-wave (km/s) = 3.45614 3.83992 3.65308
# Velocity P-wave (km/s) = 5.93075 6.85070 6.40725
#
# Compressibility (1/GPa) = 0.02406480
#
# Stress axis : x y z
#
# Youngs Moduli (GPa) = 55.41647 93.67537 75.81355
#
# Poissons Ratio (x) = 0.48632 0.00406
# Poissons Ratio (y) = 0.28770 0.27882
# Poissons Ratio (z) = 0.00297 0.34451
#
# Static dielectric constant tensor:
#      x y z
#    x 3.854990 0.163910 0.216780 
#    y 0.163910 4.067670 0.028160 
#    z 0.216780 0.028160 3.945770 
# 
# 
# High freq. dielectric constant tensor:
#      x y z
#    x 1.837990 0.007640 0.013500 
#    y 0.007640 1.857650 -0.010680 
#    z 0.013500 -0.010680 1.841940 
# 
# From -- ./inp_files/403327.got.cif
#   From: 2010.06.25/outbox.cif.g09.slc.cpg/sg2_202_cif.got.tgz:403327.got - 2010.06.27 13:26:56.
