data_PCOD8044857
_publ_section_title
;
Structure prediction by ZEFSAII (Michael W. Deem and Ramdas Pophale) SiO2 
 PCOD8044857
Probable space group: P 2
;
_chemical_formula_sum "Si O2"
_cell_formula_units_Z 16
_cell_length_a 12.191266
_cell_length_b 11.929311
_cell_length_c 9.423973
_cell_angle_alpha 90.000000
_cell_angle_beta 140.624942
_cell_angle_gamma 90.000000
_cell_volume 869.475429
_symmetry_space_group_name_H-M "P 2"
_symmetry_group_IT_number 3
_symmetry_cell_setting 'monoclinic'
loop_
_space_group_symop_operation_xyz
x,y,z
-x,y,-z
loop_
_atom_site_type_symbol
_atom_site_label
_atom_site_fract_x
_atom_site_fract_y
_atom_site_fract_z
Si Si1 0.192924 0.069450 0.024831
Si Si2 0.500003 0.457586 0.832921
Si Si3 0.702155 0.826508 0.866435
Si Si4 0.192813 0.618063 0.531334
Si Si5 0.807077 0.069452 0.638982
Si Si6 0.807194 0.618061 0.145711
Si Si7 0.297851 0.826510 0.462137
Si Si8 0.500001 0.226858 0.330749
O O1 0.000001 0.104623 0.782628
O O2 0.207805 0.063820 0.207806
O O3 0.330552 0.160130 0.106879
O O4 0.238166 0.946173 0.010844
O O5 0.330142 0.526314 0.615775
O O6 0.500001 0.345491 0.743536
O O7 0.500000 0.430206 0.000000
O O8 0.669868 0.526309 0.955499
O O9 0.500003 0.811899 0.688584
O O10 0.753036 0.816508 0.753032
O O11 0.801465 0.729997 0.048131
O O12 0.236480 0.651220 0.736483
O O13 0.198540 0.730001 0.445215
O O14 0.000004 0.566532 0.325013
O O15 0.669452 0.160134 0.445778
O O16 0.761828 0.946177 0.534503
O O17 0.500000 0.242521 0.500000
#
# Coordination Sequence:
#
# PCOD8044857 Si02
#       8
#     2   2   2   2   2   2   2   2
#     4   9  17  31  52  78 108 137 164 205 261 309
#     4  10  22  39  54  72 102 139 175 218 267 306
#     4  10  18  31  55  84 111 138 169 209 259 314
#     4  10  21  37  56  77 104 140 177 213 260 315
#     4   9  17  31  52  78 108 137 164 205 261 309
#     4  10  21  37  56  77 104 140 177 213 260 315
#     4  10  18  31  55  84 111 138 169 209 259 314
#     4  10  20  35  54  76 100 133 179 218 249 302
#
# _framework density 18.401900999999999
#
# number of rings (size 3 to 8) (size 9 to 14) (size 15 to 20)
#    0.000    2.250    2.500    0.750    0.000    3.500 
#    0.000    1.250    0.000    1.500    0.000    0.000 
#    0.000    0.000    0.000    0.000    0.000    0.000 
#
# Total GULP energy -198401.187390 kJ/mol
# GULP energy per Si atom -12400.074212 kJ/mol
# Density = 1.836002 g / cm^3
# Si number density = 18.401901 Si / 1000 Ang^3
#
#
#
# Elastic Constant Matrix: (Units=GPa)
#
#
# Indices 1 2 3 4 5 6 
#
# 1 69.0766 58.5281 46.5210 0.0000 25.2292 0.0000
# 2 58.5281 152.8945 63.8558 0.0000 17.7247 0.0000
# 3 46.5210 63.8558 85.4289 0.0000 29.2049 0.0000
# 4 0.0000 0.0000 0.0000 -11.7720 0.0000 33.0773
# 5 25.2292 17.7247 29.2049 0.0000 28.3008 0.0000
# 6 0.0000 0.0000 0.0000 33.0773 0.0000 -21.7015
#
#
#
# Elastic Compliance Matrix: (Units=1/GPa)
#
#
# Indices 1 2 3 4 5 6 
#
# 1 0.030686 -0.007608 -0.005100 0.000000 -0.017328 0.000000
# 2 -0.007608 0.011479 -0.006641 0.000000 0.006446 0.000000
# 3 -0.005100 -0.006641 0.025448 0.000000 -0.017556 0.000000
# 4 0.000000 0.000000 0.000000 0.025877 0.000000 0.039442
# 5 -0.017328 0.006446 -0.017556 0.000000 0.064862 0.000000
# 6 0.000000 0.000000 0.000000 0.039442 0.000000 0.014037
#
#
# Mechanical properties :
#
#
# Convention : Reuss Voigt Hill
#
# Bulk Modulus (GPa) = 34.58275 71.69000 53.13638
# Shear Modulus (GPa) = 22.65248 8.19847 15.42547
#
# Velocity S-wave (km/s) = 3.51235 2.11303 2.89840
# Velocity P-wave (km/s) = 5.93992 6.70788 6.33555
#
# Compressibility (1/GPa) = 0.02891615
#
# Stress axis : x y z
#
# Youngs Moduli (GPa) = 32.58774 87.11475 39.29509
#
# Poissons Ratio (x) = 0.66277 0.20040
# Poissons Ratio (y) = 0.24793 0.26096
# Poissons Ratio (z) = 0.16619 0.57853
#
# Static dielectric constant tensor:
#      x y z
#    x 3.335830 0.000000 0.331090 
#    y 0.000000 3.293850 0.000000 
#    z 0.331090 0.000000 3.435270 
# 
# 
# High freq. dielectric constant tensor:
#      x y z
#    x 1.701900 0.000000 0.029480 
#    y 0.000000 1.707920 0.000000 
#    z 0.029480 0.000000 1.710760 
# 
# From -- ./inp_files/7774.got.cif
#   From: 2010.03.12/outbox.cif.g09.slc.cpg/sg3_4_cif.got.tgz:7774.got - 2010.03.31 09:20:49.
