data_PCOD8044018
_publ_section_title
;
Structure prediction by ZEFSAII (Michael W. Deem and Ramdas Pophale) SiO2 
 PCOD8044018
Probable space group: P -1
;
_chemical_formula_sum "Si O2"
_cell_formula_units_Z 16
_cell_length_a 22.626962
_cell_length_b 28.555815
_cell_length_c 9.261515
_cell_angle_alpha 144.152004
_cell_angle_beta 26.330337
_cell_angle_gamma 162.122389
_cell_volume 774.297205
_symmetry_space_group_name_H-M "P -1"
_symmetry_group_IT_number 2
_symmetry_cell_setting 'triclinic'
loop_
_space_group_symop_operation_xyz
x,y,z
-x,-y,-z
loop_
_atom_site_type_symbol
_atom_site_label
_atom_site_fract_x
_atom_site_fract_y
_atom_site_fract_z
Si Si1 0.983520 0.703031 0.741747
Si Si2 0.155866 0.523399 0.615853
Si Si3 0.613682 0.568509 0.703638
Si Si4 0.659876 0.873043 0.284489
Si Si5 0.582879 0.007204 0.683012
Si Si6 0.838970 0.960326 0.431095
Si Si7 0.480447 0.365046 0.686032
Si Si8 0.863555 0.147633 0.921120
O O1 0.132342 0.811852 0.543687
O O2 0.023092 0.626230 0.470328
O O3 0.126615 0.815542 0.846525
O O4 0.666807 0.555884 0.068531
O O5 0.371267 0.682692 0.449352
O O6 0.271127 0.519570 0.466236
O O7 0.000000 0.500000 0.000000
O O8 0.580624 0.460168 0.559949
O O9 0.846661 0.694743 0.392449
O O10 0.701493 0.670655 0.903854
O O11 0.788914 0.960124 0.374723
O O12 0.622854 0.932613 0.419215
O O13 0.858325 0.910493 0.873662
O O14 0.500000 0.000000 0.000000
O O15 0.350749 0.909808 0.836253
O O16 0.653115 0.788361 0.450061
O O17 0.776475 0.008691 0.776958
#
# Coordination Sequence:
#
# PCOD8044018 Si02
#       8
#     2   2   2   2   2   2   2   2
#     4  11  25  44  62  92 134 169 202 262 327 384
#     4  10  21  36  62  87 122 161 210 253 312 368
#     4  10  21  39  67  92 125 165 219 260 311 374
#     4  10  20  37  62  92 119 159 217 267 296 366
#     4  12  25  41  66  96 126 168 218 263 311 376
#     4  10  19  37  62  92 123 161 208 260 318 369
#     4   9  20  35  62  96 119 153 216 275 290 358
#     4  12  25  41  65  95 133 169 205 260 333 382
#
# _framework density 20.663900000000002
#
# number of rings (size 3 to 8) (size 9 to 14) (size 15 to 20)
#    0.000    1.500    1.250    5.250    8.750    0.000 
#    0.000    4.375    0.000    0.000    0.000    0.000 
#    0.000    0.000    0.000    0.000    0.000    0.000 
#
# Total GULP energy -198296.014036 kJ/mol
# GULP energy per Si atom -12393.500877 kJ/mol
# Density = 2.061687 g / cm^3
# Si number density = 20.663900 Si / 1000 Ang^3
#
#
#
# Elastic Constant Matrix: (Units=GPa)
#
#
# Indices 1 2 3 4 5 6 
#
# 1 49.1910 55.9306 26.4753 0.8165 -2.4042 -20.3434
# 2 55.9306 143.0825 56.0675 21.9822 -4.1135 -15.2060
# 3 26.4753 56.0675 83.9030 8.5682 -6.5626 -11.6661
# 4 0.8165 21.9822 8.5682 31.0894 0.1665 -4.4042
# 5 -2.4042 -4.1135 -6.5626 0.1665 32.3117 6.7824
# 6 -20.3434 -15.2060 -11.6661 -4.4042 6.7824 29.5537
#
#
#
# Elastic Compliance Matrix: (Units=1/GPa)
#
#
# Indices 1 2 3 4 5 6 
#
# 1 0.059721 -0.022266 -0.001789 0.019398 -0.005817 0.033172
# 2 -0.022266 0.018755 -0.005487 -0.012610 0.001809 -0.010137
# 3 -0.001789 -0.005487 0.016629 -0.000390 0.002136 0.001961
# 4 0.019398 -0.012610 -0.000390 0.042658 -0.003366 0.013841
# 5 -0.005817 0.001809 0.002136 -0.003366 0.033379 -0.010392
# 6 0.033172 -0.010137 0.001961 0.013841 -0.010392 0.056677
#
#
# Mechanical properties :
#
#
# Convention : Reuss Voigt Hill
#
# Bulk Modulus (GPa) = 27.76203 61.45814 44.61008
# Shear Modulus (GPa) = 16.72752 27.77116 22.24934
#
# Velocity S-wave (km/s) = 2.84827 3.66996 3.28491
# Velocity P-wave (km/s) = 4.92758 6.91119 6.00190
#
# Compressibility (1/GPa) = 0.03602042
#
# Stress axis : x y z
#
# Youngs Moduli (GPa) = 16.74467 53.32025 60.13420
#
# Poissons Ratio (x) = 1.18720 0.10760
# Poissons Ratio (y) = 0.37283 0.32996
# Poissons Ratio (z) = 0.02996 0.29258
#
# Static dielectric constant tensor:
#      x y z
#    x 3.577120 -0.066050 -0.552930 
#    y -0.066050 3.761200 -0.346840 
#    z -0.552930 -0.346840 7.159800 
# 
# 
# High freq. dielectric constant tensor:
#      x y z
#    x 1.780460 -0.016090 -0.019000 
#    y -0.016090 1.821640 -0.001120 
#    z -0.019000 -0.001120 1.809230 
# 
# From -- ./inp_files/350253.got.cif
#   From: 2010.06.25/outbox.cif.g09.slc.cpg/sg2_176_cif.got.tgz:350253.got - 2010.06.27 13:26:56.
