data_PCOD8044666
_publ_section_title
;
Structure prediction by ZEFSAII (Michael W. Deem and Ramdas Pophale) SiO2 
 PCOD8044666
Probable space group: P -1
;
_chemical_formula_sum "Si O2"
_cell_formula_units_Z 16
_cell_length_a 17.761480
_cell_length_b 12.148032
_cell_length_c 8.891497
_cell_angle_alpha 48.606431
_cell_angle_beta 58.754885
_cell_angle_gamma 31.601952
_cell_volume 749.333203
_symmetry_space_group_name_H-M "P -1"
_symmetry_group_IT_number 2
_symmetry_cell_setting 'triclinic'
loop_
_space_group_symop_operation_xyz
x,y,z
-x,-y,-z
loop_
_atom_site_type_symbol
_atom_site_label
_atom_site_fract_x
_atom_site_fract_y
_atom_site_fract_z
Si Si1 0.249757 0.186859 0.223330
Si Si2 0.543778 0.079635 0.485791
Si Si3 0.216915 0.993618 0.198895
Si Si4 0.023052 0.309629 0.529721
Si Si5 0.000586 0.985311 0.188782
Si Si6 0.888303 0.354785 0.196540
Si Si7 0.803860 0.828703 0.260793
Si Si8 0.722281 0.394322 0.583683
O O1 0.294317 0.995072 0.239953
O O2 0.120081 0.302741 0.355289
O O3 0.381512 0.066584 0.301524
O O4 0.196802 0.388552 0.992942
O O5 0.409198 0.357344 0.419115
O O6 0.500000 0.000000 0.500000
O O7 0.651330 0.039585 0.314523
O O8 0.049274 0.180013 0.248025
O O9 0.314826 0.716155 0.349891
O O10 0.217243 0.078900 0.964519
O O11 0.041194 0.123136 0.615160
O O12 0.071861 0.242781 0.715296
O O13 0.858240 0.585367 0.425556
O O14 0.163794 0.803985 0.228607
O O15 0.892486 0.239846 0.153232
O O16 0.000000 0.000000 0.000000
O O17 0.795719 0.404541 0.378945
#
# Coordination Sequence:
#
# PCOD8044666 Si02
#       8
#     2   2   2   2   2   2   2   2
#     4  11  24  40  70  96 125 172 221 265 325 384
#     4  11  27  45  63  92 133 178 218 261 325 396
#     4  11  22  42  67 102 123 162 221 274 328 378
#     4  10  19  38  64  95 128 164 213 273 319 374
#     4  11  23  37  68 101 130 166 213 270 331 377
#     4  11  23  41  66 103 131 167 212 271 330 379
#     4  10  22  38  67  92 127 168 219 269 318 376
#     4  11  25  43  65  91 143 174 205 268 325 387
#
# _framework density 21.352316999999999
#
# number of rings (size 3 to 8) (size 9 to 14) (size 15 to 20)
#    0.000    1.250    1.250    5.625    8.750    1.500 
#    0.000    0.000    0.000    0.000    0.000    0.000 
#    0.000    0.000    0.000    0.000    0.000    0.000 
#
# Total GULP energy -198362.011680 kJ/mol
# GULP energy per Si atom -12397.625730 kJ/mol
# Density = 2.130372 g / cm^3
# Si number density = 21.352317 Si / 1000 Ang^3
#
#
#
# Elastic Constant Matrix: (Units=GPa)
#
#
# Indices 1 2 3 4 5 6 
#
# 1 121.0830 47.5862 45.9193 -9.0894 -1.4338 30.5834
# 2 47.5862 137.9632 42.5018 -4.4098 -6.3586 15.9277
# 3 45.9193 42.5018 83.5290 5.5706 2.1503 12.4295
# 4 -9.0894 -4.4098 5.5706 33.8418 9.4749 -7.4004
# 5 -1.4338 -6.3586 2.1503 9.4749 33.7911 -3.1094
# 6 30.5834 15.9277 12.4295 -7.4004 -3.1094 32.4615
#
#
#
# Elastic Compliance Matrix: (Units=1/GPa)
#
#
# Indices 1 2 3 4 5 6 
#
# 1 0.013527 -0.001957 -0.005191 0.002477 -0.001017 -0.009329
# 2 -0.001957 0.009229 -0.003546 0.000579 0.001621 -0.001039
# 3 -0.005191 -0.003546 0.017122 -0.004696 -0.000759 -0.001068
# 4 0.002477 0.000579 -0.004696 0.034872 -0.008685 0.006298
# 5 -0.001017 0.001621 -0.000759 -0.008685 0.032485 0.001585
# 6 -0.009329 -0.001039 -0.001068 0.006298 0.001585 0.042102
#
#
# Mechanical properties :
#
#
# Convention : Reuss Voigt Hill
#
# Bulk Modulus (GPa) = 54.08580 68.28775 61.18678
# Shear Modulus (GPa) = 28.26656 33.79005 31.02831
#
# Velocity S-wave (km/s) = 3.64238 3.98238 3.81617
# Velocity P-wave (km/s) = 6.56311 7.29360 6.93798
#
# Compressibility (1/GPa) = 0.01848914
#
# Stress axis : x y z
#
# Youngs Moduli (GPa) = 73.92643 108.35521 58.40572
#
# Poissons Ratio (x) = 0.21206 0.30320
# Poissons Ratio (y) = 0.14468 0.20709
# Poissons Ratio (z) = 0.38378 0.38420
#
# Static dielectric constant tensor:
#      x y z
#    x 4.211410 0.263270 0.040980 
#    y 0.263270 3.837230 -0.047070 
#    z 0.040980 -0.047070 3.875770 
# 
# 
# High freq. dielectric constant tensor:
#      x y z
#    x 1.839840 0.027800 0.001310 
#    y 0.027800 1.826830 0.005480 
#    z 0.001310 0.005480 1.845730 
# 
# From -- ./inp_files/209485.got.cif
#   From: 2010.06.25/outbox.cif.g09.slc.cpg/sg2_105_cif.got.tgz:209485.got - 2010.06.27 13:26:56.
