data_PCOD8044662
_publ_section_title
;
Structure prediction by ZEFSAII (Michael W. Deem and Ramdas Pophale) SiO2 
 PCOD8044662
Probable space group: P -1
;
_chemical_formula_sum "Si O2"
_cell_formula_units_Z 14
_cell_length_a 9.086113
_cell_length_b 14.952351
_cell_length_c 8.368006
_cell_angle_alpha 39.160013
_cell_angle_beta 65.407511
_cell_angle_gamma 72.581719
_cell_volume 652.256733
_symmetry_space_group_name_H-M "P -1"
_symmetry_group_IT_number 2
_symmetry_cell_setting 'triclinic'
loop_
_space_group_symop_operation_xyz
x,y,z
-x,-y,-z
loop_
_atom_site_type_symbol
_atom_site_label
_atom_site_fract_x
_atom_site_fract_y
_atom_site_fract_z
Si Si1 0.353836 0.337269 0.418483
Si Si2 0.372116 0.666557 0.942588
Si Si3 0.739915 0.853867 0.982765
Si Si4 0.153601 0.934249 0.103463
Si Si5 0.998079 0.348567 0.510219
Si Si6 0.456963 0.904406 0.801913
Si Si7 0.985966 0.337303 0.911455
O O1 0.495989 0.282217 0.319226
O O2 0.351091 0.251147 0.704388
O O3 0.184090 0.315230 0.431123
O O4 0.383730 0.503130 0.213325
O O5 0.402117 0.748582 0.981236
O O6 0.197583 0.700509 0.896942
O O7 0.885465 0.775836 0.933635
O O8 0.614561 0.900575 0.844510
O O9 0.816430 0.995028 0.836121
O O10 0.119863 0.764384 0.372907
O O11 0.311397 0.970063 0.875487
O O12 0.000000 0.000000 0.000000
O O13 0.956594 0.508346 0.258042
O O14 0.978598 0.334641 0.727431
O O15 0.500000 0.000000 0.500000
#
# Coordination Sequence:
#
# PCOD8044662 Si02
#       7
#     2   2   2   2   2   2   2
#     4   9  19  36  68  92 126 159 205 252 306 375
#     4  10  19  38  64  95 123 168 196 251 318 360
#     4  11  23  41  64  93 125 164 214 254 303 375
#     4  12  21  40  66  93 122 168 204 248 318 376
#     4   9  17  33  64  93 125 161 200 247 311 372
#     4  12  27  42  61  88 128 167 212 264 310 359
#     4   9  17  36  64  93 121 159 208 252 299 374
#
# _framework density 21.463940000000001
#
# number of rings (size 3 to 8) (size 9 to 14) (size 15 to 20)
#    0.000    1.714    4.286    2.143    0.000    0.571 
#    0.000    4.286    0.000    2.571    0.000    0.000 
#    0.000    0.000    0.000    0.000    0.000    0.000 
#
# Total GULP energy -173602.954228 kJ/mol
# GULP energy per Si atom -12400.211016 kJ/mol
# Density = 2.141509 g / cm^3
# Si number density = 21.463940 Si / 1000 Ang^3
#
#
#
# Elastic Constant Matrix: (Units=GPa)
#
#
# Indices 1 2 3 4 5 6 
#
# 1 156.5609 74.0459 53.8373 -4.8309 -0.9576 -14.2929
# 2 74.0459 101.1876 43.9561 -19.9946 -2.8230 -14.3542
# 3 53.8373 43.9561 76.2886 -11.3366 -12.3439 5.6629
# 4 -4.8309 -19.9946 -11.3366 31.2303 1.4323 -16.7968
# 5 -0.9576 -2.8230 -12.3439 1.4323 31.7506 5.1530
# 6 -14.2929 -14.3542 5.6629 -16.7968 5.1530 45.0947
#
#
#
# Elastic Compliance Matrix: (Units=1/GPa)
#
#
# Indices 1 2 3 4 5 6 
#
# 1 0.011261 -0.006737 -0.005055 -0.003831 -0.002195 0.000883
# 2 -0.006737 0.023933 -0.007929 0.019195 -0.004316 0.014121
# 3 -0.005055 -0.007929 0.023075 -0.002882 0.009739 -0.009210
# 4 -0.003831 0.019195 -0.002882 0.057783 -0.006605 0.027536
# 5 -0.002195 -0.004316 0.009739 -0.006605 0.036745 -0.009952
# 6 0.000883 0.014121 -0.009210 0.027536 -0.009952 0.039501
#
#
# Mechanical properties :
#
#
# Convention : Reuss Voigt Hill
#
# Bulk Modulus (GPa) = 53.11817 75.30173 64.20995
# Shear Modulus (GPa) = 21.00687 32.42830 26.71758
#
# Velocity S-wave (km/s) = 3.13182 3.89115 3.53195
# Velocity P-wave (km/s) = 6.15460 7.43957 6.82738
#
# Compressibility (1/GPa) = 0.01882595
#
# Stress axis : x y z
#
# Youngs Moduli (GPa) = 88.80112 41.78303 43.33641
#
# Poissons Ratio (x) = 0.28151 0.21907
# Poissons Ratio (y) = 0.59830 0.34363
# Poissons Ratio (z) = 0.44889 0.33131
#
# Static dielectric constant tensor:
#      x y z
#    x 3.953490 -0.352330 -0.479670 
#    y -0.352330 4.308530 -0.281870 
#    z -0.479670 -0.281870 3.842660 
# 
# 
# High freq. dielectric constant tensor:
#      x y z
#    x 1.831840 -0.023170 -0.031480 
#    y -0.023170 1.852360 -0.023960 
#    z -0.031480 -0.023960 1.826680 
# 
# From -- ./inp_files/205047.got.cif
#   From: 2010.06.25/outbox.cif.g09.slc.cpg/sg2_103_cif.got.tgz:205047.got - 2010.06.27 13:26:56.
