data_PCOD8044808
_publ_section_title
;
Structure prediction by ZEFSAII (Michael W. Deem and Ramdas Pophale) SiO2 
 PCOD8044808
Probable space group: P -1
;
_chemical_formula_sum "Si O2"
_cell_formula_units_Z 14
_cell_length_a 14.925172
_cell_length_b 13.854336
_cell_length_c 8.677846
_cell_angle_alpha 63.221400
_cell_angle_beta 41.073907
_cell_angle_gamma 31.950829
_cell_volume 523.548737
_symmetry_space_group_name_H-M "P -1"
_symmetry_group_IT_number 2
_symmetry_cell_setting 'triclinic'
loop_
_space_group_symop_operation_xyz
x,y,z
-x,-y,-z
loop_
_atom_site_type_symbol
_atom_site_label
_atom_site_fract_x
_atom_site_fract_y
_atom_site_fract_z
Si Si1 0.198298 0.885778 0.185715
Si Si2 0.951853 0.434182 0.929491
Si Si3 0.425850 0.212032 0.064334
Si Si4 0.786319 0.320345 0.335911
Si Si5 0.569223 0.771810 0.445237
Si Si6 0.342387 0.512910 0.291817
Si Si7 0.795226 0.870530 0.563716
O O1 0.424982 0.822242 0.971304
O O2 0.362719 0.667105 0.057430
O O3 0.000000 0.000000 0.500000
O O4 0.986096 0.084630 0.195622
O O5 0.941907 0.318550 0.079738
O O6 0.764646 0.635115 0.139720
O O7 0.821510 0.541008 0.852534
O O8 0.269734 0.252313 0.639639
O O9 0.308847 0.178859 0.297876
O O10 0.649920 0.033442 0.772770
O O11 0.500000 0.500000 0.500000
O O12 0.742784 0.348310 0.559248
O O13 0.556135 0.666873 0.624162
O O14 0.271351 0.019376 0.590330
O O15 0.111790 0.649909 0.363762
#
# Coordination Sequence:
#
# PCOD8044808 Si02
#       7
#     2   2   2   2   2   2   2
#     4  12  27  46  68  98 135 184 241 285 338 413
#     4   9  17  35  66  97 138 177 218 281 338 399
#     4  10  19  38  68 101 140 178 224 278 345 407
#     4  11  24  46  69  98 136 184 231 284 344 409
#     4   9  18  35  65 105 134 174 224 274 345 414
#     4  11  24  46  71 100 139 181 229 288 348 408
#     4  10  19  38  72 102 137 181 218 284 352 406
#
# _framework density 26.740584999999999
#
# number of rings (size 3 to 8) (size 9 to 14) (size 15 to 20)
#    0.000    1.714    2.857    1.714    4.000    1.714 
#    5.143    1.429    0.000    0.000    0.000    0.000 
#    0.000    0.000    0.000    0.000    0.000    0.000 
#
# Total GULP energy -173484.157231 kJ/mol
# GULP energy per Si atom -12391.725517 kJ/mol
# Density = 2.667972 g / cm^3
# Si number density = 26.740585 Si / 1000 Ang^3
#
#
#
# Elastic Constant Matrix: (Units=GPa)
#
#
# Indices 1 2 3 4 5 6 
#
# 1 95.0069 26.7203 22.2057 24.3000 -10.4470 -10.8797
# 2 26.7203 177.6425 44.1419 37.7531 1.8338 -24.6217
# 3 22.2057 44.1419 61.5427 20.2870 -2.0031 -1.4975
# 4 24.3000 37.7531 20.2870 43.9725 -2.2647 -7.6867
# 5 -10.4470 1.8338 -2.0031 -2.2647 32.2693 10.3728
# 6 -10.8797 -24.6217 -1.4975 -7.6867 10.3728 49.3723
#
#
#
# Elastic Compliance Matrix: (Units=1/GPa)
#
#
# Indices 1 2 3 4 5 6 
#
# 1 0.013100 0.000056 -0.002779 -0.005615 0.003263 0.001270
# 2 0.000056 0.008218 -0.004409 -0.004513 -0.002243 0.003745
# 3 -0.002779 -0.004409 0.022161 -0.005404 0.001400 -0.003274
# 4 -0.005615 -0.004513 -0.005404 0.032456 -0.000074 0.001417
# 5 0.003263 -0.002243 0.001400 -0.000074 0.034718 -0.007663
# 6 0.001270 0.003745 -0.003274 0.001417 -0.007663 0.024133
#
#
# Mechanical properties :
#
#
# Convention : Reuss Voigt Hill
#
# Bulk Modulus (GPa) = 34.22846 57.81421 46.02133
# Shear Modulus (GPa) = 31.48883 41.19778 36.34330
#
# Velocity S-wave (km/s) = 3.43529 3.92936 3.69061
# Velocity P-wave (km/s) = 5.34443 6.50030 5.95050
#
# Compressibility (1/GPa) = 0.02921546
#
# Stress axis : x y z
#
# Youngs Moduli (GPa) = 76.33757 121.68717 45.12503
#
# Poissons Ratio (x) = -0.00678 0.12538
# Poissons Ratio (y) = -0.00426 0.19894
# Poissons Ratio (z) = 0.21211 0.53646
#
# Static dielectric constant tensor:
#      x y z
#    x 4.997380 -0.242220 -0.217240 
#    y -0.242220 4.625260 -0.108630 
#    z -0.217240 -0.108630 5.382260 
# 
# 
# High freq. dielectric constant tensor:
#      x y z
#    x 2.061200 0.004830 0.001600 
#    y 0.004830 2.112910 0.002400 
#    z 0.001600 0.002400 2.074470 
# 
# From -- ./inp_files/314847.got.cif
#   From: 2010.06.25/outbox.cif.g09.slc.cpg/sg2_158_cif.got.tgz:314847.got - 2010.06.27 13:26:56.
