data_PCOD8044537
_publ_section_title
;
Structure prediction by ZEFSAII (Michael W. Deem and Ramdas Pophale) SiO2 
 PCOD8044537
Probable space group: P -1
;
_chemical_formula_sum "Si O2"
_cell_formula_units_Z 14
_cell_length_a 16.952318
_cell_length_b 12.892551
_cell_length_c 11.751066
_cell_angle_alpha 144.455000
_cell_angle_beta 41.600979
_cell_angle_gamma 155.873204
_cell_volume 610.152424
_symmetry_space_group_name_H-M "P -1"
_symmetry_group_IT_number 2
_symmetry_cell_setting 'triclinic'
loop_
_space_group_symop_operation_xyz
x,y,z
-x,-y,-z
loop_
_atom_site_type_symbol
_atom_site_label
_atom_site_fract_x
_atom_site_fract_y
_atom_site_fract_z
Si Si1 0.217939 0.821173 0.554028
Si Si2 0.854111 0.864619 0.136653
Si Si3 0.830413 0.371037 0.942289
Si Si4 0.090367 0.183861 0.388288
Si Si5 0.595163 0.224836 0.864594
Si Si6 0.112671 0.910069 0.266030
Si Si7 0.782839 0.281490 0.287688
O O1 0.342562 0.845755 0.359560
O O2 0.287309 0.887793 0.669170
O O3 0.000000 0.500000 0.500000
O O4 0.236118 0.045328 0.691538
O O5 0.680631 0.519326 0.008171
O O6 0.976614 0.977041 0.218064
O O7 0.000000 0.000000 0.000000
O O8 0.002804 0.525641 0.805769
O O9 0.652017 0.232181 0.937318
O O10 0.760163 0.112118 0.856954
O O11 0.906906 0.602871 0.159206
O O12 0.224227 0.510990 0.506282
O O13 0.928985 0.036356 0.524674
O O14 0.214347 0.164215 0.291450
O O15 0.362952 0.957800 0.867009
#
# Coordination Sequence:
#
# PCOD8044537 Si02
#       7
#     2   2   2   2   2   2   2
#     4  12  21  40  63  91 128 168 206 254 315 370
#     4  12  22  38  69  95 123 170 210 255 313 377
#     4  10  19  40  63  89 121 163 211 257 315 365
#     4  10  19  38  62  93 122 164 212 250 316 373
#     4  12  24  41  64  94 130 164 208 265 312 371
#     4   9  19  35  67  86 118 172 206 253 312 372
#     4  11  23  40  63  92 129 163 206 263 315 370
#
# _framework density 22.945087000000001
#
# number of rings (size 3 to 8) (size 9 to 14) (size 15 to 20)
#    0.000    1.143    5.714    1.286    0.000    0.571 
#    2.571    7.143    0.000    0.000    0.000    0.000 
#    0.000    0.000    0.000    0.000    0.000    0.000 
#
# Total GULP energy -173576.556119 kJ/mol
# GULP energy per Si atom -12398.325437 kJ/mol
# Density = 2.289286 g / cm^3
# Si number density = 22.945087 Si / 1000 Ang^3
#
#
#
# Elastic Constant Matrix: (Units=GPa)
#
#
# Indices 1 2 3 4 5 6 
#
# 1 150.6919 26.1818 31.1616 15.1111 -0.3073 -16.8003
# 2 26.1818 31.6556 11.6188 20.8274 -4.4208 -1.8784
# 3 31.1616 11.6188 104.3881 13.3741 -2.1379 -12.2573
# 4 15.1111 20.8274 13.3741 33.1091 -11.2408 6.6378
# 5 -0.3073 -4.4208 -2.1379 -11.2408 49.7644 12.2274
# 6 -16.8003 -1.8784 -12.2573 6.6378 12.2274 33.7788
#
#
#
# Elastic Compliance Matrix: (Units=1/GPa)
#
#
# Indices 1 2 3 4 5 6 
#
# 1 0.008506 -0.005727 -0.001260 -0.001289 -0.001880 0.004389
# 2 -0.005727 0.063766 0.001388 -0.042864 -0.006979 0.012150
# 3 -0.001260 0.001388 0.011299 -0.006810 -0.002347 0.005739
# 4 -0.001289 -0.042864 -0.006810 0.072149 0.018685 -0.026437
# 5 -0.001880 -0.006979 -0.002347 0.018685 0.027462 -0.015787
# 6 0.004389 0.012150 0.005739 -0.026437 -0.015787 0.045455
#
#
# Mechanical properties :
#
#
# Convention : Reuss Voigt Hill
#
# Bulk Modulus (GPa) = 13.81735 47.18445 30.50090
# Shear Modulus (GPa) = 18.94221 37.84867 28.39544
#
# Velocity S-wave (km/s) = 2.87635 4.06585 3.52168
# Velocity P-wave (km/s) = 4.13112 6.53071 5.46427
#
# Compressibility (1/GPa) = 0.07237279
#
# Stress axis : x y z
#
# Youngs Moduli (GPa) = 117.55912 15.68243 88.49967
#
# Poissons Ratio (x) = 0.08982 0.11150
# Poissons Ratio (y) = 0.67328 -0.12281
# Poissons Ratio (z) = 0.14811 -0.02176
#
# Static dielectric constant tensor:
#      x y z
#    x 4.657650 -0.352480 -0.137010 
#    y -0.352480 3.740710 0.145630 
#    z -0.137010 0.145630 4.386350 
# 
# 
# High freq. dielectric constant tensor:
#      x y z
#    x 1.926980 -0.027520 0.003570 
#    y -0.027520 1.860470 0.005520 
#    z 0.003570 0.005520 1.923720 
# 
# From -- ./inp_files/351617.got.cif
#   From: 2010.06.25/outbox.cif.g09.slc.cpg/sg2_176_cif.got.tgz:351617.got - 2010.06.27 13:26:56.
