data_PCOD8044050
_publ_section_title
;
Structure prediction by ZEFSAII (Michael W. Deem and Ramdas Pophale) SiO2 
 PCOD8044050
Probable space group: P -1
;
_chemical_formula_sum "Si O2"
_cell_formula_units_Z 14
_cell_length_a 26.353740
_cell_length_b 9.258614
_cell_length_c 12.796882
_cell_angle_alpha 34.261497
_cell_angle_beta 26.821240
_cell_angle_gamma 29.720633
_cell_volume 679.747441
_symmetry_space_group_name_H-M "P -1"
_symmetry_group_IT_number 2
_symmetry_cell_setting 'triclinic'
loop_
_space_group_symop_operation_xyz
x,y,z
-x,-y,-z
loop_
_atom_site_type_symbol
_atom_site_label
_atom_site_fract_x
_atom_site_fract_y
_atom_site_fract_z
Si Si1 0.584576 0.430150 0.284579
Si Si2 0.969290 0.176915 0.846211
Si Si3 0.964494 0.216778 0.337291
Si Si4 0.583837 0.697533 0.459977
Si Si5 0.208299 0.857634 0.470792
Si Si6 0.700659 0.741141 0.001348
Si Si7 0.848363 0.866776 0.127719
O O1 0.500000 0.500000 0.500000
O O2 0.496716 0.473060 0.317207
O O3 0.649936 0.635498 0.056369
O O4 0.692797 0.078922 0.290911
O O5 0.106883 0.119326 0.580603
O O6 0.857624 0.521270 0.862057
O O7 0.000000 0.000000 0.000000
O O8 0.916921 0.026814 0.955347
O O9 0.872646 0.156743 0.468146
O O10 0.880785 0.568540 0.310302
O O11 0.000000 0.000000 0.500000
O O12 0.096351 0.183857 0.062604
O O13 0.713389 0.467091 0.423731
O O14 0.622979 0.775586 0.230085
O O15 0.500000 0.000000 0.500000
O O16 0.315198 0.940820 0.186833
#
# Coordination Sequence:
#
# PCOD8044050 Si02
#       7
#     2   2   2   2   2   2   2
#     4   9  20  41  61  84 116 162 200 237 293 347
#     4  10  19  37  63  86 116 152 190 245 304 347
#     4  10  22  37  59  89 120 151 188 243 305 356
#     4  11  23  40  63  84 120 164 202 244 289 349
#     4  11  23  37  62  93 116 154 200 244 301 353
#     4  10  22  40  61  88 123 152 199 250 295 357
#     4   9  20  39  59  84 117 152 194 238 292 355
#
# _framework density 20.595884999999999
#
# number of rings (size 3 to 8) (size 9 to 14) (size 15 to 20)
#    0.000    2.000    1.429    1.286    2.000    3.429 
#    0.000    2.857    0.000    0.000    0.000    0.000 
#    0.000    0.000    0.000    0.000    0.000    0.000 
#
# Total GULP energy -173446.224085 kJ/mol
# GULP energy per Si atom -12389.016006 kJ/mol
# Density = 2.054901 g / cm^3
# Si number density = 20.595885 Si / 1000 Ang^3
#
#
#
# Elastic Constant Matrix: (Units=GPa)
#
#
# Indices 1 2 3 4 5 6 
#
# 1 92.8829 27.5909 29.2647 5.5170 1.8146 -10.0118
# 2 27.5909 87.3822 42.1410 14.4757 6.6722 4.9473
# 3 29.2647 42.1410 90.9484 -0.6971 2.1209 -4.7756
# 4 5.5170 14.4757 -0.6971 37.7414 -1.4945 2.8693
# 5 1.8146 6.6722 2.1209 -1.4945 27.7757 -1.1851
# 6 -10.0118 4.9473 -4.7756 2.8693 -1.1851 28.5408
#
#
#
# Elastic Compliance Matrix: (Units=1/GPa)
#
#
# Indices 1 2 3 4 5 6 
#
# 1 0.013042 -0.002962 -0.002587 -0.001174 0.000198 0.004782
# 2 -0.002962 0.017556 -0.007391 -0.006226 -0.004002 -0.004859
# 3 -0.002587 -0.007391 0.015393 0.003337 0.001062 0.002658
# 4 -0.001174 -0.006226 0.003337 0.029351 0.002828 -0.001608
# 5 0.000198 -0.004002 0.001062 0.002828 0.037116 0.002198
# 6 0.004782 -0.004859 0.002658 -0.001608 0.002198 0.038255
#
#
# Mechanical properties :
#
#
# Convention : Reuss Voigt Hill
#
# Bulk Modulus (GPa) = 49.72330 52.13409 50.92870
# Shear Modulus (GPa) = 27.27830 30.29270 28.78550
#
# Velocity S-wave (km/s) = 3.64325 3.83928 3.74255
# Velocity P-wave (km/s) = 6.47244 6.70979 6.59218
#
# Compressibility (1/GPa) = 0.02011130
#
# Stress axis : x y z
#
# Youngs Moduli (GPa) = 76.67273 56.96184 64.96660
#
# Poissons Ratio (x) = 0.16872 0.16805
# Poissons Ratio (y) = 0.22711 0.48016
# Poissons Ratio (z) = 0.19833 0.42100
#
# Static dielectric constant tensor:
#      x y z
#    x 3.820790 0.083500 -0.252050 
#    y 0.083500 3.953790 0.362330 
#    z -0.252050 0.362330 3.957530 
# 
# 
# High freq. dielectric constant tensor:
#      x y z
#    x 1.803020 0.006790 -0.011360 
#    y 0.006790 1.805380 0.012100 
#    z -0.011360 0.012100 1.801370 
# 
# From -- ./inp_files/71804.got.cif
#   From: 2010.06.25/outbox.cif.g09.slc.cpg/sg2_36_cif.got.tgz:71804.got - 2010.06.27 13:26:56.
