data_PCOD8044971
_publ_section_title
;
Structure prediction by ZEFSAII (Michael W. Deem and Ramdas Pophale) SiO2 
 PCOD8044971
Probable space group: P 2
;
_chemical_formula_sum "Si O2"
_cell_formula_units_Z 16
_cell_length_a 11.329046
_cell_length_b 7.635384
_cell_length_c 12.871260
_cell_angle_alpha 90.000000
_cell_angle_beta 45.310911
_cell_angle_gamma 90.000000
_cell_volume 791.542451
_symmetry_space_group_name_H-M "P 2"
_symmetry_group_IT_number 3
_symmetry_cell_setting 'monoclinic'
loop_
_space_group_symop_operation_xyz
x,y,z
-x,y,-z
loop_
_atom_site_type_symbol
_atom_site_label
_atom_site_fract_x
_atom_site_fract_y
_atom_site_fract_z
Si Si1 0.673777 0.063570 0.831421
Si Si2 0.995155 0.941303 0.272536
Si Si3 0.845782 0.416335 0.665538
Si Si4 0.952142 0.551124 0.273670
Si Si5 0.652498 0.566489 0.604456
Si Si6 0.092549 0.232871 0.839317
Si Si7 0.533047 0.265155 0.363678
Si Si8 0.674667 0.952130 0.599927
O O1 0.728426 0.260164 0.773611
O O2 0.815318 0.963400 0.808782
O O3 0.649037 0.969194 0.737699
O O4 0.500000 0.061509 0.000000
O O5 0.971759 0.754528 0.229134
O O6 0.870318 0.950657 0.448695
O O7 0.948673 0.096157 0.224495
O O8 0.740977 0.553941 0.661977
O O9 0.000000 0.345348 0.500000
O O10 0.901738 0.513195 0.734979
O O11 0.777884 0.508519 0.435947
O O12 0.958908 0.427152 0.168309
O O13 0.500883 0.429574 0.691904
O O14 0.592696 0.764701 0.621907
O O15 0.278823 0.210867 0.762762
O O16 0.000000 0.182037 0.000000
O O17 0.500000 0.328848 0.500000
O O18 0.416940 0.101726 0.407595
#
# Coordination Sequence:
#
# PCOD8044971 Si02
#       8
#     2   2   2   2   2   2   2   2
#     4  12  25  40  66  99 133 165 206 266 331 385
#     4  11  23  44  70  94 126 170 217 262 318 387
#     4  10  19  38  70  95 122 162 211 264 323 384
#     4  10  21  41  68  96 122 163 216 264 318 378
#     4  10  21  39  68 100 123 157 215 273 312 371
#     4  12  27  43  64  93 134 176 215 261 317 375
#     4  12  23  41  66  97 128 169 222 266 305 370
#     4  11  23  42  70  97 126 169 213 267 320 374
#
# _framework density 20.213698000000001
#
# number of rings (size 3 to 8) (size 9 to 14) (size 15 to 20)
#    0.000    1.000    5.000    1.875    1.750    4.000 
#    2.250    1.250    0.000    0.000    0.000    0.000 
#    0.000    0.000    0.000    0.000    0.000    0.000 
#
# Total GULP energy -198410.563471 kJ/mol
# GULP energy per Si atom -12400.660217 kJ/mol
# Density = 2.016769 g / cm^3
# Si number density = 20.213698 Si / 1000 Ang^3
#
#
#
# Elastic Constant Matrix: (Units=GPa)
#
#
# Indices 1 2 3 4 5 6 
#
# 1 104.5322 37.8726 28.9293 0.0000 -9.4796 0.0000
# 2 37.8726 133.3793 25.3838 0.0000 2.1815 0.0000
# 3 28.9293 25.3838 104.6601 0.0000 -10.1638 0.0000
# 4 0.0000 0.0000 0.0000 10.1958 0.0000 -0.4078
# 5 -9.4796 2.1815 -10.1638 0.0000 24.5949 0.0000
# 6 0.0000 0.0000 0.0000 -0.4078 0.0000 4.7894
#
#
#
# Elastic Compliance Matrix: (Units=1/GPa)
#
#
# Indices 1 2 3 4 5 6 
#
# 1 0.011566 -0.002946 -0.002109 0.000000 0.003848 0.000000
# 2 -0.002946 0.008667 -0.001534 0.000000 -0.002538 0.000000
# 3 -0.002109 -0.001534 0.010881 0.000000 0.003820 0.000000
# 4 0.000000 0.000000 0.000000 0.098415 0.000000 0.008380
# 5 0.003848 -0.002538 0.003820 0.000000 0.043946 0.000000
# 6 0.000000 0.000000 0.000000 0.008380 0.000000 0.209508
#
#
# Mechanical properties :
#
#
# Convention : Reuss Voigt Hill
#
# Bulk Modulus (GPa) = 55.75316 58.54922 57.15119
# Shear Modulus (GPa) = 12.43347 24.60839 18.52093
#
# Velocity S-wave (km/s) = 2.48281 3.49293 3.03026
# Velocity P-wave (km/s) = 5.98840 6.73019 6.37010
#
# Compressibility (1/GPa) = 0.01793620
#
# Stress axis : x y z
#
# Youngs Moduli (GPa) = 86.45812 115.37496 91.90529
#
# Poissons Ratio (x) = 0.33987 0.19382
# Poissons Ratio (y) = 0.25469 0.14102
# Poissons Ratio (z) = 0.18234 0.17703
#
# Static dielectric constant tensor:
#      x y z
#    x 3.798290 0.000000 0.010310 
#    y 0.000000 3.784140 0.000000 
#    z 0.010310 0.000000 3.466250 
# 
# 
# High freq. dielectric constant tensor:
#      x y z
#    x 1.795940 0.000000 0.004110 
#    y 0.000000 1.801510 0.000000 
#    z 0.004110 0.000000 1.764780 
# 
# From -- ./inp_files/11706.got.cif
#   From: 2010.03.12/outbox.cif.g09.slc.cpg/sg3_6_cif.got.tgz:11706.got - 2010.03.31 09:20:49.
