data_PCOD8044736
_publ_section_title
;
Structure prediction by ZEFSAII (Michael W. Deem and Ramdas Pophale) SiO2 
 PCOD8044736
Probable space group: P -1
;
_chemical_formula_sum "Si O2"
_cell_formula_units_Z 16
_cell_length_a 15.626132
_cell_length_b 24.953611
_cell_length_c 17.893646
_cell_angle_alpha 20.724116
_cell_angle_beta 28.082162
_cell_angle_gamma 18.613983
_cell_volume 787.571359
_symmetry_space_group_name_H-M "P -1"
_symmetry_group_IT_number 2
_symmetry_cell_setting 'triclinic'
loop_
_space_group_symop_operation_xyz
x,y,z
-x,-y,-z
loop_
_atom_site_type_symbol
_atom_site_label
_atom_site_fract_x
_atom_site_fract_y
_atom_site_fract_z
Si Si1 0.919706 0.357174 0.895445
Si Si2 0.544454 0.047605 0.156205
Si Si3 0.596403 0.610421 0.294667
Si Si4 0.527275 0.223182 0.210911
Si Si5 0.653044 0.063981 0.801612
Si Si6 0.150417 0.690018 0.153081
Si Si7 0.595870 0.749158 0.396835
Si Si8 0.770177 0.781899 0.672201
O O1 0.655241 0.594726 0.821372
O O2 0.848243 0.308894 0.939084
O O3 0.131167 0.359678 0.710113
O O4 0.041107 0.160621 0.117202
O O5 0.346166 0.161151 0.229900
O O6 0.476309 0.948763 0.283766
O O7 0.508668 0.225211 0.907466
O O8 0.850915 0.849692 0.207435
O O9 0.500000 0.500000 0.500000
O O10 0.476111 0.742145 0.293093
O O11 0.913952 0.427723 0.292894
O O12 0.344935 0.283388 0.203904
O O13 0.699235 0.983614 0.425927
O O14 0.734231 0.221251 0.022871
O O15 0.627764 0.151106 0.624508
O O16 0.500000 0.000000 0.000000
O O17 0.344551 0.438679 0.359019
#
# Coordination Sequence:
#
# PCOD8044736 Si02
#       8
#     2   2   2   2   2   2   2   2
#     4  10  19  38  66  86 126 164 216 262 318 372
#     4  11  22  41  63  91 130 171 212 258 322 385
#     4  12  24  42  67  94 128 171 217 260 318 389
#     4  11  24  40  62  94 125 170 213 263 318 382
#     4  10  19  39  66  91 122 169 211 260 317 374
#     4  11  21  38  64  96 127 158 217 273 313 368
#     4  10  20  36  66  96 121 166 211 268 323 369
#     4  11  25  41  62  89 132 173 207 255 328 389
#
# _framework density 20.315619999999999
#
# number of rings (size 3 to 8) (size 9 to 14) (size 15 to 20)
#    0.000    1.250    3.750    6.000    0.000    2.500 
#    0.000    0.625    0.000    0.000    0.000    0.000 
#    0.000    0.000    0.000    0.000    0.000    0.000 
#
# Total GULP energy -198446.186675 kJ/mol
# GULP energy per Si atom -12402.886667 kJ/mol
# Density = 2.026938 g / cm^3
# Si number density = 20.315620 Si / 1000 Ang^3
#
#
#
# Elastic Constant Matrix: (Units=GPa)
#
#
# Indices 1 2 3 4 5 6 
#
# 1 96.1827 14.9288 58.9374 1.8553 1.5324 -12.6015
# 2 14.9288 37.1462 13.6385 -12.8723 -3.5684 4.5077
# 3 58.9374 13.6385 124.2967 -8.1156 -1.8167 -12.7517
# 4 1.8553 -12.8723 -8.1156 26.8664 -2.7786 2.9616
# 5 1.5324 -3.5684 -1.8167 -2.7786 38.1375 -8.9484
# 6 -12.6015 4.5077 -12.7517 2.9616 -8.9484 21.9468
#
#
#
# Elastic Compliance Matrix: (Units=1/GPa)
#
#
# Indices 1 2 3 4 5 6 
#
# 1 0.017204 -0.008299 -0.006917 -0.008233 -0.000400 0.008512
# 2 -0.008299 0.039970 -0.000602 0.021446 0.001992 -0.015406
# 3 -0.006917 -0.000602 0.012003 0.003633 0.001854 0.003392
# 4 -0.008233 0.021446 0.003633 0.050885 0.003272 -0.012554
# 5 -0.000400 0.001992 0.001854 0.003272 0.029579 0.012057
# 6 0.008512 -0.015406 0.003392 -0.012554 0.012057 0.062197
#
#
# Mechanical properties :
#
#
# Convention : Reuss Voigt Hill
#
# Bulk Modulus (GPa) = 26.63728 48.07054 37.35391
# Shear Modulus (GPa) = 19.53221 28.73152 24.13187
#
# Velocity S-wave (km/s) = 3.10407 3.76474 3.45026
# Velocity P-wave (km/s) = 5.09776 6.52771 5.85654
#
# Compressibility (1/GPa) = 0.03754137
#
# Stress axis : x y z
#
# Youngs Moduli (GPa) = 58.12628 25.01907 83.30928
#
# Poissons Ratio (x) = 0.20763 0.57626
# Poissons Ratio (y) = 0.48238 0.05013
# Poissons Ratio (z) = 0.40207 0.01505
#
# Static dielectric constant tensor:
#      x y z
#    x 4.061850 -0.189200 0.158170 
#    y -0.189200 3.636640 -0.241320 
#    z 0.158170 -0.241320 3.769560 
# 
# 
# High freq. dielectric constant tensor:
#      x y z
#    x 1.804900 -0.004090 0.005000 
#    y -0.004090 1.784610 -0.018760 
#    z 0.005000 -0.018760 1.796020 
# 
# From -- ./inp_files/332394.got.cif
#   From: 2010.06.25/outbox.cif.g09.slc.cpg/sg2_167_cif.got.tgz:332394.got - 2010.06.27 13:26:56.
