data_PCOD8044030
_publ_section_title
;
Structure prediction by ZEFSAII (Michael W. Deem and Ramdas Pophale) SiO2 
 PCOD8044030
Probable space group: P -1
;
_chemical_formula_sum "Si O2"
_cell_formula_units_Z 14
_cell_length_a 12.112962
_cell_length_b 10.514953
_cell_length_c 10.133689
_cell_angle_alpha 49.543540
_cell_angle_beta 69.937632
_cell_angle_gamma 109.847249
_cell_volume 569.774806
_symmetry_space_group_name_H-M "P -1"
_symmetry_group_IT_number 2
_symmetry_cell_setting 'triclinic'
loop_
_space_group_symop_operation_xyz
x,y,z
-x,-y,-z
loop_
_atom_site_type_symbol
_atom_site_label
_atom_site_fract_x
_atom_site_fract_y
_atom_site_fract_z
Si Si1 0.805360 0.366524 0.133351
Si Si2 0.652803 0.715967 0.023466
Si Si3 0.496827 0.209525 0.490148
Si Si4 0.706325 0.510112 0.617274
Si Si5 0.754131 0.882571 0.166773
Si Si6 0.012795 0.265419 0.413364
Si Si7 0.921555 0.499432 0.403804
O O1 0.688485 0.309077 0.346748
O O2 0.676324 0.087168 0.300119
O O3 0.855523 0.582025 0.873403
O O4 0.000000 0.500000 0.000000
O O5 0.544783 0.422466 0.232651
O O6 0.502896 0.703250 0.089248
O O7 0.738473 0.803557 0.077265
O O8 0.826586 0.937692 0.700128
O O9 0.431858 0.208770 0.660216
O O10 0.763241 0.740074 0.360017
O O11 0.861598 0.652722 0.570898
O O12 0.718690 0.361664 0.614372
O O13 0.942274 0.198876 0.902479
O O14 0.918035 0.346541 0.402914
O O15 0.000000 0.500000 0.500000
#
# Coordination Sequence:
#
# PCOD8044030 Si02
#       7
#     2   2   2   2   2   2   2
#     4  11  26  48  69  92 125 184 227 270 328 380
#     4  11  24  40  68 106 132 169 214 265 338 397
#     4  10  24  44  68  96 134 166 225 276 313 396
#     4  10  22  37  62  97 139 175 207 268 329 389
#     4  11  20  42  67 101 136 173 213 261 336 399
#     4  11  24  43  64  96 136 169 225 273 322 384
#     4  10  19  37  62  96 138 172 207 264 322 397
#
# _framework density 24.571111999999999
#
# number of rings (size 3 to 8) (size 9 to 14) (size 15 to 20)
#    0.000    1.429    4.286    2.143    0.000    8.000 
#    0.000    3.571    0.000    0.000    0.000    0.000 
#    0.000    0.000    0.000    0.000    0.000    0.000 
#
# Total GULP energy -173445.042441 kJ/mol
# GULP energy per Si atom -12388.931603 kJ/mol
# Density = 2.451519 g / cm^3
# Si number density = 24.571112 Si / 1000 Ang^3
#
#
#
# Elastic Constant Matrix: (Units=GPa)
#
#
# Indices 1 2 3 4 5 6 
#
# 1 124.1063 3.8699 27.5576 7.8796 -17.1125 -10.8933
# 2 3.8699 9.8767 25.8286 10.5310 6.7321 -10.4234
# 3 27.5576 25.8286 141.0730 -11.1490 -5.3110 6.7498
# 4 7.8796 10.5310 -11.1490 32.0806 -3.6885 -3.4731
# 5 -17.1125 6.7321 -5.3110 -3.6885 37.4746 1.1011
# 6 -10.8933 -10.4234 6.7498 -3.4731 1.1011 19.1619
#
#
#
# Elastic Compliance Matrix: (Units=1/GPa)
#
#
# Indices 1 2 3 4 5 6 
#
# 1 0.009070 -0.008276 0.000030 0.001217 0.005737 0.000535
# 2 -0.008276 -0.110034 0.029519 0.044046 0.026519 -0.068498
# 3 0.000030 0.029519 0.000021 -0.008841 -0.006593 0.014843
# 4 0.001217 0.044046 -0.008841 0.015790 -0.007969 0.031085
# 5 0.005737 0.026519 -0.006593 -0.007969 0.022314 0.017283
# 6 0.000535 -0.068498 0.014843 0.031085 0.017283 0.014642
#
#
# Mechanical properties :
#
#
# Convention : Reuss Voigt Hill
#
# Bulk Modulus (GPa) = -17.12422 43.28536 13.08057
# Shear Modulus (GPa) = -45.36817 32.26341 -6.55238
#
# Velocity S-wave (km/s) = -4.30164 3.62755 -1.63478
# Velocity P-wave (km/s) = 5.62641 5.93297 1.33109
#
# Compressibility (1/GPa) = -0.05839682
#
# Stress axis : x y z
#
# Youngs Moduli (GPa) = 110.25779 -9.08808 47657.33895
#
# Poissons Ratio (x) = -0.07521 -1.43230
# Poissons Ratio (y) = 0.91247 -1406.80151
# Poissons Ratio (z) = -0.00331 0.26827
#
# Static dielectric constant tensor:
#      x y z
#    x 4.544120 -0.726120 -0.111150 
#    y -0.726120 4.986520 0.046110 
#    z -0.111150 0.046110 4.735370 
# 
# 
# High freq. dielectric constant tensor:
#      x y z
#    x 1.976060 -0.031490 -0.008370 
#    y -0.031490 1.949490 0.004730 
#    z -0.008370 0.004730 1.994410 
# 
# From -- ./inp_files/427366.got.cif
#   From: 2010.06.25/outbox.cif.g09.slc.cpg/sg2_214_cif.got.tgz:427366.got - 2010.06.27 13:26:56.
