data_PCOD8044675
_publ_section_title
;
Structure prediction by ZEFSAII (Michael W. Deem and Ramdas Pophale) SiO2 
 PCOD8044675
Probable space group: P -1
;
_chemical_formula_sum "Si O2"
_cell_formula_units_Z 16
_cell_length_a 8.751557
_cell_length_b 11.165054
_cell_length_c 8.824562
_cell_angle_alpha 81.177609
_cell_angle_beta 81.231229
_cell_angle_gamma 117.994620
_cell_volume 727.046776
_symmetry_space_group_name_H-M "P -1"
_symmetry_group_IT_number 2
_symmetry_cell_setting 'triclinic'
loop_
_space_group_symop_operation_xyz
x,y,z
-x,-y,-z
loop_
_atom_site_type_symbol
_atom_site_label
_atom_site_fract_x
_atom_site_fract_y
_atom_site_fract_z
Si Si1 0.166419 0.428680 0.921551
Si Si2 0.824721 0.407971 0.842346
Si Si3 0.181286 0.039825 0.372991
Si Si4 0.668066 0.621812 0.369226
Si Si5 0.343825 0.108742 0.643720
Si Si6 0.985574 0.833036 0.792554
Si Si7 0.716373 0.183185 0.685733
Si Si8 0.048832 0.349226 0.443321
O O1 0.260153 0.553415 0.008694
O O2 0.062364 0.274668 0.042520
O O3 0.316171 0.438472 0.783584
O O4 0.027584 0.453498 0.842477
O O5 0.709875 0.243037 0.843638
O O6 0.829769 0.501126 0.681237
O O7 0.338029 0.115331 0.459334
O O8 0.179832 0.137960 0.217347
O O9 0.197624 0.917071 0.309652
O O10 0.000000 0.000000 0.500000
O O11 0.500000 0.500000 0.500000
O O12 0.639130 0.751644 0.314492
O O13 0.842827 0.674501 0.435311
O O14 0.521194 0.103113 0.657837
O O15 0.172670 0.975370 0.771337
O O16 0.018771 0.774587 0.644086
O O17 0.861643 0.325475 0.546399
#
# Coordination Sequence:
#
# PCOD8044675 Si02
#       8
#     2   2   2   2   2   2   2   2
#     4  10  24  44  69  94 137 179 223 274 340 400
#     4  10  23  41  65 101 129 182 226 270 335 396
#     4  10  19  38  64  98 132 175 223 273 326 390
#     4  12  25  43  69 104 129 174 229 279 334 401
#     4  11  23  38  65 107 133 169 230 276 329 390
#     4  10  21  43  68  96 133 181 220 268 338 396
#     4  12  21  37  68  99 137 172 226 275 327 394
#     4  11  20  40  71  91 135 178 224 277 324 395
#
# _framework density 22.006837999999998
#
# number of rings (size 3 to 8) (size 9 to 14) (size 15 to 20)
#    0.000    1.250    5.000    2.250    1.750    0.500 
#    0.000    6.250    2.750    0.000    0.000    0.000 
#    0.000    0.000    0.000    0.000    0.000    0.000 
#
# Total GULP energy -198311.900283 kJ/mol
# GULP energy per Si atom -12394.493768 kJ/mol
# Density = 2.195675 g / cm^3
# Si number density = 22.006838 Si / 1000 Ang^3
#
#
#
# Elastic Constant Matrix: (Units=GPa)
#
#
# Indices 1 2 3 4 5 6 
#
# 1 97.1821 38.1949 31.7525 2.8156 -2.6660 -4.6506
# 2 38.1949 118.2844 44.9592 29.2397 -18.3199 -13.2029
# 3 31.7525 44.9592 89.0542 11.6027 -17.5430 -4.9794
# 4 2.8156 29.2397 11.6027 31.9836 -6.3105 -2.8344
# 5 -2.6660 -18.3199 -17.5430 -6.3105 26.5858 -0.0921
# 6 -4.6506 -13.2029 -4.9794 -2.8344 -0.0921 38.3959
#
#
#
# Elastic Compliance Matrix: (Units=1/GPa)
#
#
# Indices 1 2 3 4 5 6 
#
# 1 0.012886 -0.004112 -0.003566 0.003297 -0.003112 -0.000079
# 2 -0.004112 0.014914 -0.003486 -0.010714 0.005033 0.003400
# 3 -0.003566 -0.003486 0.015862 -0.000732 0.007534 0.000390
# 4 0.003297 -0.010714 -0.000732 0.041463 0.002305 -0.000313
# 5 -0.003112 0.005033 0.007534 0.002305 0.046298 0.002612
# 6 -0.000079 0.003400 0.000390 -0.000313 0.002612 0.027238
#
#
# Mechanical properties :
#
#
# Convention : Reuss Voigt Hill
#
# Bulk Modulus (GPa) = 46.87000 59.37044 53.12022
# Shear Modulus (GPa) = 26.58152 32.03399 29.30776
#
# Velocity S-wave (km/s) = 3.47922 3.81942 3.65328
# Velocity P-wave (km/s) = 6.12243 6.81817 6.47964
#
# Compressibility (1/GPa) = 0.02133561
#
# Stress axis : x y z
#
# Youngs Moduli (GPa) = 77.60189 67.04961 63.04393
#
# Poissons Ratio (x) = 0.27567 0.22481
# Poissons Ratio (y) = 0.31906 0.21977
# Poissons Ratio (z) = 0.27672 0.23374
#
# Static dielectric constant tensor:
#      x y z
#    x 4.067990 -0.355540 0.250490 
#    y -0.355540 4.199850 0.190520 
#    z 0.250490 0.190520 3.992640 
# 
# 
# High freq. dielectric constant tensor:
#      x y z
#    x 1.858760 -0.020440 0.010770 
#    y -0.020440 1.875310 0.023490 
#    z 0.010770 0.023490 1.843990 
# 
# From -- ./inp_files/178842.got.cif
#   From: 2010.06.25/outbox.cif.g09.slc.cpg/sg2_90_cif.got.tgz:178842.got - 2010.06.27 13:26:56.
