data_PCOD8044217
_publ_section_title
;
Structure prediction by ZEFSAII (Michael W. Deem and Ramdas Pophale) SiO2 
 PCOD8044217
Probable space group: P -1
;
_chemical_formula_sum "Si O2"
_cell_formula_units_Z 16
_cell_length_a 10.577319
_cell_length_b 16.668753
_cell_length_c 12.260638
_cell_angle_alpha 45.119675
_cell_angle_beta 113.802023
_cell_angle_gamma 149.097283
_cell_volume 654.524183
_symmetry_space_group_name_H-M "P -1"
_symmetry_group_IT_number 2
_symmetry_cell_setting 'triclinic'
loop_
_space_group_symop_operation_xyz
x,y,z
-x,-y,-z
loop_
_atom_site_type_symbol
_atom_site_label
_atom_site_fract_x
_atom_site_fract_y
_atom_site_fract_z
Si Si1 0.813374 0.615709 0.931615
Si Si2 0.165922 0.199588 0.065417
Si Si3 0.400815 0.768452 0.512207
Si Si4 0.008568 0.165414 0.433661
Si Si5 0.053386 0.200232 0.659482
Si Si6 0.060092 0.536355 0.820985
Si Si7 0.534022 0.108883 0.182482
Si Si8 0.581816 0.453203 0.359780
O O1 0.965711 0.828982 0.847982
O O2 0.902147 0.677331 0.776321
O O3 0.461428 0.358454 0.064180
O O4 0.924576 0.586503 0.056636
O O5 0.952965 0.941904 0.205576
O O6 0.228479 0.330062 0.863035
O O7 0.138038 0.625242 0.637605
O O8 0.309449 0.598271 0.564982
O O9 0.495200 0.945375 0.302551
O O10 0.658231 0.893466 0.555139
O O11 0.226156 0.213395 0.447553
O O12 0.058919 0.253282 0.487348
O O13 0.346271 0.453590 0.581589
O O14 0.772620 0.047092 0.772562
O O15 0.296969 0.765680 0.763190
O O16 0.723029 0.312598 0.959487
#
# Coordination Sequence:
#
# PCOD8044217 Si02
#       8
#     2   2   2   2   2   2   2   2
#     4  10  19  37  66 100 123 162 219 282 327 374
#     4  10  21  39  66  93 128 167 219 276 330 382
#     4  12  23  43  70  99 128 173 226 278 325 380
#     4  11  24  39  68 102 128 167 220 278 333 385
#     4  12  25  43  61  97 140 177 211 266 337 400
#     4  11  21  41  65 103 126 162 226 281 323 377
#     4  11  25  39  68  97 135 173 221 272 327 390
#     4  11  26  42  66  95 135 177 215 268 335 404
#
# _framework density 24.445238
#
# number of rings (size 3 to 8) (size 9 to 14) (size 15 to 20)
#    0.000    1.000    5.000    1.500    5.250    0.500 
#    0.000    0.625    0.000    0.000    0.000    0.000 
#    0.000    0.000    0.000    0.000    0.000    0.000 
#
# Total GULP energy -198293.582443 kJ/mol
# GULP energy per Si atom -12393.348903 kJ/mol
# Density = 2.438960 g / cm^3
# Si number density = 24.445238 Si / 1000 Ang^3
#
#
#
# Elastic Constant Matrix: (Units=GPa)
#
#
# Indices 1 2 3 4 5 6 
#
# 1 91.2867 18.8803 16.2911 -13.9168 8.3298 -21.3691
# 2 18.8803 62.3982 17.9023 0.7569 4.3233 -24.0199
# 3 16.2911 17.9023 80.6007 -0.6178 -4.6939 -13.5342
# 4 -13.9168 0.7569 -0.6178 23.9339 -8.3226 -0.4510
# 5 8.3298 4.3233 -4.6939 -8.3226 40.1050 -7.7351
# 6 -21.3691 -24.0199 -13.5342 -0.4510 -7.7351 37.4151
#
#
#
# Elastic Compliance Matrix: (Units=1/GPa)
#
#
# Indices 1 2 3 4 5 6 
#
# 1 0.014412 -0.001401 -0.001359 0.008562 0.000119 0.006969
# 2 -0.001401 0.021953 -0.002559 -0.001450 -0.000306 0.012287
# 3 -0.001359 -0.002559 0.013977 0.000748 0.002978 0.003262
# 4 0.008562 -0.001450 0.000748 0.050538 0.010297 0.006968
# 5 0.000119 -0.000306 0.002978 0.010297 0.028783 0.007024
# 6 0.006969 0.012287 0.003262 0.006968 0.007024 0.041311
#
#
# Mechanical properties :
#
#
# Convention : Reuss Voigt Hill
#
# Bulk Modulus (GPa) = 25.18577 37.82590 31.50583
# Shear Modulus (GPa) = 25.66143 32.37161 29.01652
#
# Velocity S-wave (km/s) = 3.24350 3.64297 3.44903
# Velocity P-wave (km/s) = 4.93481 5.76215 5.36445
#
# Compressibility (1/GPa) = 0.03970496
#
# Stress axis : x y z
#
# Youngs Moduli (GPa) = 69.38443 45.55280 71.54746
#
# Poissons Ratio (x) = 0.06380 0.09725
# Poissons Ratio (y) = 0.09717 0.18306
# Poissons Ratio (z) = 0.09431 0.11655
#
# Static dielectric constant tensor:
#      x y z
#    x 4.632950 -0.106020 -0.357630 
#    y -0.106020 4.008370 -0.057240 
#    z -0.357630 -0.057240 4.538650 
# 
# 
# High freq. dielectric constant tensor:
#      x y z
#    x 1.985900 -0.011910 -0.011350 
#    y -0.011910 1.923190 -0.006120 
#    z -0.011350 -0.006120 1.974320 
# 
# From -- ./inp_files/436646.got.cif
#   From: 2010.06.25/outbox.cif.g09.slc.cpg/sg2_219_cif.got.tgz:436646.got - 2010.06.27 13:26:56.
