data_PCOD8044004
_publ_section_title
;
Structure prediction by ZEFSAII (Michael W. Deem and Ramdas Pophale) SiO2 
 PCOD8044004
Probable space group: P -1
;
_chemical_formula_sum "Si O2"
_cell_formula_units_Z 14
_cell_length_a 8.576777
_cell_length_b 9.186528
_cell_length_c 18.190303
_cell_angle_alpha 58.934129
_cell_angle_beta 148.609954
_cell_angle_gamma 123.487028
_cell_volume 619.246408
_symmetry_space_group_name_H-M "P -1"
_symmetry_group_IT_number 2
_symmetry_cell_setting 'triclinic'
loop_
_space_group_symop_operation_xyz
x,y,z
-x,-y,-z
loop_
_atom_site_type_symbol
_atom_site_label
_atom_site_fract_x
_atom_site_fract_y
_atom_site_fract_z
Si Si1 0.466389 0.141315 0.849708
Si Si2 0.200645 0.421122 0.447921
Si Si3 0.140754 0.744251 0.421522
Si Si4 0.878604 0.209346 0.128590
Si Si5 0.568275 0.953252 0.644055
Si Si6 0.585939 0.185892 0.718984
Si Si7 0.147777 0.510361 0.841749
O O1 0.594672 0.147879 0.817996
O O2 0.206658 0.244958 0.731805
O O3 0.359959 0.937210 0.882041
O O4 0.738021 0.243658 0.985224
O O5 0.500000 0.500000 0.500000
O O6 0.162406 0.545860 0.468452
O O7 0.272651 0.247276 0.557415
O O8 0.899361 0.392728 0.279993
O O9 0.245046 0.818679 0.525820
O O10 0.373022 0.864651 0.424883
O O11 0.961880 0.387907 0.161690
O O12 0.184253 0.151238 0.249902
O O13 0.564447 0.002606 0.715334
O O14 0.912366 0.318422 0.793404
O O15 0.500000 0.500000 0.000000
#
# Coordination Sequence:
#
# PCOD8044004 Si02
#       7
#     2   2   2   2   2   2   2
#     4  10  24  41  64  90 129 159 214 256 307 368
#     4  10  19  37  63  91 124 161 202 253 313 359
#     4  10  19  37  62  89 123 167 202 246 309 379
#     4  10  23  43  65  86 124 176 200 248 322 372
#     4  10  20  36  64  90 120 165 210 247 302 374
#     4  11  24  40  63  97 125 158 210 268 298 362
#     4  11  23  41  67  94 123 164 209 253 312 374
#
# _framework density 22.608124
#
# number of rings (size 3 to 8) (size 9 to 14) (size 15 to 20)
#    0.000    1.714    2.857    2.571    8.000    2.286 
#    0.000    0.000    0.000    0.000    0.000    0.000 
#    0.000    0.000    0.000    0.000    0.000    0.000 
#
# Total GULP energy -173580.763342 kJ/mol
# GULP energy per Si atom -12398.625953 kJ/mol
# Density = 2.255667 g / cm^3
# Si number density = 22.608124 Si / 1000 Ang^3
#
#
#
# Elastic Constant Matrix: (Units=GPa)
#
#
# Indices 1 2 3 4 5 6 
#
# 1 81.3405 32.2801 33.0180 -2.6513 -21.2904 -29.5755
# 2 32.2801 61.6518 34.1378 1.8924 -8.5064 -42.8020
# 3 33.0180 34.1378 150.0669 7.6122 -10.6221 -12.8581
# 4 -2.6513 1.8924 7.6122 23.7151 -12.4370 -2.3845
# 5 -21.2904 -8.5064 -10.6221 -12.4370 35.1309 5.7958
# 6 -29.5755 -42.8020 -12.8581 -2.3845 5.7958 42.9578
#
#
#
# Elastic Compliance Matrix: (Units=1/GPa)
#
#
# Indices 1 2 3 4 5 6 
#
# 1 0.023271 0.003742 -0.004076 0.013602 0.015762 0.017159
# 2 0.003742 0.064588 -0.009996 0.008802 0.007540 0.063410
# 3 -0.004076 -0.009996 0.009061 -0.004709 -0.002164 -0.010023
# 4 0.013602 0.008802 -0.004709 0.060688 0.027738 0.016352
# 5 0.015762 0.007540 -0.002164 0.027738 0.046875 0.012931
# 6 0.017159 0.063410 -0.010023 0.016352 0.012931 0.094435
#
#
# Mechanical properties :
#
#
# Convention : Reuss Voigt Hill
#
# Bulk Modulus (GPa) = 13.11273 54.65900 33.88586
# Shear Modulus (GPa) = 14.49285 33.26898 23.88091
#
# Velocity S-wave (km/s) = 2.53464 3.84024 3.25360
# Velocity P-wave (km/s) = 3.79189 6.62514 5.39773
#
# Compressibility (1/GPa) = 0.07626179
#
# Stress axis : x y z
#
# Youngs Moduli (GPa) = 42.97166 15.48264 110.36066
#
# Poissons Ratio (x) = -0.05793 0.44978
# Poissons Ratio (y) = -0.16079 1.10314
# Poissons Ratio (z) = 0.17513 0.15476
#
# Static dielectric constant tensor:
#      x y z
#    x 3.840750 -0.210230 -0.198260 
#    y -0.210230 4.019540 0.016970 
#    z -0.198260 0.016970 4.504560 
# 
# 
# High freq. dielectric constant tensor:
#      x y z
#    x 1.880870 -0.029520 -0.003670 
#    y -0.029520 1.873680 0.007170 
#    z -0.003670 0.007170 1.904190 
# 
# From -- ./inp_files/176766.got.cif
#   From: 2010.06.25/outbox.cif.g09.slc.cpg/sg2_89_cif.got.tgz:176766.got - 2010.06.27 13:26:56.
