data_PCOD8044347
_publ_section_title
;
Structure prediction by ZEFSAII (Michael W. Deem and Ramdas Pophale) SiO2 
 PCOD8044347
Probable space group: P -1
;
_chemical_formula_sum "Si O2"
_cell_formula_units_Z 16
_cell_length_a 16.293696
_cell_length_b 19.317065
_cell_length_c 8.965646
_cell_angle_alpha 41.693978
_cell_angle_beta 147.810672
_cell_angle_gamma 148.256465
_cell_volume 787.221723
_symmetry_space_group_name_H-M "P -1"
_symmetry_group_IT_number 2
_symmetry_cell_setting 'triclinic'
loop_
_space_group_symop_operation_xyz
x,y,z
-x,-y,-z
loop_
_atom_site_type_symbol
_atom_site_label
_atom_site_fract_x
_atom_site_fract_y
_atom_site_fract_z
Si Si1 0.660225 0.342669 0.938861
Si Si2 0.545696 0.072033 0.109342
Si Si3 0.918514 0.536876 0.555316
Si Si4 0.683853 0.712425 0.001040
Si Si5 0.076790 0.833054 0.296599
Si Si6 0.627850 0.301525 0.292682
Si Si7 0.395951 0.534209 0.597450
Si Si8 0.305999 0.905478 0.261441
O O1 0.577419 0.410776 0.618223
O O2 0.604578 0.217890 0.954840
O O3 0.568490 0.292393 0.043314
O O4 0.893173 0.455378 0.135151
O O5 0.724356 0.080770 0.440935
O O6 0.343111 0.977515 0.045075
O O7 0.500000 0.000000 0.000000
O O8 0.796526 0.452404 0.357361
O O9 0.777162 0.469828 0.588442
O O10 0.987143 0.681442 0.399447
O O11 0.661873 0.611953 0.253933
O O12 0.910143 0.836665 0.110950
O O13 0.570915 0.765664 0.807344
O O14 0.595164 0.633632 0.835947
O O15 0.128296 0.882011 0.123324
O O16 0.723954 0.230142 0.588099
O O17 0.500000 0.000000 0.500000
#
# Coordination Sequence:
#
# PCOD8044347 Si02
#       8
#     2   2   2   2   2   2   2   2
#     4  11  20  34  57  85 115 143 189 241 272 325
#     4  10  22  37  59  84 110 142 195 236 276 317
#     4   9  18  33  55  89 112 143 185 226 287 331
#     4   9  20  37  55  82 114 152 184 213 291 346
#     4   9  18  39  60  80 112 147 184 230 273 339
#     4  11  20  34  60  86 118 146 182 228 279 343
#     4   9  19  35  54  78 120 150 177 229 278 341
#     4  10  19  38  58  80 109 150 186 232 272 314
#
# _framework density 20.324642999999998
#
# number of rings (size 3 to 8) (size 9 to 14) (size 15 to 20)
#    0.000    2.250    3.750    1.500    3.500    0.500 
#    0.000    3.750    0.000    1.500    0.000    0.000 
#    0.000    0.000    0.000    0.000    0.000    0.000 
#
# Total GULP energy -198273.317629 kJ/mol
# GULP energy per Si atom -12392.082352 kJ/mol
# Density = 2.027838 g / cm^3
# Si number density = 20.324643 Si / 1000 Ang^3
#
#
#
# Elastic Constant Matrix: (Units=GPa)
#
#
# Indices 1 2 3 4 5 6 
#
# 1 97.5980 38.4767 26.2258 13.1649 0.9951 10.0296
# 2 38.4767 58.7502 17.3574 12.0260 -11.7175 3.6696
# 3 26.2258 17.3574 62.8497 0.3876 -7.0570 9.4346
# 4 13.1649 12.0260 0.3876 23.0884 5.6019 -2.3987
# 5 0.9951 -11.7175 -7.0570 5.6019 32.1239 5.2587
# 6 10.0296 3.6696 9.4346 -2.3987 5.2587 36.7981
#
#
#
# Elastic Compliance Matrix: (Units=1/GPa)
#
#
# Indices 1 2 3 4 5 6 
#
# 1 0.015570 -0.008868 -0.004141 -0.003502 -0.003689 -0.001999
# 2 -0.008868 0.029086 -0.002377 -0.013518 0.013150 -0.002635
# 3 -0.004141 -0.002377 0.019314 0.001931 0.003823 -0.004007
# 4 -0.003502 -0.013518 0.001931 0.056904 -0.015589 0.007745
# 5 -0.003689 0.013150 0.003823 -0.015589 0.040933 -0.008152
# 6 -0.001999 -0.002635 -0.004007 0.007745 -0.008152 0.030680
#
#
# Mechanical properties :
#
#
# Convention : Reuss Voigt Hill
#
# Bulk Modulus (GPa) = 30.12107 42.59085 36.35596
# Shear Modulus (GPa) = 21.33792 27.54461 24.44126
#
# Velocity S-wave (km/s) = 3.24366 3.68534 3.47153
# Velocity P-wave (km/s) = 5.37407 6.25378 5.83054
#
# Compressibility (1/GPa) = 0.03319935
#
# Stress axis : x y z
#
# Youngs Moduli (GPa) = 64.22515 34.38126 51.77571
#
# Poissons Ratio (x) = 0.30489 0.21438
# Poissons Ratio (y) = 0.56954 0.12306
# Poissons Ratio (z) = 0.26593 0.08172
#
# Static dielectric constant tensor:
#      x y z
#    x 4.152320 0.328960 0.204040 
#    y 0.328960 3.580940 0.361190 
#    z 0.204040 0.361190 3.393550 
# 
# 
# High freq. dielectric constant tensor:
#      x y z
#    x 1.795740 0.010840 -0.002460 
#    y 0.010840 1.789080 0.004980 
#    z -0.002460 0.004980 1.754570 
# 
# From -- ./inp_files/222766.got.cif
#   From: 2010.06.25/outbox.cif.g09.slc.cpg/sg2_112_cif.got.tgz:222766.got - 2010.06.27 13:26:56.
