data_PCOD8044373
_publ_section_title
;
Structure prediction by ZEFSAII (Michael W. Deem and Ramdas Pophale) SiO2 
 PCOD8044373
Probable space group: P -1
;
_chemical_formula_sum "Si O2"
_cell_formula_units_Z 16
_cell_length_a 25.965538
_cell_length_b 25.993959
_cell_length_c 12.509289
_cell_angle_alpha 151.199580
_cell_angle_beta 151.225998
_cell_angle_gamma 11.406063
_cell_volume 790.671795
_symmetry_space_group_name_H-M "P -1"
_symmetry_group_IT_number 2
_symmetry_cell_setting 'triclinic'
loop_
_space_group_symop_operation_xyz
x,y,z
-x,-y,-z
loop_
_atom_site_type_symbol
_atom_site_label
_atom_site_fract_x
_atom_site_fract_y
_atom_site_fract_z
Si Si1 0.540774 0.086022 0.712015
Si Si2 0.832817 0.325274 0.168087
Si Si3 0.769297 0.258686 0.737185
Si Si4 0.126531 0.637246 0.457595
Si Si5 0.801953 0.309757 0.537219
Si Si6 0.445337 0.928175 0.745890
Si Si7 0.596584 0.110513 0.628679
Si Si8 0.105931 0.650174 0.011427
O O1 0.564362 0.068123 0.595449
O O2 0.500000 0.000000 0.500000
O O3 0.289213 0.381093 0.833242
O O4 0.801524 0.893584 0.892517
O O5 0.824648 0.328740 0.288971
O O6 0.614598 0.603269 0.231999
O O7 0.775621 0.266491 0.893586
O O8 0.116328 0.101183 0.235090
O O9 0.486198 0.476342 0.580695
O O10 0.828178 0.316688 0.892106
O O11 0.986323 0.976346 0.580622
O O12 0.171452 0.665538 0.486652
O O13 0.327274 0.354929 0.308365
O O14 0.832383 0.858218 0.323298
O O15 0.847275 0.357873 0.796105
O O16 0.447092 0.925279 0.616473
O O17 0.500000 0.000000 0.000000
#
# Coordination Sequence:
#
# PCOD8044373 Si02
#       8
#     2   2   2   2   2   2   2   2
#     4  12  24  41  66  95 120 164 208 258 318 355
#     4  10  20  38  65  84 119 159 200 250 296 365
#     4  12  22  41  67  88 122 174 211 240 318 369
#     4  10  23  40  58  92 128 153 203 260 309 352
#     4  12  26  40  63  94 130 165 202 260 311 366
#     4  10  21  38  65  88 117 165 206 244 310 377
#     4  10  19  38  59  88 119 155 197 256 298 358
#     4  12  25  44  62  91 131 161 211 258 298 377
#
# _framework density 20.235956000000002
#
# number of rings (size 3 to 8) (size 9 to 14) (size 15 to 20)
#    0.000    1.000    2.500    4.500    0.000    3.000 
#    0.000    0.000    0.000    0.000    0.000    0.000 
#    0.000    0.000    0.000    0.000    0.000    0.000 
#
# Total GULP energy -198426.600122 kJ/mol
# GULP energy per Si atom -12401.662508 kJ/mol
# Density = 2.018990 g / cm^3
# Si number density = 20.235956 Si / 1000 Ang^3
#
#
#
# Elastic Constant Matrix: (Units=GPa)
#
#
# Indices 1 2 3 4 5 6 
#
# 1 109.0254 24.5156 35.3037 1.7326 -9.4095 7.4665
# 2 24.5156 142.1289 26.1286 12.6797 3.3677 3.1375
# 3 35.3037 26.1286 99.0015 3.0234 -5.3143 6.4080
# 4 1.7326 12.6797 3.0234 35.0904 2.9889 1.4034
# 5 -9.4095 3.3677 -5.3143 2.9889 27.7981 0.6977
# 6 7.4665 3.1375 6.4080 1.4034 0.6977 30.5813
#
#
#
# Elastic Compliance Matrix: (Units=1/GPa)
#
#
# Indices 1 2 3 4 5 6 
#
# 1 0.010938 -0.001326 -0.003250 0.000016 0.003289 -0.001929
# 2 -0.001326 0.007814 -0.001590 -0.002499 -0.001431 0.000003
# 3 -0.003250 -0.001590 0.011867 -0.000348 0.001438 -0.001547
# 4 0.000016 -0.002499 -0.000348 0.029718 -0.002929 -0.000972
# 5 0.003289 -0.001431 0.001438 -0.002929 0.037892 -0.001687
# 6 -0.001929 0.000003 -0.001547 -0.000972 -0.001687 0.033578
#
#
# Mechanical properties :
#
#
# Convention : Reuss Voigt Hill
#
# Bulk Modulus (GPa) = 54.68130 58.00574 56.34352
# Shear Modulus (GPa) = 33.28112 36.30782 34.79447
#
# Velocity S-wave (km/s) = 4.05983 4.24042 4.15111
# Velocity P-wave (km/s) = 7.00406 7.25960 7.13297
#
# Compressibility (1/GPa) = 0.01828779
#
# Stress axis : x y z
#
# Youngs Moduli (GPa) = 91.42138 127.98031 84.26560
#
# Poissons Ratio (x) = 0.16971 0.27384
# Poissons Ratio (y) = 0.12123 0.13398
# Poissons Ratio (z) = 0.29709 0.20348
#
# Static dielectric constant tensor:
#      x y z
#    x 3.644200 -0.028220 -0.296900 
#    y -0.028220 3.926930 -0.006400 
#    z -0.296900 -0.006400 3.826520 
# 
# 
# High freq. dielectric constant tensor:
#      x y z
#    x 1.784920 -0.001940 -0.016900 
#    y -0.001940 1.818380 -0.000870 
#    z -0.016900 -0.000870 1.798700 
# 
# From -- ./inp_files/370822.got.cif
#   From: 2010.06.25/outbox.cif.g09.slc.cpg/sg2_186_cif.got.tgz:370822.got - 2010.06.27 13:26:56.
