data_PCOD8044555
_publ_section_title
;
Structure prediction by ZEFSAII (Michael W. Deem and Ramdas Pophale) SiO2 
 PCOD8044555
Probable space group: P -1
;
_chemical_formula_sum "Si O2"
_cell_formula_units_Z 16
_cell_length_a 20.487324
_cell_length_b 8.739428
_cell_length_c 8.565214
_cell_angle_alpha 109.777007
_cell_angle_beta 73.221570
_cell_angle_gamma 148.549519
_cell_volume 752.966677
_symmetry_space_group_name_H-M "P -1"
_symmetry_group_IT_number 2
_symmetry_cell_setting 'triclinic'
loop_
_space_group_symop_operation_xyz
x,y,z
-x,-y,-z
loop_
_atom_site_type_symbol
_atom_site_label
_atom_site_fract_x
_atom_site_fract_y
_atom_site_fract_z
Si Si1 0.769475 0.357579 0.376922
Si Si2 0.249644 0.320560 0.007747
Si Si3 0.000010 0.818075 0.869734
Si Si4 0.769430 0.720332 0.623121
Si Si5 0.249605 0.677917 0.992242
Si Si6 0.500024 0.683045 0.005286
Si Si7 0.000015 0.679977 0.495751
Si Si8 0.499978 0.181439 0.619758
O O1 0.792111 0.584236 0.500107
O O2 0.771988 0.368877 0.193091
O O3 0.877359 0.456144 0.397827
O O4 0.633938 0.012117 0.410466
O O5 0.228013 0.280592 0.192967
O O6 0.372396 0.461778 0.921013
O O7 0.267229 0.534504 0.000151
O O8 0.127547 0.988490 0.901954
O O9 0.999961 0.812859 0.680355
O O10 0.872537 0.478441 0.902067
O O11 0.000000 0.000000 0.000000
O O12 0.633864 0.523506 0.589507
O O13 0.877260 0.053152 0.602059
O O14 0.372307 0.027699 0.078932
O O15 0.500000 0.813094 0.190643
O O16 0.500000 0.500000 0.000000
O O17 0.000000 0.500000 0.500000
O O18 0.500000 0.000000 0.500000
#
# Coordination Sequence:
#
# PCOD8044555 Si02
#       8
#     2   2   2   2   2   2   2   2
#     4  10  19  38  63  86 115 154 196 242 287 344
#     4  10  20  37  62  90 115 151 198 243 287 344
#     4  10  21  38  58  85 114 151 199 241 283 342
#     4  10  19  38  63  86 115 154 196 242 287 344
#     4  10  20  37  62  90 115 151 198 243 287 344
#     4  10  21  35  56  89 124 153 185 234 295 348
#     4  12  26  40  57  87 123 157 193 239 296 350
#     4   8  18  35  59  85 110 147 196 234 280 342
#
# _framework density 21.249281
#
# number of rings (size 3 to 8) (size 9 to 14) (size 15 to 20)
#    0.000    2.000    0.000    4.500    0.000    4.000 
#    0.000    6.250    0.000    0.000    0.000    0.000 
#    0.000    0.000    0.000    0.000    0.000    0.000 
#
# Total GULP energy -198214.653940 kJ/mol
# GULP energy per Si atom -12388.415871 kJ/mol
# Density = 2.120092 g / cm^3
# Si number density = 21.249281 Si / 1000 Ang^3
#
#
#
# Elastic Constant Matrix: (Units=GPa)
#
#
# Indices 1 2 3 4 5 6 
#
# 1 105.7812 109.1424 25.6126 -9.1642 25.1340 19.3531
# 2 109.1424 189.7284 33.8797 -24.1840 19.5573 59.6127
# 3 25.6126 33.8797 89.7932 -7.0482 12.2754 7.1104
# 4 -9.1642 -24.1840 -7.0482 22.7782 -0.6665 0.4598
# 5 25.1340 19.5573 12.2754 -0.6665 22.0555 3.8775
# 6 19.3531 59.6127 7.1104 0.4598 3.8775 45.3295
#
#
#
# Elastic Compliance Matrix: (Units=1/GPa)
#
#
# Indices 1 2 3 4 5 6 
#
# 1 0.043265 -0.033644 0.000007 -0.019611 -0.025010 0.028110
# 2 -0.033644 0.039571 -0.001599 0.029110 0.011830 -0.038732
# 3 0.000007 -0.001599 0.012625 0.002034 -0.005658 0.000583
# 4 -0.019611 0.029110 0.002034 0.068264 0.002946 -0.031174
# 5 -0.025010 0.011830 -0.005658 0.002946 0.068323 -0.009867
# 6 0.028110 -0.038732 0.000583 -0.031174 -0.009867 0.062064
#
#
# Mechanical properties :
#
#
# Convention : Reuss Voigt Hill
#
# Bulk Modulus (GPa) = 40.01770 80.28580 60.15175
# Shear Modulus (GPa) = 13.40798 32.47718 22.94258
#
# Velocity S-wave (km/s) = 2.51467 3.91370 3.28942
# Velocity P-wave (km/s) = 5.22540 7.63463 6.54188
#
# Compressibility (1/GPa) = 0.02498894
#
# Stress axis : x y z
#
# Youngs Moduli (GPa) = 23.11343 25.27135 79.20774
#
# Poissons Ratio (x) = 0.85022 -0.00054
# Poissons Ratio (y) = 0.77762 0.12666
# Poissons Ratio (z) = -0.00016 0.04041
#
# Static dielectric constant tensor:
#      x y z
#    x 3.824460 0.820420 0.016120 
#    y 0.820420 4.730050 -0.045700 
#    z 0.016120 -0.045700 4.034380 
# 
# 
# High freq. dielectric constant tensor:
#      x y z
#    x 1.808730 0.041390 -0.004700 
#    y 0.041390 1.854730 0.001200 
#    z -0.004700 0.001200 1.823860 
# 
# From -- ./inp_files/343660.got.cif
#   From: 2010.06.25/outbox.cif.g09.slc.cpg/sg2_172_cif.got.tgz:343660.got - 2010.06.27 13:26:56.
