data_PCOD8044394
_publ_section_title
;
Structure prediction by ZEFSAII (Michael W. Deem and Ramdas Pophale) SiO2 
 PCOD8044394
Probable space group: P -1
;
_chemical_formula_sum "Si O2"
_cell_formula_units_Z 16
_cell_length_a 14.075324
_cell_length_b 8.647707
_cell_length_c 11.796535
_cell_angle_alpha 71.921871
_cell_angle_beta 31.605321
_cell_angle_gamma 70.634573
_cell_volume 708.781916
_symmetry_space_group_name_H-M "P -1"
_symmetry_group_IT_number 2
_symmetry_cell_setting 'triclinic'
loop_
_space_group_symop_operation_xyz
x,y,z
-x,-y,-z
loop_
_atom_site_type_symbol
_atom_site_label
_atom_site_fract_x
_atom_site_fract_y
_atom_site_fract_z
Si Si1 0.793554 0.623196 0.348491
Si Si2 0.939593 0.282296 0.530694
Si Si3 0.788787 0.646730 0.596875
Si Si4 0.900454 0.237780 0.339238
Si Si5 0.932973 0.176712 0.079040
Si Si6 0.469979 0.771040 0.020591
Si Si7 0.459193 0.897794 0.240395
Si Si8 0.489960 0.836484 0.475345
O O1 0.740180 0.708707 0.505150
O O2 0.806582 0.427104 0.383086
O O3 0.631111 0.687982 0.413777
O O4 0.987252 0.680843 0.104236
O O5 0.918730 0.476456 0.490044
O O6 0.011934 0.206486 0.351887
O O7 0.093398 0.230148 0.481706
O O8 0.744767 0.232107 0.775965
O O9 0.603989 0.621369 0.860433
O O10 0.016427 0.186802 0.119813
O O11 0.752139 0.113647 0.522657
O O12 0.713377 0.214453 0.296585
O O13 0.000000 0.000000 0.000000
O O14 0.521315 0.920475 0.859451
O O15 0.528143 0.776342 0.092894
O O16 0.555101 0.856776 0.273967
O O17 0.500000 0.000000 0.500000
#
# Coordination Sequence:
#
# PCOD8044394 Si02
#       8
#     2   2   2   2   2   2   2   2
#     4  11  23  40  63  91 123 166 198 250 306 362
#     4   9  20  40  60  90 117 157 201 251 299 360
#     4  10  21  36  62  88 122 155 202 246 301 360
#     4   9  21  42  64  88 126 156 205 255 302 361
#     4  11  23  40  62  90 121 160 205 249 299 364
#     4  10  19  38  60  85 119 157 196 252 302 350
#     4   9  21  37  59  87 118 154 204 245 294 366
#     4  11  22  40  61  89 126 160 198 251 307 360
#
# _framework density 22.57394
#
# number of rings (size 3 to 8) (size 9 to 14) (size 15 to 20)
#    0.000    2.000    1.250    1.500    1.750    5.000 
#    0.000   13.125    0.000    0.000    0.000    0.000 
#    0.000    0.000    0.000    0.000    0.000    0.000 
#
# Total GULP energy -198244.546930 kJ/mol
# GULP energy per Si atom -12390.284183 kJ/mol
# Density = 2.252256 g / cm^3
# Si number density = 22.573940 Si / 1000 Ang^3
#
#
#
# Elastic Constant Matrix: (Units=GPa)
#
#
# Indices 1 2 3 4 5 6 
#
# 1 166.9944 32.1503 66.9980 0.4663 30.4949 9.4697
# 2 32.1503 32.2803 16.8331 -8.3528 0.6257 4.5652
# 3 66.9980 16.8331 119.3652 -6.9775 16.8969 10.2934
# 4 0.4663 -8.3528 -6.9775 36.4114 11.6958 3.1164
# 5 30.4949 0.6257 16.8969 11.6958 49.1046 5.2428
# 6 9.4697 4.5652 10.2934 3.1164 5.2428 29.2702
#
#
#
# Elastic Compliance Matrix: (Units=1/GPa)
#
#
# Indices 1 2 3 4 5 6 
#
# 1 0.009915 -0.008159 -0.003899 -0.001355 -0.004429 0.000374
# 2 -0.008159 0.042613 -0.000901 0.009121 0.003221 -0.005238
# 3 -0.003899 -0.000901 0.011344 0.002838 -0.001874 -0.002554
# 4 -0.001355 0.009121 0.002838 0.032929 -0.007654 -0.004117
# 5 -0.004429 0.003221 -0.001874 -0.007654 0.025778 -0.002213
# 6 0.000374 -0.005238 -0.002554 -0.004117 -0.002213 0.036593
#
#
# Mechanical properties :
#
#
# Convention : Reuss Voigt Hill
#
# Bulk Modulus (GPa) = 26.34728 61.17807 43.76268
# Shear Modulus (GPa) = 25.28551 36.46779 30.87665
#
# Velocity S-wave (km/s) = 3.35045 4.02367 3.70239
# Velocity P-wave (km/s) = 5.16374 6.98187 6.14047
#
# Compressibility (1/GPa) = 0.03795459
#
# Stress axis : x y z
#
# Youngs Moduli (GPa) = 100.86152 23.46689 88.14867
#
# Poissons Ratio (x) = 0.19147 0.34368
# Poissons Ratio (y) = 0.82295 0.07941
# Poissons Ratio (z) = 0.39324 0.02114
#
# Static dielectric constant tensor:
#      x y z
#    x 4.681300 0.346520 0.363690 
#    y 0.346520 3.818190 -0.026230 
#    z 0.363690 -0.026230 4.223980 
# 
# 
# High freq. dielectric constant tensor:
#      x y z
#    x 1.900800 0.023200 0.019250 
#    y 0.023200 1.873870 -0.007310 
#    z 0.019250 -0.007310 1.894960 
# 
# From -- ./inp_files/447027.got.cif
#   From: 2010.06.25/outbox.cif.g09.slc.cpg/sg2_224_cif.got.tgz:447027.got - 2010.06.27 13:26:56.
