data_PCOD8044430
_publ_section_title
;
Structure prediction by ZEFSAII (Michael W. Deem and Ramdas Pophale) SiO2 
 PCOD8044430
Probable space group: P -1
;
_chemical_formula_sum "Si O2"
_cell_formula_units_Z 16
_cell_length_a 8.821859
_cell_length_b 11.139519
_cell_length_c 16.268568
_cell_angle_alpha 112.214516
_cell_angle_beta 51.189440
_cell_angle_gamma 136.945552
_cell_volume 840.831687
_symmetry_space_group_name_H-M "P -1"
_symmetry_group_IT_number 2
_symmetry_cell_setting 'triclinic'
loop_
_space_group_symop_operation_xyz
x,y,z
-x,-y,-z
loop_
_atom_site_type_symbol
_atom_site_label
_atom_site_fract_x
_atom_site_fract_y
_atom_site_fract_z
Si Si1 0.700085 0.655825 0.728392
Si Si2 0.218867 0.336019 0.711240
Si Si3 0.223079 0.449326 0.575407
Si Si4 0.597392 0.517112 0.061445
Si Si5 0.487529 0.204135 0.078542
Si Si6 0.101993 0.826477 0.056708
Si Si7 0.829092 0.181432 0.500222
Si Si8 0.486600 0.207719 0.524905
O O1 0.508542 0.520905 0.685971
O O2 0.627912 0.546961 0.810318
O O3 0.655192 0.789663 0.793883
O O4 0.000127 0.764819 0.627142
O O5 0.102090 0.377476 0.689827
O O6 0.265834 0.209994 0.631714
O O7 0.010484 0.248791 0.833302
O O8 0.500000 0.500000 0.500000
O O9 0.294431 0.627515 0.568154
O O10 0.010706 0.289256 0.544793
O O11 0.648306 0.385188 0.017624
O O12 0.867990 0.720008 0.041058
O O13 0.500000 0.500000 0.000000
O O14 0.259814 0.034241 0.054950
O O15 0.693013 0.193638 0.041163
O O16 0.639106 0.217703 0.555301
O O17 0.657524 0.973915 0.522609
#
# Coordination Sequence:
#
# PCOD8044430 Si02
#       8
#     2   2   2   2   2   2   2   2
#     4   9  19  35  57  80 106 146 178 218 272 325
#     4  10  20  36  56  83 109 144 181 222 274 313
#     4  10  20  36  54  84 109 140 184 226 268 313
#     4   9  20  36  55  83 109 139 177 225 271 317
#     4   9  20  36  60  82 104 145 183 217 274 324
#     4  10  19  38  61  78 110 146 176 226 270 324
#     4  11  20  38  57  78 111 148 182 219 269 321
#     4  10  22  35  57  77 111 150 179 222 267 320
#
# _framework density 19.028777000000002
#
# number of rings (size 3 to 8) (size 9 to 14) (size 15 to 20)
#    0.750    1.500    2.500    1.500    0.000    2.500 
#    4.500    0.000    8.250    0.000    0.000    0.000 
#    0.000    0.000    0.000    0.000    0.000    0.000 
#
# Total GULP energy -198263.765131 kJ/mol
# GULP energy per Si atom -12391.485321 kJ/mol
# Density = 1.898547 g / cm^3
# Si number density = 19.028777 Si / 1000 Ang^3
#
#
#
# Elastic Constant Matrix: (Units=GPa)
#
#
# Indices 1 2 3 4 5 6 
#
# 1 86.7719 46.4853 23.9471 10.7141 24.0109 10.4045
# 2 46.4853 115.4040 14.9824 12.4927 8.0597 8.7341
# 3 23.9471 14.9824 52.7903 -1.6023 9.4183 2.4618
# 4 10.7141 12.4927 -1.6023 16.6967 3.6404 -6.5955
# 5 24.0109 8.0597 9.4183 3.6404 28.0384 8.3833
# 6 10.4045 8.7341 2.4618 -6.5955 8.3833 29.0350
#
#
#
# Elastic Compliance Matrix: (Units=1/GPa)
#
#
# Indices 1 2 3 4 5 6 
#
# 1 0.021071 -0.005642 -0.005871 -0.008717 -0.012176 -0.003820
# 2 -0.005642 0.012114 -0.001703 -0.008408 0.004407 -0.004660
# 3 -0.005871 -0.001703 0.023052 0.010014 -0.004820 0.004328
# 4 -0.008717 -0.008408 0.010014 0.086819 -0.013229 0.028345
# 5 -0.012176 0.004407 -0.004820 -0.013229 0.052569 -0.014737
# 6 -0.003820 -0.004660 0.004328 0.028345 -0.014737 0.047539
#
#
# Mechanical properties :
#
#
# Convention : Reuss Voigt Hill
#
# Bulk Modulus (GPa) = 33.55180 47.31065 40.43123
# Shear Modulus (GPa) = 17.88712 26.05746 21.97229
#
# Velocity S-wave (km/s) = 3.06927 3.70452 3.40176
# Velocity P-wave (km/s) = 5.49827 6.57378 6.05993
#
# Compressibility (1/GPa) = 0.02980466
#
# Stress axis : x y z
#
# Youngs Moduli (GPa) = 47.45821 82.54810 43.38109
#
# Poissons Ratio (x) = 0.46575 0.25470
# Poissons Ratio (y) = 0.26777 0.07387
# Poissons Ratio (z) = 0.27864 0.14056
#
# Static dielectric constant tensor:
#      x y z
#    x 3.400450 -0.063970 0.091590 
#    y -0.063970 3.708680 -0.026960 
#    z 0.091590 -0.026960 3.412660 
# 
# 
# High freq. dielectric constant tensor:
#      x y z
#    x 1.717230 0.005060 -0.001170 
#    y 0.005060 1.755300 0.003780 
#    z -0.001170 0.003780 1.720070 
# 
# From -- ./inp_files/353355.got.cif
#   From: 2010.06.25/outbox.cif.g09.slc.cpg/sg2_177_cif.got.tgz:353355.got - 2010.06.27 13:26:56.
