data_PCOD8044551
_publ_section_title
;
Structure prediction by ZEFSAII (Michael W. Deem and Ramdas Pophale) SiO2 
 PCOD8044551
Probable space group: P -1
;
_chemical_formula_sum "Si O2"
_cell_formula_units_Z 16
_cell_length_a 8.582990
_cell_length_b 15.093220
_cell_length_c 14.577270
_cell_angle_alpha 139.813802
_cell_angle_beta 76.824974
_cell_angle_gamma 74.151568
_cell_volume 833.350110
_symmetry_space_group_name_H-M "P -1"
_symmetry_group_IT_number 2
_symmetry_cell_setting 'triclinic'
loop_
_space_group_symop_operation_xyz
x,y,z
-x,-y,-z
loop_
_atom_site_type_symbol
_atom_site_label
_atom_site_fract_x
_atom_site_fract_y
_atom_site_fract_z
Si Si1 0.173633 0.012708 0.496658
Si Si2 0.742574 0.795349 0.485092
Si Si3 0.055991 0.271180 0.879616
Si Si4 0.292216 0.071308 0.870647
Si Si5 0.661144 0.685868 0.227143
Si Si6 0.723472 0.504853 0.539667
Si Si7 0.238321 0.823776 0.780523
Si Si8 0.044743 0.449741 0.308420
O O1 0.144647 0.133147 0.509856
O O2 0.123685 0.108414 0.676399
O O3 0.424533 0.795472 0.297530
O O4 0.000000 0.000000 0.500000
O O5 0.629728 0.793272 0.409405
O O6 0.938027 0.582753 0.336517
O O7 0.545151 0.952951 0.708328
O O8 0.101237 0.200441 0.921110
O O9 0.197055 0.321172 0.875231
O O10 0.787132 0.467152 0.061551
O O11 0.292811 0.913439 0.775595
O O12 0.224011 0.219715 0.077513
O O13 0.448796 0.687882 0.716851
O O14 0.783890 0.306134 0.374278
O O15 0.818829 0.515570 0.627809
O O16 0.839242 0.510030 0.441865
O O17 0.000000 0.000000 0.000000
#
# Coordination Sequence:
#
# PCOD8044551 Si02
#       8
#     2   2   2   2   2   2   2   2
#     4  11  23  38  59  90 130 159 195 252 312 357
#     4  11  21  39  63  89 119 162 208 249 297 367
#     4  10  20  36  63  89 112 161 207 245 291 363
#     4  12  21  37  68  91 118 163 217 245 297 375
#     4  10  19  38  63  84 119 157 203 246 295 357
#     4  10  24  43  61  90 129 158 202 261 320 357
#     4  11  23  41  65  91 125 165 200 252 314 372
#     4  11  23  40  64  95 119 159 210 263 303 363
#
# _framework density 19.199614
#
# number of rings (size 3 to 8) (size 9 to 14) (size 15 to 20)
#    0.000    1.250    6.250    0.750    0.000    3.000 
#    0.000    0.000    0.000    0.000    0.000    0.000 
#    0.000    0.000    0.000    0.000    0.000    0.000 
#
# Total GULP energy -198408.283568 kJ/mol
# GULP energy per Si atom -12400.517723 kJ/mol
# Density = 1.915591 g / cm^3
# Si number density = 19.199614 Si / 1000 Ang^3
#
#
#
# Elastic Constant Matrix: (Units=GPa)
#
#
# Indices 1 2 3 4 5 6 
#
# 1 101.3520 46.9109 29.9953 14.3523 -3.9885 5.9531
# 2 46.9109 100.3808 27.9518 14.3528 10.1678 2.5240
# 3 29.9953 27.9518 97.6915 14.3663 -9.0022 1.7717
# 4 14.3523 14.3528 14.3663 34.8864 -0.2352 -1.9477
# 5 -3.9885 10.1678 -9.0022 -0.2352 22.5182 1.7035
# 6 5.9531 2.5240 1.7717 -1.9477 1.7035 19.8641
#
#
#
# Elastic Compliance Matrix: (Units=1/GPa)
#
#
# Indices 1 2 3 4 5 6 
#
# 1 0.013973 -0.006071 -0.001629 -0.002769 0.004836 -0.003957
# 2 -0.006071 0.014841 -0.002865 -0.002449 -0.009002 0.000721
# 3 -0.001629 -0.002865 0.012636 -0.003377 0.006107 -0.001130
# 4 -0.002769 -0.002449 -0.003377 0.032458 -0.000750 0.004689
# 5 0.004836 -0.009002 0.006107 -0.000750 0.052171 -0.005398
# 6 -0.003957 0.000721 -0.001130 0.004689 -0.005398 0.052460
#
#
# Mechanical properties :
#
#
# Convention : Reuss Voigt Hill
#
# Bulk Modulus (GPa) = 49.21057 56.57116 52.89087
# Shear Modulus (GPa) = 24.21984 28.42483 26.32234
#
# Velocity S-wave (km/s) = 3.55558 3.85189 3.70670
# Velocity P-wave (km/s) = 6.52249 7.02221 6.77696
#
# Compressibility (1/GPa) = 0.02032084
#
# Stress axis : x y z
#
# Youngs Moduli (GPa) = 71.56426 67.38192 79.13981
#
# Poissons Ratio (x) = 0.40908 0.12891
# Poissons Ratio (y) = 0.43447 0.22671
# Poissons Ratio (z) = 0.11657 0.19303
#
# Static dielectric constant tensor:
#      x y z
#    x 3.264840 0.047850 -0.119900 
#    y 0.047850 3.630010 0.201720 
#    z -0.119900 0.201720 3.747120 
# 
# 
# High freq. dielectric constant tensor:
#      x y z
#    x 1.726690 -0.000530 -0.007580 
#    y -0.000530 1.750450 0.012160 
#    z -0.007580 0.012160 1.760990 
# 
# From -- ./inp_files/217606.got.cif
#   From: 2010.06.25/outbox.cif.g09.slc.cpg/sg2_109_cif.got.tgz:217606.got - 2010.06.27 13:26:56.
