data_PCOD8044665
_publ_section_title
;
Structure prediction by ZEFSAII (Michael W. Deem and Ramdas Pophale) SiO2 
 PCOD8044665
Probable space group: P -1
;
_chemical_formula_sum "Si O2"
_cell_formula_units_Z 16
_cell_length_a 10.625316
_cell_length_b 7.674536
_cell_length_c 17.790033
_cell_angle_alpha 38.769813
_cell_angle_beta 62.757548
_cell_angle_gamma 75.049000
_cell_volume 794.794514
_symmetry_space_group_name_H-M "P -1"
_symmetry_group_IT_number 2
_symmetry_cell_setting 'triclinic'
loop_
_space_group_symop_operation_xyz
x,y,z
-x,-y,-z
loop_
_atom_site_type_symbol
_atom_site_label
_atom_site_fract_x
_atom_site_fract_y
_atom_site_fract_z
Si Si1 0.949367 0.173392 0.389055
Si Si2 0.306939 0.063651 0.550671
Si Si3 0.581512 0.243515 0.079186
Si Si4 0.870240 0.314976 0.894829
Si Si5 0.231593 0.738104 0.831490
Si Si6 0.548817 0.325112 0.644904
Si Si7 0.034130 0.172309 0.043339
Si Si8 0.329451 0.675097 0.546871
O O1 0.843622 0.382626 0.379154
O O2 0.089495 0.360245 0.251386
O O3 0.859326 0.965712 0.421857
O O4 0.000000 0.000000 0.500000
O O5 0.363562 0.396232 0.433287
O O6 0.309549 0.893042 0.685176
O O7 0.393723 0.920878 0.508757
O O8 0.647338 0.248183 0.142801
O O9 0.472425 0.941979 0.202935
O O10 0.500000 0.500000 0.000000
O O11 0.702758 0.252249 0.980233
O O12 0.970933 0.276211 0.949655
O O13 0.901531 0.112021 0.887398
O O14 0.170163 0.407365 0.948995
O O15 0.094350 0.882469 0.842204
O O16 0.390543 0.388824 0.644095
O O17 0.627130 0.231242 0.581183
#
# Coordination Sequence:
#
# PCOD8044665 Si02
#       8
#     2   2   2   2   2   2   2   2
#     4  10  23  41  65  95 132 162 202 272 330 368
#     4  10  22  39  71  97 125 166 218 266 315 383
#     4  11  27  42  62  89 134 173 211 268 321 385
#     4  10  21  40  65  90 127 165 211 261 330 374
#     4  10  19  38  64  95 125 158 213 267 316 375
#     4  11  22  42  65  96 124 175 220 258 318 378
#     4   9  19  35  65  98 118 158 213 266 312 389
#     4   9  22  39  67  98 127 163 213 273 306 379
#
# _framework density 20.130989
#
# number of rings (size 3 to 8) (size 9 to 14) (size 15 to 20)
#    0.750    1.250    1.250    1.875   10.500    0.000 
#    2.250    1.250    0.000    0.000    0.000    0.000 
#    0.000    0.000    0.000    0.000    0.000    0.000 
#
# Total GULP energy -198319.361575 kJ/mol
# GULP energy per Si atom -12394.960098 kJ/mol
# Density = 2.008517 g / cm^3
# Si number density = 20.130989 Si / 1000 Ang^3
#
#
#
# Elastic Constant Matrix: (Units=GPa)
#
#
# Indices 1 2 3 4 5 6 
#
# 1 59.2211 31.3092 41.5224 -6.7944 0.2939 -1.4215
# 2 31.3092 123.7106 54.3472 3.0707 -10.1952 1.1955
# 3 41.5224 54.3472 146.9332 -3.3624 -9.3667 -3.6329
# 4 -6.7944 3.0707 -3.3624 26.9922 -1.7278 -3.1136
# 5 0.2939 -10.1952 -9.3667 -1.7278 24.3508 -2.7373
# 6 -1.4215 1.1955 -3.6329 -3.1136 -2.7373 21.5321
#
#
#
# Elastic Compliance Matrix: (Units=1/GPa)
#
#
# Indices 1 2 3 4 5 6 
#
# 1 0.023345 -0.004082 -0.005145 0.005628 -0.003427 0.001278
# 2 -0.004082 0.010621 -0.002663 -0.002513 0.003151 -0.001271
# 3 -0.005145 -0.002663 0.009485 0.000586 0.002846 0.001855
# 4 0.005628 -0.002513 0.000586 0.039768 0.002680 0.006701
# 5 -0.003427 0.003151 0.002846 0.002680 0.044399 0.006111
# 6 0.001278 -0.001271 0.001855 0.006701 0.006111 0.048656
#
#
# Mechanical properties :
#
#
# Convention : Reuss Voigt Hill
#
# Bulk Modulus (GPa) = 50.83813 64.91362 57.87588
# Shear Modulus (GPa) = 24.20005 28.08744 26.14375
#
# Velocity S-wave (km/s) = 3.47093 3.73934 3.60763
# Velocity P-wave (km/s) = 6.43208 7.13857 6.79451
#
# Compressibility (1/GPa) = 0.01967027
#
# Stress axis : x y z
#
# Youngs Moduli (GPa) = 42.83552 94.15636 105.42491
#
# Poissons Ratio (x) = 0.38438 0.54244
# Poissons Ratio (y) = 0.17487 0.28072
# Poissons Ratio (z) = 0.22040 0.25072
#
# Static dielectric constant tensor:
#      x y z
#    x 3.469010 0.052530 -0.214890 
#    y 0.052530 3.845980 0.072030 
#    z -0.214890 0.072030 3.549490 
# 
# 
# High freq. dielectric constant tensor:
#      x y z
#    x 1.764220 0.003050 -0.021250 
#    y 0.003050 1.788710 0.005320 
#    z -0.021250 0.005320 1.784380 
# 
# From -- ./inp_files/593349.got.cif
#   From: 2010.06.25/outbox.cif.g09.slc.cpg/sg2_297_cif.got.tgz:593349.got - 2010.06.27 13:26:56.
