data_PCOD8044166
_publ_section_title
;
Structure prediction by ZEFSAII (Michael W. Deem and Ramdas Pophale) SiO2 
 PCOD8044166
Probable space group: P -1
;
_chemical_formula_sum "Si O2"
_cell_formula_units_Z 14
_cell_length_a 9.493697
_cell_length_b 11.722732
_cell_length_c 11.505308
_cell_angle_alpha 70.254177
_cell_angle_beta 153.947062
_cell_angle_gamma 109.335268
_cell_volume 528.128819
_symmetry_space_group_name_H-M "P -1"
_symmetry_group_IT_number 2
_symmetry_cell_setting 'triclinic'
loop_
_space_group_symop_operation_xyz
x,y,z
-x,-y,-z
loop_
_atom_site_type_symbol
_atom_site_label
_atom_site_fract_x
_atom_site_fract_y
_atom_site_fract_z
Si Si1 0.359525 0.387984 0.860512
Si Si2 0.747817 0.582385 0.729382
Si Si3 0.405303 0.164099 0.163261
Si Si4 0.355103 0.612593 0.645690
Si Si5 0.608260 0.910773 0.334091
Si Si6 0.806332 0.214292 0.134515
Si Si7 0.657727 0.128225 0.606087
O O1 0.336753 0.466149 0.694709
O O2 0.001016 0.340065 0.648377
O O3 0.500000 0.500000 0.000000
O O4 0.560061 0.268937 0.024044
O O5 0.500000 0.500000 0.500000
O O6 0.549426 0.647386 0.658853
O O7 0.945557 0.680887 0.764101
O O8 0.000000 0.500000 0.000000
O O9 0.476682 0.310562 0.136614
O O10 0.547090 0.199275 0.386253
O O11 0.594007 0.058244 0.279496
O O12 0.036682 0.120283 0.902854
O O13 0.480995 0.839445 0.381808
O O14 0.981751 0.882073 0.606608
O O15 0.391549 0.859328 0.086292
O O16 0.500000 0.000000 0.500000
#
# Coordination Sequence:
#
# PCOD8044166 Si02
#       7
#     2   2   2   2   2   2   2
#     4  11  27  49  71  94 136 191 240 282 350 410
#     4  12  24  42  68 107 138 168 228 290 345 397
#     4  11  23  40  67 102 139 180 231 275 340 420
#     4  11  26  45  72 100 135 186 235 287 341 416
#     4  11  22  40  65 101 138 179 218 275 349 413
#     4  12  25  44  71 100 141 177 221 287 351 404
#     4  10  19  37  64  99 144 180 216 269 341 414
#
# _framework density 26.508685
#
# number of rings (size 3 to 8) (size 9 to 14) (size 15 to 20)
#    0.000    0.857    1.429    7.714    6.000    0.000 
#    0.000    1.429    0.000    0.000    0.000    0.000 
#    0.000    0.000    0.000    0.000    0.000    0.000 
#
# Total GULP energy -173465.963745 kJ/mol
# GULP energy per Si atom -12390.425982 kJ/mol
# Density = 2.644835 g / cm^3
# Si number density = 26.508685 Si / 1000 Ang^3
#
#
#
# Elastic Constant Matrix: (Units=GPa)
#
#
# Indices 1 2 3 4 5 6 
#
# 1 80.9698 36.7329 35.3015 0.7289 12.5818 -33.0493
# 2 36.7329 194.9517 85.0904 0.2362 3.1392 -31.7113
# 3 35.3015 85.0904 221.8301 12.0842 15.5103 -31.1414
# 4 0.7289 0.2362 12.0842 53.9843 -13.8505 -2.1871
# 5 12.5818 3.1392 15.5103 -13.8505 46.6435 -3.5515
# 6 -33.0493 -31.7113 -31.1414 -2.1871 -3.5515 44.3437
#
#
#
# Elastic Compliance Matrix: (Units=1/GPa)
#
#
# Indices 1 2 3 4 5 6 
#
# 1 0.018852 -0.001265 -0.000438 -0.000701 -0.004113 0.012474
# 2 -0.001265 0.006682 -0.002134 0.000831 0.001035 0.002461
# 3 -0.000438 -0.002134 0.005926 -0.001760 -0.002075 0.002056
# 4 -0.000701 0.000831 -0.001760 0.020711 0.006900 0.000410
# 5 -0.004113 0.001035 -0.002075 0.006900 0.025109 -0.001431
# 6 0.012474 0.002461 0.002056 0.000410 -0.001431 0.034958
#
#
# Mechanical properties :
#
#
# Convention : Reuss Voigt Hill
#
# Bulk Modulus (GPa) = 42.04095 90.22235 66.13165
# Shear Modulus (GPa) = 39.11178 51.70275 45.40727
#
# Velocity S-wave (km/s) = 3.84530 4.42113 4.14323
# Velocity P-wave (km/s) = 5.96732 7.75698 6.92025
#
# Compressibility (1/GPa) = 0.02378633
#
# Stress axis : x y z
#
# Youngs Moduli (GPa) = 53.04469 149.66020 168.75370
#
# Poissons Ratio (x) = 0.18928 0.07391
# Poissons Ratio (y) = 0.06709 0.36011
# Poissons Ratio (z) = 0.02323 0.31936
#
# Static dielectric constant tensor:
#      x y z
#    x 2.366650 -2.954860 1.972740 
#    y -2.954860 2.274300 2.030800 
#    z 1.972740 2.030800 3.315060 
# 
# 
# High freq. dielectric constant tensor:
#      x y z
#    x 2.082160 0.011790 -0.016070 
#    y 0.011790 2.114260 -0.009500 
#    z -0.016070 -0.009500 2.082390 
# 
# From -- ./inp_files/518954.got.cif
#   From: 2010.06.25/outbox.cif.g09.slc.cpg/sg2_260_cif.got.tgz:518954.got - 2010.06.27 13:26:56.
