data_PCOD8044586
_publ_section_title
;
Structure prediction by ZEFSAII (Michael W. Deem and Ramdas Pophale) SiO2 
 PCOD8044586
Probable space group: P -1
;
_chemical_formula_sum "Si O2"
_cell_formula_units_Z 16
_cell_length_a 8.946281
_cell_length_b 31.048912
_cell_length_c 15.872812
_cell_angle_alpha 17.938159
_cell_angle_beta 42.008084
_cell_angle_gamma 34.842463
_cell_volume 757.726868
_symmetry_space_group_name_H-M "P -1"
_symmetry_group_IT_number 2
_symmetry_cell_setting 'triclinic'
loop_
_space_group_symop_operation_xyz
x,y,z
-x,-y,-z
loop_
_atom_site_type_symbol
_atom_site_label
_atom_site_fract_x
_atom_site_fract_y
_atom_site_fract_z
Si Si1 0.741593 0.008707 0.969551
Si Si2 0.540214 0.186387 0.561924
Si Si3 0.847470 0.689656 0.739940
Si Si4 0.027137 0.614731 0.156425
Si Si5 0.152121 0.695709 0.452167
Si Si6 0.382988 0.300573 0.695205
Si Si7 0.980924 0.469107 0.869832
Si Si8 0.254444 0.836768 0.657534
O O1 0.720494 0.127703 0.680384
O O2 0.587727 0.119086 0.909522
O O3 0.631184 0.893736 0.208198
O O4 0.051912 0.867296 0.122675
O O5 0.733063 0.116607 0.530897
O O6 0.339078 0.388662 0.261690
O O7 0.526605 0.783896 0.691072
O O8 0.963427 0.765255 0.486471
O O9 0.937827 0.678433 0.820727
O O10 0.000000 0.500000 0.000000
O O11 0.765329 0.726273 0.116153
O O12 0.932502 0.621913 0.087026
O O13 0.177128 0.422724 0.482313
O O14 0.217599 0.682730 0.959997
O O15 0.461347 0.615396 0.493492
O O16 0.140632 0.555817 0.664777
O O17 0.000000 0.000000 0.500000
#
# Coordination Sequence:
#
# PCOD8044586 Si02
#       8
#     2   2   2   2   2   2   2   2
#     4  10  19  38  63  92 123 154 211 257 303 365
#     4  10  20  37  66  92 123 164 206 258 309 365
#     4  10  19  40  67  91 118 165 210 254 305 369
#     4  11  25  39  61  90 129 163 205 259 311 372
#     4  10  21  38  65  89 122 163 209 255 310 365
#     4  11  23  40  60  93 123 167 207 251 314 369
#     4  10  20  40  62  94 121 160 215 257 302 370
#     4  12  24  43  64  93 128 166 206 256 320 370
#
# _framework density 21.115786
#
# number of rings (size 3 to 8) (size 9 to 14) (size 15 to 20)
#    0.000    1.500    5.000    2.625    0.000    2.000 
#    2.250    0.625    0.000    0.000    0.000    0.000 
#    0.000    0.000    0.000    0.000    0.000    0.000 
#
# Total GULP energy -198324.336267 kJ/mol
# GULP energy per Si atom -12395.271017 kJ/mol
# Density = 2.106773 g / cm^3
# Si number density = 21.115786 Si / 1000 Ang^3
#
#
#
# Elastic Constant Matrix: (Units=GPa)
#
#
# Indices 1 2 3 4 5 6 
#
# 1 82.2284 33.5165 29.9357 17.7974 25.2447 7.5591
# 2 33.5165 95.0063 21.8082 13.5202 21.9823 5.8142
# 3 29.9357 21.8082 65.3297 9.2568 21.0566 3.0879
# 4 17.7974 13.5202 9.2568 32.4578 5.7910 3.1819
# 5 25.2447 21.9823 21.0566 5.7910 26.4098 3.5824
# 6 7.5591 5.8142 3.0879 3.1819 3.5824 37.4324
#
#
#
# Elastic Compliance Matrix: (Units=1/GPa)
#
#
# Indices 1 2 3 4 5 6 
#
# 1 0.019720 -0.002238 -0.003155 -0.006537 -0.012822 -0.001592
# 2 -0.002238 0.013773 -0.000488 -0.002842 -0.008229 -0.000618
# 3 -0.003155 -0.000488 0.021456 -0.001844 -0.013332 0.000376
# 4 -0.006537 -0.002842 -0.001844 0.035805 0.002418 -0.001361
# 5 -0.012822 -0.008229 -0.013332 0.002418 0.067297 -0.001679
# 6 -0.001592 -0.000618 0.000376 -0.001361 -0.001679 0.027378
#
#
# Mechanical properties :
#
#
# Convention : Reuss Voigt Hill
#
# Bulk Modulus (GPa) = 23.15491 45.89837 34.52664
# Shear Modulus (GPa) = 23.63089 29.74693 26.68891
#
# Velocity S-wave (km/s) = 3.34894 3.75741 3.55904
# Velocity P-wave (km/s) = 5.09346 6.37243 5.76850
#
# Compressibility (1/GPa) = 0.04318739
#
# Stress axis : x y z
#
# Youngs Moduli (GPa) = 50.71055 72.60332 46.60708
#
# Poissons Ratio (x) = 0.16250 0.14703
# Poissons Ratio (y) = 0.11350 0.02275
# Poissons Ratio (z) = 0.15997 0.03544
#
# Static dielectric constant tensor:
#      x y z
#    x 4.089860 0.125720 0.545880 
#    y 0.125720 3.769060 0.329080 
#    z 0.545880 0.329080 4.213540 
# 
# 
# High freq. dielectric constant tensor:
#      x y z
#    x 1.824950 0.005460 0.017770 
#    y 0.005460 1.806950 0.007850 
#    z 0.017770 0.007850 1.828830 
# 
# From -- ./inp_files/509184.got.cif
#   From: 2010.06.25/outbox.cif.g09.slc.cpg/sg2_255_cif.got.tgz:509184.got - 2010.06.27 13:26:56.
