data_PCOD8044089
_publ_section_title
;
Structure prediction by ZEFSAII (Michael W. Deem and Ramdas Pophale) SiO2 
 PCOD8044089
Probable space group: P -1
;
_chemical_formula_sum "Si O2"
_cell_formula_units_Z 14
_cell_length_a 8.508786
_cell_length_b 21.871043
_cell_length_c 13.500098
_cell_angle_alpha 27.154827
_cell_angle_beta 122.626547
_cell_angle_gamma 138.590042
_cell_volume 686.668969
_symmetry_space_group_name_H-M "P -1"
_symmetry_group_IT_number 2
_symmetry_cell_setting 'triclinic'
loop_
_space_group_symop_operation_xyz
x,y,z
-x,-y,-z
loop_
_atom_site_type_symbol
_atom_site_label
_atom_site_fract_x
_atom_site_fract_y
_atom_site_fract_z
Si Si1 0.339348 0.035319 0.171961
Si Si2 0.765679 0.706356 0.525424
Si Si3 0.895888 0.188294 0.941719
Si Si4 0.218253 0.951509 0.682980
Si Si5 0.283341 0.284883 0.272247
Si Si6 0.565356 0.611138 0.262418
Si Si7 0.452084 0.144813 0.838398
O O1 0.547795 0.032088 0.285458
O O2 0.433295 0.231034 0.946251
O O3 0.303363 0.006444 0.082775
O O4 0.072511 0.871853 0.373406
O O5 0.707252 0.700614 0.627673
O O6 0.652873 0.511708 0.722354
O O7 0.595550 0.721753 0.376644
O O8 0.765045 0.271006 0.770501
O O9 0.159318 0.308772 0.796759
O O10 0.940977 0.168296 0.099191
O O11 0.672639 0.977662 0.126876
O O12 0.009839 0.829430 0.699592
O O13 0.342464 0.163656 0.428680
O O14 0.500000 0.500000 0.000000
O O15 0.500000 0.500000 0.500000
#
# Coordination Sequence:
#
# PCOD8044089 Si02
#       7
#     2   2   2   2   2   2   2
#     4  11  23  42  62  93 132 157 202 248 312 381
#     4  12  23  40  64  90 125 168 198 257 312 354
#     4  10  20  38  63  90 125 161 206 245 309 372
#     4  10  23  44  67  88 119 169 203 258 309 355
#     4  11  24  44  66  90 119 157 220 261 297 357
#     4  12  23  37  59  96 131 164 196 244 308 373
#     4  10  19  37  63  92 121 162 199 248 305 370
#
# _framework density 20.388280000000002
#
# number of rings (size 3 to 8) (size 9 to 14) (size 15 to 20)
#    0.000    1.143    4.286    2.143    0.000    3.429 
#    2.571    1.429    0.000    0.000    0.000    0.000 
#    0.000    0.000    0.000    0.000    0.000    0.000 
#
# Total GULP energy -173564.062467 kJ/mol
# GULP energy per Si atom -12397.433033 kJ/mol
# Density = 2.034187 g / cm^3
# Si number density = 20.388280 Si / 1000 Ang^3
#
#
#
# Elastic Constant Matrix: (Units=GPa)
#
#
# Indices 1 2 3 4 5 6 
#
# 1 127.6932 32.3522 72.2054 -4.4757 9.6543 18.9984
# 2 32.3522 101.6778 42.9549 -9.7250 11.5971 2.6687
# 3 72.2054 42.9549 85.2801 -26.6174 -31.8112 39.2290
# 4 -4.4757 -9.7250 -26.6174 17.9929 -27.5985 22.7284
# 5 9.6543 11.5971 -31.8112 -27.5985 -21.2249 35.9338
# 6 18.9984 2.6687 39.2290 22.7284 35.9338 7.7637
#
#
#
# Elastic Compliance Matrix: (Units=1/GPa)
#
#
# Indices 1 2 3 4 5 6 
#
# 1 0.012739 -0.001015 -0.006335 0.002269 0.000289 -0.006790
# 2 -0.001015 0.011790 -0.002604 0.004855 -0.000099 -0.002168
# 3 -0.006335 -0.002604 0.011801 -0.004122 -0.007853 0.005185
# 4 0.002269 0.004855 -0.004122 0.024905 -0.013912 0.005086
# 5 0.000289 -0.000099 -0.007853 -0.013912 0.013334 0.018022
# 6 -0.006790 -0.002168 0.005185 0.005086 0.018022 0.021665
#
#
# Mechanical properties :
#
#
# Convention : Reuss Voigt Hill
#
# Bulk Modulus (GPa) = 60.89425 67.74179 64.31802
# Shear Modulus (GPa) = 41.11314 12.04891 26.58103
#
# Velocity S-wave (km/s) = 4.49543 2.43363 3.61465
# Velocity P-wave (km/s) = 7.54170 6.41831 7.00257
#
# Compressibility (1/GPa) = 0.01642191
#
# Stress axis : x y z
#
# Youngs Moduli (GPa) = 78.50161 84.81460 84.74090
#
# Poissons Ratio (x) = 0.08605 0.53685
# Poissons Ratio (y) = 0.07964 0.22068
# Poissons Ratio (z) = 0.49732 0.22087
#
# Static dielectric constant tensor:
#      x y z
#    x 3.920970 -0.069400 0.192500 
#    y -0.069400 3.776190 0.046520 
#    z 0.192500 0.046520 3.663700 
# 
# 
# High freq. dielectric constant tensor:
#      x y z
#    x 1.807080 -0.008230 0.003390 
#    y -0.008230 1.804970 0.000820 
#    z 0.003390 0.000820 1.785720 
# 
# From -- ./inp_files/200656.got.cif
#   From: 2010.06.25/outbox.cif.g09.slc.cpg/sg2_101_cif.got.tgz:200656.got - 2010.06.27 13:26:56.
