data_PCOD8044556
_publ_section_title
;
Structure prediction by ZEFSAII (Michael W. Deem and Ramdas Pophale) SiO2 
 PCOD8044556
Probable space group: P -1
;
_chemical_formula_sum "Si O2"
_cell_formula_units_Z 14
_cell_length_a 9.557327
_cell_length_b 8.795321
_cell_length_c 11.922846
_cell_angle_alpha 80.727665
_cell_angle_beta 88.595689
_cell_angle_gamma 132.144990
_cell_volume 721.248118
_symmetry_space_group_name_H-M "P -1"
_symmetry_group_IT_number 2
_symmetry_cell_setting 'triclinic'
loop_
_space_group_symop_operation_xyz
x,y,z
-x,-y,-z
loop_
_atom_site_type_symbol
_atom_site_label
_atom_site_fract_x
_atom_site_fract_y
_atom_site_fract_z
Si Si1 0.177855 0.011723 0.843538
Si Si2 0.118808 0.317042 0.755343
Si Si3 0.696620 0.023900 0.741056
Si Si4 0.414171 0.032422 0.653021
Si Si5 0.443459 0.738236 0.593673
Si Si6 0.883374 0.567067 0.011849
Si Si7 0.524609 0.838370 0.997681
O O1 0.112641 0.131765 0.798687
O O2 0.238914 0.965926 0.736350
O O3 0.356232 0.153808 0.907891
O O4 0.995937 0.794250 0.929711
O O5 0.293424 0.488785 0.648342
O O6 0.923662 0.220671 0.709040
O O7 0.147137 0.432789 0.855492
O O8 0.589276 0.109591 0.721899
O O9 0.627095 0.861507 0.659156
O O10 0.640237 0.900418 0.873202
O O11 0.487903 0.217804 0.542079
O O12 0.340362 0.827094 0.608671
O O13 0.679170 0.399693 0.975399
O O14 0.000000 0.500000 0.000000
O O15 0.500000 0.000000 0.000000
#
# Coordination Sequence:
#
# PCOD8044556 Si02
#       7
#     2   2   2   2   2   2   2
#     4  12  25  38  57  98 124 153 195 246 306 353
#     4  12  24  37  61  92 126 154 193 248 306 351
#     4  10  19  38  63  86 115 155 205 238 289 352
#     4   9  20  43  64  82 118 158 208 248 279 352
#     4   9  20  42  65  83 115 162 208 243 286 346
#     4  12  22  38  61  86 121 159 198 242 287 356
#     4  12  20  37  64  87 119 157 199 242 295 358
#
# _framework density 19.410796000000001
#
# number of rings (size 3 to 8) (size 9 to 14) (size 15 to 20)
#    0.857    0.286    5.714    1.286    0.000    2.857 
#    0.000    0.714    0.000    0.000    0.000    0.000 
#    0.000    0.000    0.000    0.000    0.000    0.000 
#
# Total GULP energy -173599.043469 kJ/mol
# GULP energy per Si atom -12399.931676 kJ/mol
# Density = 1.936662 g / cm^3
# Si number density = 19.410796 Si / 1000 Ang^3
#
#
#
# Elastic Constant Matrix: (Units=GPa)
#
#
# Indices 1 2 3 4 5 6 
#
# 1 43.6161 19.1832 1.7382 4.2844 7.0720 6.1151
# 2 19.1832 106.7583 15.0900 -17.0692 7.9083 27.1948
# 3 1.7382 15.0900 87.5309 -16.2656 -3.0356 9.6065
# 4 4.2844 -17.0692 -16.2656 30.0066 -4.1583 2.0140
# 5 7.0720 7.9083 -3.0356 -4.1583 15.2208 -4.8104
# 6 6.1151 27.1948 9.6065 2.0140 -4.8104 35.3613
#
#
#
# Elastic Compliance Matrix: (Units=1/GPa)
#
#
# Indices 1 2 3 4 5 6 
#
# 1 0.028739 -0.004820 -0.001804 -0.009692 -0.014552 -0.002200
# 2 -0.004820 0.015462 0.000344 0.009533 -0.007123 -0.012663
# 3 -0.001804 0.000344 0.013559 0.008679 0.004628 -0.003501
# 4 -0.009692 0.009533 0.008679 0.047009 0.011228 -0.009163
# 5 -0.014552 -0.007123 0.004628 0.011228 0.085766 0.017765
# 6 -0.002200 -0.012663 -0.003501 -0.009163 0.017765 0.042288
#
#
# Mechanical properties :
#
#
# Convention : Reuss Voigt Hill
#
# Bulk Modulus (GPa) = 22.12381 34.43646 28.28014
# Shear Modulus (GPa) = 19.19758 29.57734 24.38746
#
# Velocity S-wave (km/s) = 3.14827 3.90777 3.54840
# Velocity P-wave (km/s) = 4.96366 6.17578 5.60260
#
# Compressibility (1/GPa) = 0.04520018
#
# Stress axis : x y z
#
# Youngs Moduli (GPa) = 34.79561 64.67477 73.75386
#
# Poissons Ratio (x) = 0.31175 0.13305
# Poissons Ratio (y) = 0.16773 -0.02540
# Poissons Ratio (z) = 0.06277 -0.02227
#
# Static dielectric constant tensor:
#      x y z
#    x 3.420070 0.240370 -0.007200 
#    y 0.240370 3.626040 -0.049520 
#    z -0.007200 -0.049520 3.674050 
# 
# 
# High freq. dielectric constant tensor:
#      x y z
#    x 1.736560 0.009530 -0.000910 
#    y 0.009530 1.744790 -0.005360 
#    z -0.000910 -0.005360 1.761780 
# 
# From -- ./inp_files/378741.got.cif
#   From: 2010.06.25/outbox.cif.g09.slc.cpg/sg2_190_cif.got.tgz:378741.got - 2010.06.27 13:26:56.
