data_PCOD8044842
_publ_section_title
;
Structure prediction by ZEFSAII (Michael W. Deem and Ramdas Pophale) SiO2 
 PCOD8044842
Probable space group: P 2
;
_chemical_formula_sum "Si O2"
_cell_formula_units_Z 16
_cell_length_a 10.922618
_cell_length_b 9.637571
_cell_length_c 9.219888
_cell_angle_alpha 90.000000
_cell_angle_beta 116.975210
_cell_angle_gamma 90.000000
_cell_volume 864.961060
_symmetry_space_group_name_H-M "P 2"
_symmetry_group_IT_number 3
_symmetry_cell_setting 'monoclinic'
loop_
_space_group_symop_operation_xyz
x,y,z
-x,y,-z
loop_
_atom_site_type_symbol
_atom_site_label
_atom_site_fract_x
_atom_site_fract_y
_atom_site_fract_z
Si Si1 0.234310 0.469140 0.090819
Si Si2 0.172669 0.351028 0.343208
Si Si3 0.620904 0.141571 0.450886
Si Si4 0.114301 0.722832 0.173602
Si Si5 0.649247 0.830708 0.512196
Si Si6 0.723866 0.563952 0.391289
Si Si7 0.936231 0.517510 0.272812
Si Si8 0.478018 0.356993 0.826088
O O1 0.150385 0.371368 0.158397
O O2 0.216114 0.626193 0.135551
O O3 0.387876 0.413266 0.182233
O O4 0.180836 0.463916 0.898926
O O5 0.235280 0.200980 0.409778
O O6 0.275184 0.471996 0.460763
O O7 0.028011 0.378308 0.347021
O O8 0.500000 0.164855 0.500000
O O9 0.582402 0.221088 0.283807
O O10 0.645150 0.979936 0.432306
O O11 0.221148 0.831298 0.304416
O O12 0.034146 0.637214 0.256319
O O13 0.000000 0.788755 0.000000
O O14 0.500000 0.799176 0.500000
O O15 0.674651 0.718322 0.400399
O O16 0.872310 0.570473 0.390260
O O17 0.623309 0.488537 0.224805
O O18 0.500000 0.305692 0.000000
#
# Coordination Sequence:
#
# PCOD8044842 Si02
#       8
#     2   2   2   2   2   2   2   2
#     4  10  17  33  57  88 112 143 191 245 300 340
#     4  10  19  33  59  82 111 143 195 239 288 345
#     4  10  22  38  60  82 115 158 199 243 287 346
#     4   9  19  35  60  86 123 151 191 247 299 350
#     4  11  22  38  60  87 120 161 205 241 286 354
#     4  11  21  32  60  86 112 149 192 248 290 346
#     4  10  19  33  55  88 116 145 183 246 305 343
#     4  11  21  36  59  86 118 147 193 252 305 346
#
# _framework density 18.497941999999998
#
# number of rings (size 3 to 8) (size 9 to 14) (size 15 to 20)
#    0.000    1.750    5.000    2.250    0.000    0.000 
#    0.000    1.875   16.500    0.000    0.000    0.000 
#    0.000    0.000    0.000    0.000    0.000    0.000 
#
# Total GULP energy -198253.950401 kJ/mol
# GULP energy per Si atom -12390.871900 kJ/mol
# Density = 1.845584 g / cm^3
# Si number density = 18.497942 Si / 1000 Ang^3
#
#
#
# Elastic Constant Matrix: (Units=GPa)
#
#
# Indices 1 2 3 4 5 6 
#
# 1 105.7828 50.6152 25.1960 0.0000 1.8812 0.0000
# 2 50.6152 113.6547 43.3038 0.0000 1.5399 0.0000
# 3 25.1960 43.3038 81.1128 0.0000 2.5112 0.0000
# 4 0.0000 0.0000 0.0000 21.9825 0.0000 4.8208
# 5 1.8812 1.5399 2.5112 0.0000 33.1830 0.0000
# 6 0.0000 0.0000 0.0000 4.8208 0.0000 20.8163
#
#
#
# Elastic Compliance Matrix: (Units=1/GPa)
#
#
# Indices 1 2 3 4 5 6 
#
# 1 0.012096 -0.004965 -0.001096 0.000000 -0.000372 0.000000
# 2 -0.004965 0.013083 -0.005445 0.000000 0.000086 0.000000
# 3 -0.001096 -0.005445 0.015603 0.000000 -0.000866 0.000000
# 4 0.000000 0.000000 0.000000 0.047925 0.000000 -0.011099
# 5 -0.000372 0.000086 -0.000866 0.000000 0.030219 0.000000
# 6 0.000000 0.000000 0.000000 -0.011099 0.000000 0.050610
#
#
# Mechanical properties :
#
#
# Convention : Reuss Voigt Hill
#
# Bulk Modulus (GPa) = 56.26986 59.86446 58.06716
# Shear Modulus (GPa) = 25.19282 27.29205 26.24244
#
# Velocity S-wave (km/s) = 3.69443 3.84527 3.77061
# Velocity P-wave (km/s) = 6.97739 7.22135 7.10042
#
# Compressibility (1/GPa) = 0.01777150
#
# Stress axis : x y z
#
# Youngs Moduli (GPa) = 82.66965 76.43504 64.09172
#
# Poissons Ratio (x) = 0.37947 0.07021
# Poissons Ratio (y) = 0.41042 0.34899
# Poissons Ratio (z) = 0.09057 0.41620
#
# Static dielectric constant tensor:
#      x y z
#    x 3.493890 0.000000 0.206210 
#    y 0.000000 3.077040 0.000000 
#    z 0.206210 0.000000 3.589760 
# 
# 
# High freq. dielectric constant tensor:
#      x y z
#    x 1.725240 0.000000 0.009270 
#    y 0.000000 1.672930 0.000000 
#    z 0.009270 0.000000 1.730150 
# 
# From -- ./inp_files/7462.got.cif
#   From: 2010.03.12/outbox.cif.g09.slc.cpg/sg3_4_cif.got.tgz:7462.got - 2010.03.31 09:20:49.
