data_PCOD8044370
_publ_section_title
;
Structure prediction by ZEFSAII (Michael W. Deem and Ramdas Pophale) SiO2 
 PCOD8044370
Probable space group: P -1
;
_chemical_formula_sum "Si O2"
_cell_formula_units_Z 14
_cell_length_a 12.233486
_cell_length_b 12.424044
_cell_length_c 12.070567
_cell_angle_alpha 33.832664
_cell_angle_beta 41.816174
_cell_angle_gamma 59.620450
_cell_volume 648.512009
_symmetry_space_group_name_H-M "P -1"
_symmetry_group_IT_number 2
_symmetry_cell_setting 'triclinic'
loop_
_space_group_symop_operation_xyz
x,y,z
-x,-y,-z
loop_
_atom_site_type_symbol
_atom_site_label
_atom_site_fract_x
_atom_site_fract_y
_atom_site_fract_z
Si Si1 0.090879 0.332502 0.602460
Si Si2 0.647417 0.679128 0.299959
Si Si3 0.758768 0.576605 0.074449
Si Si4 0.115235 0.811112 0.679217
Si Si5 0.541050 0.020850 0.822583
Si Si6 0.999825 0.929381 0.886850
Si Si7 0.429967 0.587441 0.215531
O O1 0.298782 0.447307 0.345305
O O2 0.000000 0.500000 0.500000
O O3 0.059992 0.164694 0.673637
O O4 0.008739 0.219961 0.874528
O O5 0.633775 0.580334 0.271975
O O6 0.660446 0.505459 0.521659
O O7 0.495527 0.775146 0.367112
O O8 0.814524 0.874833 0.015542
O O9 0.833179 0.391721 0.169671
O O10 0.629738 0.579959 0.066051
O O11 0.930741 0.771057 0.790882
O O12 0.125787 0.900178 0.719565
O O13 0.259153 0.962078 0.363753
O O14 0.428877 0.820370 0.012499
O O15 0.500000 0.000000 0.000000
#
# Coordination Sequence:
#
# PCOD8044370 Si02
#       7
#     2   2   2   2   2   2   2
#     4  10  21  42  67  89 114 156 214 255 299 355
#     4  10  19  38  61  86 124 158 199 240 301 371
#     4  10  19  38  59  87 124 159 193 241 303 362
#     4  10  22  38  60  90 128 159 198 244 301 366
#     4  12  22  35  59  95 124 162 197 239 299 366
#     4   9  21  42  65  86 117 164 198 254 305 349
#     4  11  21  35  62  87 119 160 199 250 299 356
#
# _framework density 21.587883000000001
#
# number of rings (size 3 to 8) (size 9 to 14) (size 15 to 20)
#    0.000    1.714    2.857    2.143    0.000    1.714 
#    2.571    1.429    0.000    0.000    0.000    0.000 
#    0.000    0.000    0.000    0.000    0.000    0.000 
#
# Total GULP energy -173450.561420 kJ/mol
# GULP energy per Si atom -12389.325816 kJ/mol
# Density = 2.153875 g / cm^3
# Si number density = 21.587883 Si / 1000 Ang^3
#
#
#
# Elastic Constant Matrix: (Units=GPa)
#
#
# Indices 1 2 3 4 5 6 
#
# 1 91.5861 52.3102 25.5027 -12.1642 -26.6026 -0.9364
# 2 52.3102 135.9222 57.4552 -12.0568 -20.4240 2.1632
# 3 25.5027 57.4552 97.7724 -3.2573 -20.0035 8.1603
# 4 -12.1642 -12.0568 -3.2573 49.8053 7.1772 -1.6201
# 5 -26.6026 -20.4240 -20.0035 7.1772 29.8651 -7.2113
# 6 -0.9364 2.1632 8.1603 -1.6201 -7.2113 35.2909
#
#
#
# Elastic Compliance Matrix: (Units=1/GPa)
#
#
# Indices 1 2 3 4 5 6 
#
# 1 0.017674 -0.005107 0.000883 0.001326 0.013335 0.003364
# 2 -0.005107 0.011751 -0.005672 0.001316 -0.000530 0.000408
# 3 0.000883 -0.005672 0.014805 -0.001210 0.006695 -0.001740
# 4 0.001326 0.001316 -0.001210 0.021191 -0.003714 0.000448
# 5 0.013335 -0.000530 0.006695 -0.003714 0.052653 0.009427
# 6 0.003364 0.000408 -0.001740 0.000448 0.009427 0.030749
#
#
# Mechanical properties :
#
#
# Convention : Reuss Voigt Hill
#
# Bulk Modulus (GPa) = 40.92023 66.20187 53.56105
# Shear Modulus (GPa) = 28.28673 35.65975 31.97324
#
# Velocity S-wave (km/s) = 3.62374 4.06869 3.85265
# Velocity P-wave (km/s) = 6.04194 7.26672 6.68245
#
# Compressibility (1/GPa) = 0.02443779
#
# Stress axis : x y z
#
# Youngs Moduli (GPa) = 56.58097 85.10084 67.54440
#
# Poissons Ratio (x) = 0.43463 -0.05964
# Poissons Ratio (y) = 0.28897 0.38309
# Poissons Ratio (z) = -0.04996 0.48267
#
# Static dielectric constant tensor:
#      x y z
#    x 3.910940 -0.042640 -0.470430 
#    y -0.042640 3.967470 -0.166730 
#    z -0.470430 -0.166730 4.173270 
# 
# 
# High freq. dielectric constant tensor:
#      x y z
#    x 1.828250 -0.010720 -0.029870 
#    y -0.010720 1.844730 -0.022470 
#    z -0.029870 -0.022470 1.861670 
# 
# From -- ./inp_files/251460.got.cif
#   From: 2010.06.25/outbox.cif.g09.slc.cpg/sg2_126_cif.got.tgz:251460.got - 2010.06.27 13:26:56.
