data_PCOD8044639
_publ_section_title
;
Structure prediction by ZEFSAII (Michael W. Deem and Ramdas Pophale) SiO2 
 PCOD8044639
Probable space group: P -1
;
_chemical_formula_sum "Si O2"
_cell_formula_units_Z 16
_cell_length_a 14.944733
_cell_length_b 13.832407
_cell_length_c 12.194275
_cell_angle_alpha 151.961600
_cell_angle_beta 48.543858
_cell_angle_gamma 140.860252
_cell_volume 745.794277
_symmetry_space_group_name_H-M "P -1"
_symmetry_group_IT_number 2
_symmetry_cell_setting 'triclinic'
loop_
_space_group_symop_operation_xyz
x,y,z
-x,-y,-z
loop_
_atom_site_type_symbol
_atom_site_label
_atom_site_fract_x
_atom_site_fract_y
_atom_site_fract_z
Si Si1 0.704740 0.107326 0.018102
Si Si2 0.647852 0.603025 0.609755
Si Si3 0.999736 0.479107 0.725815
Si Si4 0.780243 0.958567 0.452318
Si Si5 0.337625 0.437176 0.685717
Si Si6 0.137019 0.299434 0.290005
Si Si7 0.887085 0.769964 0.003830
Si Si8 0.415525 0.964573 0.187641
O O1 0.862458 0.338685 0.132834
O O2 0.585070 0.152651 0.212458
O O3 0.674319 0.036082 0.843883
O O4 0.689218 0.879831 0.866405
O O5 0.476456 0.415798 0.562303
O O6 0.706590 0.569087 0.411545
O O7 0.722393 0.561805 0.610261
O O8 0.044360 0.414203 0.509889
O O9 0.913707 0.237545 0.629551
O O10 0.902679 0.583947 0.881040
O O11 0.636166 0.959457 0.586083
O O12 0.789020 0.793988 0.376832
O O13 0.782186 0.837160 0.214021
O O14 0.378049 0.690524 0.961815
O O15 0.182442 0.352514 0.179183
O O16 0.044923 0.008737 0.097179
#
# Coordination Sequence:
#
# PCOD8044639 Si02
#       8
#     2   2   2   2   2   2   2   2
#     4  10  20  37  62  91 120 156 209 247 297 369
#     4  10  19  38  64  91 118 157 204 255 300 351
#     4  11  22  38  63  90 123 159 203 255 305 359
#     4  11  23  39  61  89 128 167 190 252 313 362
#     4  10  21  37  62  89 124 158 199 247 302 372
#     4  10  21  38  65  90 116 160 208 257 295 358
#     4  10  22  41  60  89 123 161 206 251 304 357
#     4  10  21  38  60  87 123 164 197 249 302 357
#
# _framework density 21.453637000000001
#
# number of rings (size 3 to 8) (size 9 to 14) (size 15 to 20)
#    0.000    1.750    2.500    1.875    3.500    0.500 
#    0.000    6.875    0.000    2.250    0.000    0.000 
#    0.000    0.000    0.000    0.000    0.000    0.000 
#
# Total GULP energy -198385.914625 kJ/mol
# GULP energy per Si atom -12399.119664 kJ/mol
# Density = 2.140481 g / cm^3
# Si number density = 21.453637 Si / 1000 Ang^3
#
#
#
# Elastic Constant Matrix: (Units=GPa)
#
#
# Indices 1 2 3 4 5 6 
#
# 1 89.8060 39.4744 36.0720 -4.6906 6.4050 -3.0746
# 2 39.4744 124.2042 50.8095 0.8700 8.6060 -10.5110
# 3 36.0720 50.8095 96.1396 -18.7993 1.6739 1.8102
# 4 -4.6906 0.8700 -18.7993 42.0636 5.1660 -5.6718
# 5 6.4050 8.6060 1.6739 5.1660 31.3114 -0.0510
# 6 -3.0746 -10.5110 1.8102 -5.6718 -0.0510 17.4998
#
#
#
# Elastic Compliance Matrix: (Units=1/GPa)
#
#
# Indices 1 2 3 4 5 6 
#
# 1 0.014031 -0.002662 -0.003778 0.000360 -0.001994 0.001368
# 2 -0.002662 0.012007 -0.005824 -0.001987 -0.002105 0.006696
# 3 -0.003778 -0.005824 0.016208 0.006380 0.000449 -0.003770
# 4 0.000360 -0.001987 0.006380 0.028252 -0.004518 0.007354
# 5 -0.001994 -0.002105 0.000449 -0.004518 0.033640 -0.003027
# 6 0.001368 0.006696 -0.003770 0.007354 -0.003027 0.064170
#
#
# Mechanical properties :
#
#
# Convention : Reuss Voigt Hill
#
# Bulk Modulus (GPa) = 56.44705 62.54015 59.49360
# Shear Modulus (GPa) = 25.15821 30.42789 27.79305
#
# Velocity S-wave (km/s) = 3.42815 3.77013 3.60320
# Velocity P-wave (km/s) = 6.48367 6.94020 6.71582
#
# Compressibility (1/GPa) = 0.01771572
#
# Stress axis : x y z
#
# Youngs Moduli (GPa) = 71.27253 83.28798 61.69869
#
# Poissons Ratio (x) = 0.22175 0.23309
# Poissons Ratio (y) = 0.18976 0.35936
# Poissons Ratio (z) = 0.26926 0.48510
#
# Static dielectric constant tensor:
#      x y z
#    x 3.529080 -0.066710 -0.277820 
#    y -0.066710 3.854350 0.063940 
#    z -0.277820 0.063940 4.139850 
# 
# 
# High freq. dielectric constant tensor:
#      x y z
#    x 1.805000 -0.009140 -0.029470 
#    y -0.009140 1.834400 0.014530 
#    z -0.029470 0.014530 1.866110 
# 
# From -- ./inp_files/455993.got.cif
#   From: 2010.06.25/outbox.cif.g09.slc.cpg/sg2_228_cif.got.tgz:455993.got - 2010.06.27 13:26:56.
