data_PCOD8044055
_publ_section_title
;
Structure prediction by ZEFSAII (Michael W. Deem and Ramdas Pophale) SiO2 
 PCOD8044055
Probable space group: P -1
;
_chemical_formula_sum "Si O2"
_cell_formula_units_Z 16
_cell_length_a 27.741767
_cell_length_b 11.774655
_cell_length_c 10.143969
_cell_angle_alpha 127.497578
_cell_angle_beta 144.532549
_cell_angle_gamma 28.549510
_cell_volume 848.144325
_symmetry_space_group_name_H-M "P -1"
_symmetry_group_IT_number 2
_symmetry_cell_setting 'triclinic'
loop_
_space_group_symop_operation_xyz
x,y,z
-x,-y,-z
loop_
_atom_site_type_symbol
_atom_site_label
_atom_site_fract_x
_atom_site_fract_y
_atom_site_fract_z
Si Si1 0.327431 0.745522 0.254244
Si Si2 0.239576 0.885217 0.865960
Si Si3 0.173293 0.260464 0.253829
Si Si4 0.637573 0.994399 0.761546
Si Si5 0.314524 0.371582 0.285959
Si Si6 0.836529 0.271270 0.556761
Si Si7 0.155711 0.722189 0.937387
Si Si8 0.893137 0.372775 0.495481
O O1 0.500000 0.500000 0.500000
O O2 0.240790 0.016745 0.289897
O O3 0.316639 0.730629 0.064727
O O4 0.251103 0.729983 0.156371
O O5 0.264807 0.721327 0.702203
O O6 0.064355 0.162552 0.695835
O O7 0.315500 0.922401 0.007417
O O8 0.261086 0.180028 0.262467
O O9 0.193851 0.354968 0.475834
O O10 0.000000 0.500000 0.000000
O O11 0.657500 0.839074 0.802185
O O12 0.466023 0.243126 0.506935
O O13 0.254395 0.497624 0.385690
O O14 0.198659 0.568025 0.050986
O O15 0.888562 0.276227 0.543648
O O16 0.982620 0.006783 0.770348
O O17 0.186890 0.587599 0.778442
#
# Coordination Sequence:
#
# PCOD8044055 Si02
#       8
#     2   2   2   2   2   2   2   2
#     4  11  21  35  58  92 127 147 188 261 313 330
#     4  10  19  37  63  87 113 154 204 253 289 351
#     4  11  19  37  67  91 107 157 211 244 286 364
#     4  10  22  39  58  81 122 159 200 239 299 357
#     4  11  24  39  56  84 123 166 192 236 304 367
#     4  11  20  38  62  88 116 159 205 237 299 362
#     4  11  21  38  58  91 124 148 197 258 300 345
#     4  11  19  37  65  94 110 152 207 256 291 344
#
# _framework density 18.864713999999999
#
# number of rings (size 3 to 8) (size 9 to 14) (size 15 to 20)
#    0.000    1.250    6.250    2.625    0.000    0.500 
#    0.000    8.750    0.000    0.000    0.000    0.000 
#    0.000    0.000    0.000    0.000    0.000    0.000 
#
# Total GULP energy -198410.331152 kJ/mol
# GULP energy per Si atom -12400.645697 kJ/mol
# Density = 1.882178 g / cm^3
# Si number density = 18.864714 Si / 1000 Ang^3
#
#
#
# Elastic Constant Matrix: (Units=GPa)
#
#
# Indices 1 2 3 4 5 6 
#
# 1 64.1269 11.2635 27.7681 1.5491 0.1689 8.9045
# 2 11.2635 77.4226 34.2860 3.8328 -6.1462 9.4212
# 3 27.7681 34.2860 92.3147 3.3965 6.4508 8.3241
# 4 1.5491 3.8328 3.3965 30.2494 2.8409 6.6672
# 5 0.1689 -6.1462 6.4508 2.8409 31.1547 0.9355
# 6 8.9045 9.4212 8.3241 6.6672 0.9355 30.3445
#
#
#
# Elastic Compliance Matrix: (Units=1/GPa)
#
#
# Indices 1 2 3 4 5 6 
#
# 1 0.018434 0.000270 -0.005367 0.000431 0.001150 -0.004151
# 2 0.000270 0.016455 -0.006176 -0.001100 0.004726 -0.003398
# 3 -0.005367 -0.006176 0.015089 -0.000127 -0.004287 -0.000487
# 4 0.000431 -0.001100 -0.000127 0.035112 -0.003174 -0.007367
# 5 0.001150 0.004726 -0.004287 -0.003174 0.034231 -0.000987
# 6 -0.004151 -0.003398 -0.000487 -0.007367 -0.000987 0.037011
#
#
# Mechanical properties :
#
#
# Convention : Reuss Voigt Hill
#
# Bulk Modulus (GPa) = 36.45450 42.27772 39.36611
# Shear Modulus (GPa) = 26.59285 29.05281 27.82283
#
# Velocity S-wave (km/s) = 3.75862 3.92862 3.84456
# Velocity P-wave (km/s) = 6.18081 6.56036 6.37341
#
# Compressibility (1/GPa) = 0.02743145
#
# Stress axis : x y z
#
# Youngs Moduli (GPa) = 54.24866 60.77195 66.27409
#
# Poissons Ratio (x) = -0.01641 0.35570
# Poissons Ratio (y) = -0.01465 0.40931
# Poissons Ratio (z) = 0.29115 0.37533
#
# Static dielectric constant tensor:
#      x y z
#    x 3.277860 0.074740 0.204420 
#    y 0.074740 3.745360 0.334570 
#    z 0.204420 0.334570 3.789440 
# 
# 
# High freq. dielectric constant tensor:
#      x y z
#    x 1.716730 0.006940 0.014040 
#    y 0.006940 1.738520 0.008200 
#    z 0.014040 0.008200 1.736110 
# 
# From -- ./inp_files/457370.got.cif
#   From: 2010.06.25/outbox.cif.g09.slc.cpg/sg2_229_cif.got.tgz:457370.got - 2010.06.27 13:26:56.
