data_PCOD8044324
_publ_section_title
;
Structure prediction by ZEFSAII (Michael W. Deem and Ramdas Pophale) SiO2 
 PCOD8044324
Probable space group: P -1
;
_chemical_formula_sum "Si O2"
_cell_formula_units_Z 12
_cell_length_a 12.853240
_cell_length_b 14.166798
_cell_length_c 9.020164
_cell_angle_alpha 63.866800
_cell_angle_beta 38.453952
_cell_angle_gamma 42.157740
_cell_volume 645.809829
_symmetry_space_group_name_H-M "P -1"
_symmetry_group_IT_number 2
_symmetry_cell_setting 'triclinic'
loop_
_space_group_symop_operation_xyz
x,y,z
-x,-y,-z
loop_
_atom_site_type_symbol
_atom_site_label
_atom_site_fract_x
_atom_site_fract_y
_atom_site_fract_z
Si Si1 0.985121 0.008756 0.755507
Si Si2 0.047866 0.638791 0.783535
Si Si3 0.196016 0.234987 0.744073
Si Si4 0.277820 0.981657 0.701459
Si Si5 0.202510 0.437914 0.004176
Si Si6 0.734178 0.245653 0.616259
O O1 0.849135 0.146717 0.702341
O O2 0.796123 0.032293 0.048908
O O3 0.142076 0.006652 0.691266
O O4 0.153940 0.853346 0.587604
O O5 0.212546 0.652523 0.510572
O O6 0.877957 0.649301 0.851526
O O7 0.215662 0.478239 0.792368
O O8 0.882430 0.770507 0.000225
O O9 0.452150 0.174173 0.516991
O O10 0.000017 0.406706 0.786102
O O11 0.227014 0.128585 0.664443
O O12 0.454722 0.343543 0.866204
#
# Coordination Sequence:
#
# PCOD8044324 Si02
#       6
#     2   2   2   2   2   2
#     4  10  22  35  56  82 111 148 179 227 277 320
#     4   9  18  34  59  87 103 144 187 224 276 316
#     4   9  18  35  59  80 103 148 187 222 266 330
#     4  10  19  38  57  77 113 148 185 214 275 345
#     4   9  19  35  58  86 107 143 185 229 274 317
#     4  11  20  38  56  87 112 137 186 238 268 317
#
# _framework density 18.581322
#
# number of rings (size 3 to 8) (size 9 to 14) (size 15 to 20)
#    1.000    1.333    1.667    1.500    0.000    0.000 
#    9.000    4.167    0.000    0.000    0.000    0.000 
#    0.000    0.000    0.000    0.000    0.000    0.000 
#
# Total GULP energy -148685.931729 kJ/mol
# GULP energy per Si atom -12390.494311 kJ/mol
# Density = 1.853903 g / cm^3
# Si number density = 18.581322 Si / 1000 Ang^3
#
#
#
# Elastic Constant Matrix: (Units=GPa)
#
#
# Indices 1 2 3 4 5 6 
#
# 1 170.5726 83.7689 177.9728 -79.1693 -72.8118 -15.8896
# 2 83.7689 98.8910 85.6147 -14.7637 -37.4103 -7.8277
# 3 177.9728 85.6147 151.9265 -1.9501 -76.8064 -37.4894
# 4 -79.1693 -14.7637 -1.9501 15.4739 28.9719 11.8939
# 5 -72.8118 -37.4103 -76.8064 28.9719 66.6954 10.2482
# 6 -15.8896 -7.8277 -37.4894 11.8939 10.2482 24.8398
#
#
#
# Elastic Compliance Matrix: (Units=1/GPa)
#
#
# Indices 1 2 3 4 5 6 
#
# 1 0.003928 -0.004454 0.004916 -0.008648 0.009888 0.008590
# 2 -0.004454 0.018575 -0.006138 -0.003426 0.000733 -0.004921
# 3 0.004916 -0.006138 0.005848 0.015253 0.001721 0.002022
# 4 -0.008648 -0.003426 0.015253 0.009370 0.000321 0.011790
# 5 0.009888 0.000733 0.001721 0.000321 0.028463 -0.002743
# 6 0.008590 -0.004921 0.002022 0.011790 -0.002743 0.042740
#
#
# Mechanical properties :
#
#
# Convention : Reuss Voigt Hill
#
# Bulk Modulus (GPa) = 58.83016 124.01143 91.42080
# Shear Modulus (GPa) = 39.70036 26.33741 33.01888
#
# Velocity S-wave (km/s) = 4.62732 3.76894 4.22001
# Velocity P-wave (km/s) = 7.76396 9.26416 8.54704
#
# Compressibility (1/GPa) = 0.01699808
#
# Stress axis : x y z
#
# Youngs Moduli (GPa) = 254.58236 53.83543 171.00137
#
# Poissons Ratio (x) = 0.23977 -0.84058
# Poissons Ratio (y) = 1.13384 1.04967
# Poissons Ratio (z) = -1.25143 0.33046
#
# Static dielectric constant tensor:
#      x y z
#    x 3.310210 0.136790 -0.161920 
#    y 0.136790 3.163080 0.086710 
#    z -0.161920 0.086710 3.343450 
# 
# 
# High freq. dielectric constant tensor:
#      x y z
#    x 1.718590 0.014870 -0.019200 
#    y 0.014870 1.704240 0.010910 
#    z -0.019200 0.010910 1.714020 
# 
# From -- ./inp_files/162672.got.cif
#   From: 2010.06.25/outbox.cif.g09.slc.cpg/sg2_82_cif.got.tgz:162672.got - 2010.06.27 13:26:56.
