data_PCOD8044830
_publ_section_title
;
Structure prediction by ZEFSAII (Michael W. Deem and Ramdas Pophale) SiO2 
 PCOD8044830
Probable space group: P -1
;
_chemical_formula_sum "Si O2"
_cell_formula_units_Z 14
_cell_length_a 11.095631
_cell_length_b 19.345615
_cell_length_c 7.737650
_cell_angle_alpha 51.906151
_cell_angle_beta 43.288066
_cell_angle_gamma 30.788933
_cell_volume 582.772069
_symmetry_space_group_name_H-M "P -1"
_symmetry_group_IT_number 2
_symmetry_cell_setting 'triclinic'
loop_
_space_group_symop_operation_xyz
x,y,z
-x,-y,-z
loop_
_atom_site_type_symbol
_atom_site_label
_atom_site_fract_x
_atom_site_fract_y
_atom_site_fract_z
Si Si1 0.298490 0.865410 0.589768
Si Si2 0.743559 0.156557 0.714953
Si Si3 0.449514 0.599655 0.272763
Si Si4 0.612285 0.868766 0.849428
Si Si5 0.227248 0.396847 0.280690
Si Si6 0.276207 0.151169 0.873755
Si Si7 0.028630 0.294366 0.573481
O O1 0.242097 0.831481 0.525493
O O2 0.480271 0.741619 0.727854
O O3 0.447143 0.898898 0.335963
O O4 0.007828 0.006572 0.748863
O O5 0.710388 0.262570 0.676445
O O6 0.482892 0.195824 0.968813
O O7 0.500000 0.500000 0.500000
O O8 0.272314 0.623337 0.270413
O O9 0.718771 0.538141 0.996055
O O10 0.765122 0.838878 0.559660
O O11 0.346427 0.027806 0.920378
O O12 0.822019 0.806054 0.889545
O O13 0.000000 0.500000 0.500000
O O14 0.093709 0.371210 0.341786
O O15 0.061863 0.272150 0.779043
#
# Coordination Sequence:
#
# PCOD8044830 Si02
#       7
#     2   2   2   2   2   2   2
#     4   9  21  42  72 104 146 187 235 312 369 440
#     4  10  21  42  70 109 147 188 240 304 379 436
#     4  12  29  47  73 109 145 200 251 306 369 449
#     4  10  19  38  70 104 149 187 229 303 372 445
#     4  11  27  51  73 106 146 197 251 309 371 440
#     4   9  20  37  64 107 143 187 235 289 374 443
#     4  11  24  45  70 101 142 196 244 302 365 442
#
# _framework density 24.023114
#
# number of rings (size 3 to 8) (size 9 to 14) (size 15 to 20)
#    0.000    1.714    1.429    1.286    4.000    7.429 
#    0.000    0.000    0.000    0.000    0.000    0.000 
#    0.000    0.000    0.000    0.000    0.000    0.000 
#
# Total GULP energy -173483.262570 kJ/mol
# GULP energy per Si atom -12391.661612 kJ/mol
# Density = 2.396844 g / cm^3
# Si number density = 24.023114 Si / 1000 Ang^3
#
#
#
# Elastic Constant Matrix: (Units=GPa)
#
#
# Indices 1 2 3 4 5 6 
#
# 1 130.9348 36.9820 33.9261 -1.8048 -16.7581 0.6695
# 2 36.9820 89.7772 42.5585 -3.4808 -4.0149 6.4641
# 3 33.9261 42.5585 101.5395 -11.2121 -3.2844 8.0898
# 4 -1.8048 -3.4808 -11.2121 33.4633 5.6452 2.5709
# 5 -16.7581 -4.0149 -3.2844 5.6452 31.3538 0.6546
# 6 0.6695 6.4641 8.0898 2.5709 0.6546 25.4164
#
#
#
# Elastic Compliance Matrix: (Units=1/GPa)
#
#
# Indices 1 2 3 4 5 6 
#
# 1 0.009574 -0.002881 -0.002081 -0.001372 0.004753 0.001159
# 2 -0.002881 0.014899 -0.005138 -0.000152 -0.000100 -0.002060
# 3 -0.002081 -0.005138 0.013399 0.004277 -0.001068 -0.003308
# 4 -0.001372 -0.000152 0.004277 0.032593 -0.006080 -0.004427
# 5 0.004753 -0.000100 -0.001068 -0.006080 0.035406 -0.000057
# 6 0.001159 -0.002060 -0.003308 -0.004427 -0.000057 0.041340
#
#
# Mechanical properties :
#
#
# Convention : Reuss Voigt Hill
#
# Bulk Modulus (GPa) = 56.59093 61.02054 58.80573
# Shear Modulus (GPa) = 28.85148 31.96568 30.40858
#
# Velocity S-wave (km/s) = 3.46929 3.65173 3.56168
# Velocity P-wave (km/s) = 6.29730 6.57541 6.43786
#
# Compressibility (1/GPa) = 0.01767068
#
# Stress axis : x y z
#
# Youngs Moduli (GPa) = 104.45011 67.11782 74.63509
#
# Poissons Ratio (x) = 0.19339 0.15533
# Poissons Ratio (y) = 0.30095 0.38347
# Poissons Ratio (z) = 0.21739 0.34485
#
# Static dielectric constant tensor:
#      x y z
#    x 5.208710 0.022510 -0.248350 
#    y 0.022510 3.999280 -0.088540 
#    z -0.248350 -0.088540 4.389680 
# 
# 
# High freq. dielectric constant tensor:
#      x y z
#    x 1.969310 0.012600 -0.003740 
#    y 0.012600 1.924640 -0.003480 
#    z -0.003740 -0.003480 1.949500 
# 
# From -- ./inp_files/282831.got.cif
#   From: 2010.06.25/outbox.cif.g09.slc.cpg/sg2_142_cif.got.tgz:282831.got - 2010.06.27 13:26:56.
