data_PCOD8044747
_publ_section_title
;
Structure prediction by ZEFSAII (Michael W. Deem and Ramdas Pophale) SiO2 
 PCOD8044747
Probable space group: P -1
;
_chemical_formula_sum "Si O2"
_cell_formula_units_Z 16
_cell_length_a 14.723382
_cell_length_b 12.005995
_cell_length_c 9.162428
_cell_angle_alpha 116.982861
_cell_angle_beta 64.270102
_cell_angle_gamma 148.696664
_cell_volume 746.121418
_symmetry_space_group_name_H-M "P -1"
_symmetry_group_IT_number 2
_symmetry_cell_setting 'triclinic'
loop_
_space_group_symop_operation_xyz
x,y,z
-x,-y,-z
loop_
_atom_site_type_symbol
_atom_site_label
_atom_site_fract_x
_atom_site_fract_y
_atom_site_fract_z
Si Si1 0.826663 0.369869 0.964297
Si Si2 0.352573 0.541921 0.341389
Si Si3 0.786891 0.084347 0.687764
Si Si4 0.186700 0.457935 0.686547
Si Si5 0.749183 0.958360 0.330363
Si Si6 0.413710 0.355922 0.326423
Si Si7 0.088703 0.338693 0.148765
Si Si8 0.784495 0.711146 0.206216
O O1 0.713818 0.134149 0.851964
O O2 0.869185 0.490904 0.861364
O O3 0.729643 0.361572 0.144326
O O4 0.000000 0.500000 0.000000
O O5 0.321303 0.593946 0.538710
O O6 0.555061 0.756909 0.274865
O O7 0.309081 0.354840 0.307189
O O8 0.223444 0.457155 0.256873
O O9 0.996704 0.306236 0.674716
O O10 0.732650 0.031602 0.525224
O O11 0.716510 0.890105 0.701778
O O12 0.164256 0.297939 0.679705
O O13 0.819064 0.894301 0.298473
O O14 0.888263 0.149963 0.230490
O O15 0.500000 0.500000 0.500000
O O16 0.576575 0.474082 0.183741
O O17 0.101960 0.233289 0.969943
#
# Coordination Sequence:
#
# PCOD8044747 Si02
#       8
#     2   2   2   2   2   2   2   2
#     4   9  23  45  66  90 122 173 222 264 309 377
#     4  11  22  40  66 100 130 160 215 263 321 378
#     4  11  20  38  67  95 123 175 214 258 321 370
#     4  10  19  38  66  90 127 170 219 260 305 384
#     4  11  22  38  64  95 133 167 203 264 328 377
#     4  11  20  37  65  94 133 161 206 267 306 384
#     4  11  24  43  65  90 131 173 208 266 320 376
#     4  10  21  40  59  95 133 164 213 257 315 384
#
# _framework density 21.444232
#
# number of rings (size 3 to 8) (size 9 to 14) (size 15 to 20)
#    0.000    1.500    5.000    0.375    1.750    3.500 
#    9.000    6.250    2.750    0.000    0.000    0.000 
#    0.000    0.000    0.000    0.000    0.000    0.000 
#
# Total GULP energy -198335.242611 kJ/mol
# GULP energy per Si atom -12395.952663 kJ/mol
# Density = 2.139542 g / cm^3
# Si number density = 21.444232 Si / 1000 Ang^3
#
#
#
# Elastic Constant Matrix: (Units=GPa)
#
#
# Indices 1 2 3 4 5 6 
#
# 1 81.9266 31.8925 25.7011 -3.0510 15.0537 -16.3567
# 2 31.8925 98.1489 42.5291 -1.3688 -5.1102 -4.7261
# 3 25.7011 42.5291 80.2030 0.9553 14.3457 -13.5986
# 4 -3.0510 -1.3688 0.9553 28.7532 -8.4618 -9.7957
# 5 15.0537 -5.1102 14.3457 -8.4618 28.1726 3.0399
# 6 -16.3567 -4.7261 -13.5986 -9.7957 3.0399 26.8870
#
#
#
# Elastic Compliance Matrix: (Units=1/GPa)
#
#
# Indices 1 2 3 4 5 6 
#
# 1 0.019994 -0.007652 0.002662 0.002470 -0.014269 0.014678
# 2 -0.007652 0.017792 -0.010916 0.001889 0.014303 -0.007977
# 3 0.002662 -0.010916 0.022507 -0.001691 -0.016704 0.012356
# 4 0.002470 0.001889 -0.001691 0.043875 0.011370 0.015679
# 5 -0.014269 0.014303 -0.016704 0.011370 0.059491 -0.017199
# 6 0.014678 -0.007977 0.012356 0.015679 -0.017199 0.058626
#
#
# Mechanical properties :
#
#
# Convention : Reuss Voigt Hill
#
# Bulk Modulus (GPa) = 35.11099 51.16932 43.14016
# Shear Modulus (GPa) = 18.96889 27.43961 23.20425
#
# Velocity S-wave (km/s) = 2.97740 3.58100 3.29306
# Velocity P-wave (km/s) = 5.31306 6.40402 5.88388
#
# Compressibility (1/GPa) = 0.02848111
#
# Stress axis : x y z
#
# Youngs Moduli (GPa) = 50.01476 56.20542 44.43142
#
# Poissons Ratio (x) = 0.43009 -0.11828
# Poissons Ratio (y) = 0.38272 0.48500
# Poissons Ratio (z) = -0.13314 0.61352
#
# Static dielectric constant tensor:
#      x y z
#    x 3.976340 -0.089500 -0.331770 
#    y -0.089500 3.777500 -0.063370 
#    z -0.331770 -0.063370 4.206510 
# 
# 
# High freq. dielectric constant tensor:
#      x y z
#    x 1.839910 0.003210 -0.010640 
#    y 0.003210 1.819970 -0.008500 
#    z -0.010640 -0.008500 1.845730 
# 
# From -- ./inp_files/214425.got.cif
#   From: 2010.06.25/outbox.cif.g09.slc.cpg/sg2_108_cif.got.tgz:214425.got - 2010.06.27 13:26:56.
