data_PCOD8044738
_publ_section_title
;
Structure prediction by ZEFSAII (Michael W. Deem and Ramdas Pophale) SiO2 
 PCOD8044738
Probable space group: P -1
;
_chemical_formula_sum "Si O2"
_cell_formula_units_Z 16
_cell_length_a 8.536479
_cell_length_b 11.570355
_cell_length_c 8.657155
_cell_angle_alpha 127.831583
_cell_angle_beta 112.453822
_cell_angle_gamma 77.853000
_cell_volume 623.814681
_symmetry_space_group_name_H-M "P -1"
_symmetry_group_IT_number 2
_symmetry_cell_setting 'triclinic'
loop_
_space_group_symop_operation_xyz
x,y,z
-x,-y,-z
loop_
_atom_site_type_symbol
_atom_site_label
_atom_site_fract_x
_atom_site_fract_y
_atom_site_fract_z
Si Si1 0.770203 0.078175 0.744669
Si Si2 0.142474 0.529260 0.706091
Si Si3 0.078672 0.234857 0.086158
Si Si4 0.276039 0.239408 0.474760
Si Si5 0.169766 0.681535 0.272393
Si Si6 0.556607 0.253933 0.033217
Si Si7 0.548785 0.335059 0.419307
Si Si8 0.211254 0.355994 0.944022
O O1 0.740886 0.180646 0.670341
O O2 0.720301 0.909413 0.546439
O O3 0.648925 0.121516 0.877423
O O4 0.969651 0.089003 0.877796
O O5 0.205268 0.371132 0.666775
O O6 0.315235 0.606094 0.774016
O O7 0.000000 0.500000 0.500000
O O8 0.059657 0.635387 0.886790
O O9 0.140496 0.216833 0.267241
O O10 0.225713 0.290218 0.071691
O O11 0.452815 0.281550 0.495614
O O12 0.252005 0.671033 0.464842
O O13 0.212628 0.531279 0.075483
O O14 0.969112 0.707329 0.242248
O O15 0.511908 0.221662 0.170579
O O16 0.391577 0.295388 0.900127
O O17 0.500000 0.500000 0.500000
#
# Coordination Sequence:
#
# PCOD8044738 Si02
#       8
#     2   2   2   2   2   2   2   2
#     4  10  24  38  60  93 131 169 202 253 323 386
#     4   9  19  32  60  98 123 156 207 269 305 354
#     4   9  18  37  61  94 118 164 218 257 303 367
#     4  11  19  36  63  91 129 164 208 260 315 372
#     4  10  22  39  62  91 127 168 206 260 323 368
#     4  11  21  40  66  95 123 162 221 255 306 374
#     4  12  21  38  67  95 119 162 216 269 309 359
#     4  10  19  38  66  87 125 168 211 261 311 367
#
# _framework density 25.648641999999999
#
# number of rings (size 3 to 8) (size 9 to 14) (size 15 to 20)
#    0.000    1.750    3.750    0.375    1.750    1.500 
#    0.000    1.250    0.000    1.500    0.000    0.000 
#    0.000    0.000    0.000    0.000    0.000    0.000 
#
# Total GULP energy -198229.573901 kJ/mol
# GULP energy per Si atom -12389.348369 kJ/mol
# Density = 2.559026 g / cm^3
# Si number density = 25.648642 Si / 1000 Ang^3
#
#
#
# Elastic Constant Matrix: (Units=GPa)
#
#
# Indices 1 2 3 4 5 6 
#
# 1 95.4961 28.3587 15.4101 10.9601 15.6603 -8.2195
# 2 28.3587 118.9020 32.7857 16.5486 16.0951 2.4327
# 3 15.4101 32.7857 56.3923 14.3760 16.7692 -14.3531
# 4 10.9601 16.5486 14.3760 46.5168 -5.6609 12.8789
# 5 15.6603 16.0951 16.7692 -5.6609 32.1244 -4.2959
# 6 -8.2195 2.4327 -14.3531 12.8789 -4.2959 33.4325
#
#
#
# Elastic Compliance Matrix: (Units=1/GPa)
#
#
# Indices 1 2 3 4 5 6 
#
# 1 0.012942 -0.002254 0.002627 -0.005462 -0.006750 0.005710
# 2 -0.002254 0.011057 -0.006086 -0.000656 -0.001910 -0.003964
# 3 0.002627 -0.006086 0.035151 -0.017067 -0.016834 0.020591
# 4 -0.005462 -0.000656 -0.017067 0.035835 0.015482 -0.020437
# 5 -0.006750 -0.001910 -0.016834 0.015482 0.045710 -0.008838
# 6 0.005710 -0.003964 0.020591 -0.020437 -0.008838 0.047181
#
#
# Mechanical properties :
#
#
# Convention : Reuss Voigt Hill
#
# Bulk Modulus (GPa) = 20.95401 47.09995 34.02698
# Shear Modulus (GPa) = 23.23298 35.36379 29.29838
#
# Velocity S-wave (km/s) = 3.01294 3.71722 3.38346
# Velocity P-wave (km/s) = 4.50457 6.06853 5.34407
#
# Compressibility (1/GPa) = 0.04772355
#
# Stress axis : x y z
#
# Youngs Moduli (GPa) = 77.26550 90.43985 28.44856
#
# Poissons Ratio (x) = 0.20386 -0.07473
# Poissons Ratio (y) = 0.17416 0.17314
# Poissons Ratio (z) = -0.20296 0.55043
#
# Static dielectric constant tensor:
#      x y z
#    x 4.811340 -0.124970 0.100860 
#    y -0.124970 4.507910 -0.080360 
#    z 0.100860 -0.080360 4.590880 
# 
# 
# High freq. dielectric constant tensor:
#      x y z
#    x 2.034460 -0.004060 0.020100 
#    y -0.004060 2.019430 -0.027040 
#    z 0.020100 -0.027040 2.010430 
# 
# From -- ./inp_files/391458.got.cif
#   From: 2010.06.25/outbox.cif.g09.slc.cpg/sg2_196_cif.got.tgz:391458.got - 2010.06.27 13:26:56.
