data_PCOD8044756
_publ_section_title
;
Structure prediction by ZEFSAII (Michael W. Deem and Ramdas Pophale) SiO2 
 PCOD8044756
Probable space group: P -1
;
_chemical_formula_sum "Si O2"
_cell_formula_units_Z 16
_cell_length_a 9.571816
_cell_length_b 18.632539
_cell_length_c 11.856896
_cell_angle_alpha 126.685866
_cell_angle_beta 45.935612
_cell_angle_gamma 150.642220
_cell_volume 744.722287
_symmetry_space_group_name_H-M "P -1"
_symmetry_group_IT_number 2
_symmetry_cell_setting 'triclinic'
loop_
_space_group_symop_operation_xyz
x,y,z
-x,-y,-z
loop_
_atom_site_type_symbol
_atom_site_label
_atom_site_fract_x
_atom_site_fract_y
_atom_site_fract_z
Si Si1 0.145632 0.052116 0.845097
Si Si2 0.697812 0.823967 0.505635
Si Si3 0.248062 0.230583 0.344228
Si Si4 0.233000 0.279462 0.000231
Si Si5 0.375204 0.379722 0.768391
Si Si6 0.297860 0.544612 0.895173
Si Si7 0.925990 0.307174 0.349546
Si Si8 0.724190 0.161321 0.560570
O O1 0.519588 0.159537 0.743217
O O2 0.108603 0.137866 0.895627
O O3 0.956124 0.917492 0.745131
O O4 0.000000 0.000000 0.000000
O O5 0.587749 0.757958 0.631784
O O6 0.782708 0.766168 0.332352
O O7 0.393177 0.757862 0.560701
O O8 0.000000 0.000000 0.500000
O O9 0.491639 0.365571 0.249866
O O10 0.016500 0.222398 0.521737
O O11 0.523946 0.365533 0.004026
O O12 0.962512 0.235147 0.178470
O O13 0.322587 0.367308 0.920872
O O14 0.215766 0.408917 0.825699
O O15 0.757947 0.516842 0.667218
O O16 0.000000 0.500000 0.000000
O O17 0.892740 0.264798 0.455555
O O18 0.500000 0.000000 0.500000
#
# Coordination Sequence:
#
# PCOD8044756 Si02
#       8
#     2   2   2   2   2   2   2   2
#     4  11  21  40  68 102 127 175 226 273 339 410
#     4  12  27  45  64  99 140 175 224 286 342 397
#     4  11  23  43  65  97 137 170 222 282 341 392
#     4  11  22  43  71  99 132 177 233 273 334 415
#     4  11  25  46  69  99 134 184 234 267 341 417
#     4  11  24  43  67 102 135 171 224 289 341 390
#     4  11  22  45  68  97 132 181 228 272 332 411
#     4  10  19  38  66  92 131 175 219 274 326 399
#
# _framework density 21.484518999999999
#
# number of rings (size 3 to 8) (size 9 to 14) (size 15 to 20)
#    0.000    1.000    3.750    5.625    3.500    1.500 
#    2.250    1.250    0.000    0.000    0.000    0.000 
#    0.000    0.000    0.000    0.000    0.000    0.000 
#
# Total GULP energy -198301.150217 kJ/mol
# GULP energy per Si atom -12393.821889 kJ/mol
# Density = 2.143562 g / cm^3
# Si number density = 21.484519 Si / 1000 Ang^3
#
#
#
# Elastic Constant Matrix: (Units=GPa)
#
#
# Indices 1 2 3 4 5 6 
#
# 1 98.5523 33.9038 23.4282 1.3709 -4.6041 -16.2992
# 2 33.9038 79.1115 42.0758 2.3192 -11.6264 -23.4823
# 3 23.4282 42.0758 116.7896 0.9963 -7.2067 -13.9368
# 4 1.3709 2.3192 0.9963 36.3146 -6.6704 -1.1235
# 5 -4.6041 -11.6264 -7.2067 -6.6704 46.4923 -2.8746
# 6 -16.2992 -23.4823 -13.9368 -1.1235 -2.8746 29.3106
#
#
#
# Elastic Compliance Matrix: (Units=1/GPa)
#
#
# Indices 1 2 3 4 5 6 
#
# 1 0.012198 -0.003803 -0.000640 -0.000025 0.000368 0.003467
# 2 -0.003803 0.021718 -0.005155 0.000251 0.005116 0.013344
# 3 -0.000640 -0.005155 0.010642 0.000146 0.000356 0.000615
# 4 -0.000025 0.000251 0.000146 0.028355 0.004260 0.001761
# 5 0.000368 0.005116 0.000356 0.004260 0.023923 0.006983
# 6 0.003467 0.013344 0.000615 0.001761 0.006983 0.047781
#
#
# Mechanical properties :
#
#
# Convention : Reuss Voigt Hill
#
# Bulk Modulus (GPa) = 39.43074 54.80766 47.11920
# Shear Modulus (GPa) = 29.02456 35.42654 32.22555
#
# Velocity S-wave (km/s) = 3.67952 4.06511 3.87711
# Velocity P-wave (km/s) = 6.03695 6.89922 6.48244
#
# Compressibility (1/GPa) = 0.02536093
#
# Stress axis : x y z
#
# Youngs Moduli (GPa) = 81.97768 46.04557 93.96572
#
# Poissons Ratio (x) = 0.17512 0.06015
# Poissons Ratio (y) = 0.31178 0.48442
# Poissons Ratio (z) = 0.05248 0.23738
#
# Static dielectric constant tensor:
#      x y z
#    x -3.405840 -1.393780 10.712070 
#    y -1.393780 3.765410 1.411780 
#    z 10.712070 1.411780 -12.250020 
# 
# 
# High freq. dielectric constant tensor:
#      x y z
#    x 1.853800 -0.023420 -0.002160 
#    y -0.023420 1.836920 -0.001570 
#    z -0.002160 -0.001570 1.850820 
# 
# From -- ./inp_files/307424.got.cif
#   From: 2010.06.25/outbox.cif.g09.slc.cpg/sg2_154_cif.got.tgz:307424.got - 2010.06.27 13:26:56.
