data_PCOD8044820
_publ_section_title
;
Structure prediction by ZEFSAII (Michael W. Deem and Ramdas Pophale) SiO2 
 PCOD8044820
Probable space group: P -1
;
_chemical_formula_sum "Si O2"
_cell_formula_units_Z 14
_cell_length_a 9.110566
_cell_length_b 9.331186
_cell_length_c 8.828614
_cell_angle_alpha 57.313617
_cell_angle_beta 82.169225
_cell_angle_gamma 90.465725
_cell_volume 622.782528
_symmetry_space_group_name_H-M "P -1"
_symmetry_group_IT_number 2
_symmetry_cell_setting 'triclinic'
loop_
_space_group_symop_operation_xyz
x,y,z
-x,-y,-z
loop_
_atom_site_type_symbol
_atom_site_label
_atom_site_fract_x
_atom_site_fract_y
_atom_site_fract_z
Si Si1 0.676827 0.518153 0.186062
Si Si2 0.572789 0.151100 0.301482
Si Si3 0.123373 0.891077 0.189079
Si Si4 0.091669 0.360655 0.137223
Si Si5 0.071084 0.600234 0.573822
Si Si6 0.409054 0.135160 0.022596
Si Si7 0.116783 0.893862 0.858243
O O1 0.583219 0.334039 0.282953
O O2 0.810302 0.501768 0.295263
O O3 0.739162 0.587037 0.971674
O O4 0.580951 0.673351 0.166107
O O5 0.470005 0.162952 0.165634
O O6 0.735422 0.098930 0.265525
O O7 0.500000 0.000000 0.500000
O O8 0.158893 0.770413 0.392728
O O9 0.236947 0.061545 0.090368
O O10 0.144829 0.804157 0.068824
O O11 0.946891 0.924410 0.199483
O O12 0.066686 0.356527 0.324161
O O13 0.020798 0.184688 0.177667
O O14 0.000000 0.500000 0.000000
O O15 0.000000 0.500000 0.500000
O O16 0.500000 0.000000 0.000000
#
# Coordination Sequence:
#
# PCOD8044820 Si02
#       7
#     2   2   2   2   2   2   2
#     4  11  24  48  69 100 145 188 236 291 354 428
#     4  12  26  46  72 106 143 189 236 289 349 431
#     4  11  24  42  69 106 136 182 239 296 344 425
#     4  10  19  38  68  99 133 177 223 289 349 408
#     4  11  24  37  67 108 140 169 236 299 351 408
#     4  12  26  45  72 101 142 191 236 284 367 420
#     4  11  22  42  73  97 144 182 234 289 362 405
#
# _framework density 22.479758
#
# number of rings (size 3 to 8) (size 9 to 14) (size 15 to 20)
#    0.000    0.857    5.714    3.000    2.000    1.714 
#    0.000    4.286    0.000    0.000    0.000    0.000 
#    0.000    0.000    0.000    0.000    0.000    0.000 
#
# Total GULP energy -173446.073334 kJ/mol
# GULP energy per Si atom -12389.005238 kJ/mol
# Density = 2.242859 g / cm^3
# Si number density = 22.479758 Si / 1000 Ang^3
#
#
#
# Elastic Constant Matrix: (Units=GPa)
#
#
# Indices 1 2 3 4 5 6 
#
# 1 86.0921 54.5372 40.0333 -5.4467 5.1807 -8.5202
# 2 54.5372 142.5352 63.7408 -6.6544 1.8798 5.6037
# 3 40.0333 63.7408 133.3338 -8.6421 -0.9217 -1.4951
# 4 -5.4467 -6.6544 -8.6421 34.3957 6.4515 7.7508
# 5 5.1807 1.8798 -0.9217 6.4515 36.9513 3.5041
# 6 -8.5202 5.6037 -1.4951 7.7508 3.5041 47.3189
#
#
#
# Elastic Compliance Matrix: (Units=1/GPa)
#
#
# Indices 1 2 3 4 5 6 
#
# 1 0.016702 -0.005414 -0.002361 0.000666 -0.002588 0.003656
# 2 -0.005414 0.010791 -0.003503 0.000880 0.000208 -0.002523
# 3 -0.002361 -0.003503 0.009975 0.001347 0.000518 0.000046
# 4 0.000666 0.000880 0.001347 0.031733 -0.005194 -0.004755
# 5 -0.002588 0.000208 0.000518 -0.005194 0.028499 -0.001734
# 6 0.003656 -0.002523 0.000046 -0.004755 -0.001734 0.022999
#
#
# Mechanical properties :
#
#
# Convention : Reuss Voigt Hill
#
# Bulk Modulus (GPa) = 67.05255 75.39818 71.22536
# Shear Modulus (GPa) = 33.73230 37.30985 35.52108
#
# Velocity S-wave (km/s) = 3.87791 4.07837 3.97941
# Velocity P-wave (km/s) = 7.06708 7.46932 7.27099
#
# Compressibility (1/GPa) = 0.01491368
#
# Stress axis : x y z
#
# Youngs Moduli (GPa) = 59.87212 92.66733 100.25179
#
# Poissons Ratio (x) = 0.50166 0.23665
# Poissons Ratio (y) = 0.32412 0.35121
# Poissons Ratio (z) = 0.14133 0.32464
#
# Static dielectric constant tensor:
#      x y z
#    x 4.115610 -0.263240 -0.159720 
#    y -0.263240 4.607850 0.287240 
#    z -0.159720 0.287240 5.030800 
# 
# 
# High freq. dielectric constant tensor:
#      x y z
#    x 1.876710 0.000430 0.005780 
#    y 0.000430 1.900390 0.002860 
#    z 0.005780 0.002860 1.876030 
# 
# From -- ./inp_files/156669.got.cif
#   From: 2010.06.25/outbox.cif.g09.slc.cpg/sg2_79_cif.got.tgz:156669.got - 2010.06.27 13:26:56.
