data_PCOD8044645
_publ_section_title
;
Structure prediction by ZEFSAII (Michael W. Deem and Ramdas Pophale) SiO2 
 PCOD8044645
Probable space group: P -1
;
_chemical_formula_sum "Si O2"
_cell_formula_units_Z 16
_cell_length_a 8.150868
_cell_length_b 7.702752
_cell_length_c 19.743327
_cell_angle_alpha 45.354398
_cell_angle_beta 57.468987
_cell_angle_gamma 78.776942
_cell_volume 707.987900
_symmetry_space_group_name_H-M "P -1"
_symmetry_group_IT_number 2
_symmetry_cell_setting 'triclinic'
loop_
_space_group_symop_operation_xyz
x,y,z
-x,-y,-z
loop_
_atom_site_type_symbol
_atom_site_label
_atom_site_fract_x
_atom_site_fract_y
_atom_site_fract_z
Si Si1 0.767762 0.442451 0.084988
Si Si2 0.011230 0.738142 0.285869
Si Si3 0.711393 0.950588 0.482850
Si Si4 0.312897 0.634527 0.355178
Si Si5 0.288303 0.974522 0.889333
Si Si6 0.322800 0.750197 0.474095
Si Si7 0.226936 0.932876 0.702077
Si Si8 0.841411 0.996226 0.945874
O O1 0.652415 0.252964 0.101864
O O2 0.724421 0.304040 0.206517
O O3 0.710762 0.706344 0.030996
O O4 0.000000 0.500000 0.000000
O O5 0.138372 0.678587 0.335255
O O6 0.795100 0.516154 0.389561
O O7 0.954665 0.001516 0.235945
O O8 0.148919 0.791960 0.172426
O O9 0.714780 0.663649 0.552587
O O10 0.850447 0.119468 0.344718
O O11 0.500000 0.000000 0.500000
O O12 0.768413 0.045803 0.521514
O O13 0.276306 0.745503 0.405955
O O14 0.535991 0.766706 0.238857
O O15 0.073326 0.007258 0.906782
O O16 0.275110 0.924190 0.986759
O O17 0.566764 0.819807 0.411641
#
# Coordination Sequence:
#
# PCOD8044645 Si02
#       8
#     2   2   2   2   2   2   2   2
#     4  10  19  38  64  92 122 155 216 271 303 363
#     4  12  24  42  64  96 136 175 205 263 331 385
#     4  10  26  38  66 100 118 169 219 265 313 385
#     4  12  25  43  63  94 141 168 208 265 330 389
#     4  10  22  39  67  91 122 172 215 265 317 369
#     4  11  24  43  68  92 131 169 216 266 319 381
#     4  11  21  41  68  97 124 167 219 266 318 378
#     4  10  23  40  67  94 124 164 224 269 305 377
#
# _framework density 22.599257000000001
#
# number of rings (size 3 to 8) (size 9 to 14) (size 15 to 20)
#    0.000    1.250    5.000    0.750    8.750    3.000 
#    0.000    0.625    0.000    0.000    0.000    0.000 
#    0.000    0.000    0.000    0.000    0.000    0.000 
#
# Total GULP energy -198229.640791 kJ/mol
# GULP energy per Si atom -12389.352549 kJ/mol
# Density = 2.254782 g / cm^3
# Si number density = 22.599257 Si / 1000 Ang^3
#
#
#
# Elastic Constant Matrix: (Units=GPa)
#
#
# Indices 1 2 3 4 5 6 
#
# 1 42.0759 42.0859 30.9995 -0.8134 18.1357 8.6603
# 2 42.0859 101.5917 57.5175 27.8822 10.3769 27.0816
# 3 30.9995 57.5175 154.5484 26.0099 21.0798 13.2302
# 4 -0.8134 27.8822 26.0099 36.7671 9.9514 12.4514
# 5 18.1357 10.3769 21.0798 9.9514 28.0929 7.0909
# 6 8.6603 27.0816 13.2302 12.4514 7.0909 17.9143
#
#
#
# Elastic Compliance Matrix: (Units=1/GPa)
#
#
# Indices 1 2 3 4 5 6 
#
# 1 0.133652 -0.074248 -0.001984 0.074073 -0.092216 0.034115
# 2 -0.074248 0.061657 -0.004182 -0.045356 0.055652 -0.044730
# 3 -0.001984 -0.004182 0.009212 -0.003950 -0.003890 0.004763
# 4 0.074073 -0.045356 -0.003950 0.080785 -0.057272 0.002194
# 5 -0.092216 0.055652 -0.003890 -0.057272 0.107753 -0.039523
# 6 0.034115 -0.044730 0.004763 0.002194 -0.039523 0.117551
#
#
# Mechanical properties :
#
#
# Convention : Reuss Voigt Hill
#
# Bulk Modulus (GPa) = 22.88724 62.15798 42.52261
# Shear Modulus (GPa) = 7.28859 27.72906 17.50882
#
# Velocity S-wave (km/s) = 1.79782 3.50664 2.78646
# Velocity P-wave (km/s) = 3.80249 6.63020 5.40456
#
# Compressibility (1/GPa) = 0.04369247
#
# Stress axis : x y z
#
# Youngs Moduli (GPa) = 7.48211 16.21872 108.54874
#
# Poissons Ratio (x) = 1.20421 0.21538
# Poissons Ratio (y) = 0.55553 0.45396
# Poissons Ratio (z) = 0.01485 0.06783
#
# Static dielectric constant tensor:
#      x y z
#    x 5.599520 2.404810 1.621420 
#    y 2.404810 6.993200 1.827760 
#    z 1.621420 1.827760 5.803120 
# 
# 
# High freq. dielectric constant tensor:
#      x y z
#    x 1.843270 0.018700 0.004340 
#    y 0.018700 1.896170 0.020510 
#    z 0.004340 0.020510 1.908720 
# 
# From -- ./inp_files/587761.got.cif
#   From: 2010.06.25/outbox.cif.g09.slc.cpg/sg2_294_cif.got.tgz:587761.got - 2010.06.27 13:26:56.
