data_PCOD8044967
_publ_section_title
;
Structure prediction by ZEFSAII (Michael W. Deem and Ramdas Pophale) SiO2 
 PCOD8044967
Probable space group: P 2
;
_chemical_formula_sum "Si O2"
_cell_formula_units_Z 14
_cell_length_a 7.995636
_cell_length_b 8.784649
_cell_length_c 10.756286
_cell_angle_alpha 90.000000
_cell_angle_beta 64.157058
_cell_angle_gamma 90.000000
_cell_volume 679.952498
_symmetry_space_group_name_H-M "P 2"
_symmetry_group_IT_number 3
_symmetry_cell_setting 'monoclinic'
loop_
_space_group_symop_operation_xyz
x,y,z
-x,y,-z
loop_
_atom_site_type_symbol
_atom_site_label
_atom_site_fract_x
_atom_site_fract_y
_atom_site_fract_z
Si Si1 0.247872 0.524290 0.556281
Si Si2 0.216824 0.808308 0.412028
Si Si3 0.093181 0.634213 0.228564
Si Si4 0.492110 0.390776 0.698589
Si Si5 0.847780 0.847838 0.149712
Si Si6 0.365075 0.610410 0.940262
Si Si7 0.526484 0.050278 0.346367
O O1 0.287145 0.700850 0.502553
O O2 0.360345 0.477102 0.642436
O O3 0.299228 0.417203 0.422103
O O4 0.028711 0.508289 0.657825
O O5 0.239016 0.711466 0.276641
O O6 0.000000 0.855885 0.500000
O O7 0.350811 0.953197 0.355122
O O8 0.951707 0.763906 0.227225
O O9 0.186853 0.554395 0.078905
O O10 0.459615 0.465827 0.843486
O O11 0.464115 0.212332 0.725054
O O12 0.696300 0.737337 0.136622
O O13 0.728182 0.981438 0.250243
O O14 0.000000 0.908516 0.000000
O O15 0.500000 0.683498 0.000000
O O16 0.500000 0.079620 0.500000
#
# Coordination Sequence:
#
# PCOD8044967 Si02
#       7
#     2   2   2   2   2   2   2
#     4  10  19  38  60  92 120 155 217 262 299 369
#     4  10  22  38  68  98 122 160 220 271 312 362
#     4  10  20  39  67  94 118 157 221 269 309 354
#     4  11  23  38  58  95 129 165 205 250 327 382
#     4  10  22  39  63  93 123 162 218 268 310 370
#     4  11  22  40  64  93 121 164 217 265 313 368
#     4  12  23  40  63  92 130 174 205 255 326 386
#
# _framework density 20.589675
#
# number of rings (size 3 to 8) (size 9 to 14) (size 15 to 20)
#    0.000    1.429    2.857    4.286    4.000    0.000 
#    2.571    7.143    0.000    0.000    0.000    0.000 
#    0.000    0.000    0.000    0.000    0.000    0.000 
#
# Total GULP energy -173504.137023 kJ/mol
# GULP energy per Si atom -12393.152645 kJ/mol
# Density = 2.054281 g / cm^3
# Si number density = 20.589675 Si / 1000 Ang^3
#
#
#
# Elastic Constant Matrix: (Units=GPa)
#
#
# Indices 1 2 3 4 5 6 
#
# 1 59.7097 24.9034 -3.2369 0.0000 9.1272 0.0000
# 2 24.9034 81.8464 28.3330 0.0000 -3.4934 0.0000
# 3 -3.2369 28.3330 111.4958 0.0000 -9.3039 0.0000
# 4 0.0000 0.0000 0.0000 20.8052 0.0000 1.6117
# 5 9.1272 -3.4934 -9.3039 0.0000 35.0566 0.0000
# 6 0.0000 0.0000 0.0000 1.6117 0.0000 12.0735
#
#
#
# Elastic Compliance Matrix: (Units=1/GPa)
#
#
# Indices 1 2 3 4 5 6 
#
# 1 0.020723 -0.007227 0.001971 0.000000 -0.005592 0.000000
# 2 -0.007227 0.015923 -0.004057 0.000000 0.002392 0.000000
# 3 0.001971 -0.004057 0.010207 0.000000 0.001791 0.000000
# 4 0.000000 0.000000 0.000000 0.048567 0.000000 -0.006483
# 5 -0.005592 0.002392 0.001791 0.000000 0.030695 0.000000
# 6 0.000000 0.000000 0.000000 -0.006483 0.000000 0.083692
#
#
# Mechanical properties :
#
#
# Convention : Reuss Voigt Hill
#
# Bulk Modulus (GPa) = 35.42396 39.22786 37.32591
# Shear Modulus (GPa) = 21.02247 27.12387 24.07317
#
# Velocity S-wave (km/s) = 3.19881 3.63347 3.42305
# Velocity P-wave (km/s) = 5.55745 6.05776 5.81299
#
# Compressibility (1/GPa) = 0.02822948
#
# Stress axis : x y z
#
# Youngs Moduli (GPa) = 48.25442 62.80128 97.97667
#
# Poissons Ratio (x) = 0.45384 -0.19315
# Poissons Ratio (y) = 0.34872 0.39745
# Poissons Ratio (z) = -0.09513 0.25476
#
# Static dielectric constant tensor:
#      x y z
#    x 3.830460 0.000000 -0.222120 
#    y 0.000000 3.340110 0.000000 
#    z -0.222120 0.000000 4.251050 
# 
# 
# High freq. dielectric constant tensor:
#      x y z
#    x 1.808010 0.000000 -0.008100 
#    y 0.000000 1.754320 0.000000 
#    z -0.008100 0.000000 1.837010 
# 
# From -- ./inp_files/10489.got.cif
#   From: 2010.03.12/outbox.cif.g09.slc.cpg/sg3_6_cif.got.tgz:10489.got - 2010.03.31 09:20:49.
