data_PCOD8044528
_publ_section_title
;
Structure prediction by ZEFSAII (Michael W. Deem and Ramdas Pophale) SiO2 
 PCOD8044528
Probable space group: P -1
;
_chemical_formula_sum "Si O2"
_cell_formula_units_Z 16
_cell_length_a 9.674792
_cell_length_b 11.293424
_cell_length_c 9.845412
_cell_angle_alpha 123.787221
_cell_angle_beta 92.117866
_cell_angle_gamma 62.981806
_cell_volume 761.931454
_symmetry_space_group_name_H-M "P -1"
_symmetry_group_IT_number 2
_symmetry_cell_setting 'triclinic'
loop_
_space_group_symop_operation_xyz
x,y,z
-x,-y,-z
loop_
_atom_site_type_symbol
_atom_site_label
_atom_site_fract_x
_atom_site_fract_y
_atom_site_fract_z
Si Si1 0.456891 0.511124 0.162935
Si Si2 0.472709 0.783831 0.837633
Si Si3 0.123362 0.601819 0.121483
Si Si4 0.957071 0.457663 0.186815
Si Si5 0.244115 0.152927 0.128548
Si Si6 0.871815 0.952494 0.417952
Si Si7 0.743751 0.807282 0.535294
Si Si8 0.453815 0.770420 0.521689
O O1 0.539547 0.329642 0.119358
O O2 0.262097 0.604872 0.214855
O O3 0.508508 0.618081 0.322781
O O4 0.500000 0.500000 0.000000
O O5 0.632892 0.789757 0.878111
O O6 0.487512 0.706597 0.638444
O O7 0.310613 0.967180 0.955504
O O8 0.087916 0.473895 0.114209
O O9 0.962892 0.784681 0.226996
O O10 0.168570 0.546721 0.929180
O O11 0.862419 0.609291 0.385065
O O12 0.060791 0.280798 0.153732
O O13 0.230129 0.150370 0.286929
O O14 0.780066 0.925096 0.521225
O O15 0.736534 0.096200 0.410765
O O16 0.000000 0.000000 0.500000
O O17 0.558343 0.854469 0.541005
#
# Coordination Sequence:
#
# PCOD8044528 Si02
#       8
#     2   2   2   2   2   2   2   2
#     4  12  24  40  64  90 133 169 214 267 312 379
#     4  10  23  40  62  95 124 175 213 262 325 375
#     4  10  21  37  60  90 124 167 214 255 312 385
#     4  10  19  38  62  91 125 165 210 262 318 370
#     4  10  20  39  65  90 131 163 215 269 317 381
#     4  11  22  40  64  93 128 169 209 261 323 373
#     4  10  23  38  63  99 125 167 215 264 315 385
#     4  11  23  43  65  92 130 169 216 262 317 382
#
# _framework density 20.999262999999999
#
# number of rings (size 3 to 8) (size 9 to 14) (size 15 to 20)
#    0.000    1.500    2.500    2.625    1.750    0.000 
#    4.500    1.250    0.000    5.250    0.000    0.000 
#    0.000    0.000    0.000    0.000    0.000    0.000 
#
# Total GULP energy -198387.648639 kJ/mol
# GULP energy per Si atom -12399.228040 kJ/mol
# Density = 2.095147 g / cm^3
# Si number density = 20.999263 Si / 1000 Ang^3
#
#
#
# Elastic Constant Matrix: (Units=GPa)
#
#
# Indices 1 2 3 4 5 6 
#
# 1 74.1412 32.4876 23.1657 -15.7141 9.9675 1.2220
# 2 32.4876 99.2743 27.9913 -1.0180 2.6685 2.5984
# 3 23.1657 27.9913 130.6182 -7.6081 5.5072 11.2750
# 4 -15.7141 -1.0180 -7.6081 26.1056 -3.6552 -5.2374
# 5 9.9675 2.6685 5.5072 -3.6552 28.9085 -1.2900
# 6 1.2220 2.5984 11.2750 -5.2374 -1.2900 34.7781
#
#
#
# Elastic Compliance Matrix: (Units=1/GPa)
#
#
# Indices 1 2 3 4 5 6 
#
# 1 0.019289 -0.005695 -0.001540 0.010662 -0.004408 0.001689
# 2 -0.005695 0.012414 -0.001829 -0.003507 0.000694 -0.000637
# 3 -0.001540 -0.001829 0.008629 0.000881 -0.000945 -0.002509
# 4 0.010662 -0.003507 0.000881 0.046564 0.002667 0.006713
# 5 -0.004408 0.000694 -0.000945 0.002667 0.036662 0.002171
# 6 0.001689 -0.000637 -0.002509 0.006713 0.002171 0.030647
#
#
# Mechanical properties :
#
#
# Convention : Reuss Voigt Hill
#
# Bulk Modulus (GPa) = 45.03386 52.36921 48.70154
# Shear Modulus (GPa) = 27.81921 32.65105 30.23513
#
# Velocity S-wave (km/s) = 3.64369 3.94746 3.79861
# Velocity P-wave (km/s) = 6.26051 6.76530 6.51779
#
# Compressibility (1/GPa) = 0.02220551
#
# Stress axis : x y z
#
# Youngs Moduli (GPa) = 51.84417 80.55165 115.89341
#
# Poissons Ratio (x) = 0.45870 0.17842
# Poissons Ratio (y) = 0.29523 0.21197
# Poissons Ratio (z) = 0.07981 0.14733
#
# Static dielectric constant tensor:
#      x y z
#    x 3.787810 -0.086210 0.084680 
#    y -0.086210 3.694330 -0.006920 
#    z 0.084680 -0.006920 3.850630 
# 
# 
# High freq. dielectric constant tensor:
#      x y z
#    x 1.812120 -0.008590 0.002880 
#    y -0.008590 1.818930 -0.000810 
#    z 0.002880 -0.000810 1.832770 
# 
# From -- ./inp_files/190177.got.cif
#   From: 2010.06.25/outbox.cif.g09.slc.cpg/sg2_96_cif.got.tgz:190177.got - 2010.06.27 13:26:56.
