data_PCOD8044936
_publ_section_title
;
Structure prediction by ZEFSAII (Michael W. Deem and Ramdas Pophale) SiO2 
 PCOD8044936
Probable space group: P 2
;
_chemical_formula_sum "Si O2"
_cell_formula_units_Z 16
_cell_length_a 14.309345
_cell_length_b 9.070404
_cell_length_c 19.551709
_cell_angle_alpha 90.000000
_cell_angle_beta 19.373656
_cell_angle_gamma 90.000000
_cell_volume 841.806883
_symmetry_space_group_name_H-M "P 2"
_symmetry_group_IT_number 3
_symmetry_cell_setting 'monoclinic'
loop_
_space_group_symop_operation_xyz
x,y,z
-x,y,-z
loop_
_atom_site_type_symbol
_atom_site_label
_atom_site_fract_x
_atom_site_fract_y
_atom_site_fract_z
Si Si1 0.701648 0.960150 0.298327
Si Si2 0.247048 0.490213 0.376517
Si Si3 0.132152 0.142637 0.084119
Si Si4 0.745431 0.484003 0.474201
Si Si5 0.733270 0.142660 0.483062
Si Si6 0.866842 0.483911 0.913586
Si Si7 0.195829 0.634573 0.804210
Si Si8 0.246022 0.140676 0.377010
O O1 0.500000 0.918808 0.500000
O O2 0.810561 0.810949 0.189399
O O3 0.538496 0.055139 0.354711
O O4 0.965669 0.055068 0.141071
O O5 0.206734 0.544763 0.482285
O O6 0.228401 0.315635 0.385834
O O7 0.000000 0.559746 0.500000
O O8 0.549311 0.544777 0.139801
O O9 0.112799 0.314170 0.077400
O O10 0.003675 0.112928 0.248112
O O11 0.454464 0.087215 0.859928
O O12 0.648428 0.314199 0.541886
O O13 0.510724 0.577703 0.597346
O O14 0.037885 0.502242 0.230996
O O15 0.803517 0.087312 0.510962
O O16 0.078301 0.577793 0.813618
O O17 0.000000 0.572830 0.000000
O O18 0.000000 0.070859 0.500000
#
# Coordination Sequence:
#
# PCOD8044936 Si02
#       8
#     2   2   2   2   2   2   2   2
#     4  10  21  36  52  77 107 136 172 215 258 312
#     4   9  18  33  51  80 110 135 174 217 254 305
#     4   9  19  34  55  79 105 136 172 211 257 308
#     4  10  19  35  56  79 107 140 172 212 261 311
#     4   9  19  34  55  79 105 136 172 211 257 308
#     4  10  19  35  56  79 107 140 172 212 261 311
#     4  12  23  34  52  80 108 139 174 216 263 314
#     4   9  18  31  51  78 108 137 170 211 256 301
#
# _framework density 19.006734999999999
#
# number of rings (size 3 to 8) (size 9 to 14) (size 15 to 20)
#    0.000    2.250    1.250    1.875    1.750    3.000 
#    0.000    5.000    0.000    3.000    0.000    3.500 
#    0.000    0.000    0.000    0.000    0.000    0.000 
#
# Total GULP energy -198423.849419 kJ/mol
# GULP energy per Si atom -12401.490589 kJ/mol
# Density = 1.896347 g / cm^3
# Si number density = 19.006735 Si / 1000 Ang^3
#
#
#
# Elastic Constant Matrix: (Units=GPa)
#
#
# Indices 1 2 3 4 5 6 
#
# 1 153.2329 36.6293 89.2378 0.0000 -12.6541 0.0000
# 2 36.6293 53.8407 33.0160 0.0000 -4.5154 0.0000
# 3 89.2378 33.0160 138.5211 0.0000 -5.4414 0.0000
# 4 0.0000 0.0000 0.0000 12.2758 0.0000 9.5763
# 5 -12.6541 -4.5154 -5.4414 0.0000 35.9259 0.0000
# 6 0.0000 0.0000 0.0000 9.5763 0.0000 4.5882
#
#
#
# Elastic Compliance Matrix: (Units=1/GPa)
#
#
# Indices 1 2 3 4 5 6 
#
# 1 0.011264 -0.003584 -0.006302 0.000000 0.002563 0.000000
# 2 -0.003584 0.023031 -0.003135 0.000000 0.001157 0.000000
# 3 -0.006302 -0.003135 0.011995 0.000000 -0.000797 0.000000
# 4 0.000000 0.000000 0.000000 -0.129676 0.000000 0.270655
# 5 0.002563 0.001157 -0.000797 0.000000 0.028763 0.000000
# 6 0.000000 0.000000 0.000000 0.270655 0.000000 -0.346950
#
#
# Mechanical properties :
#
#
# Convention : Reuss Voigt Hill
#
# Bulk Modulus (GPa) = 49.38632 73.70675 61.54654
# Shear Modulus (GPa) = -13.55813 23.00540 4.72364
#
# Velocity S-wave (km/s) = -2.67373 3.48283 1.57818
# Velocity P-wave (km/s) = 4.06303 7.41869 5.98102
#
# Compressibility (1/GPa) = 0.02024852
#
# Stress axis : x y z
#
# Youngs Moduli (GPa) = 88.77566 43.41932 83.37009
#
# Poissons Ratio (x) = 0.15562 0.52538
# Poissons Ratio (y) = 0.31819 0.26136
# Poissons Ratio (z) = 0.55944 0.13612
#
# Static dielectric constant tensor:
#      x y z
#    x 3.604680 0.000000 0.014160 
#    y 0.000000 3.113650 0.000000 
#    z 0.014160 0.000000 3.614580 
# 
# 
# High freq. dielectric constant tensor:
#      x y z
#    x 1.739670 0.000000 0.010870 
#    y 0.000000 1.702720 0.000000 
#    z 0.010870 0.000000 1.748240 
# 
# From -- ./inp_files/16081.got.cif
#   From: 2010.03.12/outbox.cif.g09.slc.cpg/sg3_9_cif.got.tgz:16081.got - 2010.03.31 09:20:49.
