data_PCOD8044648
_publ_section_title
;
Structure prediction by ZEFSAII (Michael W. Deem and Ramdas Pophale) SiO2 
 PCOD8044648
Probable space group: P -1
;
_chemical_formula_sum "Si O2"
_cell_formula_units_Z 14
_cell_length_a 7.483011
_cell_length_b 9.357745
_cell_length_c 18.411832
_cell_angle_alpha 46.825902
_cell_angle_beta 121.811621
_cell_angle_gamma 84.138535
_cell_volume 531.404250
_symmetry_space_group_name_H-M "P -1"
_symmetry_group_IT_number 2
_symmetry_cell_setting 'triclinic'
loop_
_space_group_symop_operation_xyz
x,y,z
-x,-y,-z
loop_
_atom_site_type_symbol
_atom_site_label
_atom_site_fract_x
_atom_site_fract_y
_atom_site_fract_z
Si Si1 0.322803 0.460561 0.141606
Si Si2 0.573441 0.371070 0.753491
Si Si3 0.573754 0.915953 0.940550
Si Si4 0.814908 0.402423 0.087563
Si Si5 0.412444 0.054376 0.545710
Si Si6 0.985608 0.310594 0.759004
Si Si7 0.976775 0.961205 0.608647
O O1 0.274519 0.639893 0.136842
O O2 0.082210 0.674673 0.949358
O O3 0.659269 0.246417 0.248527
O O4 0.307693 0.240408 0.242457
O O5 0.539951 0.165036 0.826145
O O6 0.817188 0.244695 0.784145
O O7 0.233964 0.697115 0.547592
O O8 0.219341 0.077314 0.825637
O O9 0.733205 0.688233 0.988297
O O10 0.793284 0.725639 0.123975
O O11 0.500000 0.500000 0.000000
O O12 0.078233 0.127035 0.295916
O O13 0.276570 0.352473 0.443944
O O14 0.133816 0.080784 0.473086
O O15 0.500000 0.000000 0.500000
#
# Coordination Sequence:
#
# PCOD8044648 Si02
#       7
#     2   2   2   2   2   2   2
#     4  10  21  37  67  97 125 166 217 272 319 384
#     4  11  22  41  71 100 124 166 229 272 316 387
#     4  11  24  41  67  96 134 176 207 274 331 383
#     4  10  23  42  66  94 133 175 213 262 337 390
#     4  11  18  36  63  96 125 162 218 269 313 379
#     4  11  22  38  68  98 131 164 227 268 321 381
#     4  10  19  38  64  92 126 167 217 264 319 386
#
# _framework density 26.345292000000001
#
# number of rings (size 3 to 8) (size 9 to 14) (size 15 to 20)
#    0.000    1.429    4.286    3.857    6.000    0.000 
#    0.000    9.286    3.143    4.286    0.000    0.000 
#    0.000    0.000    0.000    0.000    0.000    0.000 
#
# Total GULP energy -173565.083519 kJ/mol
# GULP energy per Si atom -12397.505966 kJ/mol
# Density = 2.628533 g / cm^3
# Si number density = 26.345292 Si / 1000 Ang^3
#
#
#
# Elastic Constant Matrix: (Units=GPa)
#
#
# Indices 1 2 3 4 5 6 
#
# 1 80.4550 15.7820 28.2295 -10.0653 -18.1335 -15.9974
# 2 15.7820 74.1894 53.2843 -7.8215 -20.2996 0.4693
# 3 28.2295 53.2843 152.6832 -2.9627 -27.9935 -0.1953
# 4 -10.0653 -7.8215 -2.9627 42.4395 -1.8233 -1.9338
# 5 -18.1335 -20.2996 -27.9935 -1.8233 49.9109 -6.2827
# 6 -15.9974 0.4693 -0.1953 -1.9338 -6.2827 34.1550
#
#
#
# Elastic Compliance Matrix: (Units=1/GPa)
#
#
# Indices 1 2 3 4 5 6 
#
# 1 0.016986 -0.000120 -0.001814 0.004585 0.006455 0.009394
# 2 -0.000120 0.019311 -0.005773 0.003366 0.004785 0.000716
# 3 -0.001814 -0.005773 0.009273 -0.000773 0.002119 -0.000371
# 4 0.004585 0.003366 -0.000773 0.025588 0.004077 0.004295
# 5 0.006455 0.004785 0.002119 0.004077 0.026685 0.008109
# 6 0.009394 0.000716 -0.000371 0.004295 0.008109 0.035401
#
#
# Mechanical properties :
#
#
# Convention : Reuss Voigt Hill
#
# Bulk Modulus (GPa) = 33.16338 55.76881 44.46610
# Shear Modulus (GPa) = 31.50410 39.30322 35.40366
#
# Velocity S-wave (km/s) = 3.46181 3.86664 3.66981
# Velocity P-wave (km/s) = 5.34735 6.41474 5.90521
#
# Compressibility (1/GPa) = 0.03015374
#
# Stress axis : x y z
#
# Youngs Moduli (GPa) = 58.87304 51.78452 107.84350
#
# Poissons Ratio (x) = 0.00623 0.19563
# Poissons Ratio (y) = 0.00708 0.62262
# Poissons Ratio (z) = 0.10680 0.29897
#
# Static dielectric constant tensor:
#      x y z
#    x 4.487660 -0.952520 -0.263260 
#    y -0.952520 3.657620 0.091720 
#    z -0.263260 0.091720 5.407160 
# 
# 
# High freq. dielectric constant tensor:
#      x y z
#    x 2.100470 -0.006000 -0.006480 
#    y -0.006000 2.001450 -0.006750 
#    z -0.006480 -0.006750 2.071120 
# 
# From -- ./inp_files/588379.got.cif
#   From: 2010.06.25/outbox.cif.g09.slc.cpg/sg2_295_cif.got.tgz:588379.got - 2010.06.27 13:26:56.
