data_PCOD8044587
_publ_section_title
;
Structure prediction by ZEFSAII (Michael W. Deem and Ramdas Pophale) SiO2 
 PCOD8044587
Probable space group: P -1
;
_chemical_formula_sum "Si O2"
_cell_formula_units_Z 12
_cell_length_a 16.687816
_cell_length_b 12.859002
_cell_length_c 12.028221
_cell_angle_alpha 146.629351
_cell_angle_beta 155.223541
_cell_angle_gamma 29.645345
_cell_volume 521.681481
_symmetry_space_group_name_H-M "P -1"
_symmetry_group_IT_number 2
_symmetry_cell_setting 'triclinic'
loop_
_space_group_symop_operation_xyz
x,y,z
-x,-y,-z
loop_
_atom_site_type_symbol
_atom_site_label
_atom_site_fract_x
_atom_site_fract_y
_atom_site_fract_z
Si Si1 0.777051 0.716717 0.096538
Si Si2 0.802897 0.690891 0.359817
Si Si3 0.648922 0.169338 0.599242
Si Si4 0.801151 0.466821 0.653977
Si Si5 0.311769 0.809673 0.574701
Si Si6 0.499564 0.525400 0.891084
O O1 0.864811 0.657419 0.278793
O O2 0.955906 0.560587 0.089114
O O3 0.732316 0.957598 0.227431
O O4 0.575651 0.667092 0.786631
O O5 0.000000 0.500000 0.500000
O O6 0.755353 0.923475 0.551804
O O7 0.575429 0.697523 0.107049
O O8 0.386112 0.283832 0.338339
O O9 0.766453 0.180099 0.642624
O O10 0.678017 0.299636 0.855134
O O11 0.804916 0.294688 0.593698
O O12 0.738233 0.397764 0.393346
O O13 0.500000 0.500000 0.000000
#
# Coordination Sequence:
#
# PCOD8044587 Si02
#       6
#     2   2   2   2   2   2
#     4  10  20  36  63  96 123 172 205 253 320 369
#     4  11  22  41  65  89 130 168 208 262 316 371
#     4   9  23  39  64  93 125 167 209 260 315 374
#     4  10  20  38  62  93 126 163 210 254 311 374
#     4  10  19  38  63  92 133 160 208 258 310 381
#     4  10  22  41  61  87 127 162 212 263 305 370
#
# _framework density 23.002541000000001
#
# number of rings (size 3 to 8) (size 9 to 14) (size 15 to 20)
#    1.000    1.000    1.667    2.000    0.000    2.000 
#    0.000    0.000    3.667    0.000    0.000    0.000 
#    0.000    0.000    0.000    0.000    0.000    0.000 
#
# Total GULP energy -148708.090231 kJ/mol
# GULP energy per Si atom -12392.340853 kJ/mol
# Density = 2.295019 g / cm^3
# Si number density = 23.002541 Si / 1000 Ang^3
#
#
#
# Elastic Constant Matrix: (Units=GPa)
#
#
# Indices 1 2 3 4 5 6 
#
# 1 161.9764 44.1362 34.3268 17.4093 -1.3616 3.5059
# 2 44.1362 101.0852 15.4267 2.6044 1.4981 25.0742
# 3 34.3268 15.4267 54.0618 5.8259 15.0059 10.5368
# 4 17.4093 2.6044 5.8259 28.6235 -10.1348 4.0972
# 5 -1.3616 1.4981 15.0059 -10.1348 45.8630 6.4043
# 6 3.5059 25.0742 10.5368 4.0972 6.4043 28.2491
#
#
#
# Elastic Compliance Matrix: (Units=1/GPa)
#
#
# Indices 1 2 3 4 5 6 
#
# 1 0.008752 -0.004218 -0.004936 -0.004559 0.000294 0.005094
# 2 -0.004218 0.015043 0.000070 0.003946 0.002176 -0.013920
# 3 -0.004936 0.000070 0.025739 -0.004376 -0.008636 -0.006457
# 4 -0.004559 0.003946 -0.004376 0.044132 0.012388 -0.010514
# 5 0.000294 0.002176 -0.008636 0.012388 0.028276 -0.006954
# 6 0.005094 -0.013920 -0.006457 -0.010514 -0.006954 0.052633
#
#
# Mechanical properties :
#
#
# Convention : Reuss Voigt Hill
#
# Bulk Modulus (GPa) = 31.88396 56.10033 43.99214
# Shear Modulus (GPa) = 24.60649 35.42936 30.01793
#
# Velocity S-wave (km/s) = 3.27422 3.92884 3.61637
# Velocity P-wave (km/s) = 5.30897 6.70990 6.05012
#
# Compressibility (1/GPa) = 0.03136374
#
# Stress axis : x y z
#
# Youngs Moduli (GPa) = 114.26609 66.47681 38.85181
#
# Poissons Ratio (x) = 0.28041 0.19178
# Poissons Ratio (y) = 0.48200 -0.00271
# Poissons Ratio (z) = 0.56404 -0.00463
#
# Static dielectric constant tensor:
#      x y z
#    x 4.238490 -0.082010 -0.166960 
#    y -0.082010 3.992000 0.023620 
#    z -0.166960 0.023620 4.114560 
# 
# 
# High freq. dielectric constant tensor:
#      x y z
#    x 1.925070 0.000410 -0.013860 
#    y 0.000410 1.894390 0.010850 
#    z -0.013860 0.010850 1.902450 
# 
# From -- ./inp_files/181952.got.cif
#   From: 2010.06.25/outbox.cif.g09.slc.cpg/sg2_91_cif.got.tgz:181952.got - 2010.06.27 13:26:56.
