data_PCOD8044387
_publ_section_title
;
Structure prediction by ZEFSAII (Michael W. Deem and Ramdas Pophale) SiO2 
 PCOD8044387
Probable space group: P -1
;
_chemical_formula_sum "Si O2"
_cell_formula_units_Z 16
_cell_length_a 14.169764
_cell_length_b 15.390183
_cell_length_c 15.648223
_cell_angle_alpha 152.134085
_cell_angle_beta 142.966110
_cell_angle_gamma 29.511281
_cell_volume 779.466471
_symmetry_space_group_name_H-M "P -1"
_symmetry_group_IT_number 2
_symmetry_cell_setting 'triclinic'
loop_
_space_group_symop_operation_xyz
x,y,z
-x,-y,-z
loop_
_atom_site_type_symbol
_atom_site_label
_atom_site_fract_x
_atom_site_fract_y
_atom_site_fract_z
Si Si1 0.157839 0.494742 0.362034
Si Si2 0.784059 0.368492 0.075626
Si Si3 0.922145 0.338033 0.977331
Si Si4 0.556256 0.723338 0.974618
Si Si5 0.429702 0.818758 0.158828
Si Si6 0.128843 0.324127 0.366062
Si Si7 0.469618 0.898821 0.805900
Si Si8 0.242521 0.846935 0.719372
O O1 0.192789 0.427676 0.429711
O O2 0.340632 0.328808 0.290792
O O3 0.120270 0.741680 0.540855
O O4 0.978505 0.499065 0.200418
O O5 0.634641 0.650279 0.210266
O O6 0.993492 0.265796 0.174462
O O7 0.821729 0.281265 0.928804
O O8 0.703126 0.259565 0.978083
O O9 0.763124 0.476777 0.909281
O O10 0.108944 0.111721 0.878498
O O11 0.420721 0.715944 0.800974
O O12 0.453081 0.787670 0.047221
O O13 0.604536 0.906052 0.149272
O O14 0.321377 0.088159 0.337043
O O15 0.000000 0.500000 0.500000
O O16 0.320201 0.838577 0.672245
O O17 0.500000 0.000000 0.000000
#
# Coordination Sequence:
#
# PCOD8044387 Si02
#       8
#     2   2   2   2   2   2   2   2
#     4  11  22  42  61  89 124 157 198 250 301 352
#     4   9  21  36  59  84 114 155 196 238 289 351
#     4  10  21  41  60  89 123 158 197 247 300 351
#     4  10  20  39  65  85 118 164 199 241 304 357
#     4  10  19  38  60  81 116 157 195 238 291 350
#     4  11  23  35  57  89 119 153 191 240 296 351
#     4  10  19  41  65  85 117 164 195 249 306 346
#     4  11  23  39  63  88 121 155 200 251 296 356
#
# _framework density 20.526861
#
# number of rings (size 3 to 8) (size 9 to 14) (size 15 to 20)
#    0.000    1.750    3.750    1.500    3.500    1.000 
#    2.250    0.625    0.000    0.000    0.000    0.000 
#    0.000    0.000    0.000    0.000    0.000    0.000 
#
# Total GULP energy -198278.652727 kJ/mol
# GULP energy per Si atom -12392.415795 kJ/mol
# Density = 2.048014 g / cm^3
# Si number density = 20.526861 Si / 1000 Ang^3
#
#
#
# Elastic Constant Matrix: (Units=GPa)
#
#
# Indices 1 2 3 4 5 6 
#
# 1 147.8383 21.1989 24.6063 7.1781 12.1040 5.7494
# 2 21.1989 83.6385 10.5605 1.7031 6.6401 -10.9597
# 3 24.6063 10.5605 56.2436 6.7172 8.5145 -1.2446
# 4 7.1781 1.7031 6.7172 16.5922 0.8336 -3.6974
# 5 12.1040 6.6401 8.5145 0.8336 31.8674 11.9962
# 6 5.7494 -10.9597 -1.2446 -3.6974 11.9962 22.7475
#
#
#
# Elastic Compliance Matrix: (Units=1/GPa)
#
#
# Indices 1 2 3 4 5 6 
#
# 1 0.007799 -0.001959 -0.002702 -0.002770 -0.000546 -0.003225
# 2 -0.001959 0.014482 -0.000970 0.002552 -0.006276 0.011144
# 3 -0.002702 -0.000970 0.020760 -0.006160 -0.005351 0.003172
# 4 -0.002770 0.002552 -0.006160 0.067400 -0.005390 0.015391
# 5 -0.000546 -0.006276 -0.005351 -0.005390 0.044907 -0.027737
# 6 -0.003225 0.011144 0.003172 0.015391 -0.027737 0.067448
#
#
# Mechanical properties :
#
#
# Convention : Reuss Voigt Hill
#
# Bulk Modulus (GPa) = 31.46748 44.49465 37.98106
# Shear Modulus (GPa) = 20.43716 29.66506 25.05111
#
# Velocity S-wave (km/s) = 3.15878 3.80568 3.49722
# Velocity P-wave (km/s) = 5.35416 6.40580 5.90345
#
# Compressibility (1/GPa) = 0.03177884
#
# Stress axis : x y z
#
# Youngs Moduli (GPa) = 128.21527 69.05273 48.16891
#
# Poissons Ratio (x) = 0.13524 0.13017
# Poissons Ratio (y) = 0.25111 0.04674
# Poissons Ratio (z) = 0.34648 0.06701
#
# Static dielectric constant tensor:
#      x y z
#    x 4.394790 0.221890 0.090660 
#    y 0.221890 3.966360 0.116190 
#    z 0.090660 0.116190 3.381000 
# 
# 
# High freq. dielectric constant tensor:
#      x y z
#    x 1.834280 0.000800 -0.000150 
#    y 0.000800 1.799110 0.016630 
#    z -0.000150 0.016630 1.760880 
# 
# From -- ./inp_files/396137.got.cif
#   From: 2010.06.25/outbox.cif.g09.slc.cpg/sg2_199_cif.got.tgz:396137.got - 2010.06.27 13:26:56.
