data_PCOD8044574
_publ_section_title
;
Structure prediction by ZEFSAII (Michael W. Deem and Ramdas Pophale) SiO2 
 PCOD8044574
Probable space group: P -1
;
_chemical_formula_sum "Si O2"
_cell_formula_units_Z 16
_cell_length_a 8.551495
_cell_length_b 8.658608
_cell_length_c 17.546026
_cell_angle_alpha 53.927403
_cell_angle_beta 79.352726
_cell_angle_gamma 47.696923
_cell_volume 726.389694
_symmetry_space_group_name_H-M "P -1"
_symmetry_group_IT_number 2
_symmetry_cell_setting 'triclinic'
loop_
_space_group_symop_operation_xyz
x,y,z
-x,-y,-z
loop_
_atom_site_type_symbol
_atom_site_label
_atom_site_fract_x
_atom_site_fract_y
_atom_site_fract_z
Si Si1 0.794358 0.225781 0.349221
Si Si2 0.577787 0.165546 0.255533
Si Si3 0.408110 0.303373 0.998199
Si Si4 0.227008 0.819690 0.913318
Si Si5 0.741664 0.275951 0.504098
Si Si6 0.670712 0.724555 0.159636
Si Si7 0.094139 0.441640 0.592973
Si Si8 0.921666 0.411647 0.764808
O O1 0.717266 0.152013 0.312023
O O2 0.715286 0.203709 0.443842
O O3 0.668743 0.537451 0.265360
O O4 0.071202 0.005461 0.383337
O O5 0.607721 0.250169 0.149363
O O6 0.318533 0.367185 0.240219
O O7 0.672054 0.870880 0.326048
O O8 0.211990 0.599196 0.972031
O O9 0.335407 0.340757 0.907345
O O10 0.642367 0.226573 0.007768
O O11 0.457639 0.048667 0.102891
O O12 0.985192 0.129798 0.836473
O O13 0.500000 0.500000 0.500000
O O14 0.856275 0.381751 0.447108
O O15 0.901644 0.639262 0.179842
O O16 0.919195 0.507905 0.652689
O O17 0.000000 0.500000 0.500000
#
# Coordination Sequence:
#
# PCOD8044574 Si02
#       8
#     2   2   2   2   2   2   2   2
#     4  11  23  42  61  91 128 161 203 252 304 363
#     4  11  23  38  64  87 123 165 201 249 305 361
#     4   9  18  36  67  84 122 170 194 255 310 349
#     4   9  19  39  61  90 120 158 208 246 301 363
#     4  11  26  42  64  92 123 161 204 255 304 362
#     4  10  19  38  63  89 121 164 203 249 311 353
#     4  11  23  41  59  89 123 157 206 248 303 367
#     4  10  23  39  61  89 121 162 204 252 300 363
#
# _framework density 22.026744000000001
#
# number of rings (size 3 to 8) (size 9 to 14) (size 15 to 20)
#    0.000    1.750    3.750    0.000    3.500    0.500 
#    0.000    6.250    0.000    0.000    0.000    0.000 
#    0.000    0.000    0.000    0.000    0.000    0.000 
#
# Total GULP energy -198237.910168 kJ/mol
# GULP energy per Si atom -12389.869386 kJ/mol
# Density = 2.197661 g / cm^3
# Si number density = 22.026744 Si / 1000 Ang^3
#
#
#
# Elastic Constant Matrix: (Units=GPa)
#
#
# Indices 1 2 3 4 5 6 
#
# 1 43.8123 25.3348 28.8351 3.2379 9.2977 9.0083
# 2 25.3348 98.3951 26.6670 -2.8558 -0.4381 -10.4025
# 3 28.8351 26.6670 105.1470 -7.0280 9.6197 5.4715
# 4 3.2379 -2.8558 -7.0280 29.2673 22.0927 -4.2321
# 5 9.2977 -0.4381 9.6197 22.0927 33.3417 -4.9909
# 6 9.0083 -10.4025 5.4715 -4.2321 -4.9909 43.3078
#
#
#
# Elastic Compliance Matrix: (Units=1/GPa)
#
#
# Indices 1 2 3 4 5 6 
#
# 1 0.036133 -0.008688 -0.006388 -0.000785 -0.009315 -0.009946
# 2 -0.008688 0.013488 -0.001780 -0.000640 0.004393 0.005716
# 3 -0.006388 -0.001780 0.013302 0.010547 -0.009189 -0.000808
# 4 -0.000785 -0.000640 0.010547 0.077755 -0.054352 0.000012
# 5 -0.009315 0.004393 -0.009189 -0.054352 0.072389 0.007185
# 6 -0.009946 0.005716 -0.000808 0.000012 0.007185 0.027463
#
#
# Mechanical properties :
#
#
# Convention : Reuss Voigt Hill
#
# Bulk Modulus (GPa) = 34.23573 45.44759 39.84166
# Shear Modulus (GPa) = 17.60690 32.28451 24.94571
#
# Velocity S-wave (km/s) = 2.83033 3.83259 3.36894
# Velocity P-wave (km/s) = 5.12421 6.34529 5.76716
#
# Compressibility (1/GPa) = 0.02920925
#
# Stress axis : x y z
#
# Youngs Moduli (GPa) = 27.67559 74.14085 75.17912
#
# Poissons Ratio (x) = 0.64413 0.48026
# Poissons Ratio (y) = 0.24044 0.13384
# Poissons Ratio (z) = 0.17680 0.13200
#
# Static dielectric constant tensor:
#      x y z
#    x 3.811680 0.599340 0.060570 
#    y 0.599340 4.119670 -0.308920 
#    z 0.060570 -0.308920 4.532470 
# 
# 
# High freq. dielectric constant tensor:
#      x y z
#    x 1.833420 0.045760 0.014070 
#    y 0.045760 1.862550 -0.020330 
#    z 0.014070 -0.020330 1.893870 
# 
# From -- ./inp_files/46331.got.cif
#   From: 2010.06.25/outbox.cif.g09.slc.cpg/sg2_24_cif.got.tgz:46331.got - 2010.06.27 13:26:56.
