data_PCOD8044155
_publ_section_title
;
Structure prediction by ZEFSAII (Michael W. Deem and Ramdas Pophale) SiO2 
 PCOD8044155
Probable space group: P -1
;
_chemical_formula_sum "Si O2"
_cell_formula_units_Z 16
_cell_length_a 21.791956
_cell_length_b 11.225873
_cell_length_c 16.241883
_cell_angle_alpha 146.900942
_cell_angle_beta 157.769512
_cell_angle_gamma 44.762704
_cell_volume 778.646878
_symmetry_space_group_name_H-M "P -1"
_symmetry_group_IT_number 2
_symmetry_cell_setting 'triclinic'
loop_
_space_group_symop_operation_xyz
x,y,z
-x,-y,-z
loop_
_atom_site_type_symbol
_atom_site_label
_atom_site_fract_x
_atom_site_fract_y
_atom_site_fract_z
Si Si1 0.604429 0.846259 0.898543
Si Si2 0.623878 0.300448 0.250984
Si Si3 0.995247 0.630046 0.249359
Si Si4 0.338853 0.780771 0.401549
Si Si5 0.598607 0.705810 0.184247
Si Si6 0.929924 0.039876 0.320647
Si Si7 0.375866 0.489148 0.146057
Si Si8 0.109724 0.354199 0.591644
O O1 0.428609 0.718928 0.559222
O O2 0.694895 0.679981 0.959911
O O3 0.583173 0.023062 0.045376
O O4 0.729499 0.979733 0.057324
O O5 0.543987 0.418020 0.291441
O O6 0.826550 0.423609 0.571404
O O7 0.534771 0.335746 0.078046
O O8 0.975762 0.741365 0.377884
O O9 0.990579 0.816940 0.281801
O O10 0.856966 0.378816 0.925565
O O11 0.420201 0.735912 0.388796
O O12 0.361644 0.049038 0.580732
O O13 0.784170 0.701515 0.383595
O O14 0.500000 0.500000 0.000000
O O15 0.977876 0.123465 0.334599
O O16 0.246353 0.478968 0.904723
O O17 0.000000 0.500000 0.500000
#
# Coordination Sequence:
#
# PCOD8044155 Si02
#       8
#     2   2   2   2   2   2   2   2
#     4  10  20  36  65  95 133 169 195 254 328 374
#     4   9  21  37  63  89 127 170 207 251 312 380
#     4  10  19  37  65  97 127 161 199 260 319 368
#     4  11  22  39  67  96 127 162 209 263 318 371
#     4  10  25  46  62  86 125 173 213 257 319 375
#     4  10  19  37  64  94 128 163 207 248 315 383
#     4  11  20  40  62  97 127 162 214 255 311 376
#     4  11  24  41  68  91 121 170 223 255 298 380
#
# _framework density 20.548466999999999
#
# number of rings (size 3 to 8) (size 9 to 14) (size 15 to 20)
#    0.000    1.750    2.500    2.250    5.250    2.000 
#    2.250    6.250    0.000    0.000    0.000    0.000 
#    0.000    0.000    0.000    0.000    0.000    0.000 
#
# Total GULP energy -198221.982208 kJ/mol
# GULP energy per Si atom -12388.873888 kJ/mol
# Density = 2.050170 g / cm^3
# Si number density = 20.548467 Si / 1000 Ang^3
#
#
#
# Elastic Constant Matrix: (Units=GPa)
#
#
# Indices 1 2 3 4 5 6 
#
# 1 104.4664 54.2594 39.1558 15.1301 10.8429 -20.2507
# 2 54.2594 131.9217 48.6644 -0.4178 4.5750 -7.1296
# 3 39.1558 48.6644 116.8922 -2.3254 0.6301 -11.1539
# 4 15.1301 -0.4178 -2.3254 30.3648 -1.5659 8.4840
# 5 10.8429 4.5750 0.6301 -1.5659 30.5564 3.3685
# 6 -20.2507 -7.1296 -11.1539 8.4840 3.3685 37.2113
#
#
#
# Elastic Compliance Matrix: (Units=1/GPa)
#
#
# Indices 1 2 3 4 5 6 
#
# 1 0.018714 -0.005732 -0.002967 -0.013366 -0.007723 0.011943
# 2 -0.005732 0.010786 -0.002771 0.003624 0.000970 -0.002797
# 3 -0.002967 -0.002771 0.010784 0.002203 0.001307 0.000466
# 4 -0.013366 0.003624 0.002203 0.044970 0.008325 -0.016926
# 5 -0.007723 0.000970 0.001307 0.008325 0.036696 -0.008845
# 6 0.011943 -0.002797 0.000466 -0.016926 -0.008845 0.037637
#
#
# Mechanical properties :
#
#
# Convention : Reuss Voigt Hill
#
# Bulk Modulus (GPa) = 57.65283 70.82661 64.23972
# Shear Modulus (GPa) = 26.55219 33.70655 30.12937
#
# Velocity S-wave (km/s) = 3.59858 4.05451 3.83333
# Velocity P-wave (km/s) = 6.73679 7.51410 7.13603
#
# Compressibility (1/GPa) = 0.01734520
#
# Stress axis : x y z
#
# Youngs Moduli (GPa) = 53.43505 92.70919 92.73369
#
# Poissons Ratio (x) = 0.53138 0.27516
# Poissons Ratio (y) = 0.30627 0.25693
# Poissons Ratio (z) = 0.15855 0.25687
#
# Static dielectric constant tensor:
#      x y z
#    x 3.991390 -0.197940 0.069660 
#    y -0.197940 3.308290 -0.196880 
#    z 0.069660 -0.196880 3.596600 
# 
# 
# High freq. dielectric constant tensor:
#      x y z
#    x 1.797320 -0.014940 0.009510 
#    y -0.014940 1.798880 -0.017340 
#    z 0.009510 -0.017340 1.797090 
# 
# From -- ./inp_files/579269.got.cif
#   From: 2010.06.25/outbox.cif.g09.slc.cpg/sg2_290_cif.got.tgz:579269.got - 2010.06.27 13:26:56.
