data_PCOD8044989
_publ_section_title
;
Structure prediction by ZEFSAII (Michael W. Deem and Ramdas Pophale) SiO2 
 PCOD8044989
Probable space group: P 2
;
_chemical_formula_sum "Si O2"
_cell_formula_units_Z 14
_cell_length_a 8.251454
_cell_length_b 11.324698
_cell_length_c 11.530684
_cell_angle_alpha 90.000000
_cell_angle_beta 40.109236
_cell_angle_gamma 90.000000
_cell_volume 694.167917
_symmetry_space_group_name_H-M "P 2"
_symmetry_group_IT_number 3
_symmetry_cell_setting 'monoclinic'
loop_
_space_group_symop_operation_xyz
x,y,z
-x,y,-z
loop_
_atom_site_type_symbol
_atom_site_label
_atom_site_fract_x
_atom_site_fract_y
_atom_site_fract_z
Si Si1 0.270658 0.470150 0.718444
Si Si2 0.757967 0.900952 0.697773
Si Si3 0.718896 0.526750 0.028339
Si Si4 0.282817 0.011961 0.885525
Si Si5 0.500000 0.326816 0.000000
Si Si6 0.165894 0.112100 0.186742
Si Si7 0.500000 0.728471 0.000000
Si Si8 0.717925 0.206792 0.296150
O O1 0.500000 0.488205 0.500000
O O2 0.330191 0.533575 0.807278
O O3 0.190636 0.335273 0.793796
O O4 0.005512 0.524934 0.822218
O O5 0.000000 0.847983 0.500000
O O6 0.506506 0.914073 0.751487
O O7 0.847151 0.029489 0.694448
O O8 0.712780 0.811620 0.828190
O O9 0.569442 0.410645 0.068989
O O10 0.610004 0.648603 0.041363
O O11 0.352138 0.130343 0.777667
O O12 0.323776 0.047490 0.998207
O O13 0.000000 0.967482 0.000000
O O14 0.271335 0.241183 0.162938
O O15 0.897182 0.127943 0.276271
O O16 0.500000 0.240714 0.500000
#
# Coordination Sequence:
#
# PCOD8044989 Si02
#       8
#     2   2   2   2   1   2   1   2
#     4  10  21  39  62  93 127 158 205 251 316 379
#     4  12  24  42  66  91 125 167 214 259 312 365
#     4  10  23  40  65  87 122 168 207 263 312 358
#     4  10  20  35  60  89 128 166 200 248 309 373
#     4  11  17  34  60  90 127 169 204 240 316 377
#     4  11  19  35  61  91 128 163 202 245 310 383
#     4  11  25  48  64  86 121 167 222 268 308 355
#     4  10  20  33  56  94 135 161 195 244 310 385
#
# _framework density 20.168032
#
# number of rings (size 3 to 8) (size 9 to 14) (size 15 to 20)
#    0.000    1.429    4.286    1.714    4.000    1.143 
#    2.571    2.143    0.000    0.857    0.000    0.000 
#    0.000    0.000    0.000    0.000    0.000    0.000 
#
# Total GULP energy -173452.147992 kJ/mol
# GULP energy per Si atom -12389.439142 kJ/mol
# Density = 2.012213 g / cm^3
# Si number density = 20.168032 Si / 1000 Ang^3
#
#
#
# Elastic Constant Matrix: (Units=GPa)
#
#
# Indices 1 2 3 4 5 6 
#
# 1 87.5881 32.9283 33.1819 0.0000 3.4713 0.0000
# 2 32.9283 93.9147 31.4840 0.0000 1.5911 0.0000
# 3 33.1819 31.4840 120.1218 0.0000 -1.7182 0.0000
# 4 0.0000 0.0000 0.0000 20.1646 0.0000 5.5051
# 5 3.4713 1.5911 -1.7182 0.0000 21.6348 0.0000
# 6 0.0000 0.0000 0.0000 5.5051 0.0000 20.1977
#
#
#
# Elastic Compliance Matrix: (Units=1/GPa)
#
#
# Indices 1 2 3 4 5 6 
#
# 1 0.014076 -0.003929 -0.002890 0.000000 -0.002199 0.000000
# 2 -0.003929 0.012797 -0.002276 0.000000 -0.000491 0.000000
# 3 -0.002890 -0.002276 0.009740 0.000000 0.001405 0.000000
# 4 0.000000 0.000000 0.000000 0.053579 0.000000 -0.014603
# 5 -0.002199 -0.000491 0.001405 0.000000 0.046722 0.000000
# 6 0.000000 0.000000 0.000000 -0.014603 0.000000 0.053491
#
#
# Mechanical properties :
#
#
# Convention : Reuss Voigt Hill
#
# Bulk Modulus (GPa) = 54.28002 55.20146 54.74074
# Shear Modulus (GPa) = 23.28443 26.00144 24.64293
#
# Velocity S-wave (km/s) = 3.40151 3.59449 3.49933
# Velocity P-wave (km/s) = 6.51148 6.68262 6.59760
#
# Compressibility (1/GPa) = 0.01842298
#
# Stress axis : x y z
#
# Youngs Moduli (GPa) = 71.04151 78.14403 102.67220
#
# Poissons Ratio (x) = 0.30705 0.29672
# Poissons Ratio (y) = 0.27915 0.23365
# Poissons Ratio (z) = 0.20531 0.17783
#
# Static dielectric constant tensor:
#      x y z
#    x 3.775100 0.000000 -0.096940 
#    y 0.000000 3.594670 0.000000 
#    z -0.096940 0.000000 3.516630 
# 
# 
# High freq. dielectric constant tensor:
#      x y z
#    x 1.796420 0.000000 -0.006760 
#    y 0.000000 1.773850 0.000000 
#    z -0.006760 0.000000 1.777360 
# 
# From -- ./inp_files/10933.got.cif
#   From: 2010.03.12/outbox.cif.g09.slc.cpg/sg3_6_cif.got.tgz:10933.got - 2010.03.31 09:20:49.
