data_PCOD8044074
_publ_section_title
;
Structure prediction by ZEFSAII (Michael W. Deem and Ramdas Pophale) SiO2 
 PCOD8044074
Probable space group: P -1
;
_chemical_formula_sum "Si O2"
_cell_formula_units_Z 16
_cell_length_a 17.306388
_cell_length_b 23.504484
_cell_length_c 11.863693
_cell_angle_alpha 148.951496
_cell_angle_beta 136.858724
_cell_angle_gamma 20.759638
_cell_volume 812.077903
_symmetry_space_group_name_H-M "P -1"
_symmetry_group_IT_number 2
_symmetry_cell_setting 'triclinic'
loop_
_space_group_symop_operation_xyz
x,y,z
-x,-y,-z
loop_
_atom_site_type_symbol
_atom_site_label
_atom_site_fract_x
_atom_site_fract_y
_atom_site_fract_z
Si Si1 0.963180 0.698410 0.001559
Si Si2 0.895303 0.875985 0.929818
Si Si3 0.668647 0.996704 0.690414
Si Si4 0.552028 0.576711 0.227617
Si Si5 0.171307 0.954485 0.625239
Si Si6 0.145681 0.384313 0.843462
Si Si7 0.464748 0.229364 0.633307
Si Si8 0.240279 0.228480 0.287180
O O1 0.917647 0.868258 0.247615
O O2 0.999054 0.606512 0.001531
O O3 0.197566 0.486747 0.817055
O O4 0.742292 0.832086 0.925566
O O5 0.801801 0.977314 0.874323
O O6 0.775094 0.860562 0.795580
O O7 0.175742 0.631148 0.816654
O O8 0.808704 0.036301 0.204569
O O9 0.841490 0.741146 0.426927
O O10 0.420710 0.182847 0.806141
O O11 0.627718 0.080513 0.664312
O O12 0.437907 0.757782 0.321516
O O13 0.431426 0.697509 0.425206
O O14 0.500000 0.500000 0.000000
O O15 0.000000 0.000000 0.500000
O O16 0.000000 0.500000 0.000000
O O17 0.462970 0.114427 0.366726
O O18 0.000000 0.500000 0.500000
#
# Coordination Sequence:
#
# PCOD8044074 Si02
#       8
#     2   2   2   2   2   2   2   2
#     4   9  18  34  57  89 122 154 198 258 290 356
#     4  11  21  40  59  91 124 157 202 252 302 365
#     4  10  22  38  59  88 130 169 193 246 304 358
#     4  12  23  39  67  87 113 160 208 259 306 359
#     4  11  22  40  64  88 115 153 208 263 309 350
#     4  10  21  36  58  89 133 170 200 235 303 376
#     4  10  19  37  63  89 123 165 198 238 310 360
#     4   9  14  30  58  83 118 151 187 242 292 343
#
# _framework density 19.702545000000001
#
# number of rings (size 3 to 8) (size 9 to 14) (size 15 to 20)
#    0.000    1.750    5.000    3.000    1.750    1.000 
#    0.000    1.875    0.000    3.750    0.000    0.000 
#    0.000    0.000    0.000    0.000    0.000    0.000 
#
# Total GULP energy -198246.212410 kJ/mol
# GULP energy per Si atom -12390.388276 kJ/mol
# Density = 1.965770 g / cm^3
# Si number density = 19.702545 Si / 1000 Ang^3
#
#
#
# Elastic Constant Matrix: (Units=GPa)
#
#
# Indices 1 2 3 4 5 6 
#
# 1 104.4586 53.5105 57.2409 -17.7475 -1.0859 5.4570
# 2 53.5105 102.2004 55.3758 -26.7299 1.0435 22.3604
# 3 57.2409 55.3758 123.4502 -21.8090 -1.2354 6.7488
# 4 -17.7475 -26.7299 -21.8090 31.3503 -6.0762 -5.8708
# 5 -1.0859 1.0435 -1.2354 -6.0762 39.5373 -3.3491
# 6 5.4570 22.3604 6.7488 -5.8708 -3.3491 16.7696
#
#
#
# Elastic Compliance Matrix: (Units=1/GPa)
#
#
# Indices 1 2 3 4 5 6 
#
# 1 0.015225 -0.006827 -0.004092 0.001417 0.001242 0.006540
# 2 -0.006827 0.023292 -0.004567 0.007855 -0.001823 -0.024611
# 3 -0.004092 -0.004567 0.012451 0.003415 0.001249 0.003856
# 4 0.001417 0.007855 0.003415 0.043989 0.007080 0.004505
# 5 0.001242 -0.001823 0.001249 0.007080 0.027303 0.009455
# 6 0.006540 -0.024611 0.003856 0.004505 0.009455 0.092233
#
#
# Mechanical properties :
#
#
# Convention : Reuss Voigt Hill
#
# Bulk Modulus (GPa) = 50.01220 73.59596 61.80408
# Shear Modulus (GPa) = 19.83099 28.46360 24.14729
#
# Velocity S-wave (km/s) = 3.17601 3.80500 3.50464
# Velocity P-wave (km/s) = 6.23603 7.53251 6.91472
#
# Compressibility (1/GPa) = 0.01999512
#
# Stress axis : x y z
#
# Youngs Moduli (GPa) = 65.68286 42.93344 80.31178
#
# Poissons Ratio (x) = 0.29313 0.32860
# Poissons Ratio (y) = 0.44845 0.36682
# Poissons Ratio (z) = 0.26875 0.19609
#
# Static dielectric constant tensor:
#      x y z
#    x 3.611630 0.030310 -0.059620 
#    y 0.030310 3.818210 -0.123540 
#    z -0.059620 -0.123540 3.858030 
# 
# 
# High freq. dielectric constant tensor:
#      x y z
#    x 1.758050 0.006900 -0.009510 
#    y 0.006900 1.754070 -0.004900 
#    z -0.009510 -0.004900 1.768380 
# 
# From -- ./inp_files/467484.got.cif
#   From: 2010.06.25/outbox.cif.g09.slc.cpg/sg2_234_cif.got.tgz:467484.got - 2010.06.27 13:26:56.
