data_PCOD8044326
_publ_section_title
;
Structure prediction by ZEFSAII (Michael W. Deem and Ramdas Pophale) SiO2 
 PCOD8044326
Probable space group: P -1
;
_chemical_formula_sum "Si O2"
_cell_formula_units_Z 16
_cell_length_a 24.230969
_cell_length_b 6.948827
_cell_length_c 16.248090
_cell_angle_alpha 99.006757
_cell_angle_beta 157.526790
_cell_angle_gamma 68.717292
_cell_volume 842.683703
_symmetry_space_group_name_H-M "P -1"
_symmetry_group_IT_number 2
_symmetry_cell_setting 'triclinic'
loop_
_space_group_symop_operation_xyz
x,y,z
-x,-y,-z
loop_
_atom_site_type_symbol
_atom_site_label
_atom_site_fract_x
_atom_site_fract_y
_atom_site_fract_z
Si Si1 0.014283 0.041843 0.648795
Si Si2 0.729068 0.612411 0.601386
Si Si3 0.943322 0.462593 0.047253
Si Si4 0.578682 0.886308 0.848919
Si Si5 0.920389 0.592339 0.197337
Si Si6 0.589609 0.344149 0.305341
Si Si7 0.713349 0.157470 0.127173
Si Si8 0.925351 0.902581 0.667411
O O1 0.839638 0.075307 0.374445
O O2 0.042979 0.957792 0.777885
O O3 0.986913 0.294596 0.626755
O O4 0.185196 0.856409 0.817575
O O5 0.681085 0.430091 0.497173
O O6 0.882508 0.574484 0.752289
O O7 0.562908 0.887064 0.386582
O O8 0.790065 0.556408 0.776074
O O9 0.875855 0.652211 0.042162
O O10 0.991935 0.209204 0.135529
O O11 0.494941 0.762475 0.765843
O O12 0.737652 0.686299 0.997774
O O13 0.647667 0.985157 0.019752
O O14 0.066140 0.306217 0.387550
O O15 0.729454 0.140271 0.421785
O O16 0.447998 0.565790 0.067889
#
# Coordination Sequence:
#
# PCOD8044326 Si02
#       8
#     2   2   2   2   2   2   2   2
#     4  10  19  40  59  81 107 147 180 226 272 323
#     4  10  20  38  58  80 110 143 188 222 269 322
#     4   9  20  39  54  84 109 142 185 226 267 322
#     4  10  19  38  57  81 113 143 178 231 268 320
#     4   9  20  36  57  79 114 142 179 224 274 316
#     4  11  21  36  58  82 111 146 181 224 272 324
#     4   9  22  36  61  82 107 142 188 221 271 324
#     4  10  21  35  55  81 113 141 181 222 270 322
#
# _framework density 18.986958000000001
#
# number of rings (size 3 to 8) (size 9 to 14) (size 15 to 20)
#    0.750    1.500    1.250    1.500    0.000    2.500 
#    2.250    5.625    0.000    0.000    0.000    0.000 
#    0.000    0.000    0.000    0.000    0.000    0.000 
#
# Total GULP energy -198262.278591 kJ/mol
# GULP energy per Si atom -12391.392412 kJ/mol
# Density = 1.894374 g / cm^3
# Si number density = 18.986958 Si / 1000 Ang^3
#
#
#
# Elastic Constant Matrix: (Units=GPa)
#
#
# Indices 1 2 3 4 5 6 
#
# 1 83.8586 36.3702 12.8988 1.8598 6.9332 4.3145
# 2 36.3702 103.1089 41.7816 -2.4756 7.8583 -5.9812
# 3 12.8988 41.7816 69.1844 8.7868 0.9772 -2.8044
# 4 1.8598 -2.4756 8.7868 29.7567 -1.9504 9.8562
# 5 6.9332 7.8583 0.9772 -1.9504 15.2327 -8.9090
# 6 4.3145 -5.9812 -2.8044 9.8562 -8.9090 32.9711
#
#
#
# Elastic Compliance Matrix: (Units=1/GPa)
#
#
# Indices 1 2 3 4 5 6 
#
# 1 0.014922 -0.005122 0.000267 -0.000361 -0.006915 -0.004620
# 2 -0.005122 0.015532 -0.008828 0.003793 -0.004385 0.000418
# 3 0.000267 -0.008828 0.020815 -0.007817 0.004206 0.003607
# 4 -0.000361 0.003793 -0.007817 0.040309 -0.003725 -0.012986
# 5 -0.006915 -0.004385 0.004206 -0.003725 0.084606 0.024442
# 6 -0.004620 0.000418 0.003607 -0.012986 0.024442 0.041803
#
#
# Mechanical properties :
#
#
# Convention : Reuss Voigt Hill
#
# Bulk Modulus (GPa) = 41.83285 48.69481 45.26383
# Shear Modulus (GPa) = 19.73785 26.59885 23.16835
#
# Velocity S-wave (km/s) = 3.22770 3.74692 3.49696
# Velocity P-wave (km/s) = 5.99758 6.66494 6.34004
#
# Compressibility (1/GPa) = 0.02390466
#
# Stress axis : x y z
#
# Youngs Moduli (GPa) = 67.01330 64.38424 48.04181
#
# Poissons Ratio (x) = 0.32974 -0.01283
# Poissons Ratio (y) = 0.34321 0.42411
# Poissons Ratio (z) = -0.01789 0.56838
#
# Static dielectric constant tensor:
#      x y z
#    x 3.473350 -0.028760 0.128800 
#    y -0.028760 3.493560 -0.036620 
#    z 0.128800 -0.036620 3.334350 
# 
# 
# High freq. dielectric constant tensor:
#      x y z
#    x 1.739690 0.000940 0.012790 
#    y 0.000940 1.744440 -0.005550 
#    z 0.012790 -0.005550 1.720090 
# 
# From -- ./inp_files/572746.got.cif
#   From: 2010.06.25/outbox.cif.g09.slc.cpg/sg2_287_cif.got.tgz:572746.got - 2010.06.27 13:26:56.
