data_PCOD8044332
_publ_section_title
;
Structure prediction by ZEFSAII (Michael W. Deem and Ramdas Pophale) SiO2 
 PCOD8044332
Probable space group: P -1
;
_chemical_formula_sum "Si O2"
_cell_formula_units_Z 16
_cell_length_a 8.686107
_cell_length_b 20.279541
_cell_length_c 17.233022
_cell_angle_alpha 20.476613
_cell_angle_beta 128.970553
_cell_angle_gamma 132.527812
_cell_volume 782.478325
_symmetry_space_group_name_H-M "P -1"
_symmetry_group_IT_number 2
_symmetry_cell_setting 'triclinic'
loop_
_space_group_symop_operation_xyz
x,y,z
-x,-y,-z
loop_
_atom_site_type_symbol
_atom_site_label
_atom_site_fract_x
_atom_site_fract_y
_atom_site_fract_z
Si Si1 0.317803 0.310237 0.744320
Si Si2 0.820652 0.540831 0.149461
Si Si3 0.662408 0.475631 0.332420
Si Si4 0.404679 0.947992 0.231828
Si Si5 0.754314 0.810439 0.450317
Si Si6 0.802124 0.943824 0.642968
Si Si7 0.428492 0.909292 0.459487
Si Si8 0.782409 0.581429 0.566625
O O1 0.246551 0.400191 0.699065
O O2 0.558294 0.418648 0.681558
O O3 0.176653 0.328798 0.606364
O O4 0.288620 0.080502 0.005041
O O5 0.751139 0.599662 0.146856
O O6 0.665298 0.330407 0.302782
O O7 0.053227 0.529472 0.237927
O O8 0.815752 0.720316 0.894153
O O9 0.404921 0.396260 0.336250
O O10 0.741017 0.281269 0.571445
O O11 0.631153 0.973492 0.235506
O O12 0.433489 0.999484 0.275756
O O13 0.805153 0.768748 0.423815
O O14 0.968679 0.894223 0.473792
O O15 0.666396 0.967908 0.500085
O O16 0.702646 0.989280 0.640895
#
# Coordination Sequence:
#
# PCOD8044332 Si02
#       8
#     2   2   2   2   2   2   2   2
#     4  10  19  38  57  84 110 152 184 229 276 328
#     4  11  20  39  58  81 116 150 177 233 281 322
#     4   8  20  36  54  80 115 144 186 224 274 328
#     4   9  19  37  57  77 116 148 175 232 280 315
#     4   9  19  37  55  82 112 148 181 234 266 328
#     4  11  21  36  63  84 107 150 188 222 285 329
#     4  10  22  38  58  85 113 140 190 234 268 338
#     4  10  21  35  59  83 116 142 193 230 267 334
#
# _framework density 20.447851
#
# number of rings (size 3 to 8) (size 9 to 14) (size 15 to 20)
#    0.750    1.500    1.250    1.875    0.000    1.500 
#    2.250    2.500    0.000    3.750    0.000    0.000 
#    0.000    0.000    0.000    0.000    0.000    0.000 
#
# Total GULP energy -198293.692028 kJ/mol
# GULP energy per Si atom -12393.355752 kJ/mol
# Density = 2.040131 g / cm^3
# Si number density = 20.447851 Si / 1000 Ang^3
#
#
#
# Elastic Constant Matrix: (Units=GPa)
#
#
# Indices 1 2 3 4 5 6 
#
# 1 52.6554 12.9723 9.1375 2.1108 14.2227 -13.1454
# 2 12.9723 41.1551 -0.1765 -4.7631 8.6905 -6.8088
# 3 9.1375 -0.1765 68.9231 7.8891 10.0792 -6.2147
# 4 2.1108 -4.7631 7.8891 19.0429 -0.0653 -4.1107
# 5 14.2227 8.6905 10.0792 -0.0653 24.3109 -4.3041
# 6 -13.1454 -6.8088 -6.2147 -4.1107 -4.3041 21.3200
#
#
#
# Elastic Compliance Matrix: (Units=1/GPa)
#
#
# Indices 1 2 3 4 5 6 
#
# 1 0.026285 -0.003943 -0.000579 -0.001057 -0.011564 0.012240
# 2 -0.003943 0.029381 0.001350 0.008832 -0.007394 0.007555
# 3 -0.000579 0.001350 0.016441 -0.005913 -0.006550 0.002404
# 4 -0.001057 0.008832 -0.005913 0.059989 0.002282 0.012472
# 5 -0.011564 -0.007394 -0.006550 0.002282 0.053226 -0.000215
# 6 0.012240 0.007555 0.002404 0.012472 -0.000215 0.059926
#
#
# Mechanical properties :
#
#
# Convention : Reuss Voigt Hill
#
# Bulk Modulus (GPa) = 15.20657 22.95557 19.08107
# Shear Modulus (GPa) = 18.28066 22.32144 20.30105
#
# Velocity S-wave (km/s) = 2.99325 3.30756 3.15432
# Velocity P-wave (km/s) = 4.40443 5.08305 4.75586
#
# Compressibility (1/GPa) = 0.06576104
#
# Stress axis : x y z
#
# Youngs Moduli (GPa) = 38.04450 34.03606 60.82510
#
# Poissons Ratio (x) = 0.13421 0.03522
# Poissons Ratio (y) = 0.15001 -0.08209
# Poissons Ratio (z) = 0.02203 -0.04594
#
# Static dielectric constant tensor:
#      x y z
#    x 3.728020 -0.116530 0.127020 
#    y -0.116530 3.643510 -0.072140 
#    z 0.127020 -0.072140 3.385690 
# 
# 
# High freq. dielectric constant tensor:
#      x y z
#    x 1.804120 -0.005580 0.012800 
#    y -0.005580 1.792290 -0.010430 
#    z 0.012800 -0.010430 1.777000 
# 
# From -- ./inp_files/325796.got.cif
#   From: 2010.06.25/outbox.cif.g09.slc.cpg/sg2_163_cif.got.tgz:325796.got - 2010.06.27 13:26:56.
