data_PCOD8044097
_publ_section_title
;
Structure prediction by ZEFSAII (Michael W. Deem and Ramdas Pophale) SiO2 
 PCOD8044097
Probable space group: P -1
;
_chemical_formula_sum "Si O2"
_cell_formula_units_Z 14
_cell_length_a 11.718985
_cell_length_b 9.091944
_cell_length_c 17.745722
_cell_angle_alpha 139.208048
_cell_angle_beta 31.107339
_cell_angle_gamma 128.696695
_cell_volume 636.708503
_symmetry_space_group_name_H-M "P -1"
_symmetry_group_IT_number 2
_symmetry_cell_setting 'triclinic'
loop_
_space_group_symop_operation_xyz
x,y,z
-x,-y,-z
loop_
_atom_site_type_symbol
_atom_site_label
_atom_site_fract_x
_atom_site_fract_y
_atom_site_fract_z
Si Si1 0.867657 0.297303 0.324141
Si Si2 0.323454 0.830698 0.242403
Si Si3 0.975274 0.019643 0.757288
Si Si4 0.086030 0.227267 0.449836
Si Si5 0.768199 0.617381 0.963284
Si Si6 0.782601 0.473055 0.065172
Si Si7 0.583571 0.782101 0.412147
O O1 0.878217 0.514098 0.455600
O O2 0.608565 0.269013 0.438484
O O3 0.002518 0.314711 0.177353
O O4 0.968473 0.085310 0.233577
O O5 0.283162 0.633081 0.129445
O O6 0.156013 0.825982 0.404795
O O7 0.281464 0.070522 0.317965
O O8 0.573733 0.801175 0.119719
O O9 0.178346 0.164936 0.666559
O O10 0.913372 0.824319 0.659620
O O11 0.765789 0.205392 0.955079
O O12 0.789237 0.620385 0.042322
O O13 0.587412 0.575763 0.269265
O O14 0.000000 0.500000 0.000000
O O15 0.500000 0.000000 0.500000
#
# Coordination Sequence:
#
# PCOD8044097 Si02
#       7
#     2   2   2   2   2   2   2
#     4  10  22  38  61  97 126 156 210 261 302 360
#     4   9  20  35  62  91 125 165 198 254 321 363
#     4  10  20  39  62  87 128 166 204 251 311 371
#     4  10  19  37  63  95 123 159 211 255 305 364
#     4  10  20  39  61  91 126 159 208 258 305 367
#     4  10  21  40  65  86 120 173 207 243 309 382
#     4   9  21  40  60  86 121 163 205 241 314 369
#
# _framework density 21.988083
#
# number of rings (size 3 to 8) (size 9 to 14) (size 15 to 20)
#    0.000    2.286    1.429    0.429    4.000    1.143 
#    2.571   10.714    0.000    0.000    0.000    0.000 
#    0.000    0.000    0.000    0.000    0.000    0.000 
#
# Total GULP energy -173510.872954 kJ/mol
# GULP energy per Si atom -12393.633782 kJ/mol
# Density = 2.193804 g / cm^3
# Si number density = 21.988083 Si / 1000 Ang^3
#
#
#
# Elastic Constant Matrix: (Units=GPa)
#
#
# Indices 1 2 3 4 5 6 
#
# 1 68.2161 9.5216 21.6505 -7.3661 -1.4051 -9.1157
# 2 9.5216 66.2389 27.5529 -6.9500 -14.6587 -5.8979
# 3 21.6505 27.5529 111.0196 7.4562 -17.6020 -6.2180
# 4 -7.3661 -6.9500 7.4562 33.6680 0.7193 2.4884
# 5 -1.4051 -14.6587 -17.6020 0.7193 23.2616 3.0902
# 6 -9.1157 -5.8979 -6.2180 2.4884 3.0902 22.1129
#
#
#
# Elastic Compliance Matrix: (Units=1/GPa)
#
#
# Indices 1 2 3 4 5 6 
#
# 1 0.017036 -0.000690 -0.003571 0.004011 -0.003003 0.005803
# 2 -0.000690 0.019247 -0.003356 0.004211 0.009130 0.002155
# 3 -0.003571 -0.003356 0.011926 -0.004299 0.006757 0.000526
# 4 0.004011 0.004211 -0.004299 0.032568 -0.001106 -0.001942
# 5 -0.003003 0.009130 0.006757 -0.001106 0.054289 -0.004365
# 6 0.005803 0.002155 0.000526 -0.001942 -0.004365 0.049166
#
#
# Mechanical properties :
#
#
# Convention : Reuss Voigt Hill
#
# Bulk Modulus (GPa) = 30.32869 40.32497 35.32683
# Shear Modulus (GPa) = 23.75768 28.25848 26.00808
#
# Velocity S-wave (km/s) = 3.29063 3.58882 3.44296
# Velocity P-wave (km/s) = 5.31609 5.96256 5.64858
#
# Compressibility (1/GPa) = 0.03297208
#
# Stress axis : x y z
#
# Youngs Moduli (GPa) = 58.69980 51.95733 83.84791
#
# Poissons Ratio (x) = 0.03587 0.29946
# Poissons Ratio (y) = 0.04052 0.28143
# Poissons Ratio (z) = 0.20965 0.17439
#
# Static dielectric constant tensor:
#      x y z
#    x 3.744960 0.155830 -0.094940 
#    y 0.155830 4.036520 0.142370 
#    z -0.094940 0.142370 4.944440 
# 
# 
# High freq. dielectric constant tensor:
#      x y z
#    x 1.840780 -0.003800 -0.004130 
#    y -0.003800 1.845880 0.017400 
#    z -0.004130 0.017400 1.885110 
# 
# From -- ./inp_files/178037.got.cif
#   From: 2010.06.25/outbox.cif.g09.slc.cpg/sg2_90_cif.got.tgz:178037.got - 2010.06.27 13:26:56.
