data_PCOD8044494
_publ_section_title
;
Structure prediction by ZEFSAII (Michael W. Deem and Ramdas Pophale) SiO2 
 PCOD8044494
Probable space group: P -1
;
_chemical_formula_sum "Si O2"
_cell_formula_units_Z 12
_cell_length_a 13.469321
_cell_length_b 11.743412
_cell_length_c 8.873192
_cell_angle_alpha 125.440271
_cell_angle_beta 99.547725
_cell_angle_gamma 125.995403
_cell_volume 591.794647
_symmetry_space_group_name_H-M "P -1"
_symmetry_group_IT_number 2
_symmetry_cell_setting 'triclinic'
loop_
_space_group_symop_operation_xyz
x,y,z
-x,-y,-z
loop_
_atom_site_type_symbol
_atom_site_label
_atom_site_fract_x
_atom_site_fract_y
_atom_site_fract_z
Si Si1 0.964773 0.757696 0.434246
Si Si2 0.779820 0.512844 0.746816
Si Si3 0.140372 0.065460 0.423648
Si Si4 0.630323 0.880916 0.647096
Si Si5 0.044151 0.708883 0.715485
Si Si6 0.800955 0.332407 0.868637
O O1 0.129088 0.992377 0.534738
O O2 0.071602 0.836009 0.672515
O O3 0.829372 0.732268 0.412712
O O4 0.829153 0.473739 0.121777
O O5 0.592672 0.385580 0.566571
O O6 0.716980 0.310353 0.683791
O O7 0.862808 0.551722 0.642415
O O8 0.937787 0.794179 0.084152
O O9 0.316358 0.201256 0.485106
O O10 0.660683 0.044122 0.663823
O O11 0.759827 0.053259 0.959190
O O12 0.000000 0.500000 0.500000
O O13 0.000000 0.500000 0.000000
#
# Coordination Sequence:
#
# PCOD8044494 Si02
#       6
#     2   2   2   2   2   2
#     4  10  19  38  62  83 113 153 187 236 284 327
#     4  10  22  36  58  85 115 152 191 227 285 339
#     4   9  21  40  61  80 114 152 193 231 277 338
#     4  11  21  37  60  83 115 153 189 232 282 338
#     4  11  21  37  58  86 120 145 186 237 287 333
#     4  11  17  38  61  83 112 154 192 230 278 332
#
# _framework density 20.277303
#
# number of rings (size 3 to 8) (size 9 to 14) (size 15 to 20)
#    0.000    1.667    6.667    0.500    0.000    3.333 
#    0.000   12.500    0.000    0.000    0.000    0.000 
#    0.000    0.000    0.000    0.000    0.000    0.000 
#
# Total GULP energy -148808.110996 kJ/mol
# GULP energy per Si atom -12400.675916 kJ/mol
# Density = 2.023115 g / cm^3
# Si number density = 20.277303 Si / 1000 Ang^3
#
#
#
# Elastic Constant Matrix: (Units=GPa)
#
#
# Indices 1 2 3 4 5 6 
#
# 1 163.6633 42.3269 70.5881 -3.5074 -0.6811 20.7150
# 2 42.3269 78.3391 41.5932 -26.2601 5.6406 2.7835
# 3 70.5881 41.5932 64.3716 -13.6881 9.5141 18.7531
# 4 -3.5074 -26.2601 -13.6881 30.9355 2.0336 1.6271
# 5 -0.6811 5.6406 9.5141 2.0336 43.6144 6.7524
# 6 20.7150 2.7835 18.7531 1.6271 6.7524 34.3314
#
#
#
# Elastic Compliance Matrix: (Units=1/GPa)
#
#
# Indices 1 2 3 4 5 6 
#
# 1 0.012969 -0.001397 -0.015439 -0.006825 0.004030 0.000252
# 2 -0.001397 0.025637 -0.012998 0.015700 -0.002091 0.005531
# 3 -0.015439 -0.012998 0.048459 0.009931 -0.007249 -0.015145
# 4 -0.006825 0.015700 0.009931 0.049868 -0.006047 -0.003753
# 5 0.004030 -0.002091 -0.007249 -0.006047 0.025597 -0.003050
# 6 0.000252 0.005531 -0.015145 -0.003753 -0.003050 0.037578
#
#
# Mechanical properties :
#
#
# Convention : Reuss Voigt Hill
#
# Bulk Modulus (GPa) = 36.49955 68.37672 52.43814
# Shear Modulus (GPa) = 18.59377 31.90064 25.24721
#
# Velocity S-wave (km/s) = 3.03144 3.97069 3.53242
# Velocity P-wave (km/s) = 5.50383 7.40377 6.52334
#
# Compressibility (1/GPa) = 0.02739760
#
# Stress axis : x y z
#
# Youngs Moduli (GPa) = 77.10778 39.00557 20.63615
#
# Poissons Ratio (x) = 0.05448 0.31861
# Poissons Ratio (y) = 0.10770 0.26822
# Poissons Ratio (z) = 1.19048 0.50698
#
# Static dielectric constant tensor:
#      x y z
#    x 3.952260 -0.066870 -0.192700 
#    y -0.066870 3.805110 -0.231970 
#    z -0.192700 -0.231970 3.566920 
# 
# 
# High freq. dielectric constant tensor:
#      x y z
#    x 1.808610 -0.003650 -0.012580 
#    y -0.003650 1.782300 -0.021550 
#    z -0.012580 -0.021550 1.767920 
# 
# From -- ./inp_files/188593.got.cif
#   From: 2010.06.25/outbox.cif.g09.slc.cpg/sg2_95_cif.got.tgz:188593.got - 2010.06.27 13:26:56.
