data_PCOD8044348
_publ_section_title
;
Structure prediction by ZEFSAII (Michael W. Deem and Ramdas Pophale) SiO2 
 PCOD8044348
Probable space group: P -1
;
_chemical_formula_sum "Si O2"
_cell_formula_units_Z 14
_cell_length_a 10.986775
_cell_length_b 7.804844
_cell_length_c 14.839124
_cell_angle_alpha 125.169766
_cell_angle_beta 51.785031
_cell_angle_gamma 142.625534
_cell_volume 597.299998
_symmetry_space_group_name_H-M "P -1"
_symmetry_group_IT_number 2
_symmetry_cell_setting 'triclinic'
loop_
_space_group_symop_operation_xyz
x,y,z
-x,-y,-z
loop_
_atom_site_type_symbol
_atom_site_label
_atom_site_fract_x
_atom_site_fract_y
_atom_site_fract_z
Si Si1 0.746930 0.953009 0.474253
Si Si2 0.781964 0.633036 0.873056
Si Si3 0.558368 0.304268 0.169177
Si Si4 0.410574 0.120200 0.989075
Si Si5 0.682241 0.367093 0.646491
Si Si6 0.319829 0.364010 0.432023
Si Si7 0.780801 0.923825 0.253389
O O1 0.496947 0.672990 0.491706
O O2 0.830897 0.877857 0.494550
O O3 0.870411 0.022022 0.345169
O O4 0.777606 0.224487 0.568494
O O5 0.657527 0.375906 0.923227
O O6 0.703222 0.514377 0.772600
O O7 0.733276 0.833477 0.976341
O O8 0.034760 0.825732 0.822169
O O9 0.429138 0.266775 0.303001
O O10 0.735729 0.639742 0.164127
O O11 0.666225 0.178228 0.102549
O O12 0.398937 0.121064 0.102818
O O13 0.796353 0.597430 0.579330
O O14 0.428507 0.126293 0.671125
#
# Coordination Sequence:
#
# PCOD8044348 Si02
#       7
#     2   2   2   2   2   2   2
#     4   9  18  33  60  81 115 150 184 226 293 330
#     4  11  22  36  59  85 114 144 197 231 285 334
#     4   9  18  37  60  76 114 149 188 230 289 328
#     4  10  20  37  59  80 109 158 182 236 289 330
#     4  10  19  38  58  81 117 155 177 238 284 339
#     4   9  16  32  58  84 105 150 188 228 274 352
#     4  10  21  37  58  87 113 145 191 239 268 351
#
# _framework density 23.438807000000001
#
# number of rings (size 3 to 8) (size 9 to 14) (size 15 to 20)
#    0.000    2.571    2.857    2.571    0.000    1.714 
#    0.000    0.714   31.429    0.000    0.000    0.000 
#    0.000    0.000    0.000    0.000    0.000    0.000 
#
# Total GULP energy -173507.020874 kJ/mol
# GULP energy per Si atom -12393.358634 kJ/mol
# Density = 2.338546 g / cm^3
# Si number density = 23.438807 Si / 1000 Ang^3
#
#
#
# Elastic Constant Matrix: (Units=GPa)
#
#
# Indices 1 2 3 4 5 6 
#
# 1 58.9282 6.5952 8.9926 11.1925 -4.6379 -21.2732
# 2 6.5952 49.5787 22.3320 -8.3670 -14.6923 -18.7278
# 3 8.9926 22.3320 77.1536 17.0691 -7.3406 -12.1562
# 4 11.1925 -8.3670 17.0691 45.3298 -9.8232 -9.4383
# 5 -4.6379 -14.6923 -7.3406 -9.8232 28.5469 4.1921
# 6 -21.2732 -18.7278 -12.1562 -9.4383 4.1921 27.8477
#
#
#
# Elastic Compliance Matrix: (Units=1/GPa)
#
#
# Indices 1 2 3 4 5 6 
#
# 1 0.024880 0.008141 -0.001467 0.001947 0.005039 0.023743
# 2 0.008141 0.054757 -0.013613 0.028438 0.029580 0.042287
# 3 -0.001467 -0.013613 0.018203 -0.011344 -0.005686 -0.005318
# 4 0.001947 0.028438 -0.011344 0.041443 0.022430 0.026330
# 5 0.005039 0.029580 -0.005686 0.022430 0.054291 0.020689
# 6 0.023743 0.042287 -0.005318 0.026330 0.020689 0.085973
#
#
# Mechanical properties :
#
#
# Convention : Reuss Voigt Hill
#
# Bulk Modulus (GPa) = 11.90992 29.05557 20.48275
# Shear Modulus (GPa) = 15.55639 30.19425 22.87532
#
# Velocity S-wave (km/s) = 2.57904 3.59307 3.12742
# Velocity P-wave (km/s) = 3.73643 5.44397 4.66892
#
# Compressibility (1/GPa) = 0.08396360
#
# Stress axis : x y z
#
# Youngs Moduli (GPa) = 40.19242 18.26258 54.93543
#
# Poissons Ratio (x) = -0.14868 0.08059
# Poissons Ratio (y) = -0.32722 0.74782
# Poissons Ratio (z) = 0.05896 0.24860
#
# Static dielectric constant tensor:
#      x y z
#    x 3.907090 -0.302310 0.211120 
#    y -0.302310 4.157970 0.054500 
#    z 0.211120 0.054500 4.250750 
# 
# 
# High freq. dielectric constant tensor:
#      x y z
#    x 1.899090 -0.019300 0.012560 
#    y -0.019300 1.919330 0.006830 
#    z 0.012560 0.006830 1.933360 
# 
# From -- ./inp_files/405568.got.cif
#   From: 2010.06.25/outbox.cif.g09.slc.cpg/sg2_203_cif.got.tgz:405568.got - 2010.06.27 13:26:56.
