data_PCOD8044206
_publ_section_title
;
Structure prediction by ZEFSAII (Michael W. Deem and Ramdas Pophale) SiO2 
 PCOD8044206
Probable space group: P -1
;
_chemical_formula_sum "Si O2"
_cell_formula_units_Z 14
_cell_length_a 13.485604
_cell_length_b 9.439283
_cell_length_c 26.222213
_cell_angle_alpha 25.471119
_cell_angle_beta 151.958338
_cell_angle_gamma 140.818724
_cell_volume 670.962045
_symmetry_space_group_name_H-M "P -1"
_symmetry_group_IT_number 2
_symmetry_cell_setting 'triclinic'
loop_
_space_group_symop_operation_xyz
x,y,z
-x,-y,-z
loop_
_atom_site_type_symbol
_atom_site_label
_atom_site_fract_x
_atom_site_fract_y
_atom_site_fract_z
Si Si1 0.711738 0.832530 0.269897
Si Si2 0.929016 0.410374 0.219468
Si Si3 0.706394 0.660627 0.938690
Si Si4 0.619245 0.411154 0.635079
Si Si5 0.644906 0.270133 0.496887
Si Si6 0.108996 0.999222 0.807687
Si Si7 0.329293 0.276880 0.912444
O O1 0.699241 0.478853 0.404320
O O2 0.856522 0.043607 0.302280
O O3 0.817221 0.794130 0.274345
O O4 0.475668 0.020564 0.097378
O O5 0.871343 0.562773 0.199012
O O6 0.181575 0.378144 0.337452
O O7 0.808876 0.649288 0.045003
O O8 0.465825 0.566919 0.861383
O O9 0.706481 0.024814 0.797920
O O10 0.848710 0.395473 0.054367
O O11 0.500000 0.500000 0.500000
O O12 0.466621 0.491534 0.587906
O O13 0.500000 0.000000 0.500000
O O14 0.861038 0.087964 0.677390
O O15 0.247220 0.083762 0.890625
#
# Coordination Sequence:
#
# PCOD8044206 Si02
#       7
#     2   2   2   2   2   2   2
#     4  10  21  40  63  88 119 159 201 246 298 363
#     4  10  20  39  63  88 119 164 203 239 296 364
#     4  10  21  41  63  87 121 161 201 245 297 362
#     4  12  26  41  59  91 127 160 199 250 300 350
#     4  12  25  42  61  90 124 161 200 246 300 358
#     4  10  22  40  64  92 120 157 200 250 302 350
#     4  10  19  37  65  94 117 154 204 252 296 349
#
# _framework density 20.865559999999999
#
# number of rings (size 3 to 8) (size 9 to 14) (size 15 to 20)
#    0.000    1.714    0.000    8.571    0.000    4.571 
#    0.000    5.000    0.000    0.000    0.000    0.000 
#    0.000    0.000    0.000    0.000    0.000    0.000 
#
# Total GULP energy -173649.668255 kJ/mol
# GULP energy per Si atom -12403.547732 kJ/mol
# Density = 2.081807 g / cm^3
# Si number density = 20.865560 Si / 1000 Ang^3
#
#
#
# Elastic Constant Matrix: (Units=GPa)
#
#
# Indices 1 2 3 4 5 6 
#
# 1 92.0762 46.7802 39.3641 -1.6898 17.8784 -15.2924
# 2 46.7802 131.3917 69.7433 1.7140 -8.7248 -2.2713
# 3 39.3641 69.7433 90.7369 -1.4282 4.1095 9.9936
# 4 -1.6898 1.7140 -1.4282 36.3158 7.7538 0.1696
# 5 17.8784 -8.7248 4.1095 7.7538 36.2787 2.9192
# 6 -15.2924 -2.2713 9.9936 0.1696 2.9192 32.8928
#
#
#
# Elastic Compliance Matrix: (Units=1/GPa)
#
#
# Indices 1 2 3 4 5 6 
#
# 1 0.020118 -0.004730 -0.005795 0.003457 -0.012087 0.011842
# 2 -0.004730 0.015315 -0.010260 -0.002999 0.007712 0.001307
# 3 -0.005795 -0.010260 0.022637 0.001512 -0.001683 -0.010139
# 4 0.003457 -0.002999 0.001512 0.029834 -0.009101 0.001595
# 5 -0.012087 0.007712 -0.001683 -0.009101 0.038148 -0.007914
# 6 0.011842 0.001307 -0.010139 0.001595 -0.007914 0.039772
#
#
# Mechanical properties :
#
#
# Convention : Reuss Voigt Hill
#
# Bulk Modulus (GPa) = 60.60038 69.55334 65.07686
# Shear Modulus (GPa) = 23.48593 31.65192 27.56893
#
# Velocity S-wave (km/s) = 3.35861 3.89902 3.63886
# Velocity P-wave (km/s) = 6.64430 7.32641 6.99367
#
# Compressibility (1/GPa) = 0.01650155
#
# Stress axis : x y z
#
# Youngs Moduli (GPa) = 49.70625 65.29715 44.17491
#
# Poissons Ratio (x) = 0.30886 0.25597
# Poissons Ratio (y) = 0.23511 0.45322
# Poissons Ratio (z) = 0.28802 0.66993
#
# Static dielectric constant tensor:
#      x y z
#    x 3.790360 0.020870 0.190070 
#    y 0.020870 3.788520 0.138160 
#    z 0.190070 0.138160 3.715940 
# 
# 
# High freq. dielectric constant tensor:
#      x y z
#    x 1.818580 -0.005740 0.013230 
#    y -0.005740 1.821900 0.009530 
#    z 0.013230 0.009530 1.811920 
# 
# From -- ./inp_files/189573.got.cif
#   From: 2010.06.25/outbox.cif.g09.slc.cpg/sg2_95_cif.got.tgz:189573.got - 2010.06.27 13:26:56.
