data_PCOD8044422
_publ_section_title
;
Structure prediction by ZEFSAII (Michael W. Deem and Ramdas Pophale) SiO2 
 PCOD8044422
Probable space group: P -1
;
_chemical_formula_sum "Si O2"
_cell_formula_units_Z 16
_cell_length_a 16.457928
_cell_length_b 10.640361
_cell_length_c 22.944999
_cell_angle_alpha 31.087569
_cell_angle_beta 22.797706
_cell_angle_gamma 43.082444
_cell_volume 768.032745
_symmetry_space_group_name_H-M "P -1"
_symmetry_group_IT_number 2
_symmetry_cell_setting 'triclinic'
loop_
_space_group_symop_operation_xyz
x,y,z
-x,-y,-z
loop_
_atom_site_type_symbol
_atom_site_label
_atom_site_fract_x
_atom_site_fract_y
_atom_site_fract_z
Si Si1 0.554931 0.786141 0.012742
Si Si2 0.469717 0.078215 0.855612
Si Si3 0.989393 0.257719 0.274426
Si Si4 0.096251 0.604900 0.957525
Si Si5 0.821455 0.493958 0.830427
Si Si6 0.349252 0.140705 0.278292
Si Si7 0.423993 0.429401 0.336111
Si Si8 0.999615 0.906374 0.196662
O O1 0.812725 0.853887 0.825259
O O2 0.493713 0.818485 0.973529
O O3 0.425841 0.511128 0.234334
O O4 0.500000 0.000000 0.000000
O O5 0.590721 0.339133 0.704219
O O6 0.582260 0.070399 0.722250
O O7 0.212671 0.053226 0.034786
O O8 0.044619 0.417525 0.234378
O O9 0.965087 0.423794 0.168316
O O10 0.773162 0.018596 0.521819
O O11 0.356990 0.648832 0.765749
O O12 0.060833 0.878155 0.887218
O O13 0.000000 0.500000 0.000000
O O14 0.814300 0.727189 0.699730
O O15 0.944930 0.311393 0.791222
O O16 0.570051 0.347230 0.072510
O O17 0.204484 0.201840 0.581776
#
# Coordination Sequence:
#
# PCOD8044422 Si02
#       8
#     2   2   2   2   2   2   2   2
#     4   9  20  34  56  93 124 156 202 245 296 377
#     4  10  19  38  60  90 129 151 199 253 302 373
#     4  11  22  41  65  86 125 167 201 248 313 354
#     4  11  24  47  61  85 125 165 214 256 290 362
#     4  10  22  39  62  98 126 152 203 255 303 372
#     4  10  21  38  62  95 127 158 193 252 314 366
#     4  10  21  39  62  87 118 165 206 248 310 352
#     4  11  23  39  64  88 119 167 204 249 305 353
#
# _framework density 20.832443999999999
#
# number of rings (size 3 to 8) (size 9 to 14) (size 15 to 20)
#    0.000    1.750    2.500    1.500    3.500    1.000 
#    6.750    2.500    0.000    0.000    0.000    0.000 
#    0.000    0.000    0.000    0.000    0.000    0.000 
#
# Total GULP energy -198304.022897 kJ/mol
# GULP energy per Si atom -12394.001431 kJ/mol
# Density = 2.078503 g / cm^3
# Si number density = 20.832444 Si / 1000 Ang^3
#
#
#
# Elastic Constant Matrix: (Units=GPa)
#
#
# Indices 1 2 3 4 5 6 
#
# 1 57.3374 11.0450 32.1946 -7.3990 16.2945 -19.9627
# 2 11.0450 99.3756 40.5838 2.3882 6.3468 -24.0486
# 3 32.1946 40.5838 157.6178 -0.8282 28.4199 -23.9471
# 4 -7.3990 2.3882 -0.8282 21.5947 -2.5493 0.6558
# 5 16.2945 6.3468 28.4199 -2.5493 23.9304 -6.4266
# 6 -19.9627 -24.0486 -23.9471 0.6558 -6.4266 33.3736
#
#
#
# Elastic Compliance Matrix: (Units=1/GPa)
#
#
# Indices 1 2 3 4 5 6 
#
# 1 0.027363 0.001574 -0.001570 0.007222 -0.012714 0.013786
# 2 0.001574 0.012981 -0.002464 -0.001182 0.000613 0.008669
# 3 -0.001570 -0.002464 0.009205 -0.001009 -0.008718 0.002232
# 4 0.007222 -0.001182 -0.001009 0.049092 0.002428 0.002247
# 5 -0.012714 0.000613 -0.008718 0.002428 0.060402 -0.001835
# 6 0.013786 0.008669 0.002232 0.002247 -0.001835 0.045661
#
#
# Mechanical properties :
#
#
# Convention : Reuss Voigt Hill
#
# Bulk Modulus (GPa) = 22.40566 53.55308 37.97937
# Shear Modulus (GPa) = 22.27172 31.14688 26.70930
#
# Velocity S-wave (km/s) = 3.27324 3.87087 3.58453
# Velocity P-wave (km/s) = 5.00639 6.76317 5.94998
#
# Compressibility (1/GPa) = 0.04463159
#
# Stress axis : x y z
#
# Youngs Moduli (GPa) = 36.54516 77.03486 108.63469
#
# Poissons Ratio (x) = -0.12127 0.17052
# Poissons Ratio (y) = -0.05753 0.26764
# Poissons Ratio (z) = 0.05736 0.18979
#
# Static dielectric constant tensor:
#      x y z
#    x 3.760480 -0.230040 0.298260 
#    y -0.230040 3.857160 0.001630 
#    z 0.298260 0.001630 3.945600 
# 
# 
# High freq. dielectric constant tensor:
#      x y z
#    x 1.795760 -0.001580 0.005660 
#    y -0.001580 1.826330 0.009050 
#    z 0.005660 0.009050 1.818520 
# 
# From -- ./inp_files/271723.got.cif
#   From: 2010.06.25/outbox.cif.g09.slc.cpg/sg2_136_cif.got.tgz:271723.got - 2010.06.27 13:26:56.
