data_PCOD8044405
_publ_section_title
;
Structure prediction by ZEFSAII (Michael W. Deem and Ramdas Pophale) SiO2 
 PCOD8044405
Probable space group: P -1
;
_chemical_formula_sum "Si O2"
_cell_formula_units_Z 14
_cell_length_a 16.902224
_cell_length_b 7.406518
_cell_length_c 9.976175
_cell_angle_alpha 60.375409
_cell_angle_beta 135.351860
_cell_angle_gamma 93.938038
_cell_volume 676.128711
_symmetry_space_group_name_H-M "P -1"
_symmetry_group_IT_number 2
_symmetry_cell_setting 'triclinic'
loop_
_space_group_symop_operation_xyz
x,y,z
-x,-y,-z
loop_
_atom_site_type_symbol
_atom_site_label
_atom_site_fract_x
_atom_site_fract_y
_atom_site_fract_z
Si Si1 0.536293 0.634875 0.692061
Si Si2 0.275330 0.201916 0.717388
Si Si3 0.125317 0.670214 0.486508
Si Si4 0.604689 0.977575 0.813076
Si Si5 0.213895 0.810048 0.800675
Si Si6 0.847433 0.032894 0.046627
Si Si7 0.286258 0.609562 0.463709
O O1 0.578389 0.778680 0.790016
O O2 0.417425 0.620347 0.619961
O O3 0.500961 0.763390 0.456810
O O4 0.650108 0.376358 0.906798
O O5 0.162502 0.397551 0.603778
O O6 0.312067 0.336118 0.596594
O O7 0.227512 0.023683 0.665665
O O8 0.395901 0.052037 0.015968
O O9 0.157223 0.697616 0.668671
O O10 0.210506 0.736480 0.462478
O O11 0.977710 0.830535 0.219339
O O12 0.742867 0.941140 0.946931
O O13 0.127152 0.906190 0.793597
O O14 0.801470 0.265037 0.815351
#
# Coordination Sequence:
#
# PCOD8044405 Si02
#       7
#     2   2   2   2   2   2   2
#     4  10  19  38  60  87 122 147 207 233 295 354
#     4   9  21  37  58  90 116 153 199 227 311 330
#     4  10  21  41  62  84 123 155 196 241 290 355
#     4   9  19  35  59  87 112 159 189 241 288 346
#     4  11  22  37  61  90 117 157 193 248 286 348
#     4  10  21  39  62  87 120 154 199 239 299 339
#     4   9  21  39  62  85 118 163 186 246 295 347
#
# _framework density 20.706116999999999
#
# number of rings (size 3 to 8) (size 9 to 14) (size 15 to 20)
#    0.857    1.429    1.429    0.857    0.000   10.286 
#    2.571    6.429    0.000    0.000    0.000    0.000 
#    0.000    0.000    0.000    0.000    0.000    0.000 
#
# Total GULP energy -173494.192253 kJ/mol
# GULP energy per Si atom -12392.442304 kJ/mol
# Density = 2.065899 g / cm^3
# Si number density = 20.706117 Si / 1000 Ang^3
#
#
#
# Elastic Constant Matrix: (Units=GPa)
#
#
# Indices 1 2 3 4 5 6 
#
# 1 54.2768 4.0218 19.0780 -9.3424 -6.7586 11.5175
# 2 4.0218 62.8136 22.7676 -19.1035 -2.6616 11.7115
# 3 19.0780 22.7676 93.0725 -12.3144 -6.1970 17.9305
# 4 -9.3424 -19.1035 -12.3144 27.1664 1.7811 -7.6876
# 5 -6.7586 -2.6616 -6.1970 1.7811 35.4483 -6.4676
# 6 11.5175 11.7115 17.9305 -7.6876 -6.4676 22.3435
#
#
#
# Elastic Compliance Matrix: (Units=1/GPa)
#
#
# Indices 1 2 3 4 5 6 
#
# 1 0.022213 0.003037 -0.002790 0.006081 0.002197 -0.008076
# 2 0.003037 0.022058 -0.003078 0.013453 -0.000083 -0.006053
# 3 -0.002790 -0.003078 0.013655 0.000922 0.000204 -0.007531
# 4 0.006081 0.013453 0.000922 0.050634 0.001026 0.006793
# 5 0.002197 -0.000083 0.000204 0.001026 0.030029 0.007793
# 6 -0.008076 -0.006053 -0.007531 0.006793 0.007793 0.062727
#
#
# Mechanical properties :
#
#
# Convention : Reuss Voigt Hill
#
# Bulk Modulus (GPa) = 19.13306 33.54419 26.33862
# Shear Modulus (GPa) = 22.28169 27.94469 25.11319
#
# Velocity S-wave (km/s) = 3.28394 3.67766 3.48636
# Velocity P-wave (km/s) = 4.86204 5.85396 5.38090
#
# Compressibility (1/GPa) = 0.05226555
#
# Stress axis : x y z
#
# Youngs Moduli (GPa) = 45.01790 45.33565 73.23090
#
# Poissons Ratio (x) = -0.13768 0.20429
# Poissons Ratio (y) = -0.13672 0.22539
# Poissons Ratio (z) = 0.12558 0.13954
#
# Static dielectric constant tensor:
#      x y z
#    x 3.557720 0.123780 -0.173300 
#    y 0.123780 3.498200 -0.206670 
#    z -0.173300 -0.206670 3.963790 
# 
# 
# High freq. dielectric constant tensor:
#      x y z
#    x 1.790910 0.008780 -0.010550 
#    y 0.008780 1.797170 -0.011980 
#    z -0.010550 -0.011980 1.823490 
# 
# From -- ./inp_files/294706.got.cif
#   From: 2010.06.25/outbox.cif.g09.slc.cpg/sg2_148_cif.got.tgz:294706.got - 2010.06.27 13:26:56.
