data_PCOD8044238
_publ_section_title
;
Structure prediction by ZEFSAII (Michael W. Deem and Ramdas Pophale) SiO2 
 PCOD8044238
Probable space group: P -1
;
_chemical_formula_sum "Si O2"
_cell_formula_units_Z 16
_cell_length_a 9.147552
_cell_length_b 11.661149
_cell_length_c 11.655009
_cell_angle_alpha 53.928280
_cell_angle_beta 123.241273
_cell_angle_gamma 125.212463
_cell_volume 778.958435
_symmetry_space_group_name_H-M "P -1"
_symmetry_group_IT_number 2
_symmetry_cell_setting 'triclinic'
loop_
_space_group_symop_operation_xyz
x,y,z
-x,-y,-z
loop_
_atom_site_type_symbol
_atom_site_label
_atom_site_fract_x
_atom_site_fract_y
_atom_site_fract_z
Si Si1 0.800491 0.214815 0.286799
Si Si2 0.872712 0.572825 0.836653
Si Si3 0.263697 0.113631 0.611371
Si Si4 0.387752 0.586910 0.836973
Si Si5 0.865439 0.587416 0.352711
Si Si6 0.075810 0.881109 0.391912
Si Si7 0.700470 0.790272 0.694009
Si Si8 0.521598 0.596751 0.340342
O O1 0.665223 0.309730 0.151843
O O2 0.797064 0.189146 0.438499
O O3 0.012396 0.323788 0.279876
O O4 0.721926 0.053357 0.280396
O O5 0.824732 0.688079 0.833396
O O6 0.676920 0.444016 0.785743
O O7 0.000000 0.500000 0.000000
O O8 0.313276 0.187954 0.462116
O O9 0.408496 0.224020 0.701287
O O10 0.055918 0.093927 0.577591
O O11 0.196052 0.458899 0.777710
O O12 0.498295 0.700352 0.715469
O O13 0.500000 0.500000 0.000000
O O14 0.671050 0.549952 0.360145
O O15 0.000000 0.500000 0.500000
O O16 0.978575 0.770418 0.309426
O O17 0.202148 0.046072 0.297258
O O18 0.500000 0.500000 0.500000
#
# Coordination Sequence:
#
# PCOD8044238 Si02
#       8
#     2   2   2   2   2   2   2   2
#     4  11  21  38  61  89 124 162 201 249 306 359
#     4  12  22  37  61  90 121 165 208 242 300 371
#     4  10  19  37  66  93 121 148 203 265 303 348
#     4  12  26  42  58  88 130 167 201 247 303 373
#     4  11  22  40  61  91 121 160 204 250 308 359
#     4  10  19  37  67  93 119 148 206 265 300 350
#     4  11  20  40  61  90 122 162 201 248 308 359
#     4  11  21  39  62  93 122 153 204 262 299 354
#
# _framework density 20.540247999999998
#
# number of rings (size 3 to 8) (size 9 to 14) (size 15 to 20)
#    0.000    1.000    6.250    2.250    0.000    2.000 
#    2.250    2.500    0.000    0.000    0.000    0.000 
#    0.000    0.000    0.000    0.000    0.000    0.000 
#
# Total GULP energy -198275.953193 kJ/mol
# GULP energy per Si atom -12392.247075 kJ/mol
# Density = 2.049350 g / cm^3
# Si number density = 20.540248 Si / 1000 Ang^3
#
#
#
# Elastic Constant Matrix: (Units=GPa)
#
#
# Indices 1 2 3 4 5 6 
#
# 1 77.9648 45.2573 20.0432 -3.0060 19.7474 -4.9426
# 2 45.2573 168.9772 57.8423 -2.8818 15.2182 -4.8646
# 3 20.0432 57.8423 84.6139 9.0129 27.5080 -2.6875
# 4 -3.0060 -2.8818 9.0129 23.1388 0.3667 6.7896
# 5 19.7474 15.2182 27.5080 0.3667 33.5323 -6.6959
# 6 -4.9426 -4.8646 -2.6875 6.7896 -6.6959 33.6295
#
#
#
# Elastic Compliance Matrix: (Units=1/GPa)
#
#
# Indices 1 2 3 4 5 6 
#
# 1 0.017447 -0.004454 0.002024 0.001118 -0.009951 -0.000125
# 2 -0.004454 0.009148 -0.006857 0.003072 0.004127 0.000322
# 3 0.002024 -0.006857 0.022270 -0.008899 -0.016325 -0.000369
# 4 0.001118 0.003072 -0.008899 0.049997 0.002775 -0.009644
# 5 -0.009951 0.004127 -0.016325 0.002775 0.048556 0.006938
# 6 -0.000125 0.000322 -0.000369 -0.009644 0.006938 0.033063
#
#
# Mechanical properties :
#
#
# Convention : Reuss Voigt Hill
#
# Bulk Modulus (GPa) = 33.01390 64.20462 48.60926
# Shear Modulus (GPa) = 23.90584 31.95433 27.93008
#
# Velocity S-wave (km/s) = 3.41523 3.94851 3.69151
# Velocity P-wave (km/s) = 5.62667 7.21896 6.47197
#
# Compressibility (1/GPa) = 0.03029028
#
# Stress axis : x y z
#
# Youngs Moduli (GPa) = 57.31639 109.31125 44.90292
#
# Poissons Ratio (x) = 0.48687 -0.09088
# Poissons Ratio (y) = 0.25529 0.30792
# Poissons Ratio (z) = -0.11600 0.74960
#
# Static dielectric constant tensor:
#      x y z
#    x 7.139770 1.557650 2.650950 
#    y 1.557650 5.396790 1.122930 
#    z 2.650950 1.122930 5.250260 
# 
# 
# High freq. dielectric constant tensor:
#      x y z
#    x 1.805260 -0.003100 0.016510 
#    y -0.003100 1.822400 -0.013690 
#    z 0.016510 -0.013690 1.763170 
# 
# From -- ./inp_files/392238.got.cif
#   From: 2010.06.25/outbox.cif.g09.slc.cpg/sg2_197_cif.got.tgz:392238.got - 2010.06.27 13:26:56.
