data_PCOD8044668
_publ_section_title
;
Structure prediction by ZEFSAII (Michael W. Deem and Ramdas Pophale) SiO2 
 PCOD8044668
Probable space group: P -1
;
_chemical_formula_sum "Si O2"
_cell_formula_units_Z 14
_cell_length_a 9.990362
_cell_length_b 12.496193
_cell_length_c 17.250614
_cell_angle_alpha 136.287814
_cell_angle_beta 25.864058
_cell_angle_gamma 127.963082
_cell_volume 644.756007
_symmetry_space_group_name_H-M "P -1"
_symmetry_group_IT_number 2
_symmetry_cell_setting 'triclinic'
loop_
_space_group_symop_operation_xyz
x,y,z
-x,-y,-z
loop_
_atom_site_type_symbol
_atom_site_label
_atom_site_fract_x
_atom_site_fract_y
_atom_site_fract_z
Si Si1 0.620709 0.900273 0.310456
Si Si2 0.614697 0.411279 0.691053
Si Si3 0.624233 0.386333 0.944662
Si Si4 0.641699 0.050103 0.695965
Si Si5 0.253635 0.828035 0.877317
Si Si6 0.140059 0.537029 0.703861
Si Si7 0.755407 0.590398 0.574006
O O1 0.604007 0.719935 0.245890
O O2 0.415116 0.946912 0.365485
O O3 0.500000 0.000000 0.500000
O O4 0.982630 0.922949 0.119653
O O5 0.572810 0.471481 0.656252
O O6 0.975430 0.343060 0.481117
O O7 0.522164 0.565215 0.871360
O O8 0.554811 0.215387 0.869008
O O9 0.988616 0.411491 0.770596
O O10 0.500000 0.500000 0.000000
O O11 0.420391 0.936698 0.790406
O O12 0.000000 0.000000 0.500000
O O13 0.059261 0.714764 0.867684
O O14 0.513877 0.732698 0.744947
O O15 0.500000 0.500000 0.500000
O O16 0.053507 0.510847 0.645909
#
# Coordination Sequence:
#
# PCOD8044668 Si02
#       7
#     2   2   2   2   2   2   2
#     4  12  27  45  67 101 146 182 231 294 355 405
#     4  11  23  43  67  99 137 183 231 282 346 416
#     4  12  21  42  71  94 133 181 236 272 330 417
#     4  12  26  46  74 104 139 187 235 284 349 422
#     4  11  24  44  67 101 140 178 231 286 352 409
#     4  10  19  38  64  95 130 169 221 275 328 405
#     4  10  23  40  68  99 136 178 229 286 342 418
#
# _framework density 21.713640000000002
#
# number of rings (size 3 to 8) (size 9 to 14) (size 15 to 20)
#    0.000    0.857    4.286    3.000    2.000    4.000 
#    0.000    2.143    0.000    0.000    0.000    0.000 
#    0.000    0.000    0.000    0.000    0.000    0.000 
#
# Total GULP energy -173532.109943 kJ/mol
# GULP energy per Si atom -12395.150710 kJ/mol
# Density = 2.166422 g / cm^3
# Si number density = 21.713640 Si / 1000 Ang^3
#
#
#
# Elastic Constant Matrix: (Units=GPa)
#
#
# Indices 1 2 3 4 5 6 
#
# 1 78.5263 43.4783 44.3842 4.9393 13.3705 -6.7124
# 2 43.4783 128.4998 31.1409 -13.2268 10.4690 -7.5277
# 3 44.3842 31.1409 116.5757 -7.2063 17.2459 -1.8887
# 4 4.9393 -13.2268 -7.2063 43.1863 4.8424 2.9466
# 5 13.3705 10.4690 17.2459 4.8424 36.5005 -4.6520
# 6 -6.7124 -7.5277 -1.8887 2.9466 -4.6520 35.1826
#
#
#
# Elastic Compliance Matrix: (Units=1/GPa)
#
#
# Indices 1 2 3 4 5 6 
#
# 1 0.020137 -0.005529 -0.006177 -0.004985 -0.001892 0.002495
# 2 -0.005529 0.010234 -0.000198 0.003829 -0.001243 0.000639
# 3 -0.006177 -0.000198 0.011716 0.003120 -0.003803 -0.001356
# 4 -0.004985 0.003829 0.003120 0.026119 -0.004563 -0.002755
# 5 -0.001892 -0.001243 -0.003803 -0.004563 0.031319 0.003692
# 6 0.002495 0.000639 -0.001356 -0.002755 0.003692 0.029682
#
#
# Mechanical properties :
#
#
# Convention : Reuss Voigt Hill
#
# Bulk Modulus (GPa) = 54.70993 62.40096 58.55544
# Shear Modulus (GPa) = 31.42527 36.61378 34.01953
#
# Velocity S-wave (km/s) = 3.80841 4.11080 3.96249
# Velocity P-wave (km/s) = 6.67754 7.16465 6.92538
#
# Compressibility (1/GPa) = 0.01827822
#
# Stress axis : x y z
#
# Youngs Moduli (GPa) = 49.66103 97.71660 85.35054
#
# Poissons Ratio (x) = 0.54028 0.52725
# Poissons Ratio (y) = 0.27458 0.01687
# Poissons Ratio (z) = 0.30678 0.01931
#
# Static dielectric constant tensor:
#      x y z
#    x 6.494430 1.353350 0.884680 
#    y 1.353350 3.650700 0.557700 
#    z 0.884680 0.557700 4.404250 
# 
# 
# High freq. dielectric constant tensor:
#      x y z
#    x 1.849950 0.005080 -0.002720 
#    y 0.005080 1.851360 -0.021610 
#    z -0.002720 -0.021610 1.869870 
# 
# From -- ./inp_files/158882.got.cif
#   From: 2010.06.25/outbox.cif.g09.slc.cpg/sg2_80_cif.got.tgz:158882.got - 2010.06.27 13:26:56.
