data_PCOD8044480
_publ_section_title
;
Structure prediction by ZEFSAII (Michael W. Deem and Ramdas Pophale) SiO2 
 PCOD8044480
Probable space group: P -1
;
_chemical_formula_sum "Si O2"
_cell_formula_units_Z 16
_cell_length_a 8.994609
_cell_length_b 11.790416
_cell_length_c 14.780551
_cell_angle_alpha 43.843617
_cell_angle_beta 48.680934
_cell_angle_gamma 74.991557
_cell_volume 740.975539
_symmetry_space_group_name_H-M "P -1"
_symmetry_group_IT_number 2
_symmetry_cell_setting 'triclinic'
loop_
_space_group_symop_operation_xyz
x,y,z
-x,-y,-z
loop_
_atom_site_type_symbol
_atom_site_label
_atom_site_fract_x
_atom_site_fract_y
_atom_site_fract_z
Si Si1 0.335664 0.067205 0.071850
Si Si2 0.320441 0.816444 0.370239
Si Si3 0.150362 0.936625 0.535215
Si Si4 0.387230 0.647017 0.070799
Si Si5 0.934068 0.566191 0.254553
Si Si6 0.565749 0.687395 0.783263
Si Si7 0.796526 0.870971 0.097805
Si Si8 0.920427 0.559295 0.911010
O O1 0.219731 0.919487 0.282670
O O2 0.471848 0.265325 0.947151
O O3 0.175587 0.082360 0.048791
O O4 0.500000 0.000000 0.000000
O O5 0.291908 0.865903 0.455984
O O6 0.199217 0.600954 0.529108
O O7 0.577748 0.881864 0.214089
O O8 0.998247 0.776781 0.755375
O O9 0.316469 0.113504 0.423486
O O10 0.000000 0.000000 0.500000
O O11 0.290244 0.426737 0.227445
O O12 0.171735 0.688983 0.132694
O O13 0.545086 0.727865 0.874292
O O14 0.786960 0.673350 0.232668
O O15 0.981226 0.495454 0.182392
O O16 0.337389 0.550704 0.913924
O O17 0.000000 0.000000 0.000000
O O18 0.000000 0.500000 0.000000
#
# Coordination Sequence:
#
# PCOD8044480 Si02
#       8
#     2   2   2   2   2   2   2   2
#     4  10  21  38  64  89 119 163 213 261 303 374
#     4  10  21  40  62  90 122 161 215 259 304 382
#     4  11  21  38  66  92 122 168 215 260 315 376
#     4  10  19  38  61  92 120 164 214 255 313 374
#     4  10  21  39  63  85 124 164 204 261 320 369
#     4  10  20  36  64  89 126 170 209 262 312 371
#     4  11  24  40  62  91 122 167 205 256 329 374
#     4  10  24  38  59  94 131 166 207 263 324 378
#
# _framework density 21.593154999999999
#
# number of rings (size 3 to 8) (size 9 to 14) (size 15 to 20)
#    0.000    1.750    1.250    4.875    3.500    0.500 
#    0.000    6.875    5.500    0.000    0.000    0.000 
#    0.000    0.000    0.000    0.000    0.000    0.000 
#
# Total GULP energy -198247.960651 kJ/mol
# GULP energy per Si atom -12390.497541 kJ/mol
# Density = 2.154401 g / cm^3
# Si number density = 21.593155 Si / 1000 Ang^3
#
#
#
# Elastic Constant Matrix: (Units=GPa)
#
#
# Indices 1 2 3 4 5 6 
#
# 1 139.1087 32.2622 71.1179 -13.7436 8.7301 7.2067
# 2 32.2622 46.6929 26.9819 -19.8965 -7.4723 -4.5723
# 3 71.1179 26.9819 137.8621 -41.9419 -1.0490 1.4237
# 4 -13.7436 -19.8965 -41.9419 40.7573 -4.5685 -2.1203
# 5 8.7301 -7.4723 -1.0490 -4.5685 29.6721 -3.4990
# 6 7.2067 -4.5723 1.4237 -2.1203 -3.4990 32.7906
#
#
#
# Elastic Compliance Matrix: (Units=1/GPa)
#
#
# Indices 1 2 3 4 5 6 
#
# 1 0.013955 -0.011667 -0.008233 -0.010868 -0.009725 -0.006077
# 2 -0.011667 0.040908 0.005459 0.024395 0.019056 0.011642
# 3 -0.008233 0.005459 0.015618 0.016988 0.007411 0.003782
# 4 -0.010868 0.024395 0.016988 0.052977 0.019342 0.010542
# 5 -0.009725 0.019056 0.007411 0.019342 0.045854 0.010616
# 6 -0.006077 0.011642 0.003782 0.010542 0.010616 0.035106
#
#
# Mechanical properties :
#
#
# Convention : Reuss Voigt Hill
#
# Bulk Modulus (GPa) = 24.03967 64.93195 44.48581
# Shear Modulus (GPa) = 20.22923 33.53077 26.88000
#
# Velocity S-wave (km/s) = 3.06410 3.94489 3.53206
# Velocity P-wave (km/s) = 4.86574 7.13340 6.10577
#
# Compressibility (1/GPa) = 0.04159791
#
# Stress axis : x y z
#
# Youngs Moduli (GPa) = 71.65930 24.44507 64.02861
#
# Poissons Ratio (x) = 0.28520 0.52716
# Poissons Ratio (y) = 0.83605 -0.34951
# Poissons Ratio (z) = 0.58998 -0.13344
#
# Static dielectric constant tensor:
#      x y z
#    x 3.987040 -0.119050 0.186790 
#    y -0.119050 4.159170 -0.301880 
#    z 0.186790 -0.301880 4.305180 
# 
# 
# High freq. dielectric constant tensor:
#      x y z
#    x 1.829550 -0.012540 -0.008970 
#    y -0.012540 1.854440 -0.018540 
#    z -0.008970 -0.018540 1.844420 
# 
# From -- ./inp_files/499849.got.cif
#   From: 2010.06.25/outbox.cif.g09.slc.cpg/sg2_250_cif.got.tgz:499849.got - 2010.06.27 13:26:56.
