data_PCOD8044415
_publ_section_title
;
Structure prediction by ZEFSAII (Michael W. Deem and Ramdas Pophale) SiO2 
 PCOD8044415
Probable space group: P -1
;
_chemical_formula_sum "Si O2"
_cell_formula_units_Z 14
_cell_length_a 10.316895
_cell_length_b 13.310897
_cell_length_c 16.417027
_cell_angle_alpha 25.101616
_cell_angle_beta 48.054763
_cell_angle_gamma 48.238818
_cell_volume 698.064788
_symmetry_space_group_name_H-M "P -1"
_symmetry_group_IT_number 2
_symmetry_cell_setting 'triclinic'
loop_
_space_group_symop_operation_xyz
x,y,z
-x,-y,-z
loop_
_atom_site_type_symbol
_atom_site_label
_atom_site_fract_x
_atom_site_fract_y
_atom_site_fract_z
Si Si1 0.834942 0.872853 0.645916
Si Si2 0.244304 0.391562 0.688507
Si Si3 0.991548 0.360056 0.523778
Si Si4 0.613575 0.149818 0.672569
Si Si5 0.294555 0.998923 0.572630
Si Si6 0.779388 0.973796 0.888762
Si Si7 0.914711 0.386443 0.044144
O O1 0.682113 0.954356 0.718007
O O2 0.754633 0.918086 0.558452
O O3 0.893234 0.583335 0.837359
O O4 0.000000 0.000000 0.500000
O O5 0.412307 0.279863 0.643076
O O6 0.263596 0.647879 0.530853
O O7 0.068281 0.444154 0.667700
O O8 0.242529 0.197961 0.901863
O O9 0.000000 0.500000 0.500000
O O10 0.175823 0.180613 0.553946
O O11 0.827469 0.225780 0.711218
O O12 0.618034 0.024659 0.853205
O O13 0.266690 0.718899 0.792461
O O14 0.500000 0.000000 0.500000
O O15 0.948644 0.855758 0.852627
O O16 0.000000 0.500000 0.000000
#
# Coordination Sequence:
#
# PCOD8044415 Si02
#       7
#     2   2   2   2   2   2   2
#     4  12  21  38  66  93 126 169 210 256 324 379
#     4  10  21  37  58  87 123 159 200 263 309 359
#     4  10  23  43  61  83 120 168 214 243 306 385
#     4  10  21  34  57  94 123 150 204 260 309 371
#     4  11  26  43  63  97 131 166 209 267 318 372
#     4  10  19  38  60  89 120 153 204 261 309 364
#     4  11  20  38  65  94 122 163 210 254 314 386
#
# _framework density 20.055446
#
# number of rings (size 3 to 8) (size 9 to 14) (size 15 to 20)
#    0.000    1.429    2.857    3.857    2.000    1.143 
#    2.571    0.000    0.000    0.000    0.000    0.000 
#    0.000    0.000    0.000    0.000    0.000    0.000 
#
# Total GULP energy -173487.806568 kJ/mol
# GULP energy per Si atom -12391.986183 kJ/mol
# Density = 2.000980 g / cm^3
# Si number density = 20.055446 Si / 1000 Ang^3
#
#
#
# Elastic Constant Matrix: (Units=GPa)
#
#
# Indices 1 2 3 4 5 6 
#
# 1 124.8918 40.7621 53.2708 -0.3074 -0.9864 2.7912
# 2 40.7621 83.6367 13.9565 -8.2615 -0.9601 11.8207
# 3 53.2708 13.9565 134.0780 -0.8030 14.9468 9.5584
# 4 -0.3074 -8.2615 -0.8030 25.7526 2.3654 4.4118
# 5 -0.9864 -0.9601 14.9468 2.3654 31.9543 1.1177
# 6 2.7912 11.8207 9.5584 4.4118 1.1177 33.8276
#
#
#
# Elastic Compliance Matrix: (Units=1/GPa)
#
#
# Indices 1 2 3 4 5 6 
#
# 1 0.011694 -0.005503 -0.004533 -0.002412 0.002408 0.002474
# 2 -0.005503 0.015946 0.001054 0.006185 -0.000424 -0.006209
# 3 -0.004533 0.001054 0.009889 0.001513 -0.004747 -0.002829
# 4 -0.002412 0.006185 0.001513 0.042491 -0.003468 -0.007817
# 5 0.002408 -0.000424 -0.004747 -0.003468 0.033812 0.000626
# 6 0.002474 -0.006209 -0.002829 -0.007817 0.000626 0.033325
#
#
# Mechanical properties :
#
#
# Convention : Reuss Voigt Hill
#
# Bulk Modulus (GPa) = 51.11068 62.06500 56.58784
# Shear Modulus (GPa) = 29.12989 33.94803 31.53896
#
# Velocity S-wave (km/s) = 3.81526 4.11872 3.96989
# Velocity P-wave (km/s) = 6.70435 7.32341 7.02071
#
# Compressibility (1/GPa) = 0.01956538
#
# Stress axis : x y z
#
# Youngs Moduli (GPa) = 85.51226 62.70996 101.11743
#
# Poissons Ratio (x) = 0.34511 0.45833
# Poissons Ratio (y) = 0.47060 -0.10654
# Poissons Ratio (z) = 0.38760 -0.06607
#
# Static dielectric constant tensor:
#      x y z
#    x 3.457360 -0.145090 0.059790 
#    y -0.145090 3.310880 0.524230 
#    z 0.059790 0.524230 2.621100 
# 
# 
# High freq. dielectric constant tensor:
#      x y z
#    x 1.768200 -0.007270 0.016410 
#    y -0.007270 1.783440 -0.006800 
#    z 0.016410 -0.006800 1.790290 
# 
# From -- ./inp_files/222556.got.cif
#   From: 2010.06.25/outbox.cif.g09.slc.cpg/sg2_112_cif.got.tgz:222556.got - 2010.06.27 13:26:56.
