data_PCOD8044437
_publ_section_title
;
Structure prediction by ZEFSAII (Michael W. Deem and Ramdas Pophale) SiO2 
 PCOD8044437
Probable space group: P -1
;
_chemical_formula_sum "Si O2"
_cell_formula_units_Z 12
_cell_length_a 9.131682
_cell_length_b 9.351835
_cell_length_c 15.241117
_cell_angle_alpha 37.196398
_cell_angle_beta 129.349220
_cell_angle_gamma 121.118397
_cell_volume 608.281259
_symmetry_space_group_name_H-M "P -1"
_symmetry_group_IT_number 2
_symmetry_cell_setting 'triclinic'
loop_
_space_group_symop_operation_xyz
x,y,z
-x,-y,-z
loop_
_atom_site_type_symbol
_atom_site_label
_atom_site_fract_x
_atom_site_fract_y
_atom_site_fract_z
Si Si1 0.486692 0.591621 0.179441
Si Si2 0.971674 0.853155 0.972607
Si Si3 0.540184 0.711608 0.847984
Si Si4 0.773529 0.968007 0.163101
Si Si5 0.364767 0.145982 0.650899
Si Si6 0.301955 0.551282 0.299061
O O1 0.504745 0.380929 0.220798
O O2 0.681879 0.739196 0.191923
O O3 0.424516 0.454961 0.311528
O O4 0.336747 0.788497 0.001437
O O5 0.756471 0.788222 0.905067
O O6 0.033713 0.990637 0.839022
O O7 0.097892 0.623619 0.149600
O O8 0.000000 0.000000 0.000000
O O9 0.395843 0.919241 0.712677
O O10 0.500000 0.500000 0.000000
O O11 0.785444 0.909950 0.300109
O O12 0.272432 0.352708 0.458403
O O13 0.574400 0.222448 0.728573
#
# Coordination Sequence:
#
# PCOD8044437 Si02
#       6
#     2   2   2   2   2   2
#     4   9  18  34  58  84 113 150 191 226 284 335
#     4  11  21  37  61  86 112 147 201 234 273 335
#     4  12  22  35  61  89 113 146 197 240 276 331
#     4   9  18  36  60  81 113 154 190 226 279 347
#     4  10  19  38  61  84 116 151 188 229 291 336
#     4   9  20  37  61  83 115 155 186 229 286 345
#
# _framework density 19.727716999999998
#
# number of rings (size 3 to 8) (size 9 to 14) (size 15 to 20)
#    0.000    2.000    3.333    2.000    0.000    3.333 
#    0.000    1.667    3.667    0.000    0.000    0.000 
#    0.000    0.000    0.000    0.000    0.000    0.000 
#
# Total GULP energy -148699.586027 kJ/mol
# GULP energy per Si atom -12391.632169 kJ/mol
# Density = 1.968282 g / cm^3
# Si number density = 19.727717 Si / 1000 Ang^3
#
#
#
# Elastic Constant Matrix: (Units=GPa)
#
#
# Indices 1 2 3 4 5 6 
#
# 1 141.1483 57.3537 47.7744 -6.0444 -32.4822 -4.0526
# 2 57.3537 110.5249 18.1110 -8.5153 -6.4264 -30.0417
# 3 47.7744 18.1110 70.7868 -1.7199 -26.3391 -1.2395
# 4 -6.0444 -8.5153 -1.7199 16.2105 -2.6985 -0.1023
# 5 -32.4822 -6.4264 -26.3391 -2.6985 35.7579 2.3199
# 6 -4.0526 -30.0417 -1.2395 -0.1023 2.3199 37.3280
#
#
#
# Elastic Compliance Matrix: (Units=1/GPa)
#
#
# Indices 1 2 3 4 5 6 
#
# 1 0.013007 -0.006691 -0.004093 0.002214 0.008064 -0.004604
# 2 -0.006691 0.016251 -0.000856 0.005331 -0.004203 0.012600
# 3 -0.004093 -0.000856 0.021767 0.002393 0.012418 -0.001176
# 4 0.002214 0.005331 0.002393 0.067181 0.009530 0.004202
# 5 0.008064 -0.004203 0.012418 0.009530 0.044717 -0.004848
# 6 -0.004604 0.012600 -0.001176 0.004202 -0.004848 0.036704
#
#
# Mechanical properties :
#
#
# Convention : Reuss Voigt Hill
#
# Bulk Modulus (GPa) = 36.04210 63.21535 49.62873
# Shear Modulus (GPa) = 21.53735 31.14067 26.33901
#
# Velocity S-wave (km/s) = 3.30772 3.97737 3.65790
# Velocity P-wave (km/s) = 5.73563 7.29426 6.56139
#
# Compressibility (1/GPa) = 0.02774533
#
# Stress axis : x y z
#
# Youngs Moduli (GPa) = 76.87992 61.53412 45.94213
#
# Poissons Ratio (x) = 0.41172 0.18804
# Poissons Ratio (y) = 0.51440 0.03932
# Poissons Ratio (z) = 0.31467 0.05267
#
# Static dielectric constant tensor:
#      x y z
#    x 3.856210 0.040640 -0.323480 
#    y 0.040640 3.667410 0.023740 
#    z -0.323480 0.023740 3.338300 
# 
# 
# High freq. dielectric constant tensor:
#      x y z
#    x 1.779130 -0.014060 -0.027160 
#    y -0.014060 1.760160 -0.006780 
#    z -0.027160 -0.006780 1.743240 
# 
# From -- ./inp_files/144356.got.cif
#   From: 2010.06.25/outbox.cif.g09.slc.cpg/sg2_73_cif.got.tgz:144356.got - 2010.06.27 13:26:56.
