data_PCOD8044230
_publ_section_title
;
Structure prediction by ZEFSAII (Michael W. Deem and Ramdas Pophale) SiO2 
 PCOD8044230
Probable space group: P -1
;
_chemical_formula_sum "Si O2"
_cell_formula_units_Z 16
_cell_length_a 11.896375
_cell_length_b 9.149278
_cell_length_c 10.986624
_cell_angle_alpha 53.404495
_cell_angle_beta 52.833027
_cell_angle_gamma 79.418202
_cell_volume 735.369373
_symmetry_space_group_name_H-M "P -1"
_symmetry_group_IT_number 2
_symmetry_cell_setting 'triclinic'
loop_
_space_group_symop_operation_xyz
x,y,z
-x,-y,-z
loop_
_atom_site_type_symbol
_atom_site_label
_atom_site_fract_x
_atom_site_fract_y
_atom_site_fract_z
Si Si1 0.684468 0.668264 0.143531
Si Si2 0.352995 0.142372 0.701426
Si Si3 0.059661 0.194177 0.796339
Si Si4 0.642660 0.594189 0.936192
Si Si5 0.061477 0.997037 0.264569
Si Si6 0.330230 0.742500 0.620356
Si Si7 0.199690 0.722959 0.972273
Si Si8 0.200934 0.982256 0.419206
O O1 0.590092 0.753612 0.258556
O O2 0.711491 0.478239 0.275244
O O3 0.603739 0.627238 0.085881
O O4 0.843856 0.819088 0.959799
O O5 0.494794 0.181167 0.501122
O O6 0.236421 0.246740 0.667800
O O7 0.284639 0.919265 0.885950
O O8 0.015439 0.171130 0.693895
O O9 0.973908 0.332016 0.849702
O O10 0.000000 0.000000 0.000000
O O11 0.724089 0.793844 0.724009
O O12 0.500000 0.500000 0.000000
O O13 0.746078 0.454380 0.932980
O O14 0.164685 0.926467 0.329017
O O15 0.946044 0.073758 0.377973
O O16 0.231269 0.771295 0.784918
O O17 0.304970 0.861291 0.461435
#
# Coordination Sequence:
#
# PCOD8044230 Si02
#       8
#     2   2   2   2   2   2   2   2
#     4  10  22  40  64  89 127 164 215 252 313 374
#     4  11  21  39  64  97 128 155 210 270 312 359
#     4  10  19  37  66  90 123 162 208 257 310 366
#     4  10  22  42  62  92 129 172 205 256 314 383
#     4  10  20  41  62  91 126 172 201 263 312 367
#     4  11  23  39  64  99 121 166 213 258 314 371
#     4  10  21  39  67  94 118 168 217 243 318 375
#     4  10  22  40  64  90 134 160 212 259 312 369
#
# _framework density 21.757774999999999
#
# number of rings (size 3 to 8) (size 9 to 14) (size 15 to 20)
#    0.000    1.750    2.500    3.000    0.000    3.500 
#    9.000    2.500    0.000    0.000    0.000    0.000 
#    0.000    0.000    0.000    0.000    0.000    0.000 
#
# Total GULP energy -198311.090606 kJ/mol
# GULP energy per Si atom -12394.443163 kJ/mol
# Density = 2.170825 g / cm^3
# Si number density = 21.757775 Si / 1000 Ang^3
#
#
#
# Elastic Constant Matrix: (Units=GPa)
#
#
# Indices 1 2 3 4 5 6 
#
# 1 133.2432 42.0669 38.8345 5.7762 6.5071 -3.8579
# 2 42.0669 92.8824 27.5136 3.7994 17.6943 3.8689
# 3 38.8345 27.5136 78.6243 -3.3883 4.1555 -13.3634
# 4 5.7762 3.7994 -3.3883 34.2486 -10.0974 4.6106
# 5 6.5071 17.6943 4.1555 -10.0974 28.1004 -0.1388
# 6 -3.8579 3.8689 -13.3634 4.6106 -0.1388 38.4936
#
#
#
# Elastic Compliance Matrix: (Units=1/GPa)
#
#
# Indices 1 2 3 4 5 6 
#
# 1 0.009680 -0.003160 -0.003697 -0.001778 -0.000343 0.000216
# 2 -0.003160 0.015580 -0.004021 -0.004160 -0.009993 -0.002816
# 3 -0.003697 -0.004021 0.016918 0.002525 0.001821 0.005611
# 4 -0.001778 -0.004160 0.002525 0.035118 0.015262 -0.003035
# 5 -0.000343 -0.009993 0.001821 0.015262 0.047173 -0.000056
# 6 0.000216 -0.002816 0.005611 -0.003035 -0.000056 0.028594
#
#
# Mechanical properties :
#
#
# Convention : Reuss Voigt Hill
#
# Bulk Modulus (GPa) = 48.96743 57.95333 53.46038
# Shear Modulus (GPa) = 27.52897 33.25751 30.39324
#
# Velocity S-wave (km/s) = 3.56089 3.91389 3.74156
# Velocity P-wave (km/s) = 6.28181 6.86427 6.57949
#
# Compressibility (1/GPa) = 0.02042174
#
# Stress axis : x y z
#
# Youngs Moduli (GPa) = 103.30100 64.18623 59.10777
#
# Poissons Ratio (x) = 0.20283 0.21854
# Poissons Ratio (y) = 0.32643 0.23767
# Poissons Ratio (z) = 0.38194 0.25809
#
# Static dielectric constant tensor:
#      x y z
#    x 4.200550 -0.097930 -0.069020 
#    y -0.097930 4.279580 0.293150 
#    z -0.069020 0.293150 4.002480 
# 
# 
# High freq. dielectric constant tensor:
#      x y z
#    x 1.847250 0.005860 -0.001350 
#    y 0.005860 1.851040 0.010120 
#    z -0.001350 0.010120 1.847820 
# 
# From -- ./inp_files/418832.got.cif
#   From: 2010.06.25/outbox.cif.g09.slc.cpg/sg2_210_cif.got.tgz:418832.got - 2010.06.27 13:26:56.
