data_PCOD8044683
_publ_section_title
;
Structure prediction by ZEFSAII (Michael W. Deem and Ramdas Pophale) SiO2 
 PCOD8044683
Probable space group: P -1
;
_chemical_formula_sum "Si O2"
_cell_formula_units_Z 16
_cell_length_a 8.919133
_cell_length_b 18.601676
_cell_length_c 9.437513
_cell_angle_alpha 56.485335
_cell_angle_beta 134.720056
_cell_angle_gamma 96.291211
_cell_volume 818.347954
_symmetry_space_group_name_H-M "P -1"
_symmetry_group_IT_number 2
_symmetry_cell_setting 'triclinic'
loop_
_space_group_symop_operation_xyz
x,y,z
-x,-y,-z
loop_
_atom_site_type_symbol
_atom_site_label
_atom_site_fract_x
_atom_site_fract_y
_atom_site_fract_z
Si Si1 0.283611 0.323368 0.705771
Si Si2 0.127594 0.094732 0.478280
Si Si3 0.148978 0.794590 0.089812
Si Si4 0.376597 0.608993 0.244122
Si Si5 0.653854 0.119264 0.220864
Si Si6 0.397628 0.215857 0.484281
Si Si7 0.722388 0.778838 0.925661
Si Si8 0.963668 0.603825 0.812178
O O1 0.426093 0.385028 0.729980
O O2 0.206671 0.317528 0.823159
O O3 0.054988 0.378136 0.389972
O O4 0.473388 0.211721 0.901862
O O5 0.284424 0.150256 0.547690
O O6 0.907690 0.121251 0.413972
O O7 0.306669 0.979079 0.724510
O O8 0.992930 0.121317 0.209548
O O9 0.283291 0.687002 0.224679
O O10 0.319831 0.828075 0.252215
O O11 0.951076 0.797516 0.065325
O O12 0.500000 0.500000 0.500000
O O13 0.160149 0.630260 0.973052
O O14 0.517771 0.130244 0.268695
O O15 0.290422 0.319797 0.376919
O O16 0.334950 0.237083 0.254607
O O17 0.000000 0.500000 0.000000
#
# Coordination Sequence:
#
# PCOD8044683 Si02
#       8
#     2   2   2   2   2   2   2   2
#     4  10  21  40  59  88 121 151 201 252 295 355
#     4  10  19  38  65  85 123 159 211 245 294 358
#     4  11  20  39  58  87 125 163 200 248 297 360
#     4  12  21  38  64  88 114 155 205 251 295 355
#     4   9  19  40  60  90 124 161 193 260 300 346
#     4  11  21  38  62  91 118 165 203 244 303 354
#     4   9  22  39  59  86 130 159 191 251 313 347
#     4  12  21  37  65  89 110 154 206 245 297 359
#
# _framework density 19.551583999999998
#
# number of rings (size 3 to 8) (size 9 to 14) (size 15 to 20)
#    0.750    0.750    6.250    0.000    0.000    3.000 
#    0.000   11.875    0.000    3.000    0.000    0.000 
#    0.000    0.000    0.000    0.000    0.000    0.000 
#
# Total GULP energy -198229.830551 kJ/mol
# GULP energy per Si atom -12389.364409 kJ/mol
# Density = 1.950708 g / cm^3
# Si number density = 19.551584 Si / 1000 Ang^3
#
#
#
# Elastic Constant Matrix: (Units=GPa)
#
#
# Indices 1 2 3 4 5 6 
#
# 1 134.2702 41.2286 21.2407 10.6854 13.4674 25.0144
# 2 41.2286 73.6068 34.0645 2.2573 0.8876 24.9069
# 3 21.2407 34.0645 85.7243 5.6426 2.1090 21.8674
# 4 10.6854 2.2573 5.6426 43.1280 11.0858 5.3840
# 5 13.4674 0.8876 2.1090 11.0858 21.4997 3.9284
# 6 25.0144 24.9069 21.8674 5.3840 3.9284 28.9691
#
#
#
# Elastic Compliance Matrix: (Units=1/GPa)
#
#
# Indices 1 2 3 4 5 6 
#
# 1 0.010086 -0.004232 0.000537 -0.000448 -0.005106 -0.004700
# 2 -0.004232 0.022392 -0.004769 0.001070 0.003969 -0.012735
# 3 0.000537 -0.004769 0.015507 -0.001001 0.000304 -0.007924
# 4 -0.000448 0.001070 -0.001001 0.027118 -0.013092 -0.003042
# 5 -0.005106 0.003969 0.000304 -0.013092 0.057097 -0.004543
# 6 -0.004700 -0.012735 -0.007924 -0.003042 -0.004543 0.056690
#
#
# Mechanical properties :
#
#
# Convention : Reuss Voigt Hill
#
# Bulk Modulus (GPa) = 32.19979 54.07434 43.13706
# Shear Modulus (GPa) = 23.13005 31.85718 27.49362
#
# Velocity S-wave (km/s) = 3.44325 4.04095 3.75401
# Velocity P-wave (km/s) = 5.68444 7.03489 6.39541
#
# Compressibility (1/GPa) = 0.03105611
#
# Stress axis : x y z
#
# Youngs Moduli (GPa) = 99.15206 44.65973 64.48679
#
# Poissons Ratio (x) = 0.18899 -0.03460
# Poissons Ratio (y) = 0.41960 0.30752
# Poissons Ratio (z) = -0.05320 0.21297
#
# Static dielectric constant tensor:
#      x y z
#    x 3.649570 0.218860 0.227260 
#    y 0.218860 3.317570 -0.020190 
#    z 0.227260 -0.020190 3.521730 
# 
# 
# High freq. dielectric constant tensor:
#      x y z
#    x 1.762630 0.023870 0.004440 
#    y 0.023870 1.737830 -0.004380 
#    z 0.004440 -0.004380 1.766350 
# 
# From -- ./inp_files/214809.got.cif
#   From: 2010.06.25/outbox.cif.g09.slc.cpg/sg2_108_cif.got.tgz:214809.got - 2010.06.27 13:26:56.
