data_PCOD8044375
_publ_section_title
;
Structure prediction by ZEFSAII (Michael W. Deem and Ramdas Pophale) SiO2 
 PCOD8044375
Probable space group: P -1
;
_chemical_formula_sum "Si O2"
_cell_formula_units_Z 16
_cell_length_a 5.289122
_cell_length_b 9.338280
_cell_length_c 19.358844
_cell_angle_alpha 107.381887
_cell_angle_beta 115.497939
_cell_angle_gamma 58.308646
_cell_volume 731.055993
_symmetry_space_group_name_H-M "P -1"
_symmetry_group_IT_number 2
_symmetry_cell_setting 'triclinic'
loop_
_space_group_symop_operation_xyz
x,y,z
-x,-y,-z
loop_
_atom_site_type_symbol
_atom_site_label
_atom_site_fract_x
_atom_site_fract_y
_atom_site_fract_z
Si Si1 0.229787 0.635931 0.224243
Si Si2 0.809044 0.644582 0.280121
Si Si3 0.649958 0.253079 0.257504
Si Si4 0.057404 0.331661 0.948338
Si Si5 0.254877 0.144861 0.578011
Si Si6 0.017411 0.275019 0.186545
Si Si7 0.778578 0.194528 0.007745
Si Si8 0.972319 0.936394 0.594088
O O1 0.426875 0.736620 0.242738
O O2 0.479832 0.456641 0.260928
O O3 0.957695 0.739364 0.263324
O O4 0.064583 0.612537 0.134614
O O5 0.880546 0.672557 0.372348
O O6 0.943409 0.455938 0.237926
O O7 0.396406 0.180086 0.208141
O O8 0.900272 0.177379 0.212732
O O9 0.828970 0.196270 0.342700
O O10 0.430719 0.209096 0.973948
O O11 0.000000 0.500000 0.000000
O O12 0.842331 0.266044 0.954341
O O13 0.631074 0.072082 0.601486
O O14 0.179644 0.020438 0.599679
O O15 0.081010 0.173706 0.488475
O O16 0.850650 0.285504 0.094790
O O17 0.000000 0.000000 0.000000
#
# Coordination Sequence:
#
# PCOD8044375 Si02
#       8
#     2   2   2   2   2   2   2   2
#     4  10  21  37  60  89 121 153 215 258 302 373
#     4  10  19  38  59  88 121 160 204 262 296 368
#     4  10  20  39  61  88 120 163 202 258 314 362
#     4  12  23  43  71  92 125 181 218 267 329 388
#     4  10  21  38  60  89 126 163 207 249 305 389
#     4  10  21  40  63  84 126 158 204 261 308 373
#     4  12  26  46  66  97 134 170 219 275 334 384
#     4  10  21  39  60  89 127 166 198 252 318 370
#
# _framework density 21.886149
#
# number of rings (size 3 to 8) (size 9 to 14) (size 15 to 20)
#    0.000    1.500    0.000    6.750    0.000    0.000 
#   13.500    5.000    0.000    0.000    0.000    0.000 
#    0.000    0.000    0.000    0.000    0.000    0.000 
#
# Total GULP energy -198213.285507 kJ/mol
# GULP energy per Si atom -12388.330344 kJ/mol
# Density = 2.183634 g / cm^3
# Si number density = 21.886149 Si / 1000 Ang^3
#
#
#
# Elastic Constant Matrix: (Units=GPa)
#
#
# Indices 1 2 3 4 5 6 
#
# 1 199.7060 -2.1618 36.1573 -8.2144 -8.2948 2.7858
# 2 -2.1618 45.4887 24.8603 0.8208 -8.1002 -8.4600
# 3 36.1573 24.8603 134.7610 -14.5907 -8.0715 -14.8101
# 4 -8.2144 0.8208 -14.5907 31.7225 -0.6191 -5.1201
# 5 -8.2948 -8.1002 -8.0715 -0.6191 35.5779 0.2302
# 6 2.7858 -8.4600 -14.8101 -5.1201 0.2302 16.4412
#
#
#
# Elastic Compliance Matrix: (Units=1/GPa)
#
#
# Indices 1 2 3 4 5 6 
#
# 1 0.005422 0.001064 -0.001760 0.000285 0.001124 -0.001883
# 2 0.001064 0.026996 -0.003899 -0.000502 0.005437 0.009966
# 3 -0.001760 -0.003899 0.010364 0.005962 0.001096 0.009469
# 4 0.000285 -0.000502 0.005962 0.037064 0.001842 0.016580
# 5 0.001124 0.005437 0.001096 0.001842 0.029864 0.003750
# 6 -0.001883 0.009966 0.009469 0.016580 0.003750 0.079910
#
#
# Mechanical properties :
#
#
# Convention : Reuss Voigt Hill
#
# Bulk Modulus (GPa) = 29.76892 55.29635 42.53264
# Shear Modulus (GPa) = 23.80882 38.15498 30.98190
#
# Velocity S-wave (km/s) = 3.30183 4.17986 3.76652
# Velocity P-wave (km/s) = 5.30730 6.97247 6.19607
#
# Compressibility (1/GPa) = 0.03359208
#
# Stress axis : x y z
#
# Youngs Moduli (GPa) = 184.42628 37.04315 96.49053
#
# Poissons Ratio (x) = -0.03943 0.16982
# Poissons Ratio (y) = -0.19629 0.37622
# Poissons Ratio (z) = 0.32458 0.14443
#
# Static dielectric constant tensor:
#      x y z
#    x 5.578590 0.070670 -0.107610 
#    y 0.070670 3.394810 0.214090 
#    z -0.107610 0.214090 3.995790 
# 
# 
# High freq. dielectric constant tensor:
#      x y z
#    x 1.908530 0.003340 -0.005740 
#    y 0.003340 1.812460 0.016800 
#    z -0.005740 0.016800 1.865960 
# 
# From -- ./inp_files/548191.got.cif
#   From: 2010.06.25/outbox.cif.g09.slc.cpg/sg2_275_cif.got.tgz:548191.got - 2010.06.27 13:26:56.
