data_PCOD8044128
_publ_section_title
;
Structure prediction by ZEFSAII (Michael W. Deem and Ramdas Pophale) SiO2 
 PCOD8044128
Probable space group: P -1
;
_chemical_formula_sum "Si O2"
_cell_formula_units_Z 14
_cell_length_a 12.289722
_cell_length_b 11.611164
_cell_length_c 12.076558
_cell_angle_alpha 75.935287
_cell_angle_beta 70.510046
_cell_angle_gamma 138.579906
_cell_volume 657.807676
_symmetry_space_group_name_H-M "P -1"
_symmetry_group_IT_number 2
_symmetry_cell_setting 'triclinic'
loop_
_space_group_symop_operation_xyz
x,y,z
-x,-y,-z
loop_
_atom_site_type_symbol
_atom_site_label
_atom_site_fract_x
_atom_site_fract_y
_atom_site_fract_z
Si Si1 0.369760 0.638992 0.460325
Si Si2 0.121460 0.569860 0.723681
Si Si3 0.765893 0.041642 0.046807
Si Si4 0.859757 0.782728 0.011908
Si Si5 0.246326 0.139482 0.361361
Si Si6 0.310524 0.994031 0.536058
Si Si7 0.906279 0.028271 0.788882
O O1 0.161917 0.549702 0.591621
O O2 0.634783 0.883053 0.396573
O O3 0.214543 0.367424 0.584982
O O4 0.467693 0.756005 0.274179
O O5 0.397568 0.794812 0.649434
O O6 0.085052 0.677827 0.704434
O O7 0.850168 0.257181 0.944205
O O8 0.994529 0.207087 0.018634
O O9 0.752598 0.954704 0.957672
O O10 0.917367 0.897701 0.845866
O O11 0.534904 0.468402 0.221230
O O12 0.000000 0.000000 0.000000
O O13 0.191296 0.969291 0.489675
O O14 0.266255 0.120500 0.230536
O O15 0.000000 0.000000 0.500000
#
# Coordination Sequence:
#
# PCOD8044128 Si02
#       7
#     2   2   2   2   2   2   2
#     4   9  19  36  64  91 112 159 208 246 292 362
#     4   8  17  37  64  89 117 150 215 255 288 340
#     4  10  19  37  64  88 119 156 212 244 297 353
#     4  10  21  40  60  86 119 162 206 248 288 353
#     4  12  25  39  61  91 129 161 196 245 320 365
#     4   9  18  40  60  88 120 159 204 254 295 349
#     4  10  23  37  55  87 130 155 192 253 304 359
#
# _framework density 21.282817000000001
#
# number of rings (size 3 to 8) (size 9 to 14) (size 15 to 20)
#    0.857    1.429    1.429    1.286    6.000    1.143 
#    0.000    2.857    0.000    1.714    0.000    0.000 
#    0.000    0.000    0.000    0.000    0.000    0.000 
#
# Total GULP energy -173457.081691 kJ/mol
# GULP energy per Si atom -12389.791549 kJ/mol
# Density = 2.123438 g / cm^3
# Si number density = 21.282817 Si / 1000 Ang^3
#
#
#
# Elastic Constant Matrix: (Units=GPa)
#
#
# Indices 1 2 3 4 5 6 
#
# 1 101.7179 34.9302 43.4963 -7.3162 32.6235 -2.8056
# 2 34.9302 82.0375 36.3744 2.6184 16.3491 3.7145
# 3 43.4963 36.3744 141.9730 -1.1505 26.8350 -11.9424
# 4 -7.3162 2.6184 -1.1505 33.5709 -0.2356 12.9458
# 5 32.6235 16.3491 26.8350 -0.2356 36.2818 -6.2042
# 6 -2.8056 3.7145 -11.9424 12.9458 -6.2042 18.7399
#
#
#
# Elastic Compliance Matrix: (Units=1/GPa)
#
#
# Indices 1 2 3 4 5 6 
#
# 1 0.016222 -0.003283 -0.002283 0.006272 -0.012551 -0.006864
# 2 -0.003283 0.015868 -0.003055 0.000647 -0.003144 -0.007072
# 3 -0.002283 -0.003055 0.009590 -0.002864 -0.002389 0.007563
# 4 0.006272 0.000647 -0.002864 0.044357 -0.009474 -0.034793
# 5 -0.012551 -0.003144 -0.002389 -0.009474 0.045172 0.018721
# 6 -0.006864 -0.007072 0.007563 -0.034793 0.018721 0.088789
#
#
# Mechanical properties :
#
#
# Convention : Reuss Voigt Hill
#
# Bulk Modulus (GPa) = 40.91899 61.70334 51.31116
# Shear Modulus (GPa) = 20.37609 31.78036 26.07822
#
# Velocity S-wave (km/s) = 3.09754 3.86844 3.50425
# Velocity P-wave (km/s) = 5.66225 7.00058 6.36668
#
# Compressibility (1/GPa) = 0.02443853
#
# Stress axis : x y z
#
# Youngs Moduli (GPa) = 61.64437 63.02000 104.27199
#
# Poissons Ratio (x) = 0.20689 0.23805
# Poissons Ratio (y) = 0.20237 0.31856
# Poissons Ratio (z) = 0.14073 0.19253
#
# Static dielectric constant tensor:
#      x y z
#    x 3.814870 -0.016330 0.498350 
#    y -0.016330 3.733930 -0.010850 
#    z 0.498350 -0.010850 3.829320 
# 
# 
# High freq. dielectric constant tensor:
#      x y z
#    x 1.802250 -0.012490 0.033530 
#    y -0.012490 1.820040 -0.005900 
#    z 0.033530 -0.005900 1.832320 
# 
# From -- ./inp_files/427985.got.cif
#   From: 2010.06.25/outbox.cif.g09.slc.cpg/sg2_214_cif.got.tgz:427985.got - 2010.06.27 13:26:56.
